MODEL 1
REMARK VINA RESULT:     -11.2      0.000      0.000
REMARK SMILES Cc1cc(Cl)cc2c1O[C@H](C(F)(F)F)C(C(=O)OCCOC(=O)c1ccc(-c3c4nc(c(-c5c(F)cc(S(=O)(=O)[O-])cc5F)c5ccc([nH]5)c(-c5c(F)cc(S(=O)(=O)[O-])cc5F)c5nc(c(-c6c(F)cc(S(=O)(=O)[O-])cc6F)c6ccc3[nH]6)C=C5)C=C4)cc1)=C2
REMARK SMILES IDX 20 1 19 2 18 3 16 4 17 5 15 6 1 7 2 8 3 9 8 10 4 11 7 12
REMARK SMILES IDX 9 13 5 14 6 15 90 16 10 17 11 18 12 19 13 20 14 21 21 22
REMARK SMILES IDX 22 23 23 24 24 25 25 26 89 27 26 28 88 29 27 30 28 31 29 32
REMARK SMILES IDX 82 33 30 34 87 35 81 36 83 37 31 38 86 39 80 40 79 41 32 43
REMARK SMILES IDX 66 44 45 45 65 46 46 47 49 48 64 49 84 50 47 51 48 52 63 54
REMARK SMILES IDX 85 55 50 56 33 57 34 58 43 59 35 60 36 61 42 62 44 63 37 64
REMARK SMILES IDX 38 65 39 66 40 67 41 68 67 69 68 70 77 71 69 72 70 73 76 74
REMARK SMILES IDX 78 75 71 76 72 77 73 78 74 79 75 80 51 81 52 82 61 83 53 84
REMARK SMILES IDX 54 85 60 86 62 87 55 88 56 89 57 90 58 91 59 92
REMARK H PARENT 83 42 49 53
REMARK Flexibility Score: inf
ROOT
ATOM      1  C   UNL A   1      32.730  28.213  27.238  1.00  0.00     0.275 C 
ENDROOT
BRANCH   1   2
ATOM      2  C   UNL A   1      32.153  28.253  25.821  1.00  0.00     0.275 C 
BRANCH   2   3
ATOM      3  O   UNL A   1      32.026  26.926  25.263  1.00  0.00    -0.459 OA
BRANCH   3   4
ATOM      4  C   UNL A   1      33.020  26.554  24.424  1.00  0.00     0.338 C 
ATOM      5  O   UNL A   1      33.472  27.211  23.498  1.00  0.00    -0.246 OA
BRANCH   4   6
ATOM      6  C   UNL A   1      33.519  25.210  24.762  1.00  0.00     0.087 C 
ATOM      7  C   UNL A   1      34.399  20.123  24.859  1.00  0.00     0.048 C 
ATOM      8  C   UNL A   1      35.160  21.378  25.172  1.00  0.00    -0.007 A 
ATOM      9  C   UNL A   1      36.523  21.264  25.505  1.00  0.00     0.027 A 
ATOM     10  C   UNL A   1      34.579  22.652  25.092  1.00  0.00     0.131 A 
ATOM     11  C   UNL A   1      37.284  22.398  25.775  1.00  0.00     0.042 A 
ATOM     12  C   UNL A   1      35.357  23.783  25.349  1.00  0.00     0.019 A 
ATOM     13  O   UNL A   1      33.249  22.728  24.773  1.00  0.00    -0.475 OA
ATOM     14  Cl  UNL A   1      38.949  22.240  26.173  1.00  0.00    -0.084 Cl
ATOM     15  C   UNL A   1      36.707  23.659  25.704  1.00  0.00     0.032 A 
ATOM     16  C   UNL A   1      34.780  25.102  25.192  1.00  0.00     0.027 C 
ATOM     17  C   UNL A   1      32.658  24.022  24.459  1.00  0.00     0.316 C 
BRANCH  17  18
ATOM     18  C   UNL A   1      32.207  24.009  22.990  1.00  0.00     0.430 C 
ATOM     19  F   UNL A   1      31.255  24.947  22.761  1.00  0.00    -0.167 F 
ATOM     20  F   UNL A   1      33.231  24.295  22.149  1.00  0.00    -0.167 F 
ATOM     21  F   UNL A   1      31.697  22.814  22.618  1.00  0.00    -0.167 F 
ENDBRANCH  17  18
ENDBRANCH   4   6
ENDBRANCH   3   4
ENDBRANCH   2   3
ENDBRANCH   1   2
BRANCH   1  22
ATOM     22  O   UNL A   1      34.128  28.554  27.227  1.00  0.00    -0.458 OA
BRANCH  22  23
ATOM     23  C   UNL A   1      34.419  29.767  27.749  1.00  0.00     0.338 C 
ATOM     24  O   UNL A   1      33.645  30.688  27.951  1.00  0.00    -0.246 OA
BRANCH  23  25
ATOM     25  C   UNL A   1      35.829  29.825  28.162  1.00  0.00     0.060 A 
ATOM     26  C   UNL A   1      36.778  30.144  27.202  1.00  0.00     0.016 A 
ATOM     27  C   UNL A   1      36.229  29.342  29.404  1.00  0.00     0.016 A 
ATOM     28  C   UNL A   1      38.109  29.796  27.401  1.00  0.00     0.010 A 
ATOM     29  C   UNL A   1      37.593  29.159  29.664  1.00  0.00     0.010 A 
ATOM     30  C   UNL A   1      38.549  29.323  28.644  1.00  0.00    -0.014 A 
BRANCH  30  31
ATOM     31  C   UNL A   1      39.990  28.985  28.857  1.00  0.00     0.031 A 
ATOM     32  C   UNL A   1      40.937  30.005  29.445  1.00  0.00     0.074 A 
ATOM     33  C   UNL A   1      40.452  27.753  28.551  1.00  0.00     0.049 A 
ATOM     34  N   UNL A   1      42.244  29.970  29.527  1.00  0.00    -0.248 NA
ATOM     35  C   UNL A   1      40.342  31.233  29.999  1.00  0.00     0.031 C 
ATOM     36  C   UNL A   1      39.644  26.646  28.029  1.00  0.00     0.029 A 
ATOM     37  N   UNL A   1      41.712  27.212  28.647  1.00  0.00    -0.354 N 
ATOM     38  C   UNL A   1      42.627  31.186  30.087  1.00  0.00     0.074 A 
ATOM     39  C   UNL A   1      41.417  31.945  30.309  1.00  0.00     0.031 C 
ATOM     40  C   UNL A   1      40.406  25.551  27.916  1.00  0.00     0.029 A 
ATOM     41  C   UNL A   1      41.783  25.902  28.231  1.00  0.00     0.049 A 
ATOM     42  H   UNL A   1      42.489  27.715  28.980  1.00  0.00     0.167 HD
ATOM     43  C   UNL A   1      43.874  31.622  30.392  1.00  0.00     0.037 A 
ATOM     44  C   UNL A   1      42.839  25.082  28.063  1.00  0.00     0.037 A 
ATOM     45  C   UNL A   1      45.066  30.831  30.219  1.00  0.00     0.049 A 
ATOM     46  C   UNL A   1      44.216  25.610  28.342  1.00  0.00     0.074 A 
ATOM     47  C   UNL A   1      46.377  31.177  30.500  1.00  0.00     0.029 A 
ATOM     48  N   UNL A   1      45.093  29.528  29.740  1.00  0.00    -0.354 N 
ATOM     49  N   UNL A   1      44.566  26.787  28.801  1.00  0.00    -0.248 NA
ATOM     50  C   UNL A   1      45.342  24.713  28.056  1.00  0.00     0.031 C 
ATOM     51  C   UNL A   1      47.199  30.104  30.147  1.00  0.00     0.029 A 
ATOM     52  C   UNL A   1      46.398  29.066  29.697  1.00  0.00     0.049 A 
ATOM     53  H   UNL A   1      44.302  29.009  29.470  1.00  0.00     0.167 HD
ATOM     54  C   UNL A   1      45.954  26.769  28.869  1.00  0.00     0.074 A 
ATOM     55  C   UNL A   1      46.377  25.456  28.426  1.00  0.00     0.031 C 
ATOM     56  C   UNL A   1      46.801  27.754  29.256  1.00  0.00     0.037 A 
BRANCH  43  57
ATOM     57  C   UNL A   1      44.027  33.023  30.925  1.00  0.00     0.058 A 
ATOM     58  C   UNL A   1      44.092  33.296  32.300  1.00  0.00     0.135 A 
ATOM     59  C   UNL A   1      44.178  34.105  30.040  1.00  0.00     0.135 A 
ATOM     60  F   UNL A   1      43.938  32.306  33.193  1.00  0.00    -0.206 F 
ATOM     61  C   UNL A   1      44.280  34.589  32.778  1.00  0.00     0.059 A 
ATOM     62  C   UNL A   1      44.396  35.403  30.494  1.00  0.00     0.059 A 
ATOM     63  F   UNL A   1      44.124  33.905  28.713  1.00  0.00    -0.206 F 
ATOM     64  C   UNL A   1      44.436  35.636  31.867  1.00  0.00     0.060 A 
BRANCH  64  65
ATOM     65  S   UNL A   1      44.697  37.304  32.508  1.00  0.00     0.124 S 
ATOM     66  O   UNL A   1      46.143  37.449  32.365  1.00  0.00    -0.237 OA
ATOM     67  O   UNL A   1      43.888  38.115  31.604  1.00  0.00    -0.237 OA
ATOM     68  O   UNL A   1      44.211  37.224  33.881  1.00  0.00    -0.744 OA
ENDBRANCH  64  65
ENDBRANCH  43  57
BRANCH  44  69
ATOM     69  C   UNL A   1      42.630  23.694  27.564  1.00  0.00     0.058 A 
ATOM     70  C   UNL A   1      42.660  23.409  26.192  1.00  0.00     0.135 A 
ATOM     71  C   UNL A   1      42.433  22.620  28.448  1.00  0.00     0.135 A 
ATOM     72  F   UNL A   1      42.831  24.401  25.304  1.00  0.00    -0.206 F 
ATOM     73  C   UNL A   1      42.501  22.113  25.712  1.00  0.00     0.059 A 
ATOM     74  C   UNL A   1      42.306  21.311  27.995  1.00  0.00     0.059 A 
ATOM     75  F   UNL A   1      42.407  22.834  29.774  1.00  0.00    -0.206 F 
ATOM     76  C   UNL A   1      42.334  21.069  26.624  1.00  0.00     0.060 A 
BRANCH  76  77
ATOM     77  S   UNL A   1      42.188  19.383  25.992  1.00  0.00     0.124 S 
ATOM     78  O   UNL A   1      40.753  19.283  25.750  1.00  0.00    -0.237 OA
ATOM     79  O   UNL A   1      43.034  19.430  24.804  1.00  0.00    -0.237 OA
ATOM     80  O   UNL A   1      42.702  18.566  27.087  1.00  0.00    -0.744 OA
ENDBRANCH  76  77
ENDBRANCH  44  69
BRANCH  56  81
ATOM     81  C   UNL A   1      48.272  27.447  29.238  1.00  0.00     0.058 A 
ATOM     82  C   UNL A   1      49.075  27.767  28.133  1.00  0.00     0.135 A 
ATOM     83  C   UNL A   1      48.897  26.886  30.365  1.00  0.00     0.135 A 
ATOM     84  F   UNL A   1      48.524  28.295  27.028  1.00  0.00    -0.206 F 
ATOM     85  C   UNL A   1      50.445  27.530  28.140  1.00  0.00     0.059 A 
ATOM     86  C   UNL A   1      50.269  26.667  30.404  1.00  0.00     0.059 A 
ATOM     87  F   UNL A   1      48.174  26.569  31.450  1.00  0.00    -0.206 F 
ATOM     88  C   UNL A   1      51.034  26.986  29.282  1.00  0.00     0.060 A 
BRANCH  88  89
ATOM     89  S   UNL A   1      52.821  26.729  29.289  1.00  0.00     0.124 S 
ATOM     90  O   UNL A   1      53.005  25.972  30.522  1.00  0.00    -0.237 OA
ATOM     91  O   UNL A   1      53.031  25.986  28.050  1.00  0.00    -0.237 OA
ATOM     92  O   UNL A   1      53.361  28.085  29.300  1.00  0.00    -0.744 OA
ENDBRANCH  88  89
ENDBRANCH  56  81
ENDBRANCH  30  31
ENDBRANCH  23  25
ENDBRANCH  22  23
ENDBRANCH   1  22
TORSDOF 15
ENDMDL
MODEL 2
REMARK VINA RESULT:     -11.1      5.189     10.617
REMARK SMILES Cc1cc(Cl)cc2c1O[C@H](C(F)(F)F)C(C(=O)OCCOC(=O)c1ccc(-c3c4nc(c(-c5c(F)cc(S(=O)(=O)[O-])cc5F)c5ccc([nH]5)c(-c5c(F)cc(S(=O)(=O)[O-])cc5F)c5nc(c(-c6c(F)cc(S(=O)(=O)[O-])cc6F)c6ccc3[nH]6)C=C5)C=C4)cc1)=C2
REMARK SMILES IDX 20 1 19 2 18 3 16 4 17 5 15 6 1 7 2 8 3 9 8 10 4 11 7 12
REMARK SMILES IDX 9 13 5 14 6 15 90 16 10 17 11 18 12 19 13 20 14 21 21 22
REMARK SMILES IDX 22 23 23 24 24 25 25 26 89 27 26 28 88 29 27 30 28 31 29 32
REMARK SMILES IDX 82 33 30 34 87 35 81 36 83 37 31 38 86 39 80 40 79 41 32 43
REMARK SMILES IDX 66 44 45 45 65 46 46 47 49 48 64 49 84 50 47 51 48 52 63 54
REMARK SMILES IDX 85 55 50 56 33 57 34 58 43 59 35 60 36 61 42 62 44 63 37 64
REMARK SMILES IDX 38 65 39 66 40 67 41 68 67 69 68 70 77 71 69 72 70 73 76 74
REMARK SMILES IDX 78 75 71 76 72 77 73 78 74 79 75 80 51 81 52 82 61 83 53 84
REMARK SMILES IDX 54 85 60 86 62 87 55 88 56 89 57 90 58 91 59 92
REMARK H PARENT 83 42 49 53
REMARK Flexibility Score: inf
ROOT
ATOM      1  C   UNL A   1      39.694  22.123  26.320  1.00  0.00     0.275 C 
ENDROOT
BRANCH   1   2
ATOM      2  C   UNL A   1      38.363  21.706  25.692  1.00  0.00     0.275 C 
BRANCH   2   3
ATOM      3  O   UNL A   1      37.496  22.843  25.485  1.00  0.00    -0.459 OA
BRANCH   3   4
ATOM      4  C   UNL A   1      36.713  22.779  24.383  1.00  0.00     0.338 C 
ATOM      5  O   UNL A   1      37.043  22.365  23.281  1.00  0.00    -0.246 OA
BRANCH   4   6
ATOM      6  C   UNL A   1      35.360  23.288  24.667  1.00  0.00     0.087 C 
ATOM      7  C   UNL A   1      30.449  23.741  26.194  1.00  0.00     0.048 C 
ATOM      8  C   UNL A   1      31.642  24.639  26.044  1.00  0.00    -0.007 A 
ATOM      9  C   UNL A   1      31.537  25.967  26.498  1.00  0.00     0.027 A 
ATOM     10  C   UNL A   1      32.863  24.188  25.520  1.00  0.00     0.131 A 
ATOM     11  C   UNL A   1      32.623  26.834  26.410  1.00  0.00     0.042 A 
ATOM     12  C   UNL A   1      33.950  25.063  25.453  1.00  0.00     0.019 A 
ATOM     13  O   UNL A   1      32.930  22.893  25.081  1.00  0.00    -0.475 OA
ATOM     14  Cl  UNL A   1      32.478  28.450  26.977  1.00  0.00    -0.084 Cl
ATOM     15  C   UNL A   1      33.830  26.390  25.885  1.00  0.00     0.032 A 
ATOM     16  C   UNL A   1      35.233  24.579  24.986  1.00  0.00     0.027 C 
ATOM     17  C   UNL A   1      34.223  22.315  24.742  1.00  0.00     0.316 C 
BRANCH  17  18
ATOM     18  C   UNL A   1      34.520  21.171  25.725  1.00  0.00     0.430 C 
ATOM     19  F   UNL A   1      35.089  21.638  26.864  1.00  0.00    -0.167 F 
ATOM     20  F   UNL A   1      33.387  20.530  26.102  1.00  0.00    -0.167 F 
ATOM     21  F   UNL A   1      35.356  20.247  25.204  1.00  0.00    -0.167 F 
ENDBRANCH  17  18
ENDBRANCH   4   6
ENDBRANCH   3   4
ENDBRANCH   2   3
ENDBRANCH   1   2
BRANCH   1  22
ATOM     22  O   UNL A   1      39.538  23.331  27.087  1.00  0.00    -0.458 OA
BRANCH  22  23
ATOM     23  C   UNL A   1      40.555  24.214  26.966  1.00  0.00     0.338 C 
ATOM     24  O   UNL A   1      41.557  24.096  26.281  1.00  0.00    -0.246 OA
BRANCH  23  25
ATOM     25  C   UNL A   1      40.261  25.443  27.716  1.00  0.00     0.060 A 
ATOM     26  C   UNL A   1      41.106  26.531  27.546  1.00  0.00     0.016 A 
ATOM     27  C   UNL A   1      39.320  25.446  28.742  1.00  0.00     0.016 A 
ATOM     28  C   UNL A   1      41.154  27.529  28.512  1.00  0.00     0.010 A 
ATOM     29  C   UNL A   1      39.253  26.543  29.611  1.00  0.00     0.010 A 
ATOM     30  C   UNL A   1      40.212  27.572  29.548  1.00  0.00    -0.014 A 
BRANCH  30  31
ATOM     31  C   UNL A   1      40.251  28.670  30.561  1.00  0.00     0.031 A 
ATOM     32  C   UNL A   1      41.300  28.670  31.649  1.00  0.00     0.074 A 
ATOM     33  C   UNL A   1      39.366  29.688  30.495  1.00  0.00     0.049 A 
ATOM     34  N   UNL A   1      41.380  29.419  32.721  1.00  0.00    -0.248 NA
ATOM     35  C   UNL A   1      42.393  27.690  31.530  1.00  0.00     0.031 C 
ATOM     36  C   UNL A   1      38.333  29.854  29.468  1.00  0.00     0.029 A 
ATOM     37  N   UNL A   1      39.198  30.791  31.299  1.00  0.00    -0.354 N 
ATOM     38  C   UNL A   1      42.492  28.967  33.425  1.00  0.00     0.074 A 
ATOM     39  C   UNL A   1      43.047  27.866  32.669  1.00  0.00     0.031 C 
ATOM     40  C   UNL A   1      37.690  31.012  29.663  1.00  0.00     0.029 A 
ATOM     41  C   UNL A   1      38.170  31.614  30.898  1.00  0.00     0.049 A 
ATOM     42  H   UNL A   1      39.759  30.973  32.087  1.00  0.00     0.167 HD
ATOM     43  C   UNL A   1      43.005  29.433  34.590  1.00  0.00     0.037 A 
ATOM     44  C   UNL A   1      37.628  32.701  31.480  1.00  0.00     0.037 A 
ATOM     45  C   UNL A   1      42.476  30.570  35.302  1.00  0.00     0.049 A 
ATOM     46  C   UNL A   1      38.167  33.158  32.804  1.00  0.00     0.074 A 
ATOM     47  C   UNL A   1      42.923  31.125  36.488  1.00  0.00     0.029 A 
ATOM     48  N   UNL A   1      41.396  31.337  34.885  1.00  0.00    -0.354 N 
ATOM     49  N   UNL A   1      39.173  32.673  33.492  1.00  0.00    -0.248 NA
ATOM     50  C   UNL A   1      37.485  34.289  33.445  1.00  0.00     0.031 C 
ATOM     51  C   UNL A   1      42.087  32.197  36.812  1.00  0.00     0.029 A 
ATOM     52  C   UNL A   1      41.151  32.346  35.801  1.00  0.00     0.049 A 
ATOM     53  H   UNL A   1      40.882  31.186  34.060  1.00  0.00     0.167 HD
ATOM     54  C   UNL A   1      39.252  33.447  34.644  1.00  0.00     0.074 A 
ATOM     55  C   UNL A   1      38.207  34.445  34.548  1.00  0.00     0.031 C 
ATOM     56  C   UNL A   1      40.108  33.335  35.688  1.00  0.00     0.037 A 
BRANCH  43  57
ATOM     57  C   UNL A   1      44.185  28.711  35.188  1.00  0.00     0.058 A 
ATOM     58  C   UNL A   1      44.029  27.658  36.103  1.00  0.00     0.135 A 
ATOM     59  C   UNL A   1      45.492  29.038  34.789  1.00  0.00     0.135 A 
ATOM     60  F   UNL A   1      42.806  27.312  36.533  1.00  0.00    -0.206 F 
ATOM     61  C   UNL A   1      45.126  26.969  36.613  1.00  0.00     0.059 A 
ATOM     62  C   UNL A   1      46.602  28.344  35.263  1.00  0.00     0.059 A 
ATOM     63  F   UNL A   1      45.702  30.038  33.917  1.00  0.00    -0.206 F 
ATOM     64  C   UNL A   1      46.409  27.316  36.184  1.00  0.00     0.060 A 
BRANCH  64  65
ATOM     65  S   UNL A   1      47.816  26.398  36.844  1.00  0.00     0.124 S 
ATOM     66  O   UNL A   1      48.547  27.448  37.547  1.00  0.00    -0.237 OA
ATOM     67  O   UNL A   1      47.168  25.401  37.691  1.00  0.00    -0.237 OA
ATOM     68  O   UNL A   1      48.473  25.873  35.651  1.00  0.00    -0.744 OA
ENDBRANCH  64  65
ENDBRANCH  43  57
BRANCH  44  69
ATOM     69  C   UNL A   1      36.482  33.399  30.831  1.00  0.00     0.058 A 
ATOM     70  C   UNL A   1      35.190  33.316  31.367  1.00  0.00     0.135 A 
ATOM     71  C   UNL A   1      36.663  34.190  29.683  1.00  0.00     0.135 A 
ATOM     72  F   UNL A   1      34.962  32.562  32.453  1.00  0.00    -0.206 F 
ATOM     73  C   UNL A   1      34.117  33.989  30.791  1.00  0.00     0.059 A 
ATOM     74  C   UNL A   1      35.613  34.900  29.110  1.00  0.00     0.059 A 
ATOM     75  F   UNL A   1      37.882  34.314  29.134  1.00  0.00    -0.206 F 
ATOM     76  C   UNL A   1      34.342  34.787  29.668  1.00  0.00     0.060 A 
BRANCH  76  77
ATOM     77  S   UNL A   1      32.953  35.703  28.966  1.00  0.00     0.124 S 
ATOM     78  O   UNL A   1      32.348  34.700  28.095  1.00  0.00    -0.237 OA
ATOM     79  O   UNL A   1      32.189  36.058  30.157  1.00  0.00    -0.237 OA
ATOM     80  O   UNL A   1      33.596  36.823  28.285  1.00  0.00    -0.744 OA
ENDBRANCH  76  77
ENDBRANCH  44  69
BRANCH  56  81
ATOM     81  C   UNL A   1      39.966  34.328  36.807  1.00  0.00     0.058 A 
ATOM     82  C   UNL A   1      40.632  35.562  36.781  1.00  0.00     0.135 A 
ATOM     83  C   UNL A   1      39.103  34.068  37.885  1.00  0.00     0.135 A 
ATOM     84  F   UNL A   1      41.475  35.855  35.778  1.00  0.00    -0.206 F 
ATOM     85  C   UNL A   1      40.458  36.501  37.792  1.00  0.00     0.059 A 
ATOM     86  C   UNL A   1      38.892  35.004  38.892  1.00  0.00     0.059 A 
ATOM     87  F   UNL A   1      38.438  32.905  37.953  1.00  0.00    -0.206 F 
ATOM     88  C   UNL A   1      39.581  36.216  38.840  1.00  0.00     0.060 A 
BRANCH  88  89
ATOM     89  S   UNL A   1      39.333  37.465  40.118  1.00  0.00     0.124 S 
ATOM     90  O   UNL A   1      38.257  38.265  39.543  1.00  0.00    -0.237 OA
ATOM     91  O   UNL A   1      38.972  36.654  41.277  1.00  0.00    -0.237 OA
ATOM     92  O   UNL A   1      40.630  38.129  40.203  1.00  0.00    -0.744 OA
ENDBRANCH  88  89
ENDBRANCH  56  81
ENDBRANCH  30  31
ENDBRANCH  23  25
ENDBRANCH  22  23
ENDBRANCH   1  22
TORSDOF 15
ENDMDL
MODEL 3
REMARK VINA RESULT:     -11.1      2.259      3.128
REMARK SMILES Cc1cc(Cl)cc2c1O[C@H](C(F)(F)F)C(C(=O)OCCOC(=O)c1ccc(-c3c4nc(c(-c5c(F)cc(S(=O)(=O)[O-])cc5F)c5ccc([nH]5)c(-c5c(F)cc(S(=O)(=O)[O-])cc5F)c5nc(c(-c6c(F)cc(S(=O)(=O)[O-])cc6F)c6ccc3[nH]6)C=C5)C=C4)cc1)=C2
REMARK SMILES IDX 20 1 19 2 18 3 16 4 17 5 15 6 1 7 2 8 3 9 8 10 4 11 7 12
REMARK SMILES IDX 9 13 5 14 6 15 90 16 10 17 11 18 12 19 13 20 14 21 21 22
REMARK SMILES IDX 22 23 23 24 24 25 25 26 89 27 26 28 88 29 27 30 28 31 29 32
REMARK SMILES IDX 82 33 30 34 87 35 81 36 83 37 31 38 86 39 80 40 79 41 32 43
REMARK SMILES IDX 66 44 45 45 65 46 46 47 49 48 64 49 84 50 47 51 48 52 63 54
REMARK SMILES IDX 85 55 50 56 33 57 34 58 43 59 35 60 36 61 42 62 44 63 37 64
REMARK SMILES IDX 38 65 39 66 40 67 41 68 67 69 68 70 77 71 69 72 70 73 76 74
REMARK SMILES IDX 78 75 71 76 72 77 73 78 74 79 75 80 51 81 52 82 61 83 53 84
REMARK SMILES IDX 54 85 60 86 62 87 55 88 56 89 57 90 58 91 59 92
REMARK H PARENT 83 42 49 53
REMARK Flexibility Score: inf
ROOT
ATOM      1  C   UNL A   1      34.035  31.122  27.802  1.00  0.00     0.275 C 
ENDROOT
BRANCH   1   2
ATOM      2  C   UNL A   1      33.347  30.106  26.888  1.00  0.00     0.275 C 
BRANCH   2   3
ATOM      3  O   UNL A   1      34.160  28.927  26.700  1.00  0.00    -0.459 OA
BRANCH   3   4
ATOM      4  C   UNL A   1      33.893  28.213  25.582  1.00  0.00     0.338 C 
ATOM      5  O   UNL A   1      34.026  28.593  24.428  1.00  0.00    -0.246 OA
BRANCH   4   6
ATOM      6  C   UNL A   1      33.401  26.867  25.922  1.00  0.00     0.087 C 
ATOM      7  C   UNL A   1      30.429  22.706  26.644  1.00  0.00     0.048 C 
ATOM      8  C   UNL A   1      31.866  22.989  26.313  1.00  0.00    -0.007 A 
ATOM      9  C   UNL A   1      32.704  21.901  26.006  1.00  0.00     0.027 A 
ATOM     10  C   UNL A   1      32.382  24.292  26.248  1.00  0.00     0.131 A 
ATOM     11  C   UNL A   1      34.038  22.109  25.662  1.00  0.00     0.042 A 
ATOM     12  C   UNL A   1      33.717  24.489  25.887  1.00  0.00     0.019 A 
ATOM     13  O   UNL A   1      31.542  25.327  26.561  1.00  0.00    -0.475 OA
ATOM     14  Cl  UNL A   1      35.046  20.769  25.282  1.00  0.00    -0.084 Cl
ATOM     15  C   UNL A   1      34.551  23.398  25.606  1.00  0.00     0.032 A 
ATOM     16  C   UNL A   1      34.231  25.835  25.744  1.00  0.00     0.027 C 
ATOM     17  C   UNL A   1      31.959  26.697  26.293  1.00  0.00     0.316 C 
BRANCH  17  18
ATOM     18  C   UNL A   1      31.025  27.293  25.228  1.00  0.00     0.430 C 
ATOM     19  F   UNL A   1      31.489  27.050  23.977  1.00  0.00    -0.167 F 
ATOM     20  F   UNL A   1      29.787  26.744  25.286  1.00  0.00    -0.167 F 
ATOM     21  F   UNL A   1      30.884  28.630  25.355  1.00  0.00    -0.167 F 
ENDBRANCH  17  18
ENDBRANCH   4   6
ENDBRANCH   3   4
ENDBRANCH   2   3
ENDBRANCH   1   2
BRANCH   1  22
ATOM     22  O   UNL A   1      35.466  31.031  27.677  1.00  0.00    -0.458 OA
BRANCH  22  23
ATOM     23  C   UNL A   1      36.127  30.872  28.846  1.00  0.00     0.338 C 
ATOM     24  O   UNL A   1      35.772  31.246  29.951  1.00  0.00    -0.246 OA
BRANCH  23  25
ATOM     25  C   UNL A   1      37.342  30.069  28.645  1.00  0.00     0.060 A 
ATOM     26  C   UNL A   1      38.091  29.726  29.761  1.00  0.00     0.016 A 
ATOM     27  C   UNL A   1      37.859  29.865  27.369  1.00  0.00     0.016 A 
ATOM     28  C   UNL A   1      39.426  29.369  29.617  1.00  0.00     0.010 A 
ATOM     29  C   UNL A   1      39.148  29.335  27.226  1.00  0.00     0.010 A 
ATOM     30  C   UNL A   1      39.975  29.138  28.349  1.00  0.00    -0.014 A 
BRANCH  30  31
ATOM     31  C   UNL A   1      41.403  28.721  28.208  1.00  0.00     0.031 A 
ATOM     32  C   UNL A   1      42.516  29.725  28.395  1.00  0.00     0.074 A 
ATOM     33  C   UNL A   1      41.712  27.434  27.939  1.00  0.00     0.049 A 
ATOM     34  N   UNL A   1      43.793  29.604  28.128  1.00  0.00    -0.248 NA
ATOM     35  C   UNL A   1      42.148  31.044  28.937  1.00  0.00     0.031 C 
ATOM     36  C   UNL A   1      40.747  26.339  27.788  1.00  0.00     0.029 A 
ATOM     37  N   UNL A   1      42.927  26.816  27.758  1.00  0.00    -0.354 N 
ATOM     38  C   UNL A   1      44.365  30.840  28.415  1.00  0.00     0.074 A 
ATOM     39  C   UNL A   1      43.295  31.705  28.861  1.00  0.00     0.031 C 
ATOM     40  C   UNL A   1      41.403  25.186  27.607  1.00  0.00     0.029 A 
ATOM     41  C   UNL A   1      42.827  25.467  27.499  1.00  0.00     0.049 A 
ATOM     42  H   UNL A   1      43.786  27.293  27.810  1.00  0.00     0.167 HD
ATOM     43  C   UNL A   1      45.665  31.215  28.322  1.00  0.00     0.037 A 
ATOM     44  C   UNL A   1      43.762  24.561  27.154  1.00  0.00     0.037 A 
ATOM     45  C   UNL A   1      46.731  30.326  27.933  1.00  0.00     0.049 A 
ATOM     46  C   UNL A   1      45.183  25.013  26.989  1.00  0.00     0.074 A 
ATOM     47  C   UNL A   1      48.081  30.604  27.810  1.00  0.00     0.029 A 
ATOM     48  N   UNL A   1      46.571  28.982  27.623  1.00  0.00    -0.354 N 
ATOM     49  N   UNL A   1      45.694  26.204  27.194  1.00  0.00    -0.248 NA
ATOM     50  C   UNL A   1      46.150  24.012  26.522  1.00  0.00     0.031 C 
ATOM     51  C   UNL A   1      48.730  29.443  27.381  1.00  0.00     0.029 A 
ATOM     52  C   UNL A   1      47.794  28.425  27.289  1.00  0.00     0.049 A 
ATOM     53  H   UNL A   1      45.715  28.496  27.638  1.00  0.00     0.167 HD
ATOM     54  C   UNL A   1      47.046  26.092  26.890  1.00  0.00     0.074 A 
ATOM     55  C   UNL A   1      47.276  24.713  26.510  1.00  0.00     0.031 C 
ATOM     56  C   UNL A   1      48.007  27.048  26.916  1.00  0.00     0.037 A 
BRANCH  43  57
ATOM     57  C   UNL A   1      46.016  32.649  28.623  1.00  0.00     0.058 A 
ATOM     58  C   UNL A   1      46.391  33.071  29.908  1.00  0.00     0.135 A 
ATOM     59  C   UNL A   1      46.040  33.603  27.591  1.00  0.00     0.135 A 
ATOM     60  F   UNL A   1      46.372  32.209  30.936  1.00  0.00    -0.206 F 
ATOM     61  C   UNL A   1      46.758  34.390  30.163  1.00  0.00     0.059 A 
ATOM     62  C   UNL A   1      46.431  34.921  27.817  1.00  0.00     0.059 A 
ATOM     63  F   UNL A   1      45.691  33.257  26.342  1.00  0.00    -0.206 F 
ATOM     64  C   UNL A   1      46.780  35.307  29.109  1.00  0.00     0.060 A 
BRANCH  64  65
ATOM     65  S   UNL A   1      47.276  37.008  29.458  1.00  0.00     0.124 S 
ATOM     66  O   UNL A   1      46.105  37.515  30.165  1.00  0.00    -0.237 OA
ATOM     67  O   UNL A   1      48.475  36.822  30.269  1.00  0.00    -0.237 OA
ATOM     68  O   UNL A   1      47.500  37.577  28.133  1.00  0.00    -0.744 OA
ENDBRANCH  64  65
ENDBRANCH  43  57
BRANCH  44  69
ATOM     69  C   UNL A   1      43.367  23.147  26.898  1.00  0.00     0.058 A 
ATOM     70  C   UNL A   1      43.348  22.628  25.596  1.00  0.00     0.135 A 
ATOM     71  C   UNL A   1      43.035  22.278  27.952  1.00  0.00     0.135 A 
ATOM     72  F   UNL A   1      43.644  23.420  24.554  1.00  0.00    -0.206 F 
ATOM     73  C   UNL A   1      43.015  21.300  25.346  1.00  0.00     0.059 A 
ATOM     74  C   UNL A   1      42.732  20.939  27.729  1.00  0.00     0.059 A 
ATOM     75  F   UNL A   1      43.047  22.720  29.219  1.00  0.00    -0.206 F 
ATOM     76  C   UNL A   1      42.718  20.461  26.421  1.00  0.00     0.060 A 
BRANCH  76  77
ATOM     77  S   UNL A   1      42.345  18.726  26.087  1.00  0.00     0.124 S 
ATOM     78  O   UNL A   1      42.620  18.111  27.381  1.00  0.00    -0.237 OA
ATOM     79  O   UNL A   1      40.941  18.787  25.695  1.00  0.00    -0.237 OA
ATOM     80  O   UNL A   1      43.274  18.381  25.015  1.00  0.00    -0.744 OA
ENDBRANCH  76  77
ENDBRANCH  44  69
BRANCH  56  81
ATOM     81  C   UNL A   1      49.402  26.635  26.543  1.00  0.00     0.058 A 
ATOM     82  C   UNL A   1      50.253  26.006  27.464  1.00  0.00     0.135 A 
ATOM     83  C   UNL A   1      49.870  26.812  25.230  1.00  0.00     0.135 A 
ATOM     84  F   UNL A   1      49.856  25.822  28.734  1.00  0.00    -0.206 F 
ATOM     85  C   UNL A   1      51.524  25.577  27.101  1.00  0.00     0.059 A 
ATOM     86  C   UNL A   1      51.127  26.366  24.838  1.00  0.00     0.059 A 
ATOM     87  F   UNL A   1      49.093  27.403  24.309  1.00  0.00    -0.206 F 
ATOM     88  C   UNL A   1      51.950  25.755  25.783  1.00  0.00     0.060 A 
BRANCH  88  89
ATOM     89  S   UNL A   1      53.587  25.151  25.320  1.00  0.00     0.124 S 
ATOM     90  O   UNL A   1      54.427  25.758  26.346  1.00  0.00    -0.237 OA
ATOM     91  O   UNL A   1      53.419  23.704  25.410  1.00  0.00    -0.237 OA
ATOM     92  O   UNL A   1      53.772  25.672  23.969  1.00  0.00    -0.744 OA
ENDBRANCH  88  89
ENDBRANCH  56  81
ENDBRANCH  30  31
ENDBRANCH  23  25
ENDBRANCH  22  23
ENDBRANCH   1  22
TORSDOF 15
ENDMDL
