MODEL 1
REMARK VINA RESULT:     -11.9      0.000      0.000
REMARK SMILES Cc1ccccc1[C@@H](Cc1ncnn1C(C)C)C(=O)OCCOC(=O)c1ccc(-c2c3nc(c(-c4c(F)cc(S(=O)(=O)[O-])cc4F)c4ccc([nH]4)c(-c4c(F)cc(S(=O)(=O)[O-])cc4F)c4nc(c(-c5c(F)cc(S(=O)(=O)[O-])cc5F)c5ccc2[nH]5)C=C4)C=C3)cc1
REMARK SMILES IDX 21 1 20 2 18 3 19 4 8 5 7 6 1 7 2 8 3 9 4 10 6 11 5 12 9 13
REMARK SMILES IDX 10 14 11 15 14 16 12 17 13 18 15 19 16 20 17 21 22 22 23 23
REMARK SMILES IDX 24 24 25 25 26 26 27 27 91 28 28 29 90 30 29 31 30 32 31 33
REMARK SMILES IDX 84 34 32 35 89 36 83 37 85 38 33 39 88 40 82 41 81 42 34 44
REMARK SMILES IDX 68 45 47 46 67 47 48 48 51 49 66 50 86 51 49 52 50 53 65 55
REMARK SMILES IDX 87 56 52 57 35 58 36 59 45 60 37 61 38 62 44 63 46 64 39 65
REMARK SMILES IDX 40 66 41 67 42 68 43 69 69 70 70 71 79 72 71 73 72 74 78 75
REMARK SMILES IDX 80 76 73 77 74 78 75 79 76 80 77 81 53 82 54 83 63 84 55 85
REMARK SMILES IDX 56 86 62 87 64 88 57 89 58 90 59 91 60 92 61 93
REMARK H PARENT 85 43 51 54
REMARK Flexibility Score: inf
ROOT
ATOM      1  C   UNL A   1      31.820  28.707  26.319  1.00  0.00     0.274 C 
ENDROOT
BRANCH   1   2
ATOM      2  O   UNL A   1      32.570  27.493  26.441  1.00  0.00    -0.462 OA
BRANCH   2   3
ATOM      3  C   UNL A   1      31.780  26.420  26.298  1.00  0.00     0.314 C 
ATOM      4  O   UNL A   1      30.722  26.356  26.936  1.00  0.00    -0.252 OA
BRANCH   3   5
ATOM      5  C   UNL A   1      32.164  25.373  25.281  1.00  0.00     0.137 C 
BRANCH   5   6
ATOM      6  C   UNL A   1      32.841  24.141  25.885  1.00  0.00    -0.030 A 
ATOM      7  C   UNL A   1      35.192  24.395  24.729  1.00  0.00     0.044 C 
ATOM      8  C   UNL A   1      34.228  23.823  25.743  1.00  0.00    -0.047 A 
ATOM      9  C   UNL A   1      34.830  22.959  26.681  1.00  0.00     0.004 A 
ATOM     10  C   UNL A   1      34.086  22.373  27.696  1.00  0.00     0.000 A 
ATOM     11  C   UNL A   1      32.096  23.442  26.843  1.00  0.00     0.005 A 
ATOM     12  C   UNL A   1      32.715  22.589  27.754  1.00  0.00     0.000 A 
ENDBRANCH   5   6
BRANCH   5  13
ATOM     13  C   UNL A   1      30.957  25.280  24.302  1.00  0.00     0.097 C 
BRANCH  13  14
ATOM     14  C   UNL A   1      30.542  26.530  23.511  1.00  0.00     0.128 A 
ATOM     15  N   UNL A   1      29.350  27.056  23.730  1.00  0.00    -0.220 NA
ATOM     16  N   UNL A   1      31.224  27.373  22.579  1.00  0.00    -0.248 N 
ATOM     17  C   UNL A   1      29.316  28.145  22.931  1.00  0.00     0.246 A 
ATOM     18  N   UNL A   1      30.371  28.333  22.159  1.00  0.00    -0.159 NA
BRANCH  16  19
ATOM     19  C   UNL A   1      32.612  27.597  22.154  1.00  0.00     0.103 C 
ATOM     20  C   UNL A   1      33.444  28.399  23.120  1.00  0.00     0.033 C 
ATOM     21  C   UNL A   1      33.493  26.342  22.033  1.00  0.00     0.033 C 
ENDBRANCH  16  19
ENDBRANCH  13  14
ENDBRANCH   5  13
ENDBRANCH   3   5
ENDBRANCH   2   3
ENDBRANCH   1   2
BRANCH   1  22
ATOM     22  C   UNL A   1      32.272  29.701  27.377  1.00  0.00     0.275 C 
BRANCH  22  23
ATOM     23  O   UNL A   1      33.387  30.555  26.994  1.00  0.00    -0.458 OA
BRANCH  23  24
ATOM     24  C   UNL A   1      34.276  31.069  27.910  1.00  0.00     0.338 C 
ATOM     25  O   UNL A   1      33.986  31.875  28.776  1.00  0.00    -0.246 OA
BRANCH  24  26
ATOM     26  C   UNL A   1      35.520  30.200  27.924  1.00  0.00     0.060 A 
ATOM     27  C   UNL A   1      36.569  30.155  26.974  1.00  0.00     0.016 A 
ATOM     28  C   UNL A   1      35.799  29.693  29.159  1.00  0.00     0.016 A 
ATOM     29  C   UNL A   1      37.909  29.729  27.321  1.00  0.00     0.010 A 
ATOM     30  C   UNL A   1      37.118  29.614  29.538  1.00  0.00     0.010 A 
ATOM     31  C   UNL A   1      38.229  29.503  28.657  1.00  0.00    -0.014 A 
BRANCH  31  32
ATOM     32  C   UNL A   1      39.455  28.879  29.344  1.00  0.00     0.031 A 
ATOM     33  C   UNL A   1      39.975  27.388  29.261  1.00  0.00     0.074 A 
ATOM     34  C   UNL A   1      40.258  29.963  29.638  1.00  0.00     0.049 A 
ATOM     35  N   UNL A   1      41.111  26.984  29.766  1.00  0.00    -0.248 NA
ATOM     36  C   UNL A   1      39.391  26.221  28.566  1.00  0.00     0.031 C 
ATOM     37  C   UNL A   1      41.693  30.249  29.603  1.00  0.00     0.029 A 
ATOM     38  N   UNL A   1      39.763  31.251  29.933  1.00  0.00    -0.354 N 
ATOM     39  C   UNL A   1      41.615  25.888  29.000  1.00  0.00     0.074 A 
ATOM     40  C   UNL A   1      40.430  25.375  28.366  1.00  0.00     0.031 C 
ATOM     41  C   UNL A   1      41.924  31.500  30.075  1.00  0.00     0.029 A 
ATOM     42  C   UNL A   1      40.683  32.016  30.616  1.00  0.00     0.049 A 
ATOM     43  H   UNL A   1      38.864  31.566  29.680  1.00  0.00     0.167 HD
ATOM     44  C   UNL A   1      42.993  25.738  28.821  1.00  0.00     0.037 A 
ATOM     45  C   UNL A   1      40.284  32.183  31.910  1.00  0.00     0.037 A 
ATOM     46  C   UNL A   1      43.685  26.775  29.626  1.00  0.00     0.049 A 
ATOM     47  C   UNL A   1      40.973  31.069  32.728  1.00  0.00     0.074 A 
ATOM     48  C   UNL A   1      44.591  27.795  29.391  1.00  0.00     0.029 A 
ATOM     49  N   UNL A   1      43.241  26.988  30.912  1.00  0.00    -0.354 N 
ATOM     50  N   UNL A   1      41.896  30.269  32.237  1.00  0.00    -0.248 NA
ATOM     51  C   UNL A   1      40.743  30.774  34.132  1.00  0.00     0.031 C 
ATOM     52  C   UNL A   1      44.566  28.679  30.527  1.00  0.00     0.029 A 
ATOM     53  C   UNL A   1      43.707  28.152  31.477  1.00  0.00     0.049 A 
ATOM     54  H   UNL A   1      42.645  26.363  31.385  1.00  0.00     0.167 HD
ATOM     55  C   UNL A   1      42.335  29.354  33.140  1.00  0.00     0.074 A 
ATOM     56  C   UNL A   1      41.568  29.723  34.327  1.00  0.00     0.031 C 
ATOM     57  C   UNL A   1      43.282  28.392  32.854  1.00  0.00     0.037 A 
BRANCH  44  58
ATOM     58  C   UNL A   1      43.851  24.935  27.746  1.00  0.00     0.058 A 
ATOM     59  C   UNL A   1      43.429  24.922  26.383  1.00  0.00     0.135 A 
ATOM     60  C   UNL A   1      44.948  24.065  27.974  1.00  0.00     0.135 A 
ATOM     61  F   UNL A   1      42.433  25.717  25.966  1.00  0.00    -0.206 F 
ATOM     62  C   UNL A   1      43.987  24.117  25.367  1.00  0.00     0.059 A 
ATOM     63  C   UNL A   1      45.555  23.263  26.951  1.00  0.00     0.059 A 
ATOM     64  F   UNL A   1      45.476  23.943  29.201  1.00  0.00    -0.206 F 
ATOM     65  C   UNL A   1      45.062  23.293  25.647  1.00  0.00     0.060 A 
BRANCH  65  66
ATOM     66  S   UNL A   1      45.823  22.378  24.264  1.00  0.00     0.124 S 
ATOM     67  O   UNL A   1      46.777  23.343  23.726  1.00  0.00    -0.237 OA
ATOM     68  O   UNL A   1      46.416  21.227  24.942  1.00  0.00    -0.237 OA
ATOM     69  O   UNL A   1      44.697  22.061  23.391  1.00  0.00    -0.744 OA
ENDBRANCH  65  66
ENDBRANCH  44  58
BRANCH  45  70
ATOM     70  C   UNL A   1      38.823  32.721  31.848  1.00  0.00     0.058 A 
ATOM     71  C   UNL A   1      37.824  31.868  32.415  1.00  0.00     0.135 A 
ATOM     72  C   UNL A   1      38.463  34.086  31.810  1.00  0.00     0.135 A 
ATOM     73  F   UNL A   1      38.082  30.558  32.562  1.00  0.00    -0.206 F 
ATOM     74  C   UNL A   1      36.633  32.336  32.999  1.00  0.00     0.059 A 
ATOM     75  C   UNL A   1      37.249  34.574  32.370  1.00  0.00     0.059 A 
ATOM     76  F   UNL A   1      39.337  34.998  31.357  1.00  0.00    -0.206 F 
ATOM     77  C   UNL A   1      36.352  33.697  32.986  1.00  0.00     0.060 A 
BRANCH  77  78
ATOM     78  S   UNL A   1      34.891  34.289  33.908  1.00  0.00     0.124 S 
ATOM     79  O   UNL A   1      34.871  35.707  33.571  1.00  0.00    -0.237 OA
ATOM     80  O   UNL A   1      33.815  33.491  33.327  1.00  0.00    -0.237 OA
ATOM     81  O   UNL A   1      35.212  33.976  35.296  1.00  0.00    -0.744 OA
ENDBRANCH  77  78
ENDBRANCH  45  70
BRANCH  57  82
ATOM     82  C   UNL A   1      43.817  27.430  33.895  1.00  0.00     0.058 A 
ATOM     83  C   UNL A   1      42.998  26.454  34.461  1.00  0.00     0.135 A 
ATOM     84  C   UNL A   1      45.139  27.482  34.415  1.00  0.00     0.135 A 
ATOM     85  F   UNL A   1      41.669  26.480  34.283  1.00  0.00    -0.206 F 
ATOM     86  C   UNL A   1      43.507  25.447  35.269  1.00  0.00     0.059 A 
ATOM     87  C   UNL A   1      45.661  26.516  35.255  1.00  0.00     0.059 A 
ATOM     88  F   UNL A   1      46.000  28.475  34.166  1.00  0.00    -0.206 F 
ATOM     89  C   UNL A   1      44.851  25.466  35.628  1.00  0.00     0.060 A 
BRANCH  89  90
ATOM     90  S   UNL A   1      45.502  24.158  36.661  1.00  0.00     0.124 S 
ATOM     91  O   UNL A   1      44.776  22.992  36.166  1.00  0.00    -0.237 OA
ATOM     92  O   UNL A   1      46.922  24.212  36.332  1.00  0.00    -0.237 OA
ATOM     93  O   UNL A   1      45.152  24.582  38.014  1.00  0.00    -0.744 OA
ENDBRANCH  89  90
ENDBRANCH  57  82
ENDBRANCH  31  32
ENDBRANCH  24  26
ENDBRANCH  23  24
ENDBRANCH  22  23
ENDBRANCH   1  22
TORSDOF 18
ENDMDL
MODEL 2
REMARK VINA RESULT:     -11.5      1.367      2.575
REMARK SMILES Cc1ccccc1[C@@H](Cc1ncnn1C(C)C)C(=O)OCCOC(=O)c1ccc(-c2c3nc(c(-c4c(F)cc(S(=O)(=O)[O-])cc4F)c4ccc([nH]4)c(-c4c(F)cc(S(=O)(=O)[O-])cc4F)c4nc(c(-c5c(F)cc(S(=O)(=O)[O-])cc5F)c5ccc2[nH]5)C=C4)C=C3)cc1
REMARK SMILES IDX 21 1 20 2 18 3 19 4 8 5 7 6 1 7 2 8 3 9 4 10 6 11 5 12 9 13
REMARK SMILES IDX 10 14 11 15 14 16 12 17 13 18 15 19 16 20 17 21 22 22 23 23
REMARK SMILES IDX 24 24 25 25 26 26 27 27 91 28 28 29 90 30 29 31 30 32 31 33
REMARK SMILES IDX 84 34 32 35 89 36 83 37 85 38 33 39 88 40 82 41 81 42 34 44
REMARK SMILES IDX 68 45 47 46 67 47 48 48 51 49 66 50 86 51 49 52 50 53 65 55
REMARK SMILES IDX 87 56 52 57 35 58 36 59 45 60 37 61 38 62 44 63 46 64 39 65
REMARK SMILES IDX 40 66 41 67 42 68 43 69 69 70 70 71 79 72 71 73 72 74 78 75
REMARK SMILES IDX 80 76 73 77 74 78 75 79 76 80 77 81 53 82 54 83 63 84 55 85
REMARK SMILES IDX 56 86 62 87 64 88 57 89 58 90 59 91 60 92 61 93
REMARK H PARENT 85 43 51 54
REMARK Flexibility Score: inf
ROOT
ATOM      1  C   UNL A   1      32.213  29.663  26.039  1.00  0.00     0.274 C 
ENDROOT
BRANCH   1   2
ATOM      2  O   UNL A   1      32.714  28.456  26.629  1.00  0.00    -0.462 OA
BRANCH   2   3
ATOM      3  C   UNL A   1      31.714  27.620  26.940  1.00  0.00     0.314 C 
ATOM      4  O   UNL A   1      31.045  27.827  27.960  1.00  0.00    -0.252 OA
BRANCH   3   5
ATOM      5  C   UNL A   1      31.376  26.510  25.975  1.00  0.00     0.137 C 
BRANCH   5   6
ATOM      6  C   UNL A   1      31.623  26.867  24.508  1.00  0.00    -0.030 A 
ATOM      7  C   UNL A   1      34.134  26.096  24.347  1.00  0.00     0.044 C 
ATOM      8  C   UNL A   1      32.804  26.529  23.775  1.00  0.00    -0.047 A 
ATOM      9  C   UNL A   1      32.745  26.490  22.367  1.00  0.00     0.004 A 
ATOM     10  C   UNL A   1      31.583  26.830  21.687  1.00  0.00     0.000 A 
ATOM     11  C   UNL A   1      30.507  27.320  23.794  1.00  0.00     0.005 A 
ATOM     12  C   UNL A   1      30.478  27.278  22.401  1.00  0.00     0.000 A 
ENDBRANCH   5   6
BRANCH   5  13
ATOM     13  C   UNL A   1      31.919  25.206  26.631  1.00  0.00     0.097 C 
BRANCH  13  14
ATOM     14  C   UNL A   1      31.081  23.923  26.540  1.00  0.00     0.128 A 
ATOM     15  N   UNL A   1      29.981  23.827  27.267  1.00  0.00    -0.220 NA
ATOM     16  N   UNL A   1      31.170  22.747  25.732  1.00  0.00    -0.248 N 
ATOM     17  C   UNL A   1      29.464  22.626  26.928  1.00  0.00     0.246 A 
ATOM     18  N   UNL A   1      30.176  21.903  26.083  1.00  0.00    -0.159 NA
BRANCH  16  19
ATOM     19  C   UNL A   1      31.887  22.334  24.518  1.00  0.00     0.103 C 
ATOM     20  C   UNL A   1      31.559  23.139  23.289  1.00  0.00     0.033 C 
ATOM     21  C   UNL A   1      33.415  22.508  24.542  1.00  0.00     0.033 C 
ENDBRANCH  16  19
ENDBRANCH  13  14
ENDBRANCH   5  13
ENDBRANCH   3   5
ENDBRANCH   2   3
ENDBRANCH   1   2
BRANCH   1  22
ATOM     22  C   UNL A   1      32.499  30.841  26.956  1.00  0.00     0.275 C 
BRANCH  22  23
ATOM     23  O   UNL A   1      33.893  31.254  27.027  1.00  0.00    -0.458 OA
BRANCH  23  24
ATOM     24  C   UNL A   1      34.564  31.400  28.220  1.00  0.00     0.338 C 
ATOM     25  O   UNL A   1      34.121  31.981  29.194  1.00  0.00    -0.246 OA
BRANCH  24  26
ATOM     26  C   UNL A   1      35.716  30.413  28.256  1.00  0.00     0.060 A 
ATOM     27  C   UNL A   1      36.646  30.112  27.231  1.00  0.00     0.016 A 
ATOM     28  C   UNL A   1      36.082  30.070  29.524  1.00  0.00     0.016 A 
ATOM     29  C   UNL A   1      37.971  29.600  27.513  1.00  0.00     0.010 A 
ATOM     30  C   UNL A   1      37.421  29.906  29.785  1.00  0.00     0.010 A 
ATOM     31  C   UNL A   1      38.414  29.545  28.832  1.00  0.00    -0.014 A 
BRANCH  31  32
ATOM     32  C   UNL A   1      39.644  28.902  29.492  1.00  0.00     0.031 A 
ATOM     33  C   UNL A   1      40.149  27.407  29.385  1.00  0.00     0.074 A 
ATOM     34  C   UNL A   1      40.463  29.975  29.784  1.00  0.00     0.049 A 
ATOM     35  N   UNL A   1      41.289  26.986  29.866  1.00  0.00    -0.248 NA
ATOM     36  C   UNL A   1      39.542  26.252  28.687  1.00  0.00     0.031 C 
ATOM     37  C   UNL A   1      41.900  30.248  29.728  1.00  0.00     0.029 A 
ATOM     38  N   UNL A   1      39.985  31.264  30.100  1.00  0.00    -0.354 N 
ATOM     39  C   UNL A   1      41.770  25.894  29.080  1.00  0.00     0.074 A 
ATOM     40  C   UNL A   1      40.569  25.399  28.462  1.00  0.00     0.031 C 
ATOM     41  C   UNL A   1      42.151  31.491  30.209  1.00  0.00     0.029 A 
ATOM     42  C   UNL A   1      40.924  32.014  30.776  1.00  0.00     0.049 A 
ATOM     43  H   UNL A   1      39.086  31.590  29.866  1.00  0.00     0.167 HD
ATOM     44  C   UNL A   1      43.143  25.734  28.877  1.00  0.00     0.037 A 
ATOM     45  C   UNL A   1      40.548  32.170  32.078  1.00  0.00     0.037 A 
ATOM     46  C   UNL A   1      43.858  26.755  29.681  1.00  0.00     0.049 A 
ATOM     47  C   UNL A   1      41.240  31.042  32.872  1.00  0.00     0.074 A 
ATOM     48  C   UNL A   1      44.770  27.769  29.441  1.00  0.00     0.029 A 
ATOM     49  N   UNL A   1      43.438  26.958  30.977  1.00  0.00    -0.354 N 
ATOM     50  N   UNL A   1      42.147  30.238  32.358  1.00  0.00    -0.248 NA
ATOM     51  C   UNL A   1      41.030  30.734  34.277  1.00  0.00     0.031 C 
ATOM     52  C   UNL A   1      44.773  28.641  30.587  1.00  0.00     0.029 A 
ATOM     53  C   UNL A   1      43.924  28.113  31.545  1.00  0.00     0.049 A 
ATOM     54  H   UNL A   1      42.844  26.335  31.453  1.00  0.00     0.167 HD
ATOM     55  C   UNL A   1      42.592  29.310  33.244  1.00  0.00     0.074 A 
ATOM     56  C   UNL A   1      41.849  29.673  34.448  1.00  0.00     0.031 C 
ATOM     57  C   UNL A   1      43.525  28.341  32.932  1.00  0.00     0.037 A 
BRANCH  44  58
ATOM     58  C   UNL A   1      43.976  24.933  27.780  1.00  0.00     0.058 A 
ATOM     59  C   UNL A   1      43.746  25.200  26.397  1.00  0.00     0.135 A 
ATOM     60  C   UNL A   1      44.854  23.836  27.973  1.00  0.00     0.135 A 
ATOM     61  F   UNL A   1      42.979  26.232  26.015  1.00  0.00    -0.206 F 
ATOM     62  C   UNL A   1      44.278  24.451  25.326  1.00  0.00     0.059 A 
ATOM     63  C   UNL A   1      45.434  23.082  26.901  1.00  0.00     0.059 A 
ATOM     64  F   UNL A   1      45.180  23.437  29.211  1.00  0.00    -0.206 F 
ATOM     65  C   UNL A   1      45.135  23.395  25.575  1.00  0.00     0.060 A 
BRANCH  65  66
ATOM     66  S   UNL A   1      45.894  22.550  24.148  1.00  0.00     0.124 S 
ATOM     67  O   UNL A   1      46.823  23.554  23.637  1.00  0.00    -0.237 OA
ATOM     68  O   UNL A   1      46.518  21.385  24.770  1.00  0.00    -0.237 OA
ATOM     69  O   UNL A   1      44.762  22.248  23.277  1.00  0.00    -0.744 OA
ENDBRANCH  65  66
ENDBRANCH  44  58
BRANCH  45  70
ATOM     70  C   UNL A   1      39.091  32.723  32.046  1.00  0.00     0.058 A 
ATOM     71  C   UNL A   1      38.090  31.860  32.594  1.00  0.00     0.135 A 
ATOM     72  C   UNL A   1      38.743  34.092  32.056  1.00  0.00     0.135 A 
ATOM     73  F   UNL A   1      38.337  30.543  32.695  1.00  0.00    -0.206 F 
ATOM     74  C   UNL A   1      36.907  32.319  33.203  1.00  0.00     0.059 A 
ATOM     75  C   UNL A   1      37.538  34.571  32.642  1.00  0.00     0.059 A 
ATOM     76  F   UNL A   1      39.621  35.010  31.625  1.00  0.00    -0.206 F 
ATOM     77  C   UNL A   1      36.639  33.682  33.237  1.00  0.00     0.060 A 
BRANCH  77  78
ATOM     78  S   UNL A   1      35.191  34.256  34.190  1.00  0.00     0.124 S 
ATOM     79  O   UNL A   1      35.589  33.960  35.560  1.00  0.00    -0.237 OA
ATOM     80  O   UNL A   1      35.137  35.675  33.844  1.00  0.00    -0.237 OA
ATOM     81  O   UNL A   1      34.094  33.451  33.665  1.00  0.00    -0.744 OA
ENDBRANCH  77  78
ENDBRANCH  45  70
BRANCH  57  82
ATOM     82  C   UNL A   1      44.069  27.364  33.954  1.00  0.00     0.058 A 
ATOM     83  C   UNL A   1      45.435  27.299  34.231  1.00  0.00     0.135 A 
ATOM     84  C   UNL A   1      43.269  26.416  34.647  1.00  0.00     0.135 A 
ATOM     85  F   UNL A   1      46.327  27.922  33.448  1.00  0.00    -0.206 F 
ATOM     86  C   UNL A   1      45.934  26.553  35.289  1.00  0.00     0.059 A 
ATOM     87  C   UNL A   1      43.748  25.629  35.677  1.00  0.00     0.059 A 
ATOM     88  F   UNL A   1      41.985  26.172  34.360  1.00  0.00    -0.206 F 
ATOM     89  C   UNL A   1      45.075  25.751  36.032  1.00  0.00     0.060 A 
BRANCH  89  90
ATOM     90  S   UNL A   1      45.724  24.801  37.401  1.00  0.00     0.124 S 
ATOM     91  O   UNL A   1      47.163  24.878  37.167  1.00  0.00    -0.237 OA
ATOM     92  O   UNL A   1      45.222  25.560  38.541  1.00  0.00    -0.237 OA
ATOM     93  O   UNL A   1      45.134  23.480  37.214  1.00  0.00    -0.744 OA
ENDBRANCH  89  90
ENDBRANCH  57  82
ENDBRANCH  31  32
ENDBRANCH  24  26
ENDBRANCH  23  24
ENDBRANCH  22  23
ENDBRANCH   1  22
TORSDOF 18
ENDMDL
MODEL 3
REMARK VINA RESULT:     -11.4      1.642      2.345
REMARK SMILES Cc1ccccc1[C@@H](Cc1ncnn1C(C)C)C(=O)OCCOC(=O)c1ccc(-c2c3nc(c(-c4c(F)cc(S(=O)(=O)[O-])cc4F)c4ccc([nH]4)c(-c4c(F)cc(S(=O)(=O)[O-])cc4F)c4nc(c(-c5c(F)cc(S(=O)(=O)[O-])cc5F)c5ccc2[nH]5)C=C4)C=C3)cc1
REMARK SMILES IDX 21 1 20 2 18 3 19 4 8 5 7 6 1 7 2 8 3 9 4 10 6 11 5 12 9 13
REMARK SMILES IDX 10 14 11 15 14 16 12 17 13 18 15 19 16 20 17 21 22 22 23 23
REMARK SMILES IDX 24 24 25 25 26 26 27 27 91 28 28 29 90 30 29 31 30 32 31 33
REMARK SMILES IDX 84 34 32 35 89 36 83 37 85 38 33 39 88 40 82 41 81 42 34 44
REMARK SMILES IDX 68 45 47 46 67 47 48 48 51 49 66 50 86 51 49 52 50 53 65 55
REMARK SMILES IDX 87 56 52 57 35 58 36 59 45 60 37 61 38 62 44 63 46 64 39 65
REMARK SMILES IDX 40 66 41 67 42 68 43 69 69 70 70 71 79 72 71 73 72 74 78 75
REMARK SMILES IDX 80 76 73 77 74 78 75 79 76 80 77 81 53 82 54 83 63 84 55 85
REMARK SMILES IDX 56 86 62 87 64 88 57 89 58 90 59 91 60 92 61 93
REMARK H PARENT 85 43 51 54
REMARK Flexibility Score: inf
ROOT
ATOM      1  C   UNL A   1      31.989  27.423  26.812  1.00  0.00     0.274 C 
ENDROOT
BRANCH   1   2
ATOM      2  O   UNL A   1      32.783  26.396  26.206  1.00  0.00    -0.462 OA
BRANCH   2   3
ATOM      3  C   UNL A   1      32.088  25.257  26.084  1.00  0.00     0.314 C 
ATOM      4  O   UNL A   1      31.425  24.844  27.043  1.00  0.00    -0.252 OA
BRANCH   3   5
ATOM      5  C   UNL A   1      32.058  24.572  24.739  1.00  0.00     0.137 C 
BRANCH   5   6
ATOM      6  C   UNL A   1      32.745  23.205  24.723  1.00  0.00    -0.030 A 
ATOM      7  C   UNL A   1      35.240  24.033  24.829  1.00  0.00     0.044 C 
ATOM      8  C   UNL A   1      34.145  22.995  24.921  1.00  0.00    -0.047 A 
ATOM      9  C   UNL A   1      34.593  21.725  25.338  1.00  0.00     0.004 A 
ATOM     10  C   UNL A   1      33.706  20.669  25.500  1.00  0.00     0.000 A 
ATOM     11  C   UNL A   1      31.894  22.094  24.779  1.00  0.00     0.005 A 
ATOM     12  C   UNL A   1      32.364  20.847  25.187  1.00  0.00     0.000 A 
ENDBRANCH   5   6
BRANCH   5  13
ATOM     13  C   UNL A   1      30.621  24.803  24.185  1.00  0.00     0.097 C 
BRANCH  13  14
ATOM     14  C   UNL A   1      30.293  26.140  23.501  1.00  0.00     0.128 A 
ATOM     15  N   UNL A   1      29.245  26.829  23.920  1.00  0.00    -0.220 NA
ATOM     16  N   UNL A   1      30.948  26.915  22.495  1.00  0.00    -0.248 N 
ATOM     17  C   UNL A   1      29.263  27.949  23.164  1.00  0.00     0.246 A 
ATOM     18  N   UNL A   1      30.204  28.012  22.240  1.00  0.00    -0.159 NA
BRANCH  16  19
ATOM     19  C   UNL A   1      32.273  26.946  21.861  1.00  0.00     0.103 C 
ATOM     20  C   UNL A   1      33.408  27.287  22.791  1.00  0.00     0.033 C 
ATOM     21  C   UNL A   1      32.788  25.608  21.303  1.00  0.00     0.033 C 
ENDBRANCH  16  19
ENDBRANCH  13  14
ENDBRANCH   5  13
ENDBRANCH   3   5
ENDBRANCH   2   3
ENDBRANCH   1   2
BRANCH   1  22
ATOM     22  C   UNL A   1      32.531  28.790  26.422  1.00  0.00     0.275 C 
BRANCH  22  23
ATOM     23  O   UNL A   1      32.911  29.650  27.533  1.00  0.00    -0.458 OA
BRANCH  23  24
ATOM     24  C   UNL A   1      33.420  30.916  27.350  1.00  0.00     0.338 C 
ATOM     25  O   UNL A   1      32.747  31.929  27.298  1.00  0.00    -0.246 OA
BRANCH  24  26
ATOM     26  C   UNL A   1      34.912  30.886  27.624  1.00  0.00     0.060 A 
ATOM     27  C   UNL A   1      35.757  31.959  27.998  1.00  0.00     0.016 A 
ATOM     28  C   UNL A   1      35.380  29.630  27.878  1.00  0.00     0.016 A 
ATOM     29  C   UNL A   1      36.986  31.756  28.737  1.00  0.00     0.010 A 
ATOM     30  C   UNL A   1      36.350  29.489  28.842  1.00  0.00     0.010 A 
ATOM     31  C   UNL A   1      37.280  30.490  29.237  1.00  0.00    -0.014 A 
BRANCH  31  32
ATOM     32  C   UNL A   1      38.542  29.889  29.877  1.00  0.00     0.031 A 
ATOM     33  C   UNL A   1      39.269  28.529  29.529  1.00  0.00     0.074 A 
ATOM     34  C   UNL A   1      39.169  30.975  30.456  1.00  0.00     0.049 A 
ATOM     35  N   UNL A   1      40.422  28.170  30.030  1.00  0.00    -0.248 NA
ATOM     36  C   UNL A   1      38.892  27.477  28.560  1.00  0.00     0.031 C 
ATOM     37  C   UNL A   1      40.549  31.439  30.599  1.00  0.00     0.029 A 
ATOM     38  N   UNL A   1      38.483  32.096  30.970  1.00  0.00    -0.354 N 
ATOM     39  C   UNL A   1      41.114  27.339  29.096  1.00  0.00     0.074 A 
ATOM     40  C   UNL A   1      40.048  26.832  28.275  1.00  0.00     0.031 C 
ATOM     41  C   UNL A   1      40.578  32.576  31.338  1.00  0.00     0.029 A 
ATOM     42  C   UNL A   1      39.250  32.803  31.871  1.00  0.00     0.049 A 
ATOM     43  H   UNL A   1      37.565  32.344  30.716  1.00  0.00     0.167 HD
ATOM     44  C   UNL A   1      42.507  27.405  29.005  1.00  0.00     0.037 A 
ATOM     45  C   UNL A   1      38.763  32.634  33.135  1.00  0.00     0.037 A 
ATOM     46  C   UNL A   1      43.003  28.320  30.061  1.00  0.00     0.049 A 
ATOM     47  C   UNL A   1      39.556  31.464  33.756  1.00  0.00     0.074 A 
ATOM     48  C   UNL A   1      43.769  29.472  30.119  1.00  0.00     0.029 A 
ATOM     49  N   UNL A   1      42.466  28.191  31.323  1.00  0.00    -0.354 N 
ATOM     50  N   UNL A   1      40.607  30.911  33.187  1.00  0.00    -0.248 NA
ATOM     51  C   UNL A   1      39.294  30.844  35.044  1.00  0.00     0.031 C 
ATOM     52  C   UNL A   1      43.560  30.078  31.409  1.00  0.00     0.029 A 
ATOM     53  C   UNL A   1      42.733  29.254  32.154  1.00  0.00     0.049 A 
ATOM     54  H   UNL A   1      41.938  27.409  31.605  1.00  0.00     0.167 HD
ATOM     55  C   UNL A   1      41.121  29.885  33.913  1.00  0.00     0.074 A 
ATOM     56  C   UNL A   1      40.247  29.888  35.084  1.00  0.00     0.031 C 
ATOM     57  C   UNL A   1      42.206  29.133  33.512  1.00  0.00     0.037 A 
BRANCH  44  58
ATOM     58  C   UNL A   1      43.526  26.968  27.860  1.00  0.00     0.058 A 
ATOM     59  C   UNL A   1      44.173  25.699  27.949  1.00  0.00     0.135 A 
ATOM     60  C   UNL A   1      44.025  27.748  26.786  1.00  0.00     0.135 A 
ATOM     61  F   UNL A   1      43.802  24.803  28.875  1.00  0.00    -0.206 F 
ATOM     62  C   UNL A   1      45.219  25.261  27.109  1.00  0.00     0.059 A 
ATOM     63  C   UNL A   1      45.062  27.312  25.899  1.00  0.00     0.059 A 
ATOM     64  F   UNL A   1      43.537  28.976  26.554  1.00  0.00    -0.206 F 
ATOM     65  C   UNL A   1      45.659  26.063  26.072  1.00  0.00     0.060 A 
BRANCH  65  66
ATOM     66  S   UNL A   1      46.921  25.387  24.942  1.00  0.00     0.124 S 
ATOM     67  O   UNL A   1      46.215  24.288  24.290  1.00  0.00    -0.237 OA
ATOM     68  O   UNL A   1      47.217  26.533  24.083  1.00  0.00    -0.237 OA
ATOM     69  O   UNL A   1      48.010  24.989  25.829  1.00  0.00    -0.744 OA
ENDBRANCH  65  66
ENDBRANCH  44  58
BRANCH  45  70
ATOM     70  C   UNL A   1      37.246  32.985  33.066  1.00  0.00     0.058 A 
ATOM     71  C   UNL A   1      36.932  34.381  33.097  1.00  0.00     0.135 A 
ATOM     72  C   UNL A   1      36.255  32.184  32.458  1.00  0.00     0.135 A 
ATOM     73  F   UNL A   1      37.831  35.248  33.594  1.00  0.00    -0.206 F 
ATOM     74  C   UNL A   1      35.801  34.945  32.478  1.00  0.00     0.059 A 
ATOM     75  C   UNL A   1      35.090  32.734  31.852  1.00  0.00     0.059 A 
ATOM     76  F   UNL A   1      36.456  30.866  32.312  1.00  0.00    -0.206 F 
ATOM     77  C   UNL A   1      34.884  34.116  31.843  1.00  0.00     0.060 A 
BRANCH  77  78
ATOM     78  S   UNL A   1      33.527  34.890  30.898  1.00  0.00     0.124 S 
ATOM     79  O   UNL A   1      32.448  34.916  31.877  1.00  0.00    -0.237 OA
ATOM     80  O   UNL A   1      34.093  36.191  30.553  1.00  0.00    -0.237 OA
ATOM     81  O   UNL A   1      33.334  33.983  29.772  1.00  0.00    -0.744 OA
ENDBRANCH  77  78
ENDBRANCH  45  70
BRANCH  57  82
ATOM     82  C   UNL A   1      42.815  28.043  34.370  1.00  0.00     0.058 A 
ATOM     83  C   UNL A   1      42.138  26.845  34.597  1.00  0.00     0.135 A 
ATOM     84  C   UNL A   1      44.057  28.170  35.049  1.00  0.00     0.135 A 
ATOM     85  F   UNL A   1      40.846  26.709  34.265  1.00  0.00    -0.206 F 
ATOM     86  C   UNL A   1      42.748  25.763  35.217  1.00  0.00     0.059 A 
ATOM     87  C   UNL A   1      44.670  27.122  35.710  1.00  0.00     0.059 A 
ATOM     88  F   UNL A   1      44.744  29.315  35.137  1.00  0.00    -0.206 F 
ATOM     89  C   UNL A   1      44.031  25.902  35.735  1.00  0.00     0.060 A 
BRANCH  89  90
ATOM     90  S   UNL A   1      44.815  24.500  36.523  1.00  0.00     0.124 S 
ATOM     91  O   UNL A   1      44.419  24.676  37.917  1.00  0.00    -0.237 OA
ATOM     92  O   UNL A   1      44.188  23.387  35.818  1.00  0.00    -0.237 OA
ATOM     93  O   UNL A   1      46.235  24.701  36.249  1.00  0.00    -0.744 OA
ENDBRANCH  89  90
ENDBRANCH  57  82
ENDBRANCH  31  32
ENDBRANCH  24  26
ENDBRANCH  23  24
ENDBRANCH  22  23
ENDBRANCH   1  22
TORSDOF 18
ENDMDL
