MODEL 1
REMARK VINA RESULT:     -10.3      0.000      0.000
REMARK SMILES CCCOc1ccc([C@H]([NH3+])CC(=O)OCCOC(=O)c2ccc(-c3c4nc(c(-c5c(F)cc(S(=O)(=O)[O-])cc5F)c5ccc([nH]5)c(-c5c(F)cc(S(=O)(=O)[O-])cc5F)c5nc(c(-c6c(F)cc(S(=O)(=O)[O-])cc6F)c6ccc3[nH]6)C=C5)C=C4)cc2)cc1
REMARK SMILES IDX 15 1 14 2 12 3 13 4 11 5 9 6 8 7 5 8 6 9 87 10 7 11 86 12
REMARK SMILES IDX 4 13 3 14 2 15 1 16 10 17 16 21 17 22 18 23 19 24 20 25
REMARK SMILES IDX 21 26 85 27 22 28 84 29 23 30 24 31 25 32 78 33 26 34 83 35
REMARK SMILES IDX 77 36 79 37 27 38 82 39 76 40 75 41 28 43 62 44 41 45 61 46
REMARK SMILES IDX 42 47 45 48 60 49 80 50 43 51 44 52 59 54 81 55 46 56 29 57
REMARK SMILES IDX 30 58 39 59 31 60 32 61 38 62 40 63 33 64 34 65 35 66 36 67
REMARK SMILES IDX 37 68 63 69 64 70 73 71 65 72 66 73 72 74 74 75 67 76 68 77
REMARK SMILES IDX 69 78 70 79 71 80 47 81 48 82 57 83 49 84 50 85 56 86 58 87
REMARK SMILES IDX 51 88 52 89 53 90 54 91 55 92
REMARK H PARENT 10 18 10 19 10 20 79 42 45 53
REMARK Flexibility Score: inf
ROOT
ATOM      1  C   UNL A   1      37.979  22.341  25.395  1.00  0.00     0.274 C 
ENDROOT
BRANCH   1   2
ATOM      2  O   UNL A   1      36.590  22.227  25.036  1.00  0.00    -0.462 OA
BRANCH   2   3
ATOM      3  C   UNL A   1      36.177  22.952  23.969  1.00  0.00     0.312 C 
ATOM      4  O   UNL A   1      36.670  22.877  22.848  1.00  0.00    -0.252 OA
BRANCH   3   5
ATOM      5  C   UNL A   1      35.070  23.931  24.278  1.00  0.00     0.192 C 
BRANCH   5   6
ATOM      6  C   UNL A   1      33.651  23.523  23.854  1.00  0.00     0.223 C 
BRANCH   6   7
ATOM      7  C   UNL A   1      33.227  22.136  24.346  1.00  0.00     0.010 A 
ATOM      8  C   UNL A   1      32.551  19.529  25.153  1.00  0.00     0.119 A 
ATOM      9  C   UNL A   1      32.531  19.857  23.802  1.00  0.00     0.047 A 
ATOM     10  C   UNL A   1      32.931  20.472  26.100  1.00  0.00     0.047 A 
ATOM     11  C   UNL A   1      32.857  21.158  23.402  1.00  0.00     0.014 A 
ATOM     12  C   UNL A   1      33.261  21.768  25.701  1.00  0.00     0.014 A 
BRANCH   8  13
ATOM     13  O   UNL A   1      32.298  18.255  25.573  1.00  0.00    -0.494 OA
BRANCH  13  14
ATOM     14  C   UNL A   1      32.801  17.266  24.662  1.00  0.00     0.229 C 
BRANCH  14  15
ATOM     15  C   UNL A   1      33.447  16.104  25.421  1.00  0.00     0.038 C 
ATOM     16  C   UNL A   1      34.955  16.040  25.213  1.00  0.00     0.007 C 
ENDBRANCH  14  15
ENDBRANCH  13  14
ENDBRANCH   8  13
ENDBRANCH   6   7
BRANCH   6  17
ATOM     17  N   UNL A   1      33.534  23.541  22.386  1.00  0.00    -0.351 N 
ATOM     18  H   UNL A   1      33.032  22.709  22.075  1.00  0.00     0.345 HD
ATOM     19  H   UNL A   1      34.466  23.549  21.971  1.00  0.00     0.345 HD
ATOM     20  H   UNL A   1      33.025  24.374  22.095  1.00  0.00     0.345 HD
ENDBRANCH   6  17
ENDBRANCH   5   6
ENDBRANCH   3   5
ENDBRANCH   2   3
ENDBRANCH   1   2
BRANCH   1  21
ATOM     21  C   UNL A   1      38.272  23.697  26.039  1.00  0.00     0.275 C 
BRANCH  21  22
ATOM     22  O   UNL A   1      39.249  23.585  27.090  1.00  0.00    -0.458 OA
BRANCH  22  23
ATOM     23  C   UNL A   1      40.364  24.335  26.930  1.00  0.00     0.338 C 
ATOM     24  O   UNL A   1      41.247  24.186  26.104  1.00  0.00    -0.246 OA
BRANCH  23  25
ATOM     25  C   UNL A   1      40.319  25.470  27.861  1.00  0.00     0.060 A 
ATOM     26  C   UNL A   1      41.388  26.371  27.868  1.00  0.00     0.016 A 
ATOM     27  C   UNL A   1      39.261  25.608  28.761  1.00  0.00     0.016 A 
ATOM     28  C   UNL A   1      41.401  27.425  28.781  1.00  0.00     0.010 A 
ATOM     29  C   UNL A   1      39.275  26.665  29.672  1.00  0.00     0.010 A 
ATOM     30  C   UNL A   1      40.347  27.574  29.691  1.00  0.00    -0.014 A 
BRANCH  30  31
ATOM     31  C   UNL A   1      40.365  28.667  30.692  1.00  0.00     0.031 A 
ATOM     32  C   UNL A   1      41.292  28.582  31.870  1.00  0.00     0.074 A 
ATOM     33  C   UNL A   1      39.524  29.708  30.559  1.00  0.00     0.049 A 
ATOM     34  N   UNL A   1      41.358  29.348  32.926  1.00  0.00    -0.248 NA
ATOM     35  C   UNL A   1      42.270  27.482  31.860  1.00  0.00     0.031 C 
ATOM     36  C   UNL A   1      38.601  29.909  29.441  1.00  0.00     0.029 A 
ATOM     37  N   UNL A   1      39.293  30.781  31.381  1.00  0.00    -0.354 N 
ATOM     38  C   UNL A   1      42.366  28.814  33.719  1.00  0.00     0.074 A 
ATOM     39  C   UNL A   1      42.878  27.652  33.025  1.00  0.00     0.031 C 
ATOM     40  C   UNL A   1      37.890  31.028  29.657  1.00  0.00     0.029 A 
ATOM     41  C   UNL A   1      38.275  31.596  30.946  1.00  0.00     0.049 A 
ATOM     42  H   UNL A   1      39.807  30.952  32.203  1.00  0.00     0.167 HD
ATOM     43  C   UNL A   1      42.818  29.256  34.916  1.00  0.00     0.037 A 
ATOM     44  C   UNL A   1      37.694  32.657  31.539  1.00  0.00     0.037 A 
ATOM     45  C   UNL A   1      42.308  30.421  35.591  1.00  0.00     0.049 A 
ATOM     46  C   UNL A   1      38.184  33.103  32.890  1.00  0.00     0.074 A 
ATOM     47  C   UNL A   1      42.714  30.964  36.798  1.00  0.00     0.029 A 
ATOM     48  N   UNL A   1      41.280  31.223  35.118  1.00  0.00    -0.354 N 
ATOM     49  N   UNL A   1      39.141  32.593  33.627  1.00  0.00    -0.248 NA
ATOM     50  C   UNL A   1      37.514  34.264  33.492  1.00  0.00     0.031 C 
ATOM     51  C   UNL A   1      41.907  32.075  37.070  1.00  0.00     0.029 A 
ATOM     52  C   UNL A   1      41.025  32.246  36.015  1.00  0.00     0.049 A 
ATOM     53  H   UNL A   1      40.801  31.085  34.269  1.00  0.00     0.167 HD
ATOM     54  C   UNL A   1      39.201  33.381  34.771  1.00  0.00     0.074 A 
ATOM     55  C   UNL A   1      38.191  34.408  34.624  1.00  0.00     0.031 C 
ATOM     56  C   UNL A   1      40.020  33.266  35.845  1.00  0.00     0.037 A 
BRANCH  43  57
ATOM     57  C   UNL A   1      43.902  28.462  35.588  1.00  0.00     0.058 A 
ATOM     58  C   UNL A   1      45.259  28.767  35.406  1.00  0.00     0.135 A 
ATOM     59  C   UNL A   1      43.576  27.406  36.455  1.00  0.00     0.135 A 
ATOM     60  F   UNL A   1      45.625  29.755  34.575  1.00  0.00    -0.206 F 
ATOM     61  C   UNL A   1      46.258  28.038  36.044  1.00  0.00     0.059 A 
ATOM     62  C   UNL A   1      44.558  26.678  37.119  1.00  0.00     0.059 A 
ATOM     63  F   UNL A   1      42.293  27.072  36.661  1.00  0.00    -0.206 F 
ATOM     64  C   UNL A   1      45.898  26.994  36.898  1.00  0.00     0.060 A 
BRANCH  64  65
ATOM     65  S   UNL A   1      47.204  26.060  37.724  1.00  0.00     0.124 S 
ATOM     66  O   UNL A   1      46.567  24.757  37.893  1.00  0.00    -0.237 OA
ATOM     67  O   UNL A   1      48.291  26.111  36.751  1.00  0.00    -0.237 OA
ATOM     68  O   UNL A   1      47.433  26.811  38.955  1.00  0.00    -0.744 OA
ENDBRANCH  64  65
ENDBRANCH  43  57
BRANCH  44  69
ATOM     69  C   UNL A   1      36.563  33.351  30.869  1.00  0.00     0.058 A 
ATOM     70  C   UNL A   1      35.250  33.213  31.339  1.00  0.00     0.135 A 
ATOM     71  C   UNL A   1      36.777  34.176  29.754  1.00  0.00     0.135 A 
ATOM     72  F   UNL A   1      34.995  32.426  32.396  1.00  0.00    -0.206 F 
ATOM     73  C   UNL A   1      34.184  33.859  30.721  1.00  0.00     0.059 A 
ATOM     74  C   UNL A   1      35.731  34.850  29.133  1.00  0.00     0.059 A 
ATOM     75  F   UNL A   1      38.018  34.350  29.273  1.00  0.00    -0.206 F 
ATOM     76  C   UNL A   1      34.435  34.678  29.619  1.00  0.00     0.060 A 
BRANCH  76  77
ATOM     77  S   UNL A   1      33.054  35.554  28.851  1.00  0.00     0.124 S 
ATOM     78  O   UNL A   1      32.291  35.976  30.019  1.00  0.00    -0.237 OA
ATOM     79  O   UNL A   1      33.734  36.617  28.115  1.00  0.00    -0.237 OA
ATOM     80  O   UNL A   1      32.428  34.530  28.021  1.00  0.00    -0.744 OA
ENDBRANCH  76  77
ENDBRANCH  44  69
BRANCH  56  81
ATOM     81  C   UNL A   1      39.883  34.291  36.933  1.00  0.00     0.058 A 
ATOM     82  C   UNL A   1      40.510  35.544  36.844  1.00  0.00     0.135 A 
ATOM     83  C   UNL A   1      39.063  34.042  38.044  1.00  0.00     0.135 A 
ATOM     84  F   UNL A   1      41.311  35.827  35.805  1.00  0.00    -0.206 F 
ATOM     85  C   UNL A   1      40.334  36.513  37.827  1.00  0.00     0.059 A 
ATOM     86  C   UNL A   1      38.856  35.004  39.028  1.00  0.00     0.059 A 
ATOM     87  F   UNL A   1      38.436  32.861  38.170  1.00  0.00    -0.206 F 
ATOM     88  C   UNL A   1      39.503  36.234  38.914  1.00  0.00     0.060 A 
BRANCH  88  89
ATOM     89  S   UNL A   1      39.240  37.516  40.158  1.00  0.00     0.124 S 
ATOM     90  O   UNL A   1      38.852  36.724  41.321  1.00  0.00    -0.237 OA
ATOM     91  O   UNL A   1      40.550  38.155  40.234  1.00  0.00    -0.237 OA
ATOM     92  O   UNL A   1      38.182  38.339  39.578  1.00  0.00    -0.744 OA
ENDBRANCH  88  89
ENDBRANCH  56  81
ENDBRANCH  30  31
ENDBRANCH  23  25
ENDBRANCH  22  23
ENDBRANCH  21  22
ENDBRANCH   1  21
TORSDOF 20
ENDMDL
MODEL 2
REMARK VINA RESULT:     -10.2      5.077     11.570
REMARK SMILES CCCOc1ccc([C@H]([NH3+])CC(=O)OCCOC(=O)c2ccc(-c3c4nc(c(-c5c(F)cc(S(=O)(=O)[O-])cc5F)c5ccc([nH]5)c(-c5c(F)cc(S(=O)(=O)[O-])cc5F)c5nc(c(-c6c(F)cc(S(=O)(=O)[O-])cc6F)c6ccc3[nH]6)C=C5)C=C4)cc2)cc1
REMARK SMILES IDX 15 1 14 2 12 3 13 4 11 5 9 6 8 7 5 8 6 9 87 10 7 11 86 12
REMARK SMILES IDX 4 13 3 14 2 15 1 16 10 17 16 21 17 22 18 23 19 24 20 25
REMARK SMILES IDX 21 26 85 27 22 28 84 29 23 30 24 31 25 32 78 33 26 34 83 35
REMARK SMILES IDX 77 36 79 37 27 38 82 39 76 40 75 41 28 43 62 44 41 45 61 46
REMARK SMILES IDX 42 47 45 48 60 49 80 50 43 51 44 52 59 54 81 55 46 56 29 57
REMARK SMILES IDX 30 58 39 59 31 60 32 61 38 62 40 63 33 64 34 65 35 66 36 67
REMARK SMILES IDX 37 68 63 69 64 70 73 71 65 72 66 73 72 74 74 75 67 76 68 77
REMARK SMILES IDX 69 78 70 79 71 80 47 81 48 82 57 83 49 84 50 85 56 86 58 87
REMARK SMILES IDX 51 88 52 89 53 90 54 91 55 92
REMARK H PARENT 10 18 10 19 10 20 79 42 45 53
REMARK Flexibility Score: inf
ROOT
ATOM      1  C   UNL A   1      33.408  34.237  28.381  1.00  0.00     0.274 C 
ENDROOT
BRANCH   1   2
ATOM      2  O   UNL A   1      33.127  34.186  29.791  1.00  0.00    -0.462 OA
BRANCH   2   3
ATOM      3  C   UNL A   1      33.644  35.180  30.551  1.00  0.00     0.312 C 
ATOM      4  O   UNL A   1      33.801  36.335  30.166  1.00  0.00    -0.252 OA
BRANCH   3   5
ATOM      5  C   UNL A   1      34.082  34.743  31.927  1.00  0.00     0.192 C 
BRANCH   5   6
ATOM      6  C   UNL A   1      35.037  33.543  31.998  1.00  0.00     0.223 C 
BRANCH   6   7
ATOM      7  C   UNL A   1      36.416  33.805  31.385  1.00  0.00     0.010 A 
ATOM      8  C   UNL A   1      38.878  34.364  30.147  1.00  0.00     0.119 A 
ATOM      9  C   UNL A   1      37.863  33.758  29.415  1.00  0.00     0.047 A 
ATOM     10  C   UNL A   1      38.672  34.721  31.474  1.00  0.00     0.047 A 
ATOM     11  C   UNL A   1      36.642  33.470  30.035  1.00  0.00     0.014 A 
ATOM     12  C   UNL A   1      37.452  34.438  32.091  1.00  0.00     0.014 A 
BRANCH   8  13
ATOM     13  O   UNL A   1      40.059  34.713  29.558  1.00  0.00    -0.494 OA
BRANCH  13  14
ATOM     14  C   UNL A   1      41.191  34.459  30.403  1.00  0.00     0.229 C 
BRANCH  14  15
ATOM     15  C   UNL A   1      41.748  33.054  30.161  1.00  0.00     0.038 C 
ATOM     16  C   UNL A   1      43.186  33.076  29.659  1.00  0.00     0.007 C 
ENDBRANCH  14  15
ENDBRANCH  13  14
ENDBRANCH   8  13
ENDBRANCH   6   7
BRANCH   6  17
ATOM     17  N   UNL A   1      34.448  32.381  31.309  1.00  0.00    -0.351 N 
ATOM     18  H   UNL A   1      35.146  31.957  30.699  1.00  0.00     0.345 HD
ATOM     19  H   UNL A   1      33.650  32.686  30.752  1.00  0.00     0.345 HD
ATOM     20  H   UNL A   1      34.139  31.697  31.999  1.00  0.00     0.345 HD
ENDBRANCH   6  17
ENDBRANCH   5   6
ENDBRANCH   3   5
ENDBRANCH   2   3
ENDBRANCH   1   2
BRANCH   1  21
ATOM     21  C   UNL A   1      33.247  32.858  27.737  1.00  0.00     0.275 C 
BRANCH  21  22
ATOM     22  O   UNL A   1      34.520  32.233  27.496  1.00  0.00    -0.458 OA
BRANCH  22  23
ATOM     23  C   UNL A   1      34.516  30.880  27.509  1.00  0.00     0.338 C 
ATOM     24  O   UNL A   1      33.683  30.135  27.026  1.00  0.00    -0.246 OA
BRANCH  23  25
ATOM     25  C   UNL A   1      35.763  30.402  28.122  1.00  0.00     0.060 A 
ATOM     26  C   UNL A   1      35.688  29.712  29.336  1.00  0.00     0.016 A 
ATOM     27  C   UNL A   1      36.996  30.684  27.534  1.00  0.00     0.016 A 
ATOM     28  C   UNL A   1      36.857  29.297  29.971  1.00  0.00     0.010 A 
ATOM     29  C   UNL A   1      38.166  30.265  28.170  1.00  0.00     0.010 A 
ATOM     30  C   UNL A   1      38.103  29.576  29.394  1.00  0.00    -0.014 A 
BRANCH  30  31
ATOM     31  C   UNL A   1      39.356  29.173  30.075  1.00  0.00     0.031 A 
ATOM     32  C   UNL A   1      39.832  29.944  31.272  1.00  0.00     0.074 A 
ATOM     33  C   UNL A   1      40.077  28.145  29.593  1.00  0.00     0.049 A 
ATOM     34  N   UNL A   1      40.965  29.852  31.917  1.00  0.00    -0.248 NA
ATOM     35  C   UNL A   1      38.912  30.959  31.810  1.00  0.00     0.031 C 
ATOM     36  C   UNL A   1      39.697  27.308  28.455  1.00  0.00     0.029 A 
ATOM     37  N   UNL A   1      41.292  27.644  29.988  1.00  0.00    -0.354 N 
ATOM     38  C   UNL A   1      40.908  30.810  32.921  1.00  0.00     0.074 A 
ATOM     39  C   UNL A   1      39.631  31.479  32.795  1.00  0.00     0.031 C 
ATOM     40  C   UNL A   1      40.668  26.408  28.230  1.00  0.00     0.029 A 
ATOM     41  C   UNL A   1      41.756  26.634  29.178  1.00  0.00     0.049 A 
ATOM     42  H   UNL A   1      41.783  27.975  30.773  1.00  0.00     0.167 HD
ATOM     43  C   UNL A   1      41.840  31.101  33.859  1.00  0.00     0.037 A 
ATOM     44  C   UNL A   1      42.940  25.992  29.178  1.00  0.00     0.037 A 
ATOM     45  C   UNL A   1      43.102  30.420  33.982  1.00  0.00     0.049 A 
ATOM     46  C   UNL A   1      43.977  26.364  30.204  1.00  0.00     0.074 A 
ATOM     47  C   UNL A   1      44.105  30.627  34.913  1.00  0.00     0.029 A 
ATOM     48  N   UNL A   1      43.535  29.401  33.147  1.00  0.00    -0.354 N 
ATOM     49  N   UNL A   1      43.910  27.267  31.152  1.00  0.00    -0.248 NA
ATOM     50  C   UNL A   1      45.251  25.634  30.158  1.00  0.00     0.031 C 
ATOM     51  C   UNL A   1      45.160  29.754  34.619  1.00  0.00     0.029 A 
ATOM     52  C   UNL A   1      44.797  28.979  33.530  1.00  0.00     0.049 A 
ATOM     53  H   UNL A   1      43.021  29.031  32.394  1.00  0.00     0.167 HD
ATOM     54  C   UNL A   1      45.123  27.202  31.827  1.00  0.00     0.074 A 
ATOM     55  C   UNL A   1      45.902  26.164  31.185  1.00  0.00     0.031 C 
ATOM     56  C   UNL A   1      45.552  27.935  32.883  1.00  0.00     0.037 A 
BRANCH  43  57
ATOM     57  C   UNL A   1      41.541  32.223  34.814  1.00  0.00     0.058 A 
ATOM     58  C   UNL A   1      41.900  33.549  34.530  1.00  0.00     0.135 A 
ATOM     59  C   UNL A   1      40.854  31.970  36.013  1.00  0.00     0.135 A 
ATOM     60  F   UNL A   1      42.573  33.841  33.406  1.00  0.00    -0.206 F 
ATOM     61  C   UNL A   1      41.605  34.585  35.411  1.00  0.00     0.059 A 
ATOM     62  C   UNL A   1      40.530  32.994  36.898  1.00  0.00     0.059 A 
ATOM     63  F   UNL A   1      40.491  30.719  36.333  1.00  0.00    -0.206 F 
ATOM     64  C   UNL A   1      40.922  34.297  36.594  1.00  0.00     0.060 A 
BRANCH  64  65
ATOM     65  S   UNL A   1      40.541  35.652  37.725  1.00  0.00     0.124 S 
ATOM     66  O   UNL A   1      39.584  35.016  38.627  1.00  0.00    -0.237 OA
ATOM     67  O   UNL A   1      41.847  35.956  38.302  1.00  0.00    -0.237 OA
ATOM     68  O   UNL A   1      39.990  36.682  36.850  1.00  0.00    -0.744 OA
ENDBRANCH  64  65
ENDBRANCH  43  57
BRANCH  44  69
ATOM     69  C   UNL A   1      43.218  24.953  28.153  1.00  0.00     0.058 A 
ATOM     70  C   UNL A   1      43.795  25.287  26.921  1.00  0.00     0.135 A 
ATOM     71  C   UNL A   1      42.924  23.602  28.393  1.00  0.00     0.135 A 
ATOM     72  F   UNL A   1      44.084  26.568  26.642  1.00  0.00    -0.206 F 
ATOM     73  C   UNL A   1      44.060  24.322  25.955  1.00  0.00     0.059 A 
ATOM     74  C   UNL A   1      43.201  22.615  27.453  1.00  0.00     0.059 A 
ATOM     75  F   UNL A   1      42.381  23.228  29.563  1.00  0.00    -0.206 F 
ATOM     76  C   UNL A   1      43.762  22.988  26.232  1.00  0.00     0.060 A 
BRANCH  76  77
ATOM     77  S   UNL A   1      44.155  21.732  24.994  1.00  0.00     0.124 S 
ATOM     78  O   UNL A   1      43.160  20.708  25.289  1.00  0.00    -0.237 OA
ATOM     79  O   UNL A   1      43.968  22.461  23.743  1.00  0.00    -0.237 OA
ATOM     80  O   UNL A   1      45.537  21.379  25.303  1.00  0.00    -0.744 OA
ENDBRANCH  76  77
ENDBRANCH  44  69
BRANCH  56  81
ATOM     81  C   UNL A   1      46.913  27.621  33.435  1.00  0.00     0.058 A 
ATOM     82  C   UNL A   1      48.062  28.284  32.979  1.00  0.00     0.135 A 
ATOM     83  C   UNL A   1      47.058  26.693  34.479  1.00  0.00     0.135 A 
ATOM     84  F   UNL A   1      47.976  29.174  31.978  1.00  0.00    -0.206 F 
ATOM     85  C   UNL A   1      49.313  28.032  33.534  1.00  0.00     0.059 A 
ATOM     86  C   UNL A   1      48.296  26.440  35.063  1.00  0.00     0.059 A 
ATOM     87  F   UNL A   1      45.987  26.038  34.955  1.00  0.00    -0.206 F 
ATOM     88  C   UNL A   1      49.419  27.109  34.578  1.00  0.00     0.060 A 
BRANCH  88  89
ATOM     89  S   UNL A   1      51.038  26.827  35.325  1.00  0.00     0.124 S 
ATOM     90  O   UNL A   1      51.896  27.668  34.496  1.00  0.00    -0.237 OA
ATOM     91  O   UNL A   1      50.836  27.284  36.697  1.00  0.00    -0.237 OA
ATOM     92  O   UNL A   1      51.235  25.389  35.174  1.00  0.00    -0.744 OA
ENDBRANCH  88  89
ENDBRANCH  56  81
ENDBRANCH  30  31
ENDBRANCH  23  25
ENDBRANCH  22  23
ENDBRANCH  21  22
ENDBRANCH   1  21
TORSDOF 20
ENDMDL
MODEL 3
REMARK VINA RESULT:     -10.2      7.000     12.349
REMARK SMILES CCCOc1ccc([C@H]([NH3+])CC(=O)OCCOC(=O)c2ccc(-c3c4nc(c(-c5c(F)cc(S(=O)(=O)[O-])cc5F)c5ccc([nH]5)c(-c5c(F)cc(S(=O)(=O)[O-])cc5F)c5nc(c(-c6c(F)cc(S(=O)(=O)[O-])cc6F)c6ccc3[nH]6)C=C5)C=C4)cc2)cc1
REMARK SMILES IDX 15 1 14 2 12 3 13 4 11 5 9 6 8 7 5 8 6 9 87 10 7 11 86 12
REMARK SMILES IDX 4 13 3 14 2 15 1 16 10 17 16 21 17 22 18 23 19 24 20 25
REMARK SMILES IDX 21 26 85 27 22 28 84 29 23 30 24 31 25 32 78 33 26 34 83 35
REMARK SMILES IDX 77 36 79 37 27 38 82 39 76 40 75 41 28 43 62 44 41 45 61 46
REMARK SMILES IDX 42 47 45 48 60 49 80 50 43 51 44 52 59 54 81 55 46 56 29 57
REMARK SMILES IDX 30 58 39 59 31 60 32 61 38 62 40 63 33 64 34 65 35 66 36 67
REMARK SMILES IDX 37 68 63 69 64 70 73 71 65 72 66 73 72 74 74 75 67 76 68 77
REMARK SMILES IDX 69 78 70 79 71 80 47 81 48 82 57 83 49 84 50 85 56 86 58 87
REMARK SMILES IDX 51 88 52 89 53 90 54 91 55 92
REMARK H PARENT 10 18 10 19 10 20 79 42 45 53
REMARK Flexibility Score: inf
ROOT
ATOM      1  C   UNL A   1      33.861  29.514  26.450  1.00  0.00     0.274 C 
ENDROOT
BRANCH   1   2
ATOM      2  O   UNL A   1      32.805  28.655  26.914  1.00  0.00    -0.462 OA
BRANCH   2   3
ATOM      3  C   UNL A   1      31.862  28.305  26.006  1.00  0.00     0.312 C 
ATOM      4  O   UNL A   1      31.305  29.094  25.248  1.00  0.00    -0.252 OA
BRANCH   3   5
ATOM      5  C   UNL A   1      31.491  26.843  26.032  1.00  0.00     0.192 C 
BRANCH   5   6
ATOM      6  C   UNL A   1      31.970  25.989  24.848  1.00  0.00     0.223 C 
BRANCH   6   7
ATOM      7  C   UNL A   1      33.111  25.028  25.192  1.00  0.00     0.010 A 
ATOM      8  C   UNL A   1      35.301  23.383  25.829  1.00  0.00     0.119 A 
ATOM      9  C   UNL A   1      35.381  24.242  24.738  1.00  0.00     0.047 A 
ATOM     10  C   UNL A   1      34.160  23.356  26.621  1.00  0.00     0.047 A 
ATOM     11  C   UNL A   1      34.286  25.052  24.416  1.00  0.00     0.014 A 
ATOM     12  C   UNL A   1      33.070  24.168  26.302  1.00  0.00     0.014 A 
BRANCH   8  13
ATOM     13  O   UNL A   1      36.371  22.624  26.208  1.00  0.00    -0.494 OA
BRANCH  13  14
ATOM     14  C   UNL A   1      37.502  22.799  25.344  1.00  0.00     0.229 C 
BRANCH  14  15
ATOM     15  C   UNL A   1      38.715  23.307  26.128  1.00  0.00     0.038 C 
ATOM     16  C   UNL A   1      39.514  22.175  26.761  1.00  0.00     0.007 C 
ENDBRANCH  14  15
ENDBRANCH  13  14
ENDBRANCH   8  13
ENDBRANCH   6   7
BRANCH   6  17
ATOM     17  N   UNL A   1      32.423  26.856  23.746  1.00  0.00    -0.351 N 
ATOM     18  H   UNL A   1      32.226  27.830  23.977  1.00  0.00     0.345 HD
ATOM     19  H   UNL A   1      31.929  26.603  22.890  1.00  0.00     0.345 HD
ATOM     20  H   UNL A   1      33.425  26.735  23.608  1.00  0.00     0.345 HD
ENDBRANCH   6  17
ENDBRANCH   5   6
ENDBRANCH   3   5
ENDBRANCH   2   3
ENDBRANCH   1   2
BRANCH   1  21
ATOM     21  C   UNL A   1      34.414  30.371  27.591  1.00  0.00     0.275 C 
BRANCH  21  22
ATOM     22  O   UNL A   1      35.280  29.613  28.454  1.00  0.00    -0.458 OA
BRANCH  22  23
ATOM     23  C   UNL A   1      36.133  30.342  29.210  1.00  0.00     0.338 C 
ATOM     24  O   UNL A   1      35.854  31.216  30.011  1.00  0.00    -0.246 OA
BRANCH  23  25
ATOM     25  C   UNL A   1      37.501  29.847  29.006  1.00  0.00     0.060 A 
ATOM     26  C   UNL A   1      38.289  29.580  30.129  1.00  0.00     0.016 A 
ATOM     27  C   UNL A   1      38.020  29.706  27.718  1.00  0.00     0.016 A 
ATOM     28  C   UNL A   1      39.610  29.165  29.967  1.00  0.00     0.010 A 
ATOM     29  C   UNL A   1      39.342  29.288  27.558  1.00  0.00     0.010 A 
ATOM     30  C   UNL A   1      40.145  29.022  28.681  1.00  0.00    -0.014 A 
BRANCH  30  31
ATOM     31  C   UNL A   1      41.558  28.618  28.493  1.00  0.00     0.031 A 
ATOM     32  C   UNL A   1      42.641  29.657  28.531  1.00  0.00     0.074 A 
ATOM     33  C   UNL A   1      41.857  27.328  28.252  1.00  0.00     0.049 A 
ATOM     34  N   UNL A   1      43.910  29.539  28.246  1.00  0.00    -0.248 NA
ATOM     35  C   UNL A   1      42.237  31.013  28.938  1.00  0.00     0.031 C 
ATOM     36  C   UNL A   1      40.891  26.230  28.222  1.00  0.00     0.029 A 
ATOM     37  N   UNL A   1      43.057  26.729  27.965  1.00  0.00    -0.354 N 
ATOM     38  C   UNL A   1      44.456  30.805  28.414  1.00  0.00     0.074 A 
ATOM     39  C   UNL A   1      43.376  31.680  28.819  1.00  0.00     0.031 C 
ATOM     40  C   UNL A   1      41.534  25.092  27.912  1.00  0.00     0.029 A 
ATOM     41  C   UNL A   1      42.945  25.388  27.681  1.00  0.00     0.049 A 
ATOM     42  H   UNL A   1      43.915  27.211  27.963  1.00  0.00     0.167 HD
ATOM     43  C   UNL A   1      45.740  31.197  28.244  1.00  0.00     0.037 A 
ATOM     44  C   UNL A   1      43.869  24.509  27.246  1.00  0.00     0.037 A 
ATOM     45  C   UNL A   1      46.808  30.315  27.852  1.00  0.00     0.049 A 
ATOM     46  C   UNL A   1      45.281  24.978  27.023  1.00  0.00     0.074 A 
ATOM     47  C   UNL A   1      48.149  30.610  27.674  1.00  0.00     0.029 A 
ATOM     48  N   UNL A   1      46.657  28.963  27.577  1.00  0.00    -0.354 N 
ATOM     49  N   UNL A   1      45.786  26.177  27.190  1.00  0.00    -0.248 NA
ATOM     50  C   UNL A   1      46.248  23.979  26.546  1.00  0.00     0.031 C 
ATOM     51  C   UNL A   1      48.801  29.444  27.257  1.00  0.00     0.029 A 
ATOM     52  C   UNL A   1      47.875  28.414  27.215  1.00  0.00     0.049 A 
ATOM     53  H   UNL A   1      45.809  28.467  27.633  1.00  0.00     0.167 HD
ATOM     54  C   UNL A   1      47.132  26.073  26.859  1.00  0.00     0.074 A 
ATOM     55  C   UNL A   1      47.364  24.692  26.490  1.00  0.00     0.031 C 
ATOM     56  C   UNL A   1      48.088  27.033  26.861  1.00  0.00     0.037 A 
BRANCH  43  57
ATOM     57  C   UNL A   1      46.060  32.650  28.455  1.00  0.00     0.058 A 
ATOM     58  C   UNL A   1      46.465  33.142  29.705  1.00  0.00     0.135 A 
ATOM     59  C   UNL A   1      45.995  33.555  27.382  1.00  0.00     0.135 A 
ATOM     60  F   UNL A   1      46.527  32.323  30.766  1.00  0.00    -0.206 F 
ATOM     61  C   UNL A   1      46.775  34.486  29.889  1.00  0.00     0.059 A 
ATOM     62  C   UNL A   1      46.321  34.898  27.540  1.00  0.00     0.059 A 
ATOM     63  F   UNL A   1      45.610  33.135  26.167  1.00  0.00    -0.206 F 
ATOM     64  C   UNL A   1      46.698  35.357  28.801  1.00  0.00     0.060 A 
BRANCH  64  65
ATOM     65  S   UNL A   1      47.109  37.097  29.054  1.00  0.00     0.124 S 
ATOM     66  O   UNL A   1      47.140  37.590  27.680  1.00  0.00    -0.237 OA
ATOM     67  O   UNL A   1      45.994  37.568  29.870  1.00  0.00    -0.237 OA
ATOM     68  O   UNL A   1      48.401  37.047  29.732  1.00  0.00    -0.744 OA
ENDBRANCH  64  65
ENDBRANCH  43  57
BRANCH  44  69
ATOM     69  C   UNL A   1      43.477  23.103  26.966  1.00  0.00     0.058 A 
ATOM     70  C   UNL A   1      43.384  22.627  25.652  1.00  0.00     0.135 A 
ATOM     71  C   UNL A   1      43.202  22.206  28.009  1.00  0.00     0.135 A 
ATOM     72  F   UNL A   1      43.627  23.451  24.621  1.00  0.00    -0.206 F 
ATOM     73  C   UNL A   1      43.020  21.312  25.378  1.00  0.00     0.059 A 
ATOM     74  C   UNL A   1      42.859  20.880  27.762  1.00  0.00     0.059 A 
ATOM     75  F   UNL A   1      43.289  22.610  29.287  1.00  0.00    -0.206 F 
ATOM     76  C   UNL A   1      42.761  20.446  26.441  1.00  0.00     0.060 A 
BRANCH  76  77
ATOM     77  S   UNL A   1      42.338  18.726  26.081  1.00  0.00     0.124 S 
ATOM     78  O   UNL A   1      42.613  18.084  27.361  1.00  0.00    -0.237 OA
ATOM     79  O   UNL A   1      40.931  18.826  25.706  1.00  0.00    -0.237 OA
ATOM     80  O   UNL A   1      43.245  18.380  24.991  1.00  0.00    -0.744 OA
ENDBRANCH  76  77
ENDBRANCH  44  69
BRANCH  56  81
ATOM     81  C   UNL A   1      49.482  26.622  26.484  1.00  0.00     0.058 A 
ATOM     82  C   UNL A   1      50.340  26.003  27.407  1.00  0.00     0.135 A 
ATOM     83  C   UNL A   1      49.941  26.789  25.168  1.00  0.00     0.135 A 
ATOM     84  F   UNL A   1      49.951  25.829  28.679  1.00  0.00    -0.206 F 
ATOM     85  C   UNL A   1      51.611  25.572  27.038  1.00  0.00     0.059 A 
ATOM     86  C   UNL A   1      51.199  26.347  24.772  1.00  0.00     0.059 A 
ATOM     87  F   UNL A   1      49.154  27.369  24.247  1.00  0.00    -0.206 F 
ATOM     88  C   UNL A   1      52.030  25.746  25.717  1.00  0.00     0.060 A 
BRANCH  88  89
ATOM     89  S   UNL A   1      53.660  25.136  25.236  1.00  0.00     0.124 S 
ATOM     90  O   UNL A   1      54.514  25.751  26.248  1.00  0.00    -0.237 OA
ATOM     91  O   UNL A   1      53.498  23.689  25.338  1.00  0.00    -0.237 OA
ATOM     92  O   UNL A   1      53.826  25.647  23.879  1.00  0.00    -0.744 OA
ENDBRANCH  88  89
ENDBRANCH  56  81
ENDBRANCH  30  31
ENDBRANCH  23  25
ENDBRANCH  22  23
ENDBRANCH  21  22
ENDBRANCH   1  21
TORSDOF 20
ENDMDL
