MODEL 1
REMARK VINA RESULT:      -9.0      0.000      0.000
REMARK SMILES CC(=O)Oc1ccccc1C(=O)OCCOC(=O)c1ccc(-c2c3nc(c(-c4c(F)cc(S(=O)(=O)[O-])cc4F)c4ccc([nH]4)c(-c4c(F)cc(S(=O)(=O)[O-])cc4F)c4nc(c(-c5c(F)cc(S(=O)(=O)[O-])cc5F)c5ccc2[nH]5)C=C4)C=C3)cc1
REMARK SMILES IDX 15 1 14 2 13 3 11 4 12 5 10 6 5 7 6 8 7 9 9 10 8 11 4 12
REMARK SMILES IDX 2 13 1 14 3 15 16 16 17 17 18 18 19 19 20 20 84 21 21 22
REMARK SMILES IDX 83 23 22 24 23 25 24 26 77 27 25 28 82 29 76 30 78 31 26 32
REMARK SMILES IDX 81 33 75 34 74 35 27 37 61 38 40 39 60 40 41 41 44 42 59 43
REMARK SMILES IDX 79 44 42 45 43 46 58 48 80 49 45 50 28 51 29 52 38 53 30 54
REMARK SMILES IDX 31 55 37 56 39 57 32 58 33 59 34 60 35 61 36 62 62 63 63 64
REMARK SMILES IDX 72 65 64 66 65 67 71 68 73 69 66 70 67 71 68 72 69 73 70 74
REMARK SMILES IDX 46 75 47 76 56 77 48 78 49 79 55 80 57 81 50 82 51 83 52 84
REMARK SMILES IDX 53 85 54 86
REMARK H PARENT 78 36 44 47
REMARK Flexibility Score: inf
ROOT
ATOM      1  C   UNL A   1      33.627  33.278  27.746  1.00  0.00     0.275 C 
ENDROOT
BRANCH   1   2
ATOM      2  C   UNL A   1      33.591  34.036  29.071  1.00  0.00     0.275 C 
BRANCH   2   3
ATOM      3  O   UNL A   1      34.917  34.346  29.543  1.00  0.00    -0.458 OA
BRANCH   3   4
ATOM      4  C   UNL A   1      35.433  33.514  30.484  1.00  0.00     0.342 C 
ATOM      5  O   UNL A   1      34.823  32.618  31.050  1.00  0.00    -0.246 OA
BRANCH   4   6
ATOM      6  C   UNL A   1      36.883  33.755  30.705  1.00  0.00     0.102 A 
ATOM      7  C   UNL A   1      37.446  34.172  31.918  1.00  0.00     0.145 A 
ATOM      8  C   UNL A   1      38.824  34.398  32.028  1.00  0.00     0.048 A 
ATOM      9  C   UNL A   1      39.654  34.203  30.924  1.00  0.00     0.004 A 
ATOM     10  C   UNL A   1      37.742  33.526  29.615  1.00  0.00     0.019 A 
ATOM     11  C   UNL A   1      39.113  33.772  29.715  1.00  0.00     0.001 A 
BRANCH   7  12
ATOM     12  O   UNL A   1      36.687  34.486  33.055  1.00  0.00    -0.426 OA
BRANCH  12  13
ATOM     13  C   UNL A   1      36.606  33.495  34.025  1.00  0.00     0.308 C 
ATOM     14  C   UNL A   1      37.003  34.077  35.349  1.00  0.00     0.139 C 
ATOM     15  O   UNL A   1      36.279  32.328  33.854  1.00  0.00    -0.252 OA
ENDBRANCH  12  13
ENDBRANCH   7  12
ENDBRANCH   4   6
ENDBRANCH   3   4
ENDBRANCH   2   3
ENDBRANCH   1   2
BRANCH   1  16
ATOM     16  O   UNL A   1      34.798  32.450  27.670  1.00  0.00    -0.458 OA
BRANCH  16  17
ATOM     17  C   UNL A   1      34.547  31.122  27.623  1.00  0.00     0.338 C 
ATOM     18  O   UNL A   1      33.535  30.571  27.222  1.00  0.00    -0.246 OA
BRANCH  17  19
ATOM     19  C   UNL A   1      35.744  30.378  28.030  1.00  0.00     0.060 A 
ATOM     20  C   UNL A   1      35.698  29.708  29.248  1.00  0.00     0.016 A 
ATOM     21  C   UNL A   1      36.940  30.487  27.326  1.00  0.00     0.016 A 
ATOM     22  C   UNL A   1      36.865  29.222  29.826  1.00  0.00     0.010 A 
ATOM     23  C   UNL A   1      38.104  29.936  27.876  1.00  0.00     0.010 A 
ATOM     24  C   UNL A   1      38.088  29.345  29.155  1.00  0.00    -0.014 A 
BRANCH  24  25
ATOM     25  C   UNL A   1      39.355  28.960  29.840  1.00  0.00     0.031 A 
ATOM     26  C   UNL A   1      39.750  29.664  31.115  1.00  0.00     0.074 A 
ATOM     27  C   UNL A   1      40.127  27.965  29.359  1.00  0.00     0.049 A 
ATOM     28  N   UNL A   1      40.878  29.610  31.776  1.00  0.00    -0.248 NA
ATOM     29  C   UNL A   1      38.749  30.559  31.717  1.00  0.00     0.031 C 
ATOM     30  C   UNL A   1      39.833  27.157  28.172  1.00  0.00     0.029 A 
ATOM     31  N   UNL A   1      41.317  27.454  29.817  1.00  0.00    -0.354 N 
ATOM     32  C   UNL A   1      40.749  30.517  32.825  1.00  0.00     0.074 A 
ATOM     33  C   UNL A   1      39.431  31.102  32.717  1.00  0.00     0.031 C 
ATOM     34  C   UNL A   1      40.796  26.236  28.015  1.00  0.00     0.029 A 
ATOM     35  C   UNL A   1      41.816  26.436  29.038  1.00  0.00     0.049 A 
ATOM     36  H   UNL A   1      41.769  27.786  30.625  1.00  0.00     0.167 HD
ATOM     37  C   UNL A   1      41.651  30.833  33.784  1.00  0.00     0.037 A 
ATOM     38  C   UNL A   1      42.983  25.766  29.115  1.00  0.00     0.037 A 
ATOM     39  C   UNL A   1      42.928  30.184  33.933  1.00  0.00     0.049 A 
ATOM     40  C   UNL A   1      43.966  26.133  30.194  1.00  0.00     0.074 A 
ATOM     41  C   UNL A   1      43.905  30.412  34.887  1.00  0.00     0.029 A 
ATOM     42  N   UNL A   1      43.394  29.160  33.121  1.00  0.00    -0.354 N 
ATOM     43  N   UNL A   1      43.856  27.036  31.139  1.00  0.00    -0.248 NA
ATOM     44  C   UNL A   1      45.238  25.397  30.211  1.00  0.00     0.031 C 
ATOM     45  C   UNL A   1      44.974  29.545  34.635  1.00  0.00     0.029 A 
ATOM     46  C   UNL A   1      44.645  28.748  33.551  1.00  0.00     0.049 A 
ATOM     47  H   UNL A   1      42.908  28.781  32.354  1.00  0.00     0.167 HD
ATOM     48  C   UNL A   1      45.030  26.957  31.879  1.00  0.00     0.074 A 
ATOM     49  C   UNL A   1      45.831  25.909  31.279  1.00  0.00     0.031 C 
ATOM     50  C   UNL A   1      45.413  27.685  32.956  1.00  0.00     0.037 A 
BRANCH  37  51
ATOM     51  C   UNL A   1      41.313  31.952  34.731  1.00  0.00     0.058 A 
ATOM     52  C   UNL A   1      41.537  33.300  34.415  1.00  0.00     0.135 A 
ATOM     53  C   UNL A   1      40.700  31.664  35.963  1.00  0.00     0.135 A 
ATOM     54  F   UNL A   1      42.137  33.633  33.261  1.00  0.00    -0.206 F 
ATOM     55  C   UNL A   1      41.182  34.322  35.292  1.00  0.00     0.059 A 
ATOM     56  C   UNL A   1      40.313  32.669  36.843  1.00  0.00     0.059 A 
ATOM     57  F   UNL A   1      40.463  30.390  36.318  1.00  0.00    -0.206 F 
ATOM     58  C   UNL A   1      40.569  33.996  36.504  1.00  0.00     0.060 A 
BRANCH  58  59
ATOM     59  S   UNL A   1      40.090  35.331  37.621  1.00  0.00     0.124 S 
ATOM     60  O   UNL A   1      38.901  34.769  38.254  1.00  0.00    -0.237 OA
ATOM     61  O   UNL A   1      41.264  35.457  38.479  1.00  0.00    -0.237 OA
ATOM     62  O   UNL A   1      39.852  36.457  36.725  1.00  0.00    -0.744 OA
ENDBRANCH  58  59
ENDBRANCH  37  51
BRANCH  38  63
ATOM     63  C   UNL A   1      43.307  24.702  28.125  1.00  0.00     0.058 A 
ATOM     64  C   UNL A   1      43.991  25.004  26.938  1.00  0.00     0.135 A 
ATOM     65  C   UNL A   1      42.924  23.368  28.336  1.00  0.00     0.135 A 
ATOM     66  F   UNL A   1      44.370  26.266  26.684  1.00  0.00    -0.206 F 
ATOM     67  C   UNL A   1      44.260  24.028  25.983  1.00  0.00     0.059 A 
ATOM     68  C   UNL A   1      43.209  22.369  27.411  1.00  0.00     0.059 A 
ATOM     69  F   UNL A   1      42.279  23.023  29.462  1.00  0.00    -0.206 F 
ATOM     70  C   UNL A   1      43.863  22.712  26.229  1.00  0.00     0.060 A 
BRANCH  70  71
ATOM     71  S   UNL A   1      44.234  21.445  24.997  1.00  0.00     0.124 S 
ATOM     72  O   UNL A   1      44.144  22.208  23.757  1.00  0.00    -0.237 OA
ATOM     73  O   UNL A   1      45.573  21.016  25.387  1.00  0.00    -0.237 OA
ATOM     74  O   UNL A   1      43.181  20.456  25.208  1.00  0.00    -0.744 OA
ENDBRANCH  70  71
ENDBRANCH  38  63
BRANCH  50  75
ATOM     75  C   UNL A   1      46.724  27.323  33.597  1.00  0.00     0.058 A 
ATOM     76  C   UNL A   1      46.812  26.360  34.613  1.00  0.00     0.135 A 
ATOM     77  C   UNL A   1      47.910  27.941  33.170  1.00  0.00     0.135 A 
ATOM     78  F   UNL A   1      45.706  25.744  35.060  1.00  0.00    -0.206 F 
ATOM     79  C   UNL A   1      48.029  26.047  35.212  1.00  0.00     0.059 A 
ATOM     80  C   UNL A   1      49.141  27.624  33.735  1.00  0.00     0.059 A 
ATOM     81  F   UNL A   1      47.880  28.859  32.192  1.00  0.00    -0.206 F 
ATOM     82  C   UNL A   1      49.187  26.689  34.769  1.00  0.00     0.060 A 
BRANCH  82  83
ATOM     83  S   UNL A   1      50.763  26.275  35.546  1.00  0.00     0.124 S 
ATOM     84  O   UNL A   1      51.403  25.479  34.504  1.00  0.00    -0.237 OA
ATOM     85  O   UNL A   1      51.349  27.590  35.789  1.00  0.00    -0.237 OA
ATOM     86  O   UNL A   1      50.367  25.542  36.744  1.00  0.00    -0.744 OA
ENDBRANCH  82  83
ENDBRANCH  50  75
ENDBRANCH  24  25
ENDBRANCH  17  19
ENDBRANCH  16  17
ENDBRANCH   1  16
TORSDOF 16
ENDMDL
MODEL 2
REMARK VINA RESULT:      -8.8      3.411     11.014
REMARK SMILES CC(=O)Oc1ccccc1C(=O)OCCOC(=O)c1ccc(-c2c3nc(c(-c4c(F)cc(S(=O)(=O)[O-])cc4F)c4ccc([nH]4)c(-c4c(F)cc(S(=O)(=O)[O-])cc4F)c4nc(c(-c5c(F)cc(S(=O)(=O)[O-])cc5F)c5ccc2[nH]5)C=C4)C=C3)cc1
REMARK SMILES IDX 15 1 14 2 13 3 11 4 12 5 10 6 5 7 6 8 7 9 9 10 8 11 4 12
REMARK SMILES IDX 2 13 1 14 3 15 16 16 17 17 18 18 19 19 20 20 84 21 21 22
REMARK SMILES IDX 83 23 22 24 23 25 24 26 77 27 25 28 82 29 76 30 78 31 26 32
REMARK SMILES IDX 81 33 75 34 74 35 27 37 61 38 40 39 60 40 41 41 44 42 59 43
REMARK SMILES IDX 79 44 42 45 43 46 58 48 80 49 45 50 28 51 29 52 38 53 30 54
REMARK SMILES IDX 31 55 37 56 39 57 32 58 33 59 34 60 35 61 36 62 62 63 63 64
REMARK SMILES IDX 72 65 64 66 65 67 71 68 73 69 66 70 67 71 68 72 69 73 70 74
REMARK SMILES IDX 46 75 47 76 56 77 48 78 49 79 55 80 57 81 50 82 51 83 52 84
REMARK SMILES IDX 53 85 54 86
REMARK H PARENT 78 36 44 47
REMARK Flexibility Score: inf
ROOT
ATOM      1  C   UNL A   1      43.460  25.301  25.135  1.00  0.00     0.275 C 
ENDROOT
BRANCH   1   2
ATOM      2  C   UNL A   1      44.820  24.615  25.243  1.00  0.00     0.275 C 
BRANCH   2   3
ATOM      3  O   UNL A   1      44.696  23.258  25.715  1.00  0.00    -0.458 OA
BRANCH   3   4
ATOM      4  C   UNL A   1      44.013  22.401  24.914  1.00  0.00     0.342 C 
ATOM      5  O   UNL A   1      44.033  22.402  23.692  1.00  0.00    -0.246 OA
BRANCH   4   6
ATOM      6  C   UNL A   1      43.278  21.373  25.698  1.00  0.00     0.102 A 
ATOM      7  C   UNL A   1      43.403  19.990  25.511  1.00  0.00     0.145 A 
ATOM      8  C   UNL A   1      42.652  19.093  26.283  1.00  0.00     0.048 A 
ATOM      9  C   UNL A   1      41.771  19.573  27.253  1.00  0.00     0.004 A 
ATOM     10  C   UNL A   1      42.415  21.835  26.707  1.00  0.00     0.019 A 
ATOM     11  C   UNL A   1      41.649  20.945  27.463  1.00  0.00     0.001 A 
BRANCH   7  12
ATOM     12  O   UNL A   1      44.187  19.414  24.501  1.00  0.00    -0.426 OA
BRANCH  12  13
ATOM     13  C   UNL A   1      45.421  18.916  24.899  1.00  0.00     0.308 C 
ATOM     14  C   UNL A   1      46.471  19.953  24.635  1.00  0.00     0.139 C 
ATOM     15  O   UNL A   1      45.645  17.812  25.376  1.00  0.00    -0.252 OA
ENDBRANCH  12  13
ENDBRANCH   7  12
ENDBRANCH   4   6
ENDBRANCH   3   4
ENDBRANCH   2   3
ENDBRANCH   1   2
BRANCH   1  16
ATOM     16  O   UNL A   1      42.866  25.451  26.435  1.00  0.00    -0.458 OA
BRANCH  16  17
ATOM     17  C   UNL A   1      41.514  25.424  26.443  1.00  0.00     0.338 C 
ATOM     18  O   UNL A   1      40.781  24.688  25.803  1.00  0.00    -0.246 OA
BRANCH  17  19
ATOM     19  C   UNL A   1      41.008  26.363  27.451  1.00  0.00     0.060 A 
ATOM     20  C   UNL A   1      41.589  27.626  27.498  1.00  0.00     0.016 A 
ATOM     21  C   UNL A   1      40.118  25.955  28.440  1.00  0.00     0.016 A 
ATOM     22  C   UNL A   1      41.364  28.461  28.587  1.00  0.00     0.010 A 
ATOM     23  C   UNL A   1      39.838  26.824  29.502  1.00  0.00     0.010 A 
ATOM     24  C   UNL A   1      40.498  28.064  29.613  1.00  0.00    -0.014 A 
BRANCH  24  25
ATOM     25  C   UNL A   1      40.376  28.892  30.847  1.00  0.00     0.031 A 
ATOM     26  C   UNL A   1      39.285  29.930  30.937  1.00  0.00     0.074 A 
ATOM     27  C   UNL A   1      41.201  28.696  31.895  1.00  0.00     0.049 A 
ATOM     28  N   UNL A   1      39.104  30.867  31.833  1.00  0.00    -0.248 NA
ATOM     29  C   UNL A   1      38.272  29.923  29.869  1.00  0.00     0.031 C 
ATOM     30  C   UNL A   1      42.259  27.685  31.969  1.00  0.00     0.029 A 
ATOM     31  N   UNL A   1      41.273  29.334  33.109  1.00  0.00    -0.354 N 
ATOM     32  C   UNL A   1      38.006  31.604  31.397  1.00  0.00     0.074 A 
ATOM     33  C   UNL A   1      37.557  31.001  30.162  1.00  0.00     0.031 C 
ATOM     34  C   UNL A   1      42.849  27.750  33.173  1.00  0.00     0.029 A 
ATOM     35  C   UNL A   1      42.271  28.856  33.926  1.00  0.00     0.049 A 
ATOM     36  H   UNL A   1      40.667  30.065  33.370  1.00  0.00     0.167 HD
ATOM     37  C   UNL A   1      37.432  32.685  31.975  1.00  0.00     0.037 A 
ATOM     38  C   UNL A   1      42.699  29.286  35.129  1.00  0.00     0.037 A 
ATOM     39  C   UNL A   1      37.833  33.226  33.249  1.00  0.00     0.049 A 
ATOM     40  C   UNL A   1      42.040  30.488  35.752  1.00  0.00     0.074 A 
ATOM     41  C   UNL A   1      37.300  34.304  33.935  1.00  0.00     0.029 A 
ATOM     42  N   UNL A   1      38.850  32.713  34.040  1.00  0.00    -0.354 N 
ATOM     43  N   UNL A   1      41.046  31.212  35.299  1.00  0.00    -0.248 NA
ATOM     44  C   UNL A   1      42.570  30.937  37.047  1.00  0.00     0.031 C 
ATOM     45  C   UNL A   1      38.013  34.459  35.128  1.00  0.00     0.029 A 
ATOM     46  C   UNL A   1      38.961  33.452  35.206  1.00  0.00     0.049 A 
ATOM     47  H   UNL A   1      39.410  31.937  33.809  1.00  0.00     0.167 HD
ATOM     48  C   UNL A   1      40.811  32.184  36.264  1.00  0.00     0.074 A 
ATOM     49  C   UNL A   1      41.761  31.948  37.333  1.00  0.00     0.031 C 
ATOM     50  C   UNL A   1      39.896  33.183  36.269  1.00  0.00     0.037 A 
BRANCH  37  51
ATOM     51  C   UNL A   1      36.329  33.385  31.227  1.00  0.00     0.058 A 
ATOM     52  C   UNL A   1      34.995  33.365  31.662  1.00  0.00     0.135 A 
ATOM     53  C   UNL A   1      36.630  34.135  30.077  1.00  0.00     0.135 A 
ATOM     54  F   UNL A   1      34.647  32.648  32.743  1.00  0.00    -0.206 F 
ATOM     55  C   UNL A   1      33.997  34.050  30.975  1.00  0.00     0.059 A 
ATOM     56  C   UNL A   1      35.653  34.849  29.390  1.00  0.00     0.059 A 
ATOM     57  F   UNL A   1      37.890  34.188  29.616  1.00  0.00    -0.206 F 
ATOM     58  C   UNL A   1      34.336  34.791  29.841  1.00  0.00     0.060 A 
BRANCH  58  59
ATOM     59  S   UNL A   1      33.036  35.696  28.973  1.00  0.00     0.124 S 
ATOM     60  O   UNL A   1      32.515  34.668  28.076  1.00  0.00    -0.237 OA
ATOM     61  O   UNL A   1      32.150  36.093  30.063  1.00  0.00    -0.237 OA
ATOM     62  O   UNL A   1      33.755  36.788  28.326  1.00  0.00    -0.744 OA
ENDBRANCH  58  59
ENDBRANCH  37  51
BRANCH  38  63
ATOM     63  C   UNL A   1      43.832  28.604  35.814  1.00  0.00     0.058 A 
ATOM     64  C   UNL A   1      45.158  28.996  35.584  1.00  0.00     0.135 A 
ATOM     65  C   UNL A   1      43.611  27.534  36.695  1.00  0.00     0.135 A 
ATOM     66  F   UNL A   1      45.422  30.008  34.743  1.00  0.00    -0.206 F 
ATOM     67  C   UNL A   1      46.229  28.337  36.182  1.00  0.00     0.059 A 
ATOM     68  C   UNL A   1      44.662  26.878  37.329  1.00  0.00     0.059 A 
ATOM     69  F   UNL A   1      42.360  27.125  36.960  1.00  0.00    -0.206 F 
ATOM     70  C   UNL A   1      45.969  27.277  37.052  1.00  0.00     0.060 A 
BRANCH  70  71
ATOM     71  S   UNL A   1      47.359  26.438  37.843  1.00  0.00     0.124 S 
ATOM     72  O   UNL A   1      48.185  26.091  36.691  1.00  0.00    -0.237 OA
ATOM     73  O   UNL A   1      47.891  27.478  38.720  1.00  0.00    -0.237 OA
ATOM     74  O   UNL A   1      46.726  25.315  38.528  1.00  0.00    -0.744 OA
ENDBRANCH  70  71
ENDBRANCH  38  63
BRANCH  50  75
ATOM     75  C   UNL A   1      39.830  34.048  37.496  1.00  0.00     0.058 A 
ATOM     76  C   UNL A   1      38.972  33.754  38.566  1.00  0.00     0.135 A 
ATOM     77  C   UNL A   1      40.656  35.179  37.605  1.00  0.00     0.135 A 
ATOM     78  F   UNL A   1      38.159  32.687  38.508  1.00  0.00    -0.206 F 
ATOM     79  C   UNL A   1      38.907  34.573  39.689  1.00  0.00     0.059 A 
ATOM     80  C   UNL A   1      40.627  35.996  38.730  1.00  0.00     0.059 A 
ATOM     81  F   UNL A   1      41.503  35.495  36.614  1.00  0.00    -0.206 F 
ATOM     82  C   UNL A   1      39.735  35.695  39.759  1.00  0.00     0.060 A 
BRANCH  82  83
ATOM     83  S   UNL A   1      39.649  36.750  41.220  1.00  0.00     0.124 S 
ATOM     84  O   UNL A   1      41.063  36.981  41.499  1.00  0.00    -0.237 OA
ATOM     85  O   UNL A   1      38.903  37.906  40.731  1.00  0.00    -0.237 OA
ATOM     86  O   UNL A   1      38.943  35.924  42.194  1.00  0.00    -0.744 OA
ENDBRANCH  82  83
ENDBRANCH  50  75
ENDBRANCH  24  25
ENDBRANCH  17  19
ENDBRANCH  16  17
ENDBRANCH   1  16
TORSDOF 16
ENDMDL
MODEL 3
REMARK VINA RESULT:      -8.8      3.360     11.518
REMARK SMILES CC(=O)Oc1ccccc1C(=O)OCCOC(=O)c1ccc(-c2c3nc(c(-c4c(F)cc(S(=O)(=O)[O-])cc4F)c4ccc([nH]4)c(-c4c(F)cc(S(=O)(=O)[O-])cc4F)c4nc(c(-c5c(F)cc(S(=O)(=O)[O-])cc5F)c5ccc2[nH]5)C=C4)C=C3)cc1
REMARK SMILES IDX 15 1 14 2 13 3 11 4 12 5 10 6 5 7 6 8 7 9 9 10 8 11 4 12
REMARK SMILES IDX 2 13 1 14 3 15 16 16 17 17 18 18 19 19 20 20 84 21 21 22
REMARK SMILES IDX 83 23 22 24 23 25 24 26 77 27 25 28 82 29 76 30 78 31 26 32
REMARK SMILES IDX 81 33 75 34 74 35 27 37 61 38 40 39 60 40 41 41 44 42 59 43
REMARK SMILES IDX 79 44 42 45 43 46 58 48 80 49 45 50 28 51 29 52 38 53 30 54
REMARK SMILES IDX 31 55 37 56 39 57 32 58 33 59 34 60 35 61 36 62 62 63 63 64
REMARK SMILES IDX 72 65 64 66 65 67 71 68 73 69 66 70 67 71 68 72 69 73 70 74
REMARK SMILES IDX 46 75 47 76 56 77 48 78 49 79 55 80 57 81 50 82 51 83 52 84
REMARK SMILES IDX 53 85 54 86
REMARK H PARENT 78 36 44 47
REMARK Flexibility Score: inf
ROOT
ATOM      1  C   UNL A   1      40.252  22.968  27.260  1.00  0.00     0.275 C 
ENDROOT
BRANCH   1   2
ATOM      2  C   UNL A   1      40.142  21.719  26.388  1.00  0.00     0.275 C 
BRANCH   2   3
ATOM      3  O   UNL A   1      41.384  21.428  25.715  1.00  0.00    -0.458 OA
BRANCH   3   4
ATOM      4  C   UNL A   1      42.426  21.060  26.505  1.00  0.00     0.342 C 
ATOM      5  O   UNL A   1      42.367  20.265  27.432  1.00  0.00    -0.246 OA
BRANCH   4   6
ATOM      6  C   UNL A   1      43.704  21.677  26.062  1.00  0.00     0.102 A 
ATOM      7  C   UNL A   1      44.489  21.205  25.001  1.00  0.00     0.145 A 
ATOM      8  C   UNL A   1      45.695  21.837  24.668  1.00  0.00     0.048 A 
ATOM      9  C   UNL A   1      46.123  22.951  25.391  1.00  0.00     0.004 A 
ATOM     10  C   UNL A   1      44.134  22.824  26.752  1.00  0.00     0.019 A 
ATOM     11  C   UNL A   1      45.345  23.442  26.436  1.00  0.00     0.001 A 
BRANCH   7  12
ATOM     12  O   UNL A   1      44.194  20.041  24.278  1.00  0.00    -0.426 OA
BRANCH  12  13
ATOM     13  C   UNL A   1      44.338  18.844  24.967  1.00  0.00     0.308 C 
ATOM     14  C   UNL A   1      45.779  18.672  25.345  1.00  0.00     0.139 C 
ATOM     15  O   UNL A   1      43.455  18.037  25.226  1.00  0.00    -0.252 OA
ENDBRANCH  12  13
ENDBRANCH   7  12
ENDBRANCH   4   6
ENDBRANCH   3   4
ENDBRANCH   2   3
ENDBRANCH   1   2
BRANCH   1  16
ATOM     16  O   UNL A   1      39.641  24.093  26.608  1.00  0.00    -0.458 OA
BRANCH  16  17
ATOM     17  C   UNL A   1      40.462  25.151  26.423  1.00  0.00     0.338 C 
ATOM     18  O   UNL A   1      40.958  25.533  25.375  1.00  0.00    -0.246 OA
BRANCH  17  19
ATOM     19  C   UNL A   1      40.607  25.891  27.682  1.00  0.00     0.060 A 
ATOM     20  C   UNL A   1      39.494  25.961  28.515  1.00  0.00     0.016 A 
ATOM     21  C   UNL A   1      41.743  26.648  27.951  1.00  0.00     0.016 A 
ATOM     22  C   UNL A   1      39.467  26.863  29.573  1.00  0.00     0.010 A 
ATOM     23  C   UNL A   1      41.740  27.506  29.058  1.00  0.00     0.010 A 
ATOM     24  C   UNL A   1      40.584  27.661  29.849  1.00  0.00    -0.014 A 
BRANCH  24  25
ATOM     25  C   UNL A   1      40.497  28.729  30.885  1.00  0.00     0.031 A 
ATOM     26  C   UNL A   1      41.463  28.717  32.044  1.00  0.00     0.074 A 
ATOM     27  C   UNL A   1      39.596  29.726  30.776  1.00  0.00     0.049 A 
ATOM     28  N   UNL A   1      41.458  29.439  33.135  1.00  0.00    -0.248 NA
ATOM     29  C   UNL A   1      42.574  27.753  31.973  1.00  0.00     0.031 C 
ATOM     30  C   UNL A   1      38.644  29.897  29.675  1.00  0.00     0.029 A 
ATOM     31  N   UNL A   1      39.339  30.794  31.600  1.00  0.00    -0.354 N 
ATOM     32  C   UNL A   1      42.514  28.967  33.910  1.00  0.00     0.074 A 
ATOM     33  C   UNL A   1      43.143  27.902  33.161  1.00  0.00     0.031 C 
ATOM     34  C   UNL A   1      37.932  31.017  29.877  1.00  0.00     0.029 A 
ATOM     35  C   UNL A   1      38.317  31.601  31.156  1.00  0.00     0.049 A 
ATOM     36  H   UNL A   1      39.839  30.966  32.431  1.00  0.00     0.167 HD
ATOM     37  C   UNL A   1      42.916  29.383  35.134  1.00  0.00     0.037 A 
ATOM     38  C   UNL A   1      37.729  32.668  31.733  1.00  0.00     0.037 A 
ATOM     39  C   UNL A   1      42.336  30.502  35.834  1.00  0.00     0.049 A 
ATOM     40  C   UNL A   1      38.198  33.113  33.092  1.00  0.00     0.074 A 
ATOM     41  C   UNL A   1      42.687  31.021  37.068  1.00  0.00     0.029 A 
ATOM     42  N   UNL A   1      41.302  31.288  35.348  1.00  0.00    -0.354 N 
ATOM     43  N   UNL A   1      39.155  32.617  33.839  1.00  0.00    -0.248 NA
ATOM     44  C   UNL A   1      37.499  34.258  33.691  1.00  0.00     0.031 C 
ATOM     45  C   UNL A   1      41.845  32.105  37.342  1.00  0.00     0.029 A 
ATOM     46  C   UNL A   1      41.001  32.288  36.259  1.00  0.00     0.049 A 
ATOM     47  H   UNL A   1      40.850  31.157  34.484  1.00  0.00     0.167 HD
ATOM     48  C   UNL A   1      39.192  33.406  34.983  1.00  0.00     0.074 A 
ATOM     49  C   UNL A   1      38.169  34.420  34.824  1.00  0.00     0.031 C 
ATOM     50  C   UNL A   1      39.997  33.303  36.068  1.00  0.00     0.037 A 
BRANCH  37  51
ATOM     51  C   UNL A   1      44.012  28.613  35.819  1.00  0.00     0.058 A 
ATOM     52  C   UNL A   1      45.367  28.945  35.677  1.00  0.00     0.135 A 
ATOM     53  C   UNL A   1      43.686  27.549  36.679  1.00  0.00     0.135 A 
ATOM     54  F   UNL A   1      45.737  29.939  34.854  1.00  0.00    -0.206 F 
ATOM     55  C   UNL A   1      46.362  28.241  36.350  1.00  0.00     0.059 A 
ATOM     56  C   UNL A   1      44.662  26.849  37.382  1.00  0.00     0.059 A 
ATOM     57  F   UNL A   1      42.404  27.187  36.851  1.00  0.00    -0.206 F 
ATOM     58  C   UNL A   1      45.999  27.195  37.202  1.00  0.00     0.060 A 
BRANCH  58  59
ATOM     59  S   UNL A   1      47.297  26.306  38.088  1.00  0.00     0.124 S 
ATOM     60  O   UNL A   1      47.330  27.029  39.357  1.00  0.00    -0.237 OA
ATOM     61  O   UNL A   1      46.763  24.949  38.146  1.00  0.00    -0.237 OA
ATOM     62  O   UNL A   1      48.470  26.477  37.237  1.00  0.00    -0.744 OA
ENDBRANCH  58  59
ENDBRANCH  37  51
BRANCH  38  63
ATOM     63  C   UNL A   1      36.609  33.372  31.049  1.00  0.00     0.058 A 
ATOM     64  C   UNL A   1      35.287  33.227  31.494  1.00  0.00     0.135 A 
ATOM     65  C   UNL A   1      36.836  34.185  29.929  1.00  0.00     0.135 A 
ATOM     66  F   UNL A   1      35.016  32.453  32.555  1.00  0.00    -0.206 F 
ATOM     67  C   UNL A   1      34.225  33.843  30.837  1.00  0.00     0.059 A 
ATOM     68  C   UNL A   1      35.796  34.836  29.273  1.00  0.00     0.059 A 
ATOM     69  F   UNL A   1      38.084  34.367  29.469  1.00  0.00    -0.206 F 
ATOM     70  C   UNL A   1      34.491  34.644  29.725  1.00  0.00     0.060 A 
BRANCH  70  71
ATOM     71  S   UNL A   1      33.113  35.459  28.889  1.00  0.00     0.124 S 
ATOM     72  O   UNL A   1      32.539  34.354  28.128  1.00  0.00    -0.237 OA
ATOM     73  O   UNL A   1      32.314  35.946  30.009  1.00  0.00    -0.237 OA
ATOM     74  O   UNL A   1      33.768  36.497  28.099  1.00  0.00    -0.744 OA
ENDBRANCH  70  71
ENDBRANCH  38  63
BRANCH  50  75
ATOM     75  C   UNL A   1      39.852  34.354  37.133  1.00  0.00     0.058 A 
ATOM     76  C   UNL A   1      39.076  34.143  38.282  1.00  0.00     0.135 A 
ATOM     77  C   UNL A   1      40.518  35.583  37.004  1.00  0.00     0.135 A 
ATOM     78  F   UNL A   1      38.415  32.987  38.451  1.00  0.00    -0.206 F 
ATOM     79  C   UNL A   1      38.934  35.131  39.253  1.00  0.00     0.059 A 
ATOM     80  C   UNL A   1      40.413  36.574  37.974  1.00  0.00     0.059 A 
ATOM     81  F   UNL A   1      41.283  35.828  35.929  1.00  0.00    -0.206 F 
ATOM     82  C   UNL A   1      39.603  36.346  39.086  1.00  0.00     0.060 A 
BRANCH  82  83
ATOM     83  S   UNL A   1      39.419  37.621  40.350  1.00  0.00     0.124 S 
ATOM     84  O   UNL A   1      38.794  36.870  41.434  1.00  0.00    -0.237 OA
ATOM     85  O   UNL A   1      40.799  38.037  40.581  1.00  0.00    -0.237 OA
ATOM     86  O   UNL A   1      38.571  38.618  39.704  1.00  0.00    -0.744 OA
ENDBRANCH  82  83
ENDBRANCH  50  75
ENDBRANCH  24  25
ENDBRANCH  17  19
ENDBRANCH  16  17
ENDBRANCH   1  16
TORSDOF 16
ENDMDL
