MODEL 1
REMARK VINA RESULT:     -11.8      0.000      0.000
REMARK SMILES O=C(Nc1ccc(/C=C/C(=O)OCCOC(=O)c2ccc(-c3c4nc(c(-c5c(F)cc(S(=O)(=O)[O-])cc5F)c5ccc([nH]5)c(-c5c(F)cc(S(=O)(=O)[O-])cc5F)c5nc(c(-c6c(F)cc(S(=O)(=O)[O-])cc6F)c6ccc3[nH]6)C=C5)C=C4)cc2)cc1F)NC1CCCC1
REMARK SMILES IDX 13 1 12 2 10 3 11 4 9 5 8 6 7 7 4 8 5 9 85 10 6 11 84 12
REMARK SMILES IDX 86 13 3 14 1 15 2 16 87 17 88 20 89 21 92 22 90 23 91 24
REMARK SMILES IDX 14 25 15 26 16 27 17 28 18 29 19 30 83 31 20 32 82 33 21 34
REMARK SMILES IDX 22 35 23 36 76 37 24 38 81 39 75 40 77 41 25 42 80 43 74 44
REMARK SMILES IDX 73 45 26 47 60 48 39 49 59 50 40 51 43 52 58 53 78 54 41 55
REMARK SMILES IDX 42 56 57 58 79 59 44 60 27 61 28 62 37 63 29 64 30 65 36 66
REMARK SMILES IDX 38 67 31 68 32 69 33 70 34 71 35 72 61 73 62 74 71 75 63 76
REMARK SMILES IDX 64 77 70 78 72 79 65 80 66 81 67 82 68 83 69 84 45 85 46 86
REMARK SMILES IDX 55 87 47 88 48 89 54 90 56 91 49 92 50 93 51 94 52 95 53 96
REMARK H PARENT 3 18 87 19 77 46 43 57
REMARK Flexibility Score: inf
ROOT
ATOM      1  C   UNL A   1      33.900  31.830  28.009  1.00  0.00     0.275 C 
ENDROOT
BRANCH   1   2
ATOM      2  O   UNL A   1      33.404  30.532  27.636  1.00  0.00    -0.459 OA
BRANCH   2   3
ATOM      3  C   UNL A   1      32.324  30.529  26.818  1.00  0.00     0.330 C 
ATOM      4  O   UNL A   1      31.611  31.487  26.559  1.00  0.00    -0.247 OA
BRANCH   3   5
ATOM      5  C   UNL A   1      32.079  29.207  26.210  1.00  0.00     0.094 C 
ATOM      6  C   UNL A   1      31.379  28.990  25.086  1.00  0.00     0.016 C 
BRANCH   6   7
ATOM      7  C   UNL A   1      31.169  27.635  24.566  1.00  0.00    -0.022 A 
ATOM      8  C   UNL A   1      30.978  25.006  23.558  1.00  0.00     0.078 A 
ATOM      9  C   UNL A   1      30.605  25.284  24.875  1.00  0.00     0.030 A 
ATOM     10  C   UNL A   1      31.332  26.080  22.730  1.00  0.00     0.147 A 
ATOM     11  C   UNL A   1      30.719  26.586  25.378  1.00  0.00     0.010 A 
ATOM     12  C   UNL A   1      31.426  27.380  23.219  1.00  0.00     0.049 A 
ATOM     13  F   UNL A   1      31.592  25.889  21.428  1.00  0.00    -0.205 F 
BRANCH   8  14
ATOM     14  N   UNL A   1      30.978  23.657  23.150  1.00  0.00    -0.305 N 
ATOM     15  O   UNL A   1      31.822  21.702  22.422  1.00  0.00    -0.248 OA
ATOM     16  C   UNL A   1      32.019  22.790  22.957  1.00  0.00     0.319 C 
ATOM     17  N   UNL A   1      33.213  23.148  23.501  1.00  0.00    -0.335 N 
ATOM     18  H   UNL A   1      30.086  23.278  22.976  1.00  0.00     0.171 HD
ATOM     19  H   UNL A   1      33.262  24.022  23.952  1.00  0.00     0.165 HD
BRANCH  17  20
ATOM     20  C   UNL A   1      34.413  22.350  23.469  1.00  0.00     0.083 C 
ATOM     21  C   UNL A   1      35.659  23.227  23.403  1.00  0.00     0.025 C 
ATOM     22  C   UNL A   1      34.609  21.588  24.777  1.00  0.00     0.025 C 
ATOM     23  C   UNL A   1      36.772  22.320  23.901  1.00  0.00     0.002 C 
ATOM     24  C   UNL A   1      36.113  21.359  24.890  1.00  0.00     0.002 C 
ENDBRANCH  17  20
ENDBRANCH   8  14
ENDBRANCH   6   7
ENDBRANCH   3   5
ENDBRANCH   2   3
ENDBRANCH   1   2
BRANCH   1  25
ATOM     25  C   UNL A   1      35.051  31.717  29.013  1.00  0.00     0.275 C 
BRANCH  25  26
ATOM     26  O   UNL A   1      35.600  30.388  29.059  1.00  0.00    -0.458 OA
BRANCH  26  27
ATOM     27  C   UNL A   1      36.365  30.126  30.146  1.00  0.00     0.338 C 
ATOM     28  O   UNL A   1      35.971  29.922  31.283  1.00  0.00    -0.246 OA
BRANCH  27  29
ATOM     29  C   UNL A   1      37.786  30.010  29.766  1.00  0.00     0.060 A 
ATOM     30  C   UNL A   1      38.089  29.954  28.402  1.00  0.00     0.016 A 
ATOM     31  C   UNL A   1      38.794  29.856  30.722  1.00  0.00     0.016 A 
ATOM     32  C   UNL A   1      39.396  29.707  27.988  1.00  0.00     0.010 A 
ATOM     33  C   UNL A   1      40.107  29.607  30.303  1.00  0.00     0.010 A 
ATOM     34  C   UNL A   1      40.409  29.502  28.935  1.00  0.00    -0.014 A 
BRANCH  34  35
ATOM     35  C   UNL A   1      41.754  29.076  28.474  1.00  0.00     0.031 A 
ATOM     36  C   UNL A   1      42.890  30.060  28.487  1.00  0.00     0.074 A 
ATOM     37  C   UNL A   1      41.972  27.798  28.114  1.00  0.00     0.049 A 
ATOM     38  N   UNL A   1      44.145  29.878  28.168  1.00  0.00    -0.248 NA
ATOM     39  C   UNL A   1      42.571  31.429  28.921  1.00  0.00     0.031 C 
ATOM     40  C   UNL A   1      40.958  26.744  28.092  1.00  0.00     0.029 A 
ATOM     41  N   UNL A   1      43.122  27.167  27.712  1.00  0.00    -0.354 N 
ATOM     42  C   UNL A   1      44.768  31.105  28.363  1.00  0.00     0.074 A 
ATOM     43  C   UNL A   1      43.745  32.034  28.797  1.00  0.00     0.031 C 
ATOM     44  C   UNL A   1      41.535  25.591  27.716  1.00  0.00     0.029 A 
ATOM     45  C   UNL A   1      42.952  25.829  27.444  1.00  0.00     0.049 A 
ATOM     46  H   UNL A   1      43.988  27.628  27.624  1.00  0.00     0.167 HD
ATOM     47  C   UNL A   1      46.075  31.426  28.210  1.00  0.00     0.037 A 
ATOM     48  C   UNL A   1      43.837  24.901  27.028  1.00  0.00     0.037 A 
ATOM     49  C   UNL A   1      47.091  30.502  27.777  1.00  0.00     0.049 A 
ATOM     50  C   UNL A   1      45.277  25.288  26.827  1.00  0.00     0.074 A 
ATOM     51  C   UNL A   1      48.440  30.740  27.570  1.00  0.00     0.029 A 
ATOM     52  N   UNL A   1      46.872  29.163  27.487  1.00  0.00    -0.354 N 
ATOM     53  N   UNL A   1      45.848  26.455  27.006  1.00  0.00    -0.248 NA
ATOM     54  C   UNL A   1      46.194  24.233  26.376  1.00  0.00     0.031 C 
ATOM     55  C   UNL A   1      49.030  29.551  27.127  1.00  0.00     0.029 A 
ATOM     56  C   UNL A   1      48.059  28.563  27.099  1.00  0.00     0.049 A 
ATOM     57  H   UNL A   1      46.003  28.707  27.548  1.00  0.00     0.167 HD
ATOM     58  C   UNL A   1      47.195  26.269  26.715  1.00  0.00     0.074 A 
ATOM     59  C   UNL A   1      47.355  24.876  26.352  1.00  0.00     0.031 C 
ATOM     60  C   UNL A   1      48.207  27.172  26.749  1.00  0.00     0.037 A 
BRANCH  47  61
ATOM     61  C   UNL A   1      46.477  32.846  28.500  1.00  0.00     0.058 A 
ATOM     62  C   UNL A   1      46.861  33.228  29.793  1.00  0.00     0.135 A 
ATOM     63  C   UNL A   1      46.460  33.832  27.501  1.00  0.00     0.135 A 
ATOM     64  F   UNL A   1      46.901  32.323  30.784  1.00  0.00    -0.206 F 
ATOM     65  C   UNL A   1      47.214  34.542  30.089  1.00  0.00     0.059 A 
ATOM     66  C   UNL A   1      46.831  35.147  27.768  1.00  0.00     0.059 A 
ATOM     67  F   UNL A   1      46.124  33.512  26.241  1.00  0.00    -0.206 F 
ATOM     68  C   UNL A   1      47.199  35.494  29.069  1.00  0.00     0.060 A 
BRANCH  68  69
ATOM     69  S   UNL A   1      47.728  37.178  29.449  1.00  0.00     0.124 S 
ATOM     70  O   UNL A   1      48.341  37.591  28.192  1.00  0.00    -0.237 OA
ATOM     71  O   UNL A   1      46.465  37.829  29.785  1.00  0.00    -0.237 OA
ATOM     72  O   UNL A   1      48.645  36.997  30.570  1.00  0.00    -0.744 OA
ENDBRANCH  68  69
ENDBRANCH  47  61
BRANCH  48  73
ATOM     73  C   UNL A   1      43.379  23.505  26.807  1.00  0.00     0.058 A 
ATOM     74  C   UNL A   1      43.078  22.662  27.888  1.00  0.00     0.135 A 
ATOM     75  C   UNL A   1      43.283  22.973  25.513  1.00  0.00     0.135 A 
ATOM     76  F   UNL A   1      43.160  23.123  29.145  1.00  0.00    -0.206 F 
ATOM     77  C   UNL A   1      42.730  21.330  27.694  1.00  0.00     0.059 A 
ATOM     78  C   UNL A   1      42.915  21.649  25.293  1.00  0.00     0.059 A 
ATOM     79  F   UNL A   1      43.547  23.747  24.450  1.00  0.00    -0.206 F 
ATOM     80  C   UNL A   1      42.661  20.829  26.393  1.00  0.00     0.060 A 
BRANCH  80  81
ATOM     81  S   UNL A   1      42.244  19.088  26.165  1.00  0.00     0.124 S 
ATOM     82  O   UNL A   1      43.126  18.721  25.062  1.00  0.00    -0.237 OA
ATOM     83  O   UNL A   1      42.581  18.518  27.465  1.00  0.00    -0.237 OA
ATOM     84  O   UNL A   1      40.820  19.121  25.847  1.00  0.00    -0.744 OA
ENDBRANCH  80  81
ENDBRANCH  48  73
BRANCH  60  85
ATOM     85  C   UNL A   1      49.590  26.683  26.421  1.00  0.00     0.058 A 
ATOM     86  C   UNL A   1      50.088  26.792  25.113  1.00  0.00     0.135 A 
ATOM     87  C   UNL A   1      50.394  26.043  27.378  1.00  0.00     0.135 A 
ATOM     88  F   UNL A   1      49.357  27.391  24.158  1.00  0.00    -0.206 F 
ATOM     89  C   UNL A   1      51.330  26.275  24.761  1.00  0.00     0.059 A 
ATOM     90  C   UNL A   1      51.649  25.537  27.053  1.00  0.00     0.059 A 
ATOM     91  F   UNL A   1      49.966  25.921  28.645  1.00  0.00    -0.206 F 
ATOM     92  C   UNL A   1      52.102  25.644  25.738  1.00  0.00     0.060 A 
BRANCH  92  93
ATOM     93  S   UNL A   1      53.720  24.994  25.271  1.00  0.00     0.124 S 
ATOM     94  O   UNL A   1      53.502  23.555  25.364  1.00  0.00    -0.237 OA
ATOM     95  O   UNL A   1      53.892  25.526  23.923  1.00  0.00    -0.237 OA
ATOM     96  O   UNL A   1      54.615  25.560  26.277  1.00  0.00    -0.744 OA
ENDBRANCH  92  93
ENDBRANCH  60  85
ENDBRANCH  34  35
ENDBRANCH  27  29
ENDBRANCH  26  27
ENDBRANCH  25  26
ENDBRANCH   1  25
TORSDOF 17
ENDMDL
MODEL 2
REMARK VINA RESULT:     -11.7      3.096      3.902
REMARK SMILES O=C(Nc1ccc(/C=C/C(=O)OCCOC(=O)c2ccc(-c3c4nc(c(-c5c(F)cc(S(=O)(=O)[O-])cc5F)c5ccc([nH]5)c(-c5c(F)cc(S(=O)(=O)[O-])cc5F)c5nc(c(-c6c(F)cc(S(=O)(=O)[O-])cc6F)c6ccc3[nH]6)C=C5)C=C4)cc2)cc1F)NC1CCCC1
REMARK SMILES IDX 13 1 12 2 10 3 11 4 9 5 8 6 7 7 4 8 5 9 85 10 6 11 84 12
REMARK SMILES IDX 86 13 3 14 1 15 2 16 87 17 88 20 89 21 92 22 90 23 91 24
REMARK SMILES IDX 14 25 15 26 16 27 17 28 18 29 19 30 83 31 20 32 82 33 21 34
REMARK SMILES IDX 22 35 23 36 76 37 24 38 81 39 75 40 77 41 25 42 80 43 74 44
REMARK SMILES IDX 73 45 26 47 60 48 39 49 59 50 40 51 43 52 58 53 78 54 41 55
REMARK SMILES IDX 42 56 57 58 79 59 44 60 27 61 28 62 37 63 29 64 30 65 36 66
REMARK SMILES IDX 38 67 31 68 32 69 33 70 34 71 35 72 61 73 62 74 71 75 63 76
REMARK SMILES IDX 64 77 70 78 72 79 65 80 66 81 67 82 68 83 69 84 45 85 46 86
REMARK SMILES IDX 55 87 47 88 48 89 54 90 56 91 49 92 50 93 51 94 52 95 53 96
REMARK H PARENT 3 18 87 19 77 46 43 57
REMARK Flexibility Score: inf
ROOT
ATOM      1  C   UNL A   1      32.186  29.508  25.649  1.00  0.00     0.275 C 
ENDROOT
BRANCH   1   2
ATOM      2  O   UNL A   1      31.150  30.077  24.829  1.00  0.00    -0.459 OA
BRANCH   2   3
ATOM      3  C   UNL A   1      30.548  29.223  23.967  1.00  0.00     0.330 C 
ATOM      4  O   UNL A   1      29.861  29.533  23.005  1.00  0.00    -0.247 OA
BRANCH   3   5
ATOM      5  C   UNL A   1      30.824  27.809  24.286  1.00  0.00     0.094 C 
ATOM      6  C   UNL A   1      29.911  26.825  24.295  1.00  0.00     0.016 C 
BRANCH   6   7
ATOM      7  C   UNL A   1      30.274  25.448  24.644  1.00  0.00    -0.022 A 
ATOM      8  C   UNL A   1      31.178  22.851  25.277  1.00  0.00     0.078 A 
ATOM      9  C   UNL A   1      30.700  23.694  26.282  1.00  0.00     0.030 A 
ATOM     10  C   UNL A   1      31.085  23.286  23.948  1.00  0.00     0.147 A 
ATOM     11  C   UNL A   1      30.270  24.990  25.968  1.00  0.00     0.010 A 
ATOM     12  C   UNL A   1      30.638  24.565  23.628  1.00  0.00     0.049 A 
ATOM     13  F   UNL A   1      31.425  22.478  22.933  1.00  0.00    -0.205 F 
BRANCH   8  14
ATOM     14  N   UNL A   1      31.730  21.614  25.669  1.00  0.00    -0.305 N 
ATOM     15  O   UNL A   1      33.307  20.035  25.957  1.00  0.00    -0.248 OA
ATOM     16  C   UNL A   1      33.036  21.219  25.769  1.00  0.00     0.319 C 
ATOM     17  N   UNL A   1      33.968  22.209  25.782  1.00  0.00    -0.335 N 
ATOM     18  H   UNL A   1      31.069  20.925  25.910  1.00  0.00     0.171 HD
ATOM     19  H   UNL A   1      33.649  23.133  25.672  1.00  0.00     0.165 HD
BRANCH  17  20
ATOM     20  C   UNL A   1      35.387  22.011  25.945  1.00  0.00     0.083 C 
ATOM     21  C   UNL A   1      36.016  21.448  24.676  1.00  0.00     0.025 C 
ATOM     22  C   UNL A   1      36.117  23.341  26.120  1.00  0.00     0.025 C 
ATOM     23  C   UNL A   1      37.489  21.796  24.813  1.00  0.00     0.002 C 
ATOM     24  C   UNL A   1      37.537  23.090  25.624  1.00  0.00     0.002 C 
ENDBRANCH  17  20
ENDBRANCH   8  14
ENDBRANCH   6   7
ENDBRANCH   3   5
ENDBRANCH   2   3
ENDBRANCH   1   2
BRANCH   1  25
ATOM     25  C   UNL A   1      32.523  30.423  26.830  1.00  0.00     0.275 C 
BRANCH  25  26
ATOM     26  O   UNL A   1      33.539  29.858  27.679  1.00  0.00    -0.458 OA
BRANCH  26  27
ATOM     27  C   UNL A   1      34.438  30.751  28.162  1.00  0.00     0.338 C 
ATOM     28  O   UNL A   1      34.204  31.885  28.548  1.00  0.00    -0.246 OA
BRANCH  27  29
ATOM     29  C   UNL A   1      35.775  30.137  28.267  1.00  0.00     0.060 A 
ATOM     30  C   UNL A   1      36.173  29.663  29.521  1.00  0.00     0.016 A 
ATOM     31  C   UNL A   1      36.663  30.116  27.189  1.00  0.00     0.016 A 
ATOM     32  C   UNL A   1      37.473  29.200  29.711  1.00  0.00     0.010 A 
ATOM     33  C   UNL A   1      37.970  29.652  27.382  1.00  0.00     0.010 A 
ATOM     34  C   UNL A   1      38.390  29.218  28.651  1.00  0.00    -0.014 A 
BRANCH  34  35
ATOM     35  C   UNL A   1      39.810  28.879  28.918  1.00  0.00     0.031 A 
ATOM     36  C   UNL A   1      40.683  29.860  29.649  1.00  0.00     0.074 A 
ATOM     37  C   UNL A   1      40.294  27.673  28.570  1.00  0.00     0.049 A 
ATOM     38  N   UNL A   1      41.932  29.739  30.019  1.00  0.00    -0.248 NA
ATOM     39  C   UNL A   1      40.068  31.144  30.018  1.00  0.00     0.031 C 
ATOM     40  C   UNL A   1      39.535  26.626  27.887  1.00  0.00     0.029 A 
ATOM     41  N   UNL A   1      41.536  27.120  28.758  1.00  0.00    -0.354 N 
ATOM     42  C   UNL A   1      42.254  30.927  30.664  1.00  0.00     0.074 A 
ATOM     43  C   UNL A   1      41.078  31.771  30.607  1.00  0.00     0.031 C 
ATOM     44  C   UNL A   1      40.322  25.549  27.730  1.00  0.00     0.029 A 
ATOM     45  C   UNL A   1      41.647  25.837  28.277  1.00  0.00     0.049 A 
ATOM     46  H   UNL A   1      42.277  27.596  29.198  1.00  0.00     0.167 HD
ATOM     47  C   UNL A   1      43.417  31.279  31.263  1.00  0.00     0.037 A 
ATOM     48  C   UNL A   1      42.696  24.991  28.277  1.00  0.00     0.037 A 
ATOM     49  C   UNL A   1      44.586  30.441  31.318  1.00  0.00     0.049 A 
ATOM     50  C   UNL A   1      43.990  25.416  28.914  1.00  0.00     0.074 A 
ATOM     51  C   UNL A   1      45.819  30.719  31.883  1.00  0.00     0.029 A 
ATOM     52  N   UNL A   1      44.667  29.160  30.792  1.00  0.00    -0.354 N 
ATOM     53  N   UNL A   1      44.282  26.548  29.511  1.00  0.00    -0.248 NA
ATOM     54  C   UNL A   1      45.097  24.450  28.886  1.00  0.00     0.031 C 
ATOM     55  C   UNL A   1      46.655  29.616  31.674  1.00  0.00     0.029 A 
ATOM     56  C   UNL A   1      45.929  28.636  31.015  1.00  0.00     0.049 A 
ATOM     57  H   UNL A   1      43.935  28.692  30.329  1.00  0.00     0.167 HD
ATOM     58  C   UNL A   1      45.594  26.420  29.951  1.00  0.00     0.074 A 
ATOM     59  C   UNL A   1      46.040  25.099  29.556  1.00  0.00     0.031 C 
ATOM     60  C   UNL A   1      46.358  27.315  30.625  1.00  0.00     0.037 A 
BRANCH  47  61
ATOM     61  C   UNL A   1      43.484  32.642  31.896  1.00  0.00     0.058 A 
ATOM     62  C   UNL A   1      43.097  32.828  33.231  1.00  0.00     0.135 A 
ATOM     63  C   UNL A   1      43.911  33.767  31.172  1.00  0.00     0.135 A 
ATOM     64  F   UNL A   1      42.687  31.785  33.970  1.00  0.00    -0.206 F 
ATOM     65  C   UNL A   1      43.129  34.084  33.829  1.00  0.00     0.059 A 
ATOM     66  C   UNL A   1      43.972  35.029  31.757  1.00  0.00     0.059 A 
ATOM     67  F   UNL A   1      44.314  33.637  29.898  1.00  0.00    -0.206 F 
ATOM     68  C   UNL A   1      43.571  35.179  33.084  1.00  0.00     0.060 A 
BRANCH  68  69
ATOM     69  S   UNL A   1      43.676  36.790  33.893  1.00  0.00     0.124 S 
ATOM     70  O   UNL A   1      42.531  36.747  34.795  1.00  0.00    -0.237 OA
ATOM     71  O   UNL A   1      44.989  36.731  34.528  1.00  0.00    -0.237 OA
ATOM     72  O   UNL A   1      43.570  37.731  32.783  1.00  0.00    -0.744 OA
ENDBRANCH  68  69
ENDBRANCH  47  61
BRANCH  48  73
ATOM     73  C   UNL A   1      42.543  23.641  27.676  1.00  0.00     0.058 A 
ATOM     74  C   UNL A   1      42.263  22.520  28.473  1.00  0.00     0.135 A 
ATOM     75  C   UNL A   1      42.724  23.439  26.300  1.00  0.00     0.135 A 
ATOM     76  F   UNL A   1      42.086  22.662  29.795  1.00  0.00    -0.206 F 
ATOM     77  C   UNL A   1      42.202  21.242  27.931  1.00  0.00     0.059 A 
ATOM     78  C   UNL A   1      42.645  22.171  25.731  1.00  0.00     0.059 A 
ATOM     79  F   UNL A   1      42.979  24.483  25.498  1.00  0.00    -0.206 F 
ATOM     80  C   UNL A   1      42.405  21.075  26.560  1.00  0.00     0.060 A 
BRANCH  80  81
ATOM     81  S   UNL A   1      42.358  19.403  25.883  1.00  0.00     0.124 S 
ATOM     82  O   UNL A   1      42.876  18.622  27.003  1.00  0.00    -0.237 OA
ATOM     83  O   UNL A   1      40.939  19.229  25.590  1.00  0.00    -0.237 OA
ATOM     84  O   UNL A   1      43.231  19.486  24.717  1.00  0.00    -0.744 OA
ENDBRANCH  80  81
ENDBRANCH  48  73
BRANCH  60  85
ATOM     85  C   UNL A   1      47.747  26.893  31.016  1.00  0.00     0.058 A 
ATOM     86  C   UNL A   1      48.835  27.168  30.171  1.00  0.00     0.135 A 
ATOM     87  C   UNL A   1      47.994  26.158  32.186  1.00  0.00     0.135 A 
ATOM     88  F   UNL A   1      48.652  27.864  29.037  1.00  0.00    -0.206 F 
ATOM     89  C   UNL A   1      50.117  26.719  30.466  1.00  0.00     0.059 A 
ATOM     90  C   UNL A   1      49.273  25.717  32.511  1.00  0.00     0.059 A 
ATOM     91  F   UNL A   1      46.989  25.878  33.031  1.00  0.00    -0.206 F 
ATOM     92  C   UNL A   1      50.326  25.989  31.638  1.00  0.00     0.060 A 
BRANCH  92  93
ATOM     93  S   UNL A   1      52.000  25.428  32.017  1.00  0.00     0.124 S 
ATOM     94  O   UNL A   1      52.724  25.811  30.811  1.00  0.00    -0.237 OA
ATOM     95  O   UNL A   1      52.319  26.192  33.219  1.00  0.00    -0.237 OA
ATOM     96  O   UNL A   1      51.836  23.992  32.223  1.00  0.00    -0.744 OA
ENDBRANCH  92  93
ENDBRANCH  60  85
ENDBRANCH  34  35
ENDBRANCH  27  29
ENDBRANCH  26  27
ENDBRANCH  25  26
ENDBRANCH   1  25
TORSDOF 17
ENDMDL
MODEL 3
REMARK VINA RESULT:     -11.6      4.398      7.047
REMARK SMILES O=C(Nc1ccc(/C=C/C(=O)OCCOC(=O)c2ccc(-c3c4nc(c(-c5c(F)cc(S(=O)(=O)[O-])cc5F)c5ccc([nH]5)c(-c5c(F)cc(S(=O)(=O)[O-])cc5F)c5nc(c(-c6c(F)cc(S(=O)(=O)[O-])cc6F)c6ccc3[nH]6)C=C5)C=C4)cc2)cc1F)NC1CCCC1
REMARK SMILES IDX 13 1 12 2 10 3 11 4 9 5 8 6 7 7 4 8 5 9 85 10 6 11 84 12
REMARK SMILES IDX 86 13 3 14 1 15 2 16 87 17 88 20 89 21 92 22 90 23 91 24
REMARK SMILES IDX 14 25 15 26 16 27 17 28 18 29 19 30 83 31 20 32 82 33 21 34
REMARK SMILES IDX 22 35 23 36 76 37 24 38 81 39 75 40 77 41 25 42 80 43 74 44
REMARK SMILES IDX 73 45 26 47 60 48 39 49 59 50 40 51 43 52 58 53 78 54 41 55
REMARK SMILES IDX 42 56 57 58 79 59 44 60 27 61 28 62 37 63 29 64 30 65 36 66
REMARK SMILES IDX 38 67 31 68 32 69 33 70 34 71 35 72 61 73 62 74 71 75 63 76
REMARK SMILES IDX 64 77 70 78 72 79 65 80 66 81 67 82 68 83 69 84 45 85 46 86
REMARK SMILES IDX 55 87 47 88 48 89 54 90 56 91 49 92 50 93 51 94 52 95 53 96
REMARK H PARENT 3 18 87 19 77 46 43 57
REMARK Flexibility Score: inf
ROOT
ATOM      1  C   UNL A   1      33.961  33.446  28.007  1.00  0.00     0.275 C 
ENDROOT
BRANCH   1   2
ATOM      2  O   UNL A   1      34.822  34.153  28.918  1.00  0.00    -0.459 OA
BRANCH   2   3
ATOM      3  C   UNL A   1      34.381  34.241  30.195  1.00  0.00     0.330 C 
ATOM      4  O   UNL A   1      33.307  34.699  30.559  1.00  0.00    -0.247 OA
BRANCH   3   5
ATOM      5  C   UNL A   1      35.344  33.686  31.166  1.00  0.00     0.094 C 
ATOM      6  C   UNL A   1      36.407  32.927  30.854  1.00  0.00     0.016 C 
BRANCH   6   7
ATOM      7  C   UNL A   1      37.300  32.401  31.891  1.00  0.00    -0.022 A 
ATOM      8  C   UNL A   1      38.942  31.539  34.017  1.00  0.00     0.078 A 
ATOM      9  C   UNL A   1      37.878  30.747  33.584  1.00  0.00     0.030 A 
ATOM     10  C   UNL A   1      39.237  32.703  33.294  1.00  0.00     0.147 A 
ATOM     11  C   UNL A   1      37.052  31.185  32.541  1.00  0.00     0.010 A 
ATOM     12  C   UNL A   1      38.433  33.134  32.243  1.00  0.00     0.049 A 
ATOM     13  F   UNL A   1      40.313  33.446  33.594  1.00  0.00    -0.205 F 
BRANCH   8  14
ATOM     14  N   UNL A   1      39.650  31.116  35.161  1.00  0.00    -0.305 N 
ATOM     15  O   UNL A   1      40.888  29.757  36.458  1.00  0.00    -0.248 OA
ATOM     16  C   UNL A   1      40.512  30.067  35.331  1.00  0.00     0.319 C 
ATOM     17  N   UNL A   1      41.010  29.504  34.197  1.00  0.00    -0.335 N 
ATOM     18  H   UNL A   1      39.499  31.662  35.966  1.00  0.00     0.171 HD
ATOM     19  H   UNL A   1      40.683  29.853  33.336  1.00  0.00     0.165 HD
BRANCH  17  20
ATOM     20  C   UNL A   1      41.978  28.437  34.156  1.00  0.00     0.083 C 
ATOM     21  C   UNL A   1      42.130  27.882  32.743  1.00  0.00     0.025 C 
ATOM     22  C   UNL A   1      43.383  28.948  34.468  1.00  0.00     0.025 C 
ATOM     23  C   UNL A   1      43.486  27.197  32.764  1.00  0.00     0.002 C 
ATOM     24  C   UNL A   1      44.329  27.975  33.773  1.00  0.00     0.002 C 
ENDBRANCH  17  20
ENDBRANCH   8  14
ENDBRANCH   6   7
ENDBRANCH   3   5
ENDBRANCH   2   3
ENDBRANCH   1   2
BRANCH   1  25
ATOM     25  C   UNL A   1      33.813  31.976  28.411  1.00  0.00     0.275 C 
BRANCH  25  26
ATOM     26  O   UNL A   1      34.144  31.083  27.332  1.00  0.00    -0.458 OA
BRANCH  26  27
ATOM     27  C   UNL A   1      34.464  29.823  27.715  1.00  0.00     0.338 C 
ATOM     28  O   UNL A   1      33.736  28.844  27.683  1.00  0.00    -0.246 OA
BRANCH  27  29
ATOM     29  C   UNL A   1      35.886  29.742  28.098  1.00  0.00     0.060 A 
ATOM     30  C   UNL A   1      36.839  29.984  27.103  1.00  0.00     0.016 A 
ATOM     31  C   UNL A   1      36.284  29.338  29.375  1.00  0.00     0.016 A 
ATOM     32  C   UNL A   1      38.192  29.788  27.372  1.00  0.00     0.010 A 
ATOM     33  C   UNL A   1      37.644  29.140  29.642  1.00  0.00     0.010 A 
ATOM     34  C   UNL A   1      38.602  29.336  28.634  1.00  0.00    -0.014 A 
BRANCH  34  35
ATOM     35  C   UNL A   1      40.026  28.974  28.844  1.00  0.00     0.031 A 
ATOM     36  C   UNL A   1      40.951  29.955  29.511  1.00  0.00     0.074 A 
ATOM     37  C   UNL A   1      40.471  27.750  28.505  1.00  0.00     0.049 A 
ATOM     38  N   UNL A   1      42.213  29.818  29.826  1.00  0.00    -0.248 NA
ATOM     39  C   UNL A   1      40.377  31.259  29.875  1.00  0.00     0.031 C 
ATOM     40  C   UNL A   1      39.662  26.703  27.883  1.00  0.00     0.029 A 
ATOM     41  N   UNL A   1      41.709  27.178  28.650  1.00  0.00    -0.354 N 
ATOM     42  C   UNL A   1      42.586  31.014  30.427  1.00  0.00     0.074 A 
ATOM     43  C   UNL A   1      41.425  31.879  30.402  1.00  0.00     0.031 C 
ATOM     44  C   UNL A   1      40.420  25.607  27.717  1.00  0.00     0.029 A 
ATOM     45  C   UNL A   1      41.774  25.882  28.196  1.00  0.00     0.049 A 
ATOM     46  H   UNL A   1      42.479  27.649  29.044  1.00  0.00     0.167 HD
ATOM     47  C   UNL A   1      43.781  31.357  30.963  1.00  0.00     0.037 A 
ATOM     48  C   UNL A   1      42.806  25.015  28.170  1.00  0.00     0.037 A 
ATOM     49  C   UNL A   1      44.936  30.496  30.986  1.00  0.00     0.049 A 
ATOM     50  C   UNL A   1      44.136  25.429  28.737  1.00  0.00     0.074 A 
ATOM     51  C   UNL A   1      46.198  30.763  31.488  1.00  0.00     0.029 A 
ATOM     52  N   UNL A   1      44.969  29.202  30.489  1.00  0.00    -0.354 N 
ATOM     53  N   UNL A   1      44.476  26.568  29.292  1.00  0.00    -0.248 NA
ATOM     54  C   UNL A   1      45.221  24.440  28.682  1.00  0.00     0.031 C 
ATOM     55  C   UNL A   1      47.003  29.639  31.268  1.00  0.00     0.029 A 
ATOM     56  C   UNL A   1      46.230  28.658  30.668  1.00  0.00     0.049 A 
ATOM     57  H   UNL A   1      44.208  28.738  30.071  1.00  0.00     0.167 HD
ATOM     58  C   UNL A   1      45.804  26.424  29.675  1.00  0.00     0.074 A 
ATOM     59  C   UNL A   1      46.206  25.086  29.293  1.00  0.00     0.031 C 
ATOM     60  C   UNL A   1      46.615  27.320  30.291  1.00  0.00     0.037 A 
BRANCH  47  61
ATOM     61  C   UNL A   1      43.903  32.732  31.558  1.00  0.00     0.058 A 
ATOM     62  C   UNL A   1      43.511  32.974  32.883  1.00  0.00     0.135 A 
ATOM     63  C   UNL A   1      44.388  33.816  30.809  1.00  0.00     0.135 A 
ATOM     64  F   UNL A   1      43.046  31.972  33.646  1.00  0.00    -0.206 F 
ATOM     65  C   UNL A   1      43.594  34.244  33.446  1.00  0.00     0.059 A 
ATOM     66  C   UNL A   1      44.501  35.090  31.359  1.00  0.00     0.059 A 
ATOM     67  F   UNL A   1      44.799  33.632  29.544  1.00  0.00    -0.206 F 
ATOM     68  C   UNL A   1      44.093  35.296  32.677  1.00  0.00     0.060 A 
BRANCH  68  69
ATOM     69  S   UNL A   1      44.262  36.923  33.441  1.00  0.00     0.124 S 
ATOM     70  O   UNL A   1      43.064  36.990  34.271  1.00  0.00    -0.237 OA
ATOM     71  O   UNL A   1      45.527  36.796  34.159  1.00  0.00    -0.237 OA
ATOM     72  O   UNL A   1      44.290  37.830  32.299  1.00  0.00    -0.744 OA
ENDBRANCH  68  69
ENDBRANCH  47  61
BRANCH  48  73
ATOM     73  C   UNL A   1      42.599  23.654  27.609  1.00  0.00     0.058 A 
ATOM     74  C   UNL A   1      42.307  22.564  28.443  1.00  0.00     0.135 A 
ATOM     75  C   UNL A   1      42.743  23.410  26.236  1.00  0.00     0.135 A 
ATOM     76  F   UNL A   1      42.165  22.746  29.765  1.00  0.00    -0.206 F 
ATOM     77  C   UNL A   1      42.195  21.274  27.939  1.00  0.00     0.059 A 
ATOM     78  C   UNL A   1      42.614  22.130  25.704  1.00  0.00     0.059 A 
ATOM     79  F   UNL A   1      43.008  24.424  25.400  1.00  0.00    -0.206 F 
ATOM     80  C   UNL A   1      42.361  21.064  26.569  1.00  0.00     0.060 A 
BRANCH  80  81
ATOM     81  S   UNL A   1      42.250  19.377  25.939  1.00  0.00     0.124 S 
ATOM     82  O   UNL A   1      40.813  19.242  25.722  1.00  0.00    -0.237 OA
ATOM     83  O   UNL A   1      43.072  19.443  24.736  1.00  0.00    -0.237 OA
ATOM     84  O   UNL A   1      42.799  18.573  27.027  1.00  0.00    -0.744 OA
ENDBRANCH  80  81
ENDBRANCH  48  73
BRANCH  60  85
ATOM     85  C   UNL A   1      48.012  26.880  30.629  1.00  0.00     0.058 A 
ATOM     86  C   UNL A   1      48.274  26.223  31.842  1.00  0.00     0.135 A 
ATOM     87  C   UNL A   1      49.100  27.169  29.791  1.00  0.00     0.135 A 
ATOM     88  F   UNL A   1      47.269  25.928  32.683  1.00  0.00    -0.206 F 
ATOM     89  C   UNL A   1      49.568  25.879  32.218  1.00  0.00     0.059 A 
ATOM     90  C   UNL A   1      50.401  26.815  30.138  1.00  0.00     0.059 A 
ATOM     91  F   UNL A   1      48.901  27.787  28.616  1.00  0.00    -0.206 F 
ATOM     92  C   UNL A   1      50.626  26.182  31.361  1.00  0.00     0.060 A 
BRANCH  92  93
ATOM     93  S   UNL A   1      52.298  25.712  31.854  1.00  0.00     0.124 S 
ATOM     94  O   UNL A   1      52.553  26.628  32.960  1.00  0.00    -0.237 OA
ATOM     95  O   UNL A   1      52.132  24.308  32.217  1.00  0.00    -0.237 OA
ATOM     96  O   UNL A   1      53.085  25.950  30.647  1.00  0.00    -0.744 OA
ENDBRANCH  92  93
ENDBRANCH  60  85
ENDBRANCH  34  35
ENDBRANCH  27  29
ENDBRANCH  26  27
ENDBRANCH  25  26
ENDBRANCH   1  25
TORSDOF 17
ENDMDL
