MODEL 1
REMARK VINA RESULT:     -11.3      0.000      0.000
REMARK SMILES N#CCC(=O)N/N=C/c1ccc(OCc2ccc(C(=O)OCCOC(=O)c3ccc(-c4c5nc(c(-c6c(F)cc(S(=O)(=O)[O-])cc6F)c6ccc([nH]6)c(-c6c(F)cc(S(=O)(=O)[O-])cc6F)c6nc(c(-c7c(F)cc(S(=O)(=O)[O-])cc7F)c7ccc4[nH]7)C=C6)C=C5)cc3)cc2)c(Br)c1
REMARK SMILES IDX 19 1 20 2 18 3 15 4 16 5 94 6 17 7 93 8 14 9 13 10 12 11
REMARK SMILES IDX 9 12 10 13 97 14 11 15 95 16 96 17 8 18 7 19 6 20 4 21 5 22
REMARK SMILES IDX 3 24 2 25 1 26 21 27 22 28 23 29 24 30 25 31 26 32 27 33
REMARK SMILES IDX 28 34 92 35 29 36 91 37 30 38 31 39 32 40 85 41 33 42 90 43
REMARK SMILES IDX 84 44 86 45 34 46 89 47 83 48 82 49 35 51 69 52 48 53 68 54
REMARK SMILES IDX 49 55 52 56 67 57 87 58 50 59 51 60 66 62 88 63 53 64 36 65
REMARK SMILES IDX 37 66 46 67 38 68 39 69 45 70 47 71 40 72 41 73 42 74 43 75
REMARK SMILES IDX 44 76 70 77 71 78 80 79 72 80 73 81 79 82 81 83 74 84 75 85
REMARK SMILES IDX 76 86 77 87 78 88 54 89 55 90 64 91 56 92 57 93 63 94 65 95
REMARK SMILES IDX 58 96 59 97 60 98 61 99 62 100
REMARK H PARENT 6 23 86 50 52 61
REMARK Flexibility Score: inf
ROOT
ATOM      1  C   UNL A   1      40.076  20.844  26.333  1.00  0.00     0.338 C 
ATOM      2  O   UNL A   1      40.050  19.652  26.086  1.00  0.00    -0.246 OA
ENDROOT
BRANCH   1   3
ATOM      3  C   UNL A   1      39.011  21.760  25.873  1.00  0.00     0.060 A 
ATOM      4  C   UNL A   1      36.801  23.432  25.355  1.00  0.00    -0.011 A 
ATOM      5  C   UNL A   1      37.824  23.845  26.211  1.00  0.00     0.008 A 
ATOM      6  C   UNL A   1      36.899  22.156  24.770  1.00  0.00     0.008 A 
ATOM      7  C   UNL A   1      38.913  23.021  26.459  1.00  0.00     0.016 A 
ATOM      8  C   UNL A   1      38.009  21.329  25.008  1.00  0.00     0.016 A 
BRANCH   4   9
ATOM      9  C   UNL A   1      35.649  24.406  25.174  1.00  0.00     0.265 C 
BRANCH   9  10
ATOM     10  O   UNL A   1      34.338  24.065  25.617  1.00  0.00    -0.488 OA
BRANCH  10  11
ATOM     11  C   UNL A   1      33.800  22.848  25.334  1.00  0.00     0.134 A 
ATOM     12  C   UNL A   1      32.989  20.189  25.188  1.00  0.00    -0.004 A 
ATOM     13  C   UNL A   1      33.347  20.717  26.420  1.00  0.00     0.013 A 
ATOM     14  C   UNL A   1      32.969  20.985  24.042  1.00  0.00     0.029 A 
ATOM     15  C   UNL A   1      33.729  22.050  26.488  1.00  0.00     0.048 A 
ATOM     16  C   UNL A   1      33.367  22.326  24.109  1.00  0.00     0.060 A 
ATOM     17  Br  UNL A   1      33.196  23.314  22.499  1.00  0.00    -0.047 Br
BRANCH  12  18
ATOM     18  C   UNL A   1      32.605  18.776  25.142  1.00  0.00     0.141 C 
ATOM     19  N   UNL A   1      32.847  17.999  26.145  1.00  0.00    -0.181 NA
BRANCH  19  20
ATOM     20  N   UNL A   1      32.481  16.696  26.020  1.00  0.00    -0.246 N 
ATOM     21  C   UNL A   1      33.008  15.776  25.149  1.00  0.00     0.254 C 
ATOM     22  O   UNL A   1      32.447  14.682  25.024  1.00  0.00    -0.272 OA
ATOM     23  H   UNL A   1      31.765  16.381  26.617  1.00  0.00     0.193 HD
BRANCH  21  24
ATOM     24  C   UNL A   1      34.304  16.052  24.437  1.00  0.00     0.221 C 
BRANCH  24  25
ATOM     25  C   UNL A   1      35.519  15.912  25.340  1.00  0.00     0.072 C 
ATOM     26  N   UNL A   1      36.527  15.795  26.088  1.00  0.00    -0.198 NA
ENDBRANCH  24  25
ENDBRANCH  21  24
ENDBRANCH  19  20
ENDBRANCH  12  18
ENDBRANCH  10  11
ENDBRANCH   9  10
ENDBRANCH   4   9
ENDBRANCH   1   3
BRANCH   1  27
ATOM     27  O   UNL A   1      41.016  21.496  27.062  1.00  0.00    -0.458 OA
BRANCH  27  28
ATOM     28  C   UNL A   1      42.344  21.474  26.497  1.00  0.00     0.275 C 
BRANCH  28  29
ATOM     29  C   UNL A   1      42.754  22.829  25.912  1.00  0.00     0.275 C 
BRANCH  29  30
ATOM     30  O   UNL A   1      42.361  23.917  26.768  1.00  0.00    -0.458 OA
BRANCH  30  31
ATOM     31  C   UNL A   1      42.190  25.094  26.131  1.00  0.00     0.338 C 
ATOM     32  O   UNL A   1      42.372  25.325  24.945  1.00  0.00    -0.246 OA
BRANCH  31  33
ATOM     33  C   UNL A   1      41.662  26.116  27.042  1.00  0.00     0.060 A 
ATOM     34  C   UNL A   1      42.167  27.405  26.937  1.00  0.00     0.016 A 
ATOM     35  C   UNL A   1      40.892  25.755  28.145  1.00  0.00     0.016 A 
ATOM     36  C   UNL A   1      42.089  28.270  28.020  1.00  0.00     0.010 A 
ATOM     37  C   UNL A   1      40.659  26.699  29.153  1.00  0.00     0.010 A 
ATOM     38  C   UNL A   1      41.303  27.950  29.133  1.00  0.00    -0.014 A 
BRANCH  38  39
ATOM     39  C   UNL A   1      41.157  28.915  30.263  1.00  0.00     0.031 A 
ATOM     40  C   UNL A   1      42.083  28.841  31.452  1.00  0.00     0.074 A 
ATOM     41  C   UNL A   1      40.184  29.852  30.233  1.00  0.00     0.049 A 
ATOM     42  N   UNL A   1      41.973  29.413  32.624  1.00  0.00    -0.248 NA
ATOM     43  C   UNL A   1      43.280  27.995  31.313  1.00  0.00     0.031 C 
ATOM     44  C   UNL A   1      39.252  30.078  29.125  1.00  0.00     0.029 A 
ATOM     45  N   UNL A   1      39.812  30.790  31.165  1.00  0.00    -0.354 N 
ATOM     46  C   UNL A   1      43.045  28.947  33.381  1.00  0.00     0.074 A 
ATOM     47  C   UNL A   1      43.789  28.038  32.537  1.00  0.00     0.031 C 
ATOM     48  C   UNL A   1      38.446  31.106  29.421  1.00  0.00     0.029 A 
ATOM     49  C   UNL A   1      38.715  31.531  30.786  1.00  0.00     0.049 A 
ATOM     50  H   UNL A   1      40.281  30.918  32.019  1.00  0.00     0.167 HD
ATOM     51  C   UNL A   1      43.370  29.249  34.662  1.00  0.00     0.037 A 
ATOM     52  C   UNL A   1      37.960  32.408  31.474  1.00  0.00     0.037 A 
ATOM     53  C   UNL A   1      42.641  30.196  35.469  1.00  0.00     0.049 A 
ATOM     54  C   UNL A   1      38.302  32.685  32.908  1.00  0.00     0.074 A 
ATOM     55  C   UNL A   1      42.892  30.590  36.772  1.00  0.00     0.029 A 
ATOM     56  N   UNL A   1      41.524  30.906  35.047  1.00  0.00    -0.354 N 
ATOM     57  N   UNL A   1      39.282  32.196  33.629  1.00  0.00    -0.248 NA
ATOM     58  C   UNL A   1      37.428  33.620  33.629  1.00  0.00     0.031 C 
ATOM     59  C   UNL A   1      41.898  31.496  37.155  1.00  0.00     0.029 A 
ATOM     60  C   UNL A   1      41.065  31.719  36.070  1.00  0.00     0.049 A 
ATOM     61  H   UNL A   1      41.119  30.840  34.153  1.00  0.00     0.167 HD
ATOM     62  C   UNL A   1      39.163  32.785  34.881  1.00  0.00     0.074 A 
ATOM     63  C   UNL A   1      38.018  33.672  34.816  1.00  0.00     0.031 C 
ATOM     64  C   UNL A   1      39.934  32.610  35.982  1.00  0.00     0.037 A 
BRANCH  51  65
ATOM     65  C   UNL A   1      44.534  28.523  35.286  1.00  0.00     0.058 A 
ATOM     66  C   UNL A   1      44.386  27.302  35.962  1.00  0.00     0.135 A 
ATOM     67  C   UNL A   1      45.834  29.052  35.178  1.00  0.00     0.135 A 
ATOM     68  F   UNL A   1      43.169  26.755  36.108  1.00  0.00    -0.206 F 
ATOM     69  C   UNL A   1      45.473  26.651  36.539  1.00  0.00     0.059 A 
ATOM     70  C   UNL A   1      46.939  28.401  35.718  1.00  0.00     0.059 A 
ATOM     71  F   UNL A   1      46.040  30.214  34.539  1.00  0.00    -0.206 F 
ATOM     72  C   UNL A   1      46.746  27.209  36.414  1.00  0.00     0.060 A 
BRANCH  72  73
ATOM     73  S   UNL A   1      48.145  26.357  37.174  1.00  0.00     0.124 S 
ATOM     74  O   UNL A   1      49.259  27.212  36.776  1.00  0.00    -0.237 OA
ATOM     75  O   UNL A   1      47.797  26.388  38.591  1.00  0.00    -0.237 OA
ATOM     76  O   UNL A   1      48.119  25.036  36.554  1.00  0.00    -0.744 OA
ENDBRANCH  72  73
ENDBRANCH  51  65
BRANCH  52  77
ATOM     77  C   UNL A   1      36.782  33.042  30.820  1.00  0.00     0.058 A 
ATOM     78  C   UNL A   1      35.477  32.664  31.163  1.00  0.00     0.135 A 
ATOM     79  C   UNL A   1      36.937  34.066  29.870  1.00  0.00     0.135 A 
ATOM     80  F   UNL A   1      35.275  31.686  32.058  1.00  0.00    -0.206 F 
ATOM     81  C   UNL A   1      34.367  33.270  30.583  1.00  0.00     0.059 A 
ATOM     82  C   UNL A   1      35.844  34.711  29.302  1.00  0.00     0.059 A 
ATOM     83  F   UNL A   1      38.165  34.479  29.518  1.00  0.00    -0.206 F 
ATOM     84  C   UNL A   1      34.561  34.298  29.658  1.00  0.00     0.060 A 
BRANCH  84  85
ATOM     85  S   UNL A   1      33.113  35.116  28.957  1.00  0.00     0.124 S 
ATOM     86  O   UNL A   1      32.275  35.293  30.138  1.00  0.00    -0.237 OA
ATOM     87  O   UNL A   1      33.690  36.333  28.395  1.00  0.00    -0.237 OA
ATOM     88  O   UNL A   1      32.624  34.151  27.975  1.00  0.00    -0.744 OA
ENDBRANCH  84  85
ENDBRANCH  52  77
BRANCH  64  89
ATOM     89  C   UNL A   1      39.605  33.439  37.192  1.00  0.00     0.058 A 
ATOM     90  C   UNL A   1      38.683  33.012  38.159  1.00  0.00     0.135 A 
ATOM     91  C   UNL A   1      40.274  34.654  37.412  1.00  0.00     0.135 A 
ATOM     92  F   UNL A   1      38.007  31.864  37.989  1.00  0.00    -0.206 F 
ATOM     93  C   UNL A   1      38.425  33.768  39.297  1.00  0.00     0.059 A 
ATOM     94  C   UNL A   1      40.053  35.411  38.558  1.00  0.00     0.059 A 
ATOM     95  F   UNL A   1      41.170  35.105  36.520  1.00  0.00    -0.206 F 
ATOM     96  C   UNL A   1      39.120  34.964  39.490  1.00  0.00     0.060 A 
BRANCH  96  97
ATOM     97  S   UNL A   1      38.813  35.909  40.997  1.00  0.00     0.124 S 
ATOM     98  O   UNL A   1      37.670  35.199  41.562  1.00  0.00    -0.237 OA
ATOM     99  O   UNL A   1      40.073  35.758  41.720  1.00  0.00    -0.237 OA
ATOM    100  O   UNL A   1      38.537  37.255  40.505  1.00  0.00    -0.744 OA
ENDBRANCH  96  97
ENDBRANCH  64  89
ENDBRANCH  38  39
ENDBRANCH  31  33
ENDBRANCH  30  31
ENDBRANCH  29  30
ENDBRANCH  28  29
ENDBRANCH  27  28
ENDBRANCH   1  27
TORSDOF 21
ENDMDL
MODEL 2
REMARK VINA RESULT:     -10.6      6.230     11.556
REMARK SMILES N#CCC(=O)N/N=C/c1ccc(OCc2ccc(C(=O)OCCOC(=O)c3ccc(-c4c5nc(c(-c6c(F)cc(S(=O)(=O)[O-])cc6F)c6ccc([nH]6)c(-c6c(F)cc(S(=O)(=O)[O-])cc6F)c6nc(c(-c7c(F)cc(S(=O)(=O)[O-])cc7F)c7ccc4[nH]7)C=C6)C=C5)cc3)cc2)c(Br)c1
REMARK SMILES IDX 19 1 20 2 18 3 15 4 16 5 94 6 17 7 93 8 14 9 13 10 12 11
REMARK SMILES IDX 9 12 10 13 97 14 11 15 95 16 96 17 8 18 7 19 6 20 4 21 5 22
REMARK SMILES IDX 3 24 2 25 1 26 21 27 22 28 23 29 24 30 25 31 26 32 27 33
REMARK SMILES IDX 28 34 92 35 29 36 91 37 30 38 31 39 32 40 85 41 33 42 90 43
REMARK SMILES IDX 84 44 86 45 34 46 89 47 83 48 82 49 35 51 69 52 48 53 68 54
REMARK SMILES IDX 49 55 52 56 67 57 87 58 50 59 51 60 66 62 88 63 53 64 36 65
REMARK SMILES IDX 37 66 46 67 38 68 39 69 45 70 47 71 40 72 41 73 42 74 43 75
REMARK SMILES IDX 44 76 70 77 71 78 80 79 72 80 73 81 79 82 81 83 74 84 75 85
REMARK SMILES IDX 76 86 77 87 78 88 54 89 55 90 64 91 56 92 57 93 63 94 65 95
REMARK SMILES IDX 58 96 59 97 60 98 61 99 62 100
REMARK H PARENT 6 23 86 50 52 61
REMARK Flexibility Score: inf
ROOT
ATOM      1  C   UNL A   1      34.786  32.422  28.235  1.00  0.00     0.338 C 
ATOM      2  O   UNL A   1      35.468  33.161  27.548  1.00  0.00    -0.246 OA
ENDROOT
BRANCH   1   3
ATOM      3  C   UNL A   1      34.364  31.087  27.763  1.00  0.00     0.060 A 
ATOM      4  C   UNL A   1      33.773  28.623  26.526  1.00  0.00    -0.011 A 
ATOM      5  C   UNL A   1      35.026  28.851  27.098  1.00  0.00     0.008 A 
ATOM      6  C   UNL A   1      32.821  29.658  26.574  1.00  0.00     0.008 A 
ATOM      7  C   UNL A   1      35.311  30.064  27.711  1.00  0.00     0.016 A 
ATOM      8  C   UNL A   1      33.104  30.878  27.209  1.00  0.00     0.016 A 
BRANCH   4   9
ATOM      9  C   UNL A   1      33.580  27.268  25.865  1.00  0.00     0.265 C 
BRANCH   9  10
ATOM     10  O   UNL A   1      32.541  26.394  26.299  1.00  0.00    -0.488 OA
BRANCH  10  11
ATOM     11  C   UNL A   1      32.182  25.313  25.555  1.00  0.00     0.134 A 
ATOM     12  C   UNL A   1      31.919  22.889  24.212  1.00  0.00    -0.004 A 
ATOM     13  C   UNL A   1      32.654  22.931  25.388  1.00  0.00     0.013 A 
ATOM     14  C   UNL A   1      31.263  24.024  23.733  1.00  0.00     0.029 A 
ATOM     15  C   UNL A   1      32.762  24.138  26.064  1.00  0.00     0.048 A 
ATOM     16  C   UNL A   1      31.384  25.244  24.407  1.00  0.00     0.060 A 
ATOM     17  Br  UNL A   1      30.360  26.677  23.700  1.00  0.00    -0.047 Br
BRANCH  12  18
ATOM     18  C   UNL A   1      31.835  21.605  23.512  1.00  0.00     0.141 C 
ATOM     19  N   UNL A   1      32.638  20.640  23.814  1.00  0.00    -0.181 NA
BRANCH  19  20
ATOM     20  N   UNL A   1      32.513  19.487  23.106  1.00  0.00    -0.246 N 
ATOM     21  C   UNL A   1      32.891  18.231  23.511  1.00  0.00     0.254 C 
ATOM     22  O   UNL A   1      32.884  17.310  22.687  1.00  0.00    -0.272 OA
ATOM     23  H   UNL A   1      32.111  19.561  22.210  1.00  0.00     0.193 HD
BRANCH  21  24
ATOM     24  C   UNL A   1      33.205  17.957  24.956  1.00  0.00     0.221 C 
BRANCH  24  25
ATOM     25  C   UNL A   1      32.786  16.565  25.402  1.00  0.00     0.072 C 
ATOM     26  N   UNL A   1      32.439  15.411  25.772  1.00  0.00    -0.198 NA
ENDBRANCH  24  25
ENDBRANCH  21  24
ENDBRANCH  19  20
ENDBRANCH  12  18
ENDBRANCH  10  11
ENDBRANCH   9  10
ENDBRANCH   4   9
ENDBRANCH   1   3
BRANCH   1  27
ATOM     27  O   UNL A   1      34.350  32.668  29.495  1.00  0.00    -0.458 OA
BRANCH  27  28
ATOM     28  C   UNL A   1      35.288  33.375  30.335  1.00  0.00     0.275 C 
BRANCH  28  29
ATOM     29  C   UNL A   1      35.773  32.526  31.514  1.00  0.00     0.275 C 
BRANCH  29  30
ATOM     30  O   UNL A   1      37.058  31.935  31.249  1.00  0.00    -0.458 OA
BRANCH  30  31
ATOM     31  C   UNL A   1      37.103  30.597  31.420  1.00  0.00     0.338 C 
ATOM     32  O   UNL A   1      36.346  29.913  32.094  1.00  0.00    -0.246 OA
BRANCH  31  33
ATOM     33  C   UNL A   1      38.168  29.996  30.610  1.00  0.00     0.060 A 
ATOM     34  C   UNL A   1      39.106  29.202  31.256  1.00  0.00     0.016 A 
ATOM     35  C   UNL A   1      38.394  30.423  29.304  1.00  0.00     0.016 A 
ATOM     36  C   UNL A   1      40.358  29.007  30.688  1.00  0.00     0.010 A 
ATOM     37  C   UNL A   1      39.587  30.061  28.665  1.00  0.00     0.010 A 
ATOM     38  C   UNL A   1      40.610  29.399  29.367  1.00  0.00    -0.014 A 
BRANCH  38  39
ATOM     39  C   UNL A   1      41.931  29.118  28.731  1.00  0.00     0.031 A 
ATOM     40  C   UNL A   1      42.240  27.743  28.192  1.00  0.00     0.074 A 
ATOM     41  C   UNL A   1      42.864  30.092  28.648  1.00  0.00     0.049 A 
ATOM     42  N   UNL A   1      43.391  27.234  27.832  1.00  0.00    -0.248 NA
ATOM     43  C   UNL A   1      41.110  26.809  28.060  1.00  0.00     0.031 C 
ATOM     44  C   UNL A   1      42.686  31.482  29.075  1.00  0.00     0.029 A 
ATOM     45  N   UNL A   1      44.155  30.061  28.178  1.00  0.00    -0.354 N 
ATOM     46  C   UNL A   1      43.136  25.907  27.496  1.00  0.00     0.074 A 
ATOM     47  C   UNL A   1      41.721  25.688  27.703  1.00  0.00     0.031 C 
ATOM     48  C   UNL A   1      43.801  32.177  28.816  1.00  0.00     0.029 A 
ATOM     49  C   UNL A   1      44.818  31.260  28.323  1.00  0.00     0.049 A 
ATOM     50  H   UNL A   1      44.566  29.262  27.779  1.00  0.00     0.167 HD
ATOM     51  C   UNL A   1      44.006  24.964  27.060  1.00  0.00     0.037 A 
ATOM     52  C   UNL A   1      46.113  31.581  28.147  1.00  0.00     0.037 A 
ATOM     53  C   UNL A   1      45.404  25.217  26.814  1.00  0.00     0.049 A 
ATOM     54  C   UNL A   1      47.070  30.508  27.720  1.00  0.00     0.074 A 
ATOM     55  C   UNL A   1      46.372  24.340  26.357  1.00  0.00     0.029 A 
ATOM     56  N   UNL A   1      46.033  26.443  26.995  1.00  0.00    -0.354 N 
ATOM     57  N   UNL A   1      46.828  29.245  27.460  1.00  0.00    -0.248 NA
ATOM     58  C   UNL A   1      48.479  30.896  27.576  1.00  0.00     0.031 C 
ATOM     59  C   UNL A   1      47.593  25.019  26.312  1.00  0.00     0.029 A 
ATOM     60  C   UNL A   1      47.377  26.338  26.677  1.00  0.00     0.049 A 
ATOM     61  H   UNL A   1      45.587  27.264  27.304  1.00  0.00     0.167 HD
ATOM     62  C   UNL A   1      48.048  28.693  27.093  1.00  0.00     0.074 A 
ATOM     63  C   UNL A   1      49.026  29.762  27.159  1.00  0.00     0.031 C 
ATOM     64  C   UNL A   1      48.332  27.418  26.732  1.00  0.00     0.037 A 
BRANCH  51  65
ATOM     65  C   UNL A   1      43.488  23.562  26.860  1.00  0.00     0.058 A 
ATOM     66  C   UNL A   1      43.144  22.726  27.934  1.00  0.00     0.135 A 
ATOM     67  C   UNL A   1      43.304  23.057  25.561  1.00  0.00     0.135 A 
ATOM     68  F   UNL A   1      43.308  23.148  29.198  1.00  0.00    -0.206 F 
ATOM     69  C   UNL A   1      42.675  21.431  27.730  1.00  0.00     0.059 A 
ATOM     70  C   UNL A   1      42.805  21.777  25.332  1.00  0.00     0.059 A 
ATOM     71  F   UNL A   1      43.611  23.810  24.493  1.00  0.00    -0.206 F 
ATOM     72  C   UNL A   1      42.510  20.964  26.425  1.00  0.00     0.060 A 
BRANCH  72  73
ATOM     73  S   UNL A   1      41.908  19.280  26.176  1.00  0.00     0.124 S 
ATOM     74  O   UNL A   1      42.272  18.650  27.442  1.00  0.00    -0.237 OA
ATOM     75  O   UNL A   1      40.480  19.488  25.960  1.00  0.00    -0.237 OA
ATOM     76  O   UNL A   1      42.654  18.819  25.010  1.00  0.00    -0.744 OA
ENDBRANCH  72  73
ENDBRANCH  51  65
BRANCH  52  77
ATOM     77  C   UNL A   1      46.575  32.969  28.424  1.00  0.00     0.058 A 
ATOM     78  C   UNL A   1      47.012  33.341  29.703  1.00  0.00     0.135 A 
ATOM     79  C   UNL A   1      46.627  33.939  27.409  1.00  0.00     0.135 A 
ATOM     80  F   UNL A   1      46.974  32.454  30.709  1.00  0.00    -0.206 F 
ATOM     81  C   UNL A   1      47.476  34.625  29.969  1.00  0.00     0.059 A 
ATOM     82  C   UNL A   1      47.119  35.218  27.641  1.00  0.00     0.059 A 
ATOM     83  F   UNL A   1      46.237  33.630  26.161  1.00  0.00    -0.206 F 
ATOM     84  C   UNL A   1      47.532  35.555  28.928  1.00  0.00     0.060 A 
BRANCH  84  85
ATOM     85  S   UNL A   1      48.190  37.200  29.274  1.00  0.00     0.124 S 
ATOM     86  O   UNL A   1      48.857  37.519  28.016  1.00  0.00    -0.237 OA
ATOM     87  O   UNL A   1      46.979  37.960  29.565  1.00  0.00    -0.237 OA
ATOM     88  O   UNL A   1      49.072  36.978  30.417  1.00  0.00    -0.744 OA
ENDBRANCH  84  85
ENDBRANCH  52  77
BRANCH  64  89
ATOM     89  C   UNL A   1      49.745  27.117  26.317  1.00  0.00     0.058 A 
ATOM     90  C   UNL A   1      50.156  27.171  24.977  1.00  0.00     0.135 A 
ATOM     91  C   UNL A   1      50.715  26.828  27.291  1.00  0.00     0.135 A 
ATOM     92  F   UNL A   1      49.265  27.431  24.006  1.00  0.00    -0.206 F 
ATOM     93  C   UNL A   1      51.477  26.936  24.615  1.00  0.00     0.059 A 
ATOM     94  C   UNL A   1      52.048  26.620  26.954  1.00  0.00     0.059 A 
ATOM     95  F   UNL A   1      50.375  26.769  28.589  1.00  0.00    -0.206 F 
ATOM     96  C   UNL A   1      52.418  26.667  25.611  1.00  0.00     0.060 A 
BRANCH  96  97
ATOM     97  S   UNL A   1      54.140  26.416  25.131  1.00  0.00     0.124 S 
ATOM     98  O   UNL A   1      54.831  26.617  26.401  1.00  0.00    -0.237 OA
ATOM     99  O   UNL A   1      54.125  25.047  24.626  1.00  0.00    -0.237 OA
ATOM    100  O   UNL A   1      54.366  27.447  24.123  1.00  0.00    -0.744 OA
ENDBRANCH  96  97
ENDBRANCH  64  89
ENDBRANCH  38  39
ENDBRANCH  31  33
ENDBRANCH  30  31
ENDBRANCH  29  30
ENDBRANCH  28  29
ENDBRANCH  27  28
ENDBRANCH   1  27
TORSDOF 21
ENDMDL
MODEL 3
REMARK VINA RESULT:     -10.6      2.833      9.006
REMARK SMILES N#CCC(=O)N/N=C/c1ccc(OCc2ccc(C(=O)OCCOC(=O)c3ccc(-c4c5nc(c(-c6c(F)cc(S(=O)(=O)[O-])cc6F)c6ccc([nH]6)c(-c6c(F)cc(S(=O)(=O)[O-])cc6F)c6nc(c(-c7c(F)cc(S(=O)(=O)[O-])cc7F)c7ccc4[nH]7)C=C6)C=C5)cc3)cc2)c(Br)c1
REMARK SMILES IDX 19 1 20 2 18 3 15 4 16 5 94 6 17 7 93 8 14 9 13 10 12 11
REMARK SMILES IDX 9 12 10 13 97 14 11 15 95 16 96 17 8 18 7 19 6 20 4 21 5 22
REMARK SMILES IDX 3 24 2 25 1 26 21 27 22 28 23 29 24 30 25 31 26 32 27 33
REMARK SMILES IDX 28 34 92 35 29 36 91 37 30 38 31 39 32 40 85 41 33 42 90 43
REMARK SMILES IDX 84 44 86 45 34 46 89 47 83 48 82 49 35 51 69 52 48 53 68 54
REMARK SMILES IDX 49 55 52 56 67 57 87 58 50 59 51 60 66 62 88 63 53 64 36 65
REMARK SMILES IDX 37 66 46 67 38 68 39 69 45 70 47 71 40 72 41 73 42 74 43 75
REMARK SMILES IDX 44 76 70 77 71 78 80 79 72 80 73 81 79 82 81 83 74 84 75 85
REMARK SMILES IDX 76 86 77 87 78 88 54 89 55 90 64 91 56 92 57 93 63 94 65 95
REMARK SMILES IDX 58 96 59 97 60 98 61 99 62 100
REMARK H PARENT 6 23 86 50 52 61
REMARK Flexibility Score: inf
ROOT
ATOM      1  C   UNL A   1      34.428  32.044  28.431  1.00  0.00     0.338 C 
ATOM      2  O   UNL A   1      34.725  31.938  29.607  1.00  0.00    -0.246 OA
ENDROOT
BRANCH   1   3
ATOM      3  C   UNL A   1      34.022  30.878  27.620  1.00  0.00     0.060 A 
ATOM      4  C   UNL A   1      33.060  28.520  26.409  1.00  0.00    -0.011 A 
ATOM      5  C   UNL A   1      32.210  29.605  26.633  1.00  0.00     0.008 A 
ATOM      6  C   UNL A   1      34.403  28.632  26.815  1.00  0.00     0.008 A 
ATOM      7  C   UNL A   1      32.690  30.766  27.225  1.00  0.00     0.016 A 
ATOM      8  C   UNL A   1      34.891  29.813  27.398  1.00  0.00     0.016 A 
BRANCH   4   9
ATOM      9  C   UNL A   1      32.422  27.295  25.775  1.00  0.00     0.265 C 
BRANCH   9  10
ATOM     10  O   UNL A   1      33.101  26.578  24.747  1.00  0.00    -0.488 OA
BRANCH  10  11
ATOM     11  C   UNL A   1      32.800  25.277  24.488  1.00  0.00     0.134 A 
ATOM     12  C   UNL A   1      32.518  22.680  23.526  1.00  0.00    -0.004 A 
ATOM     13  C   UNL A   1      33.692  23.370  23.264  1.00  0.00     0.013 A 
ATOM     14  C   UNL A   1      31.512  23.243  24.312  1.00  0.00     0.029 A 
ATOM     15  C   UNL A   1      33.835  24.657  23.766  1.00  0.00     0.048 A 
ATOM     16  C   UNL A   1      31.650  24.545  24.807  1.00  0.00     0.060 A 
ATOM     17  Br  UNL A   1      30.253  25.145  25.941  1.00  0.00    -0.047 Br
BRANCH  12  18
ATOM     18  C   UNL A   1      32.388  21.330  22.971  1.00  0.00     0.141 C 
ATOM     19  N   UNL A   1      32.426  20.298  23.746  1.00  0.00    -0.181 NA
BRANCH  19  20
ATOM     20  N   UNL A   1      32.320  19.078  23.157  1.00  0.00    -0.246 N 
ATOM     21  C   UNL A   1      33.148  17.999  23.350  1.00  0.00     0.254 C 
ATOM     22  O   UNL A   1      33.034  17.020  22.606  1.00  0.00    -0.272 OA
ATOM     23  H   UNL A   1      31.573  18.956  22.528  1.00  0.00     0.193 HD
BRANCH  21  24
ATOM     24  C   UNL A   1      34.102  17.967  24.512  1.00  0.00     0.221 C 
BRANCH  24  25
ATOM     25  C   UNL A   1      34.549  16.560  24.875  1.00  0.00     0.072 C 
ATOM     26  N   UNL A   1      34.920  15.394  25.176  1.00  0.00    -0.198 NA
ENDBRANCH  24  25
ENDBRANCH  21  24
ENDBRANCH  19  20
ENDBRANCH  12  18
ENDBRANCH  10  11
ENDBRANCH   9  10
ENDBRANCH   4   9
ENDBRANCH   1   3
BRANCH   1  27
ATOM     27  O   UNL A   1      34.385  33.193  27.711  1.00  0.00    -0.458 OA
BRANCH  27  28
ATOM     28  C   UNL A   1      33.263  34.052  28.007  1.00  0.00     0.275 C 
BRANCH  28  29
ATOM     29  C   UNL A   1      33.571  35.052  29.126  1.00  0.00     0.275 C 
BRANCH  29  30
ATOM     30  O   UNL A   1      32.754  34.815  30.287  1.00  0.00    -0.458 OA
BRANCH  30  31
ATOM     31  C   UNL A   1      33.047  35.601  31.345  1.00  0.00     0.338 C 
ATOM     32  O   UNL A   1      32.544  36.680  31.625  1.00  0.00    -0.246 OA
BRANCH  31  33
ATOM     33  C   UNL A   1      34.036  34.962  32.220  1.00  0.00     0.060 A 
ATOM     34  C   UNL A   1      35.299  35.534  32.301  1.00  0.00     0.016 A 
ATOM     35  C   UNL A   1      33.812  33.687  32.732  1.00  0.00     0.016 A 
ATOM     36  C   UNL A   1      36.384  34.764  32.696  1.00  0.00     0.010 A 
ATOM     37  C   UNL A   1      34.880  32.984  33.304  1.00  0.00     0.010 A 
ATOM     38  C   UNL A   1      36.192  33.488  33.240  1.00  0.00    -0.014 A 
BRANCH  38  39
ATOM     39  C   UNL A   1      37.354  32.692  33.737  1.00  0.00     0.031 A 
ATOM     40  C   UNL A   1      37.934  32.962  35.104  1.00  0.00     0.074 A 
ATOM     41  C   UNL A   1      37.902  31.734  32.958  1.00  0.00     0.049 A 
ATOM     42  N   UNL A   1      39.070  32.562  35.614  1.00  0.00    -0.248 NA
ATOM     43  C   UNL A   1      37.142  33.812  36.008  1.00  0.00     0.031 C 
ATOM     44  C   UNL A   1      37.412  31.325  31.638  1.00  0.00     0.029 A 
ATOM     45  N   UNL A   1      38.997  30.930  33.159  1.00  0.00    -0.354 N 
ATOM     46  C   UNL A   1      39.160  33.162  36.868  1.00  0.00     0.074 A 
ATOM     47  C   UNL A   1      37.966  33.960  37.036  1.00  0.00     0.031 C 
ATOM     48  C   UNL A   1      38.173  30.329  31.168  1.00  0.00     0.029 A 
ATOM     49  C   UNL A   1      39.279  30.111  32.089  1.00  0.00     0.049 A 
ATOM     50  H   UNL A   1      39.529  30.939  33.987  1.00  0.00     0.167 HD
ATOM     51  C   UNL A   1      40.152  33.056  37.786  1.00  0.00     0.037 A 
ATOM     52  C   UNL A   1      40.339  29.323  31.834  1.00  0.00     0.037 A 
ATOM     53  C   UNL A   1      41.311  32.215  37.618  1.00  0.00     0.049 A 
ATOM     54  C   UNL A   1      41.453  29.264  32.837  1.00  0.00     0.074 A 
ATOM     55  C   UNL A   1      42.368  32.020  38.490  1.00  0.00     0.029 A 
ATOM     56  N   UNL A   1      41.562  31.421  36.506  1.00  0.00    -0.354 N 
ATOM     57  N   UNL A   1      41.553  29.879  33.991  1.00  0.00    -0.248 NA
ATOM     58  C   UNL A   1      42.606  28.419  32.500  1.00  0.00     0.031 C 
ATOM     59  C   UNL A   1      43.281  31.151  37.885  1.00  0.00     0.029 A 
ATOM     60  C   UNL A   1      42.764  30.751  36.663  1.00  0.00     0.049 A 
ATOM     61  H   UNL A   1      40.971  31.346  35.722  1.00  0.00     0.167 HD
ATOM     62  C   UNL A   1      42.765  29.473  34.534  1.00  0.00     0.074 A 
ATOM     63  C   UNL A   1      43.360  28.554  33.582  1.00  0.00     0.031 C 
ATOM     64  C   UNL A   1      43.332  29.826  35.713  1.00  0.00     0.037 A 
BRANCH  51  65
ATOM     65  C   UNL A   1      40.053  33.896  39.034  1.00  0.00     0.058 A 
ATOM     66  C   UNL A   1      39.379  33.459  40.185  1.00  0.00     0.135 A 
ATOM     67  C   UNL A   1      40.672  35.158  39.085  1.00  0.00     0.135 A 
ATOM     68  F   UNL A   1      38.758  32.269  40.193  1.00  0.00    -0.206 F 
ATOM     69  C   UNL A   1      39.291  34.253  41.325  1.00  0.00     0.059 A 
ATOM     70  C   UNL A   1      40.626  35.955  40.226  1.00  0.00     0.059 A 
ATOM     71  F   UNL A   1      41.335  35.629  38.017  1.00  0.00    -0.206 F 
ATOM     72  C   UNL A   1      39.916  35.501  41.336  1.00  0.00     0.060 A 
BRANCH  72  73
ATOM     73  S   UNL A   1      39.787  36.523  42.819  1.00  0.00     0.124 S 
ATOM     74  O   UNL A   1      41.061  36.247  43.475  1.00  0.00    -0.237 OA
ATOM     75  O   UNL A   1      39.638  37.864  42.263  1.00  0.00    -0.237 OA
ATOM     76  O   UNL A   1      38.607  35.995  43.497  1.00  0.00    -0.744 OA
ENDBRANCH  72  73
ENDBRANCH  51  65
BRANCH  52  77
ATOM     77  C   UNL A   1      40.408  28.568  30.552  1.00  0.00     0.058 A 
ATOM     78  C   UNL A   1      41.311  28.939  29.546  1.00  0.00     0.135 A 
ATOM     79  C   UNL A   1      39.604  27.439  30.324  1.00  0.00     0.135 A 
ATOM     80  F   UNL A   1      42.096  30.014  29.711  1.00  0.00    -0.206 F 
ATOM     81  C   UNL A   1      41.409  28.224  28.356  1.00  0.00     0.059 A 
ATOM     82  C   UNL A   1      39.708  26.688  29.158  1.00  0.00     0.059 A 
ATOM     83  F   UNL A   1      38.735  27.030  31.262  1.00  0.00    -0.206 F 
ATOM     84  C   UNL A   1      40.607  27.095  28.175  1.00  0.00     0.060 A 
BRANCH  84  85
ATOM     85  S   UNL A   1      40.786  26.143  26.651  1.00  0.00     0.124 S 
ATOM     86  O   UNL A   1      40.937  27.203  25.660  1.00  0.00    -0.237 OA
ATOM     87  O   UNL A   1      41.979  25.349  26.924  1.00  0.00    -0.237 OA
ATOM     88  O   UNL A   1      39.539  25.385  26.580  1.00  0.00    -0.744 OA
ENDBRANCH  84  85
ENDBRANCH  52  77
BRANCH  64  89
ATOM     89  C   UNL A   1      44.636  29.171  36.075  1.00  0.00     0.058 A 
ATOM     90  C   UNL A   1      45.873  29.755  35.767  1.00  0.00     0.135 A 
ATOM     91  C   UNL A   1      44.639  27.965  36.796  1.00  0.00     0.135 A 
ATOM     92  F   UNL A   1      45.925  30.901  35.068  1.00  0.00    -0.206 F 
ATOM     93  C   UNL A   1      47.070  29.160  36.150  1.00  0.00     0.059 A 
ATOM     94  C   UNL A   1      45.823  27.369  37.214  1.00  0.00     0.059 A 
ATOM     95  F   UNL A   1      43.481  27.368  37.119  1.00  0.00    -0.206 F 
ATOM     96  C   UNL A   1      47.035  27.970  36.879  1.00  0.00     0.060 A 
BRANCH  96  97
ATOM     97  S   UNL A   1      48.594  27.236  37.415  1.00  0.00     0.124 S 
ATOM     98  O   UNL A   1      49.520  28.349  37.233  1.00  0.00    -0.237 OA
ATOM     99  O   UNL A   1      48.306  26.871  38.799  1.00  0.00    -0.237 OA
ATOM    100  O   UNL A   1      48.774  26.113  36.501  1.00  0.00    -0.744 OA
ENDBRANCH  96  97
ENDBRANCH  64  89
ENDBRANCH  38  39
ENDBRANCH  31  33
ENDBRANCH  30  31
ENDBRANCH  29  30
ENDBRANCH  28  29
ENDBRANCH  27  28
ENDBRANCH   1  27
TORSDOF 21
ENDMDL
