MODEL 1
REMARK VINA RESULT:     -12.2      0.000      0.000
REMARK SMILES O=C(Cn1c(=O)n(Cc2cccnc2)c(=O)c2sccc21)OCCOC(=O)c1ccc(-c2c3nc(c(-c4c(F)cc(S(=O)(=O)[O-])cc4F)c4ccc([nH]4)c(-c4c(F)cc(S(=O)(=O)[O-])cc4F)c4nc(c(-c5c(F)cc(S(=O)(=O)[O-])cc5F)c5ccc2[nH]5)C=C4)C=C3)cc1
REMARK SMILES IDX 23 1 22 2 2 3 1 4 3 5 4 6 5 7 21 8 6 9 7 10 17 11 20 12
REMARK SMILES IDX 15 13 18 14 19 15 16 16 8 17 9 18 10 19 14 20 11 21 13 22
REMARK SMILES IDX 12 23 24 24 25 25 26 26 27 27 28 28 29 29 93 30 30 31 92 32
REMARK SMILES IDX 31 33 32 34 33 35 86 36 34 37 91 38 85 39 87 40 35 41 90 42
REMARK SMILES IDX 84 43 83 44 36 46 70 47 49 48 69 49 50 50 53 51 68 52 88 53
REMARK SMILES IDX 51 54 52 55 67 57 89 58 54 59 37 60 38 61 47 62 39 63 40 64
REMARK SMILES IDX 46 65 48 66 41 67 42 68 43 69 44 70 45 71 71 72 72 73 81 74
REMARK SMILES IDX 73 75 74 76 80 77 82 78 75 79 76 80 77 81 78 82 79 83 55 84
REMARK SMILES IDX 56 85 65 86 57 87 58 88 64 89 66 90 59 91 60 92 61 93 62 94
REMARK SMILES IDX 63 95
REMARK H PARENT 87 45 53 56
REMARK Flexibility Score: inf
ROOT
ATOM      1  C   UNL A   1      36.880  21.508  25.006  1.00  0.00     0.274 C 
ENDROOT
BRANCH   1   2
ATOM      2  O   UNL A   1      36.657  22.338  23.852  1.00  0.00    -0.461 OA
BRANCH   2   3
ATOM      3  C   UNL A   1      35.743  23.343  23.816  1.00  0.00     0.326 C 
ATOM      4  O   UNL A   1      35.186  23.618  22.753  1.00  0.00    -0.250 OA
BRANCH   3   5
ATOM      5  C   UNL A   1      35.465  24.156  25.086  1.00  0.00     0.250 C 
BRANCH   5   6
ATOM      6  N   UNL A   1      34.041  24.429  25.229  1.00  0.00    -0.281 N 
ATOM      7  C   UNL A   1      33.628  25.747  25.037  1.00  0.00     0.332 A 
ATOM      8  C   UNL A   1      33.072  23.454  25.456  1.00  0.00     0.070 A 
ATOM      9  O   UNL A   1      34.317  26.556  24.412  1.00  0.00    -0.247 OA
ATOM     10  N   UNL A   1      32.423  26.124  25.616  1.00  0.00    -0.254 N 
ATOM     11  C   UNL A   1      31.817  23.850  25.835  1.00  0.00     0.116 A 
ATOM     12  C   UNL A   1      33.156  22.042  25.305  1.00  0.00     0.039 A 
ATOM     13  C   UNL A   1      31.476  25.223  26.098  1.00  0.00     0.274 A 
ATOM     14  S   UNL A   1      30.720  22.565  25.956  1.00  0.00    -0.136 S 
ATOM     15  C   UNL A   1      31.924  21.440  25.483  1.00  0.00     0.068 A 
ATOM     16  O   UNL A   1      30.464  25.583  26.698  1.00  0.00    -0.268 OA
BRANCH  10  17
ATOM     17  C   UNL A   1      32.183  27.552  25.761  1.00  0.00     0.168 C 
BRANCH  17  18
ATOM     18  C   UNL A   1      31.273  28.127  24.710  1.00  0.00    -0.010 A 
ATOM     19  C   UNL A   1      30.777  27.351  23.656  1.00  0.00     0.009 A 
ATOM     20  C   UNL A   1      30.916  29.472  24.730  1.00  0.00     0.116 A 
ATOM     21  C   UNL A   1      29.968  27.938  22.687  1.00  0.00     0.020 A 
ATOM     22  N   UNL A   1      30.131  30.067  23.806  1.00  0.00    -0.264 NA
ATOM     23  C   UNL A   1      29.672  29.286  22.807  1.00  0.00     0.111 A 
ENDBRANCH  17  18
ENDBRANCH  10  17
ENDBRANCH   5   6
ENDBRANCH   3   5
ENDBRANCH   2   3
ENDBRANCH   1   2
BRANCH   1  24
ATOM     24  C   UNL A   1      38.324  21.453  25.491  1.00  0.00     0.275 C 
BRANCH  24  25
ATOM     25  O   UNL A   1      38.798  22.697  25.982  1.00  0.00    -0.458 OA
BRANCH  25  26
ATOM     26  C   UNL A   1      39.760  22.633  26.937  1.00  0.00     0.338 C 
ATOM     27  O   UNL A   1      40.149  21.653  27.524  1.00  0.00    -0.246 OA
BRANCH  26  28
ATOM     28  C   UNL A   1      40.264  23.999  27.158  1.00  0.00     0.060 A 
ATOM     29  C   UNL A   1      41.472  24.145  27.846  1.00  0.00     0.016 A 
ATOM     30  C   UNL A   1      39.461  25.102  26.834  1.00  0.00     0.016 A 
ATOM     31  C   UNL A   1      41.774  25.377  28.388  1.00  0.00     0.010 A 
ATOM     32  C   UNL A   1      39.755  26.323  27.385  1.00  0.00     0.010 A 
ATOM     33  C   UNL A   1      40.856  26.419  28.228  1.00  0.00    -0.014 A 
BRANCH  33  34
ATOM     34  C   UNL A   1      41.062  27.654  28.952  1.00  0.00     0.031 A 
ATOM     35  C   UNL A   1      42.198  28.456  28.445  1.00  0.00     0.074 A 
ATOM     36  C   UNL A   1      40.183  28.063  29.890  1.00  0.00     0.049 A 
ATOM     37  N   UNL A   1      43.314  28.712  29.043  1.00  0.00    -0.248 NA
ATOM     38  C   UNL A   1      42.162  28.883  27.035  1.00  0.00     0.031 C 
ATOM     39  C   UNL A   1      38.889  27.464  30.242  1.00  0.00     0.029 A 
ATOM     40  N   UNL A   1      40.218  29.173  30.671  1.00  0.00    -0.354 N 
ATOM     41  C   UNL A   1      44.010  29.547  28.178  1.00  0.00     0.074 A 
ATOM     42  C   UNL A   1      43.363  29.443  26.896  1.00  0.00     0.031 C 
ATOM     43  C   UNL A   1      38.178  28.339  30.991  1.00  0.00     0.029 A 
ATOM     44  C   UNL A   1      39.010  29.493  31.285  1.00  0.00     0.049 A 
ATOM     45  H   UNL A   1      41.034  29.709  30.794  1.00  0.00     0.167 HD
ATOM     46  C   UNL A   1      44.886  30.476  28.649  1.00  0.00     0.037 A 
ATOM     47  C   UNL A   1      38.720  30.656  31.926  1.00  0.00     0.037 A 
ATOM     48  C   UNL A   1      45.291  30.183  29.999  1.00  0.00     0.049 A 
ATOM     49  C   UNL A   1      40.024  31.282  32.280  1.00  0.00     0.074 A 
ATOM     50  C   UNL A   1      45.919  29.111  30.605  1.00  0.00     0.029 A 
ATOM     51  N   UNL A   1      44.693  30.890  31.014  1.00  0.00    -0.354 N 
ATOM     52  N   UNL A   1      40.868  30.766  33.133  1.00  0.00    -0.248 NA
ATOM     53  C   UNL A   1      40.596  32.221  31.328  1.00  0.00     0.031 C 
ATOM     54  C   UNL A   1      45.266  28.963  31.862  1.00  0.00     0.029 A 
ATOM     55  C   UNL A   1      44.331  29.993  31.987  1.00  0.00     0.049 A 
ATOM     56  H   UNL A   1      44.551  31.864  31.038  1.00  0.00     0.167 HD
ATOM     57  C   UNL A   1      42.119  30.976  32.569  1.00  0.00     0.074 A 
ATOM     58  C   UNL A   1      41.891  31.937  31.491  1.00  0.00     0.031 C 
ATOM     59  C   UNL A   1      43.167  30.141  32.835  1.00  0.00     0.037 A 
BRANCH  46  60
ATOM     60  C   UNL A   1      45.068  31.828  28.011  1.00  0.00     0.058 A 
ATOM     61  C   UNL A   1      46.314  32.181  27.462  1.00  0.00     0.135 A 
ATOM     62  C   UNL A   1      44.138  32.886  28.149  1.00  0.00     0.135 A 
ATOM     63  F   UNL A   1      47.283  31.262  27.325  1.00  0.00    -0.206 F 
ATOM     64  C   UNL A   1      46.623  33.493  27.101  1.00  0.00     0.059 A 
ATOM     65  C   UNL A   1      44.401  34.185  27.741  1.00  0.00     0.059 A 
ATOM     66  F   UNL A   1      42.964  32.727  28.775  1.00  0.00    -0.206 F 
ATOM     67  C   UNL A   1      45.658  34.488  27.248  1.00  0.00     0.060 A 
BRANCH  67  68
ATOM     68  S   UNL A   1      46.074  36.193  26.844  1.00  0.00     0.124 S 
ATOM     69  O   UNL A   1      46.728  36.035  25.551  1.00  0.00    -0.237 OA
ATOM     70  O   UNL A   1      44.758  36.826  26.826  1.00  0.00    -0.237 OA
ATOM     71  O   UNL A   1      46.942  36.597  27.947  1.00  0.00    -0.744 OA
ENDBRANCH  67  68
ENDBRANCH  46  60
BRANCH  47  72
ATOM     72  C   UNL A   1      37.451  31.439  31.879  1.00  0.00     0.058 A 
ATOM     73  C   UNL A   1      36.754  31.762  33.060  1.00  0.00     0.135 A 
ATOM     74  C   UNL A   1      37.057  32.140  30.722  1.00  0.00     0.135 A 
ATOM     75  F   UNL A   1      37.070  31.160  34.216  1.00  0.00    -0.206 F 
ATOM     76  C   UNL A   1      35.773  32.763  33.103  1.00  0.00     0.059 A 
ATOM     77  C   UNL A   1      36.078  33.134  30.738  1.00  0.00     0.059 A 
ATOM     78  F   UNL A   1      37.681  31.949  29.550  1.00  0.00    -0.206 F 
ATOM     79  C   UNL A   1      35.460  33.462  31.938  1.00  0.00     0.060 A 
BRANCH  79  80
ATOM     80  S   UNL A   1      34.333  34.876  32.022  1.00  0.00     0.124 S 
ATOM     81  O   UNL A   1      33.211  34.325  32.774  1.00  0.00    -0.237 OA
ATOM     82  O   UNL A   1      35.141  35.871  32.718  1.00  0.00    -0.237 OA
ATOM     83  O   UNL A   1      34.057  35.172  30.618  1.00  0.00    -0.744 OA
ENDBRANCH  79  80
ENDBRANCH  47  72
BRANCH  59  84
ATOM     84  C   UNL A   1      43.024  29.150  33.966  1.00  0.00     0.058 A 
ATOM     85  C   UNL A   1      43.168  29.463  35.331  1.00  0.00     0.135 A 
ATOM     86  C   UNL A   1      42.557  27.864  33.654  1.00  0.00     0.135 A 
ATOM     87  F   UNL A   1      43.516  30.697  35.722  1.00  0.00    -0.206 F 
ATOM     88  C   UNL A   1      42.890  28.531  36.334  1.00  0.00     0.059 A 
ATOM     89  C   UNL A   1      42.246  26.929  34.638  1.00  0.00     0.059 A 
ATOM     90  F   UNL A   1      42.343  27.520  32.373  1.00  0.00    -0.206 F 
ATOM     91  C   UNL A   1      42.423  27.266  35.978  1.00  0.00     0.060 A 
BRANCH  91  92
ATOM     92  S   UNL A   1      41.990  26.086  37.275  1.00  0.00     0.124 S 
ATOM     93  O   UNL A   1      40.659  26.536  37.670  1.00  0.00    -0.237 OA
ATOM     94  O   UNL A   1      42.043  24.809  36.569  1.00  0.00    -0.237 OA
ATOM     95  O   UNL A   1      43.036  26.278  38.276  1.00  0.00    -0.744 OA
ENDBRANCH  91  92
ENDBRANCH  59  84
ENDBRANCH  33  34
ENDBRANCH  26  28
ENDBRANCH  25  26
ENDBRANCH  24  25
ENDBRANCH   1  24
TORSDOF 17
ENDMDL
MODEL 2
REMARK VINA RESULT:     -12.2      2.958      9.496
REMARK SMILES O=C(Cn1c(=O)n(Cc2cccnc2)c(=O)c2sccc21)OCCOC(=O)c1ccc(-c2c3nc(c(-c4c(F)cc(S(=O)(=O)[O-])cc4F)c4ccc([nH]4)c(-c4c(F)cc(S(=O)(=O)[O-])cc4F)c4nc(c(-c5c(F)cc(S(=O)(=O)[O-])cc5F)c5ccc2[nH]5)C=C4)C=C3)cc1
REMARK SMILES IDX 23 1 22 2 2 3 1 4 3 5 4 6 5 7 21 8 6 9 7 10 17 11 20 12
REMARK SMILES IDX 15 13 18 14 19 15 16 16 8 17 9 18 10 19 14 20 11 21 13 22
REMARK SMILES IDX 12 23 24 24 25 25 26 26 27 27 28 28 29 29 93 30 30 31 92 32
REMARK SMILES IDX 31 33 32 34 33 35 86 36 34 37 91 38 85 39 87 40 35 41 90 42
REMARK SMILES IDX 84 43 83 44 36 46 70 47 49 48 69 49 50 50 53 51 68 52 88 53
REMARK SMILES IDX 51 54 52 55 67 57 89 58 54 59 37 60 38 61 47 62 39 63 40 64
REMARK SMILES IDX 46 65 48 66 41 67 42 68 43 69 44 70 45 71 71 72 72 73 81 74
REMARK SMILES IDX 73 75 74 76 80 77 82 78 75 79 76 80 77 81 78 82 79 83 55 84
REMARK SMILES IDX 56 85 65 86 57 87 58 88 64 89 66 90 59 91 60 92 61 93 62 94
REMARK SMILES IDX 63 95
REMARK H PARENT 87 45 53 56
REMARK Flexibility Score: inf
ROOT
ATOM      1  C   UNL A   1      32.289  29.991  26.445  1.00  0.00     0.274 C 
ENDROOT
BRANCH   1   2
ATOM      2  O   UNL A   1      32.042  28.725  27.084  1.00  0.00    -0.461 OA
BRANCH   2   3
ATOM      3  C   UNL A   1      32.455  27.536  26.575  1.00  0.00     0.326 C 
ATOM      4  O   UNL A   1      33.661  27.315  26.452  1.00  0.00    -0.250 OA
BRANCH   3   5
ATOM      5  C   UNL A   1      31.415  26.511  26.108  1.00  0.00     0.250 C 
BRANCH   5   6
ATOM      6  N   UNL A   1      32.008  25.546  25.192  1.00  0.00    -0.281 N 
ATOM      7  C   UNL A   1      32.455  24.345  25.743  1.00  0.00     0.332 A 
ATOM      8  C   UNL A   1      32.075  25.710  23.811  1.00  0.00     0.070 A 
ATOM      9  O   UNL A   1      32.041  23.940  26.832  1.00  0.00    -0.247 OA
ATOM     10  N   UNL A   1      33.420  23.642  25.033  1.00  0.00    -0.254 N 
ATOM     11  C   UNL A   1      32.882  24.872  23.088  1.00  0.00     0.116 A 
ATOM     12  C   UNL A   1      31.371  26.618  22.971  1.00  0.00     0.039 A 
ATOM     13  C   UNL A   1      33.736  23.888  23.698  1.00  0.00     0.274 A 
ATOM     14  S   UNL A   1      32.768  25.115  21.415  1.00  0.00    -0.136 S 
ATOM     15  C   UNL A   1      31.606  26.357  21.634  1.00  0.00     0.068 A 
ATOM     16  O   UNL A   1      34.663  23.322  23.122  1.00  0.00    -0.268 OA
BRANCH  10  17
ATOM     17  C   UNL A   1      34.164  22.628  25.764  1.00  0.00     0.168 C 
BRANCH  17  18
ATOM     18  C   UNL A   1      33.815  21.217  25.375  1.00  0.00    -0.010 A 
ATOM     19  C   UNL A   1      34.788  20.304  24.954  1.00  0.00     0.009 A 
ATOM     20  C   UNL A   1      32.495  20.777  25.387  1.00  0.00     0.116 A 
ATOM     21  C   UNL A   1      34.411  19.021  24.569  1.00  0.00     0.020 A 
ATOM     22  N   UNL A   1      32.101  19.537  25.022  1.00  0.00    -0.264 NA
ATOM     23  C   UNL A   1      33.069  18.686  24.624  1.00  0.00     0.111 A 
ENDBRANCH  17  18
ENDBRANCH  10  17
ENDBRANCH   5   6
ENDBRANCH   3   5
ENDBRANCH   2   3
ENDBRANCH   1   2
BRANCH   1  24
ATOM     24  C   UNL A   1      33.144  30.963  27.251  1.00  0.00     0.275 C 
BRANCH  24  25
ATOM     25  O   UNL A   1      34.527  30.648  27.224  1.00  0.00    -0.458 OA
BRANCH  25  26
ATOM     26  C   UNL A   1      35.364  31.597  27.713  1.00  0.00     0.338 C 
ATOM     27  O   UNL A   1      35.265  32.795  27.599  1.00  0.00    -0.246 OA
BRANCH  26  28
ATOM     28  C   UNL A   1      36.459  30.909  28.420  1.00  0.00     0.060 A 
ATOM     29  C   UNL A   1      37.381  31.695  29.115  1.00  0.00     0.016 A 
ATOM     30  C   UNL A   1      36.646  29.530  28.246  1.00  0.00     0.016 A 
ATOM     31  C   UNL A   1      38.594  31.134  29.458  1.00  0.00     0.010 A 
ATOM     32  C   UNL A   1      37.857  28.977  28.575  1.00  0.00     0.010 A 
ATOM     33  C   UNL A   1      38.844  29.809  29.092  1.00  0.00    -0.014 A 
BRANCH  33  34
ATOM     34  C   UNL A   1      40.175  29.269  29.268  1.00  0.00     0.031 A 
ATOM     35  C   UNL A   1      40.583  29.150  30.686  1.00  0.00     0.074 A 
ATOM     36  C   UNL A   1      40.874  28.793  28.218  1.00  0.00     0.049 A 
ATOM     37  N   UNL A   1      41.504  29.813  31.301  1.00  0.00    -0.248 NA
ATOM     38  C   UNL A   1      39.750  28.317  31.572  1.00  0.00     0.031 C 
ATOM     39  C   UNL A   1      40.422  28.617  26.833  1.00  0.00     0.029 A 
ATOM     40  N   UNL A   1      42.126  28.268  28.191  1.00  0.00    -0.354 N 
ATOM     41  C   UNL A   1      41.534  29.290  32.589  1.00  0.00     0.074 A 
ATOM     42  C   UNL A   1      40.315  28.544  32.757  1.00  0.00     0.031 C 
ATOM     43  C   UNL A   1      41.299  27.826  26.171  1.00  0.00     0.029 A 
ATOM     44  C   UNL A   1      42.434  27.555  27.036  1.00  0.00     0.049 A 
ATOM     45  H   UNL A   1      42.766  28.384  28.930  1.00  0.00     0.167 HD
ATOM     46  C   UNL A   1      42.685  29.273  33.314  1.00  0.00     0.037 A 
ATOM     47  C   UNL A   1      43.518  26.755  26.852  1.00  0.00     0.037 A 
ATOM     48  C   UNL A   1      43.655  30.198  32.789  1.00  0.00     0.049 A 
ATOM     49  C   UNL A   1      44.525  27.166  27.869  1.00  0.00     0.074 A 
ATOM     50  C   UNL A   1      43.668  31.564  32.580  1.00  0.00     0.029 A 
ATOM     51  N   UNL A   1      44.668  29.690  32.013  1.00  0.00    -0.354 N 
ATOM     52  N   UNL A   1      45.112  28.333  27.878  1.00  0.00    -0.248 NA
ATOM     53  C   UNL A   1      44.514  26.464  29.144  1.00  0.00     0.031 C 
ATOM     54  C   UNL A   1      44.350  31.741  31.342  1.00  0.00     0.029 A 
ATOM     55  C   UNL A   1      44.780  30.488  30.902  1.00  0.00     0.049 A 
ATOM     56  H   UNL A   1      45.215  28.897  32.217  1.00  0.00     0.167 HD
ATOM     57  C   UNL A   1      45.165  28.697  29.216  1.00  0.00     0.074 A 
ATOM     58  C   UNL A   1      44.841  27.475  29.953  1.00  0.00     0.031 C 
ATOM     59  C   UNL A   1      45.179  30.009  29.595  1.00  0.00     0.037 A 
BRANCH  46  60
ATOM     60  C   UNL A   1      43.043  28.153  34.256  1.00  0.00     0.058 A 
ATOM     61  C   UNL A   1      43.288  28.432  35.613  1.00  0.00     0.135 A 
ATOM     62  C   UNL A   1      43.404  26.856  33.822  1.00  0.00     0.135 A 
ATOM     63  F   UNL A   1      43.020  29.645  36.120  1.00  0.00    -0.206 F 
ATOM     64  C   UNL A   1      43.874  27.498  36.469  1.00  0.00     0.059 A 
ATOM     65  C   UNL A   1      43.931  25.892  34.669  1.00  0.00     0.059 A 
ATOM     66  F   UNL A   1      43.351  26.494  32.533  1.00  0.00    -0.206 F 
ATOM     67  C   UNL A   1      44.194  26.231  35.985  1.00  0.00     0.060 A 
BRANCH  67  68
ATOM     68  S   UNL A   1      45.010  25.047  37.069  1.00  0.00     0.124 S 
ATOM     69  O   UNL A   1      44.394  25.356  38.353  1.00  0.00    -0.237 OA
ATOM     70  O   UNL A   1      44.628  23.775  36.463  1.00  0.00    -0.237 OA
ATOM     71  O   UNL A   1      46.422  25.395  36.944  1.00  0.00    -0.744 OA
ENDBRANCH  67  68
ENDBRANCH  46  60
BRANCH  47  72
ATOM     72  C   UNL A   1      43.577  25.431  26.167  1.00  0.00     0.058 A 
ATOM     73  C   UNL A   1      44.591  25.142  25.233  1.00  0.00     0.135 A 
ATOM     74  C   UNL A   1      42.834  24.325  26.628  1.00  0.00     0.135 A 
ATOM     75  F   UNL A   1      45.363  26.128  24.750  1.00  0.00    -0.206 F 
ATOM     76  C   UNL A   1      44.891  23.833  24.830  1.00  0.00     0.059 A 
ATOM     77  C   UNL A   1      43.109  23.015  26.236  1.00  0.00     0.059 A 
ATOM     78  F   UNL A   1      41.875  24.473  27.554  1.00  0.00    -0.206 F 
ATOM     79  C   UNL A   1      44.158  22.772  25.360  1.00  0.00     0.060 A 
BRANCH  79  80
ATOM     80  S   UNL A   1      44.658  21.072  24.990  1.00  0.00     0.124 S 
ATOM     81  O   UNL A   1      45.997  21.017  25.567  1.00  0.00    -0.237 OA
ATOM     82  O   UNL A   1      43.634  20.294  25.680  1.00  0.00    -0.237 OA
ATOM     83  O   UNL A   1      44.605  21.013  23.531  1.00  0.00    -0.744 OA
ENDBRANCH  79  80
ENDBRANCH  47  72
BRANCH  59  84
ATOM     84  C   UNL A   1      45.417  31.058  28.535  1.00  0.00     0.058 A 
ATOM     85  C   UNL A   1      44.422  31.588  27.693  1.00  0.00     0.135 A 
ATOM     86  C   UNL A   1      46.680  31.668  28.490  1.00  0.00     0.135 A 
ATOM     87  F   UNL A   1      43.163  31.130  27.741  1.00  0.00    -0.206 F 
ATOM     88  C   UNL A   1      44.680  32.653  26.826  1.00  0.00     0.059 A 
ATOM     89  C   UNL A   1      46.952  32.749  27.656  1.00  0.00     0.059 A 
ATOM     90  F   UNL A   1      47.658  31.248  29.310  1.00  0.00    -0.206 F 
ATOM     91  C   UNL A   1      45.949  33.232  26.819  1.00  0.00     0.060 A 
BRANCH  91  92
ATOM     92  S   UNL A   1      46.264  34.658  25.755  1.00  0.00     0.124 S 
ATOM     93  O   UNL A   1      45.284  34.471  24.690  1.00  0.00    -0.237 OA
ATOM     94  O   UNL A   1      46.016  35.782  26.654  1.00  0.00    -0.237 OA
ATOM     95  O   UNL A   1      47.659  34.487  25.357  1.00  0.00    -0.744 OA
ENDBRANCH  91  92
ENDBRANCH  59  84
ENDBRANCH  33  34
ENDBRANCH  26  28
ENDBRANCH  25  26
ENDBRANCH  24  25
ENDBRANCH   1  24
TORSDOF 17
ENDMDL
MODEL 3
REMARK VINA RESULT:     -12.0      2.146      3.800
REMARK SMILES O=C(Cn1c(=O)n(Cc2cccnc2)c(=O)c2sccc21)OCCOC(=O)c1ccc(-c2c3nc(c(-c4c(F)cc(S(=O)(=O)[O-])cc4F)c4ccc([nH]4)c(-c4c(F)cc(S(=O)(=O)[O-])cc4F)c4nc(c(-c5c(F)cc(S(=O)(=O)[O-])cc5F)c5ccc2[nH]5)C=C4)C=C3)cc1
REMARK SMILES IDX 23 1 22 2 2 3 1 4 3 5 4 6 5 7 21 8 6 9 7 10 17 11 20 12
REMARK SMILES IDX 15 13 18 14 19 15 16 16 8 17 9 18 10 19 14 20 11 21 13 22
REMARK SMILES IDX 12 23 24 24 25 25 26 26 27 27 28 28 29 29 93 30 30 31 92 32
REMARK SMILES IDX 31 33 32 34 33 35 86 36 34 37 91 38 85 39 87 40 35 41 90 42
REMARK SMILES IDX 84 43 83 44 36 46 70 47 49 48 69 49 50 50 53 51 68 52 88 53
REMARK SMILES IDX 51 54 52 55 67 57 89 58 54 59 37 60 38 61 47 62 39 63 40 64
REMARK SMILES IDX 46 65 48 66 41 67 42 68 43 69 44 70 45 71 71 72 72 73 81 74
REMARK SMILES IDX 73 75 74 76 80 77 82 78 75 79 76 80 77 81 78 82 79 83 55 84
REMARK SMILES IDX 56 85 65 86 57 87 58 88 64 89 66 90 59 91 60 92 61 93 62 94
REMARK SMILES IDX 63 95
REMARK H PARENT 87 45 53 56
REMARK Flexibility Score: inf
ROOT
ATOM      1  C   UNL A   1      39.003  21.404  25.789  1.00  0.00     0.274 C 
ENDROOT
BRANCH   1   2
ATOM      2  O   UNL A   1      37.566  21.462  25.731  1.00  0.00    -0.461 OA
BRANCH   2   3
ATOM      3  C   UNL A   1      36.877  22.540  25.274  1.00  0.00     0.326 C 
ATOM      4  O   UNL A   1      37.241  23.099  24.239  1.00  0.00    -0.250 OA
BRANCH   3   5
ATOM      5  C   UNL A   1      35.693  23.080  26.087  1.00  0.00     0.250 C 
BRANCH   5   6
ATOM      6  N   UNL A   1      34.444  22.925  25.353  1.00  0.00    -0.281 N 
ATOM      7  C   UNL A   1      33.616  21.868  25.733  1.00  0.00     0.332 A 
ATOM      8  C   UNL A   1      33.992  23.805  24.373  1.00  0.00     0.070 A 
ATOM      9  O   UNL A   1      33.713  21.337  26.842  1.00  0.00    -0.247 OA
ATOM     10  N   UNL A   1      32.704  21.409  24.792  1.00  0.00    -0.254 N 
ATOM     11  C   UNL A   1      32.949  23.420  23.574  1.00  0.00     0.116 A 
ATOM     12  C   UNL A   1      34.424  25.128  24.076  1.00  0.00     0.039 A 
ATOM     13  C   UNL A   1      32.354  22.112  23.640  1.00  0.00     0.274 A 
ATOM     14  S   UNL A   1      32.436  24.637  22.514  1.00  0.00    -0.136 S 
ATOM     15  C   UNL A   1      33.614  25.722  23.125  1.00  0.00     0.068 A 
ATOM     16  O   UNL A   1      31.621  21.639  22.773  1.00  0.00    -0.268 OA
BRANCH  10  17
ATOM     17  C   UNL A   1      32.131  20.091  25.022  1.00  0.00     0.168 C 
BRANCH  17  18
ATOM     18  C   UNL A   1      32.850  18.980  24.306  1.00  0.00    -0.010 A 
ATOM     19  C   UNL A   1      34.090  18.500  24.742  1.00  0.00     0.009 A 
ATOM     20  C   UNL A   1      32.317  18.408  23.155  1.00  0.00     0.116 A 
ATOM     21  C   UNL A   1      34.732  17.495  24.025  1.00  0.00     0.020 A 
ATOM     22  N   UNL A   1      32.917  17.430  22.441  1.00  0.00    -0.264 NA
ATOM     23  C   UNL A   1      34.110  16.994  22.894  1.00  0.00     0.111 A 
ENDBRANCH  17  18
ENDBRANCH  10  17
ENDBRANCH   5   6
ENDBRANCH   3   5
ENDBRANCH   2   3
ENDBRANCH   1   2
BRANCH   1  24
ATOM     24  C   UNL A   1      39.656  22.479  26.650  1.00  0.00     0.275 C 
BRANCH  24  25
ATOM     25  O   UNL A   1      41.024  22.222  26.924  1.00  0.00    -0.458 OA
BRANCH  25  26
ATOM     26  C   UNL A   1      41.916  22.737  26.041  1.00  0.00     0.338 C 
ATOM     27  O   UNL A   1      42.396  22.189  25.078  1.00  0.00    -0.246 OA
BRANCH  26  28
ATOM     28  C   UNL A   1      42.225  24.113  26.464  1.00  0.00     0.060 A 
ATOM     29  C   UNL A   1      42.964  24.285  27.638  1.00  0.00     0.016 A 
ATOM     30  C   UNL A   1      41.642  25.199  25.793  1.00  0.00     0.016 A 
ATOM     31  C   UNL A   1      42.946  25.521  28.250  1.00  0.00     0.010 A 
ATOM     32  C   UNL A   1      41.613  26.423  26.409  1.00  0.00     0.010 A 
ATOM     33  C   UNL A   1      42.186  26.541  27.671  1.00  0.00    -0.014 A 
BRANCH  33  34
ATOM     34  C   UNL A   1      41.998  27.777  28.398  1.00  0.00     0.031 A 
ATOM     35  C   UNL A   1      43.110  28.740  28.229  1.00  0.00     0.074 A 
ATOM     36  C   UNL A   1      40.836  28.040  29.030  1.00  0.00     0.049 A 
ATOM     37  N   UNL A   1      43.955  29.135  29.121  1.00  0.00    -0.248 NA
ATOM     38  C   UNL A   1      43.428  29.188  26.861  1.00  0.00     0.031 C 
ATOM     39  C   UNL A   1      39.592  27.260  29.001  1.00  0.00     0.029 A 
ATOM     40  N   UNL A   1      40.487  29.127  29.765  1.00  0.00    -0.354 N 
ATOM     41  C   UNL A   1      44.751  30.077  28.480  1.00  0.00     0.074 A 
ATOM     42  C   UNL A   1      44.527  29.911  27.068  1.00  0.00     0.031 C 
ATOM     43  C   UNL A   1      38.579  28.012  29.492  1.00  0.00     0.029 A 
ATOM     44  C   UNL A   1      39.121  29.263  29.992  1.00  0.00     0.049 A 
ATOM     45  H   UNL A   1      41.149  29.768  30.110  1.00  0.00     0.167 HD
ATOM     46  C   UNL A   1      45.313  31.108  29.168  1.00  0.00     0.037 A 
ATOM     47  C   UNL A   1      38.497  30.360  30.498  1.00  0.00     0.037 A 
ATOM     48  C   UNL A   1      45.344  30.845  30.582  1.00  0.00     0.049 A 
ATOM     49  C   UNL A   1      39.540  31.153  31.205  1.00  0.00     0.074 A 
ATOM     50  C   UNL A   1      45.910  29.857  31.366  1.00  0.00     0.029 A 
ATOM     51  N   UNL A   1      44.383  31.440  31.364  1.00  0.00    -0.354 N 
ATOM     52  N   UNL A   1      40.163  30.741  32.276  1.00  0.00    -0.248 NA
ATOM     53  C   UNL A   1      40.229  32.183  30.442  1.00  0.00     0.031 C 
ATOM     54  C   UNL A   1      44.945  29.594  32.381  1.00  0.00     0.029 A 
ATOM     55  C   UNL A   1      43.881  30.481  32.208  1.00  0.00     0.049 A 
ATOM     56  H   UNL A   1      44.106  32.384  31.326  1.00  0.00     0.167 HD
ATOM     57  C   UNL A   1      41.481  31.135  32.098  1.00  0.00     0.074 A 
ATOM     58  C   UNL A   1      41.447  32.078  30.981  1.00  0.00     0.031 C 
ATOM     59  C   UNL A   1      42.511  30.448  32.676  1.00  0.00     0.037 A 
BRANCH  46  60
ATOM     60  C   UNL A   1      45.484  32.486  28.584  1.00  0.00     0.058 A 
ATOM     61  C   UNL A   1      46.775  33.011  28.394  1.00  0.00     0.135 A 
ATOM     62  C   UNL A   1      44.420  33.409  28.442  1.00  0.00     0.135 A 
ATOM     63  F   UNL A   1      47.857  32.231  28.544  1.00  0.00    -0.206 F 
ATOM     64  C   UNL A   1      46.995  34.360  28.112  1.00  0.00     0.059 A 
ATOM     65  C   UNL A   1      44.612  34.740  28.102  1.00  0.00     0.059 A 
ATOM     66  F   UNL A   1      43.151  33.084  28.723  1.00  0.00    -0.206 F 
ATOM     67  C   UNL A   1      45.905  35.216  27.971  1.00  0.00     0.060 A 
BRANCH  67  68
ATOM     68  S   UNL A   1      46.187  36.969  27.671  1.00  0.00     0.124 S 
ATOM     69  O   UNL A   1      44.836  37.435  27.379  1.00  0.00    -0.237 OA
ATOM     70  O   UNL A   1      46.755  37.403  28.944  1.00  0.00    -0.237 OA
ATOM     71  O   UNL A   1      47.115  36.972  26.544  1.00  0.00    -0.744 OA
ENDBRANCH  67  68
ENDBRANCH  46  60
BRANCH  47  72
ATOM     72  C   UNL A   1      37.201  30.960  30.066  1.00  0.00     0.058 A 
ATOM     73  C   UNL A   1      36.329  31.553  31.001  1.00  0.00     0.135 A 
ATOM     74  C   UNL A   1      36.928  31.236  28.711  1.00  0.00     0.135 A 
ATOM     75  F   UNL A   1      36.519  31.363  32.315  1.00  0.00    -0.206 F 
ATOM     76  C   UNL A   1      35.292  32.416  30.618  1.00  0.00     0.059 A 
ATOM     77  C   UNL A   1      35.897  32.084  28.306  1.00  0.00     0.059 A 
ATOM     78  F   UNL A   1      37.718  30.764  27.736  1.00  0.00    -0.206 F 
ATOM     79  C   UNL A   1      35.101  32.696  29.266  1.00  0.00     0.060 A 
BRANCH  79  80
ATOM     80  S   UNL A   1      33.889  33.948  28.777  1.00  0.00     0.124 S 
ATOM     81  O   UNL A   1      32.961  33.170  27.963  1.00  0.00    -0.237 OA
ATOM     82  O   UNL A   1      33.380  34.402  30.067  1.00  0.00    -0.237 OA
ATOM     83  O   UNL A   1      34.690  34.927  28.046  1.00  0.00    -0.744 OA
ENDBRANCH  79  80
ENDBRANCH  47  72
BRANCH  59  84
ATOM     84  C   UNL A   1      42.184  29.423  33.735  1.00  0.00     0.058 A 
ATOM     85  C   UNL A   1      41.814  28.090  33.474  1.00  0.00     0.135 A 
ATOM     86  C   UNL A   1      42.420  29.766  35.074  1.00  0.00     0.135 A 
ATOM     87  F   UNL A   1      41.663  27.650  32.216  1.00  0.00    -0.206 F 
ATOM     88  C   UNL A   1      41.656  27.154  34.500  1.00  0.00     0.059 A 
ATOM     89  C   UNL A   1      42.298  28.843  36.110  1.00  0.00     0.059 A 
ATOM     90  F   UNL A   1      42.832  31.006  35.387  1.00  0.00    -0.206 F 
ATOM     91  C   UNL A   1      41.906  27.539  35.816  1.00  0.00     0.060 A 
BRANCH  91  92
ATOM     92  S   UNL A   1      41.778  26.312  37.136  1.00  0.00     0.124 S 
ATOM     93  O   UNL A   1      42.924  26.642  37.978  1.00  0.00    -0.237 OA
ATOM     94  O   UNL A   1      40.467  26.602  37.709  1.00  0.00    -0.237 OA
ATOM     95  O   UNL A   1      41.871  25.037  36.429  1.00  0.00    -0.744 OA
ENDBRANCH  91  92
ENDBRANCH  59  84
ENDBRANCH  33  34
ENDBRANCH  26  28
ENDBRANCH  25  26
ENDBRANCH  24  25
ENDBRANCH   1  24
TORSDOF 17
ENDMDL
