MODEL 1
REMARK VINA RESULT:     -10.9      0.000      0.000
REMARK SMILES CC1(C)C[C@@](Cc2ccccc2)(C(=O)OCCOC(=O)c2ccc(-c3c4nc(c(-c5c(F)cc(S(=O)(=O)[O-])cc5F)c5ccc([nH]5)c(-c5c(F)cc(S(=O)(=O)[O-])cc5F)c5nc(c(-c6c(F)cc(S(=O)(=O)[O-])cc6F)c6ccc3[nH]6)C=C5)C=C4)cc2)CCO1
REMARK SMILES IDX 17 1 16 2 15 3 13 4 14 5 5 6 1 7 2 8 3 9 4 10 89 11 88 12
REMARK SMILES IDX 87 13 6 14 7 15 8 16 12 17 9 18 11 19 10 20 18 21 19 22
REMARK SMILES IDX 20 23 21 24 22 25 86 26 23 27 85 28 24 29 25 30 26 31 79 32
REMARK SMILES IDX 27 33 84 34 78 35 80 36 28 37 83 38 77 39 76 40 29 42 63 43
REMARK SMILES IDX 42 44 62 45 43 46 46 47 61 48 81 49 44 50 45 51 60 53 82 54
REMARK SMILES IDX 47 55 30 56 31 57 40 58 32 59 33 60 39 61 41 62 34 63 35 64
REMARK SMILES IDX 36 65 37 66 38 67 64 68 65 69 74 70 66 71 67 72 73 73 75 74
REMARK SMILES IDX 68 75 69 76 70 77 71 78 72 79 48 80 49 81 58 82 50 83 51 84
REMARK SMILES IDX 57 85 59 86 52 87 53 88 54 89 55 90 56 91
REMARK H PARENT 80 41 46 52
REMARK Flexibility Score: inf
ROOT
ATOM      1  C   UNL A   1      32.650  29.077  27.057  1.00  0.00     0.275 C 
ENDROOT
BRANCH   1   2
ATOM      2  C   UNL A   1      31.859  27.778  27.216  1.00  0.00     0.274 C 
BRANCH   2   3
ATOM      3  O   UNL A   1      32.520  26.666  26.568  1.00  0.00    -0.462 OA
BRANCH   3   4
ATOM      4  C   UNL A   1      31.701  25.662  26.148  1.00  0.00     0.312 C 
ATOM      5  O   UNL A   1      30.525  25.582  26.485  1.00  0.00    -0.252 OA
BRANCH   4   6
ATOM      6  C   UNL A   1      32.419  24.567  25.337  1.00  0.00     0.077 C 
ATOM      7  C   UNL A   1      31.589  27.162  23.523  1.00  0.00     0.042 C 
ATOM      8  C   UNL A   1      32.367  25.901  23.110  1.00  0.00     0.064 C 
ATOM      9  C   UNL A   1      33.312  26.301  21.966  1.00  0.00     0.042 C 
ATOM     10  C   UNL A   1      33.229  25.283  24.230  1.00  0.00     0.054 C 
ATOM     11  O   UNL A   1      31.484  24.911  22.569  1.00  0.00    -0.376 OA
ATOM     12  C   UNL A   1      30.639  24.254  23.510  1.00  0.00     0.162 C 
ATOM     13  C   UNL A   1      31.430  23.600  24.637  1.00  0.00     0.047 C 
BRANCH   6  14
ATOM     14  C   UNL A   1      33.400  23.689  26.186  1.00  0.00     0.054 C 
BRANCH  14  15
ATOM     15  C   UNL A   1      34.712  23.190  25.623  1.00  0.00    -0.047 A 
ATOM     16  C   UNL A   1      34.791  21.889  25.097  1.00  0.00     0.004 A 
ATOM     17  C   UNL A   1      35.897  23.930  25.704  1.00  0.00     0.004 A 
ATOM     18  C   UNL A   1      35.999  21.380  24.609  1.00  0.00     0.000 A 
ATOM     19  C   UNL A   1      37.095  23.441  25.175  1.00  0.00     0.000 A 
ATOM     20  C   UNL A   1      37.146  22.165  24.627  1.00  0.00     0.000 A 
ENDBRANCH  14  15
ENDBRANCH   6  14
ENDBRANCH   4   6
ENDBRANCH   3   4
ENDBRANCH   2   3
ENDBRANCH   1   2
BRANCH   1  21
ATOM     21  O   UNL A   1      33.947  28.942  27.657  1.00  0.00    -0.458 OA
BRANCH  21  22
ATOM     22  C   UNL A   1      34.484  30.119  28.063  1.00  0.00     0.338 C 
ATOM     23  O   UNL A   1      33.888  31.147  28.332  1.00  0.00    -0.246 OA
BRANCH  22  24
ATOM     24  C   UNL A   1      35.900  29.900  28.391  1.00  0.00     0.060 A 
ATOM     25  C   UNL A   1      36.808  30.080  27.349  1.00  0.00     0.016 A 
ATOM     26  C   UNL A   1      36.341  29.509  29.652  1.00  0.00     0.016 A 
ATOM     27  C   UNL A   1      38.173  29.912  27.556  1.00  0.00     0.010 A 
ATOM     28  C   UNL A   1      37.708  29.287  29.852  1.00  0.00     0.010 A 
ATOM     29  C   UNL A   1      38.631  29.485  28.806  1.00  0.00    -0.014 A 
BRANCH  29  30
ATOM     30  C   UNL A   1      40.051  29.091  28.971  1.00  0.00     0.031 A 
ATOM     31  C   UNL A   1      41.028  30.128  29.436  1.00  0.00     0.074 A 
ATOM     32  C   UNL A   1      40.460  27.830  28.739  1.00  0.00     0.049 A 
ATOM     33  N   UNL A   1      42.331  30.067  29.500  1.00  0.00    -0.248 NA
ATOM     34  C   UNL A   1      40.459  31.407  29.892  1.00  0.00     0.031 C 
ATOM     35  C   UNL A   1      39.587  26.718  28.379  1.00  0.00     0.029 A 
ATOM     36  N   UNL A   1      41.716  27.275  28.762  1.00  0.00    -0.354 N 
ATOM     37  C   UNL A   1      42.741  31.299  29.990  1.00  0.00     0.074 A 
ATOM     38  C   UNL A   1      41.551  32.095  30.195  1.00  0.00     0.031 C 
ATOM     39  C   UNL A   1      40.333  25.616  28.191  1.00  0.00     0.029 A 
ATOM     40  C   UNL A   1      41.743  25.959  28.360  1.00  0.00     0.049 A 
ATOM     41  H   UNL A   1      42.520  27.772  29.039  1.00  0.00     0.167 HD
ATOM     42  C   UNL A   1      44.000  31.726  30.242  1.00  0.00     0.037 A 
ATOM     43  C   UNL A   1      42.789  25.147  28.107  1.00  0.00     0.037 A 
ATOM     44  C   UNL A   1      45.177  30.927  30.025  1.00  0.00     0.049 A 
ATOM     45  C   UNL A   1      44.189  25.682  28.289  1.00  0.00     0.074 A 
ATOM     46  C   UNL A   1      46.502  31.281  30.205  1.00  0.00     0.029 A 
ATOM     47  N   UNL A   1      45.172  29.612  29.583  1.00  0.00    -0.354 N 
ATOM     48  N   UNL A   1      44.572  26.867  28.707  1.00  0.00    -0.248 NA
ATOM     49  C   UNL A   1      45.299  24.778  27.956  1.00  0.00     0.031 C 
ATOM     50  C   UNL A   1      47.300  30.195  29.831  1.00  0.00     0.029 A 
ATOM     51  C   UNL A   1      46.470  29.145  29.473  1.00  0.00     0.049 A 
ATOM     52  H   UNL A   1      44.363  29.088  29.378  1.00  0.00     0.167 HD
ATOM     53  C   UNL A   1      45.963  26.836  28.717  1.00  0.00     0.074 A 
ATOM     54  C   UNL A   1      46.355  25.514  28.277  1.00  0.00     0.031 C 
ATOM     55  C   UNL A   1      46.839  27.815  29.056  1.00  0.00     0.037 A 
BRANCH  42  56
ATOM     56  C   UNL A   1      44.172  33.130  30.743  1.00  0.00     0.058 A 
ATOM     57  C   UNL A   1      44.253  33.419  32.115  1.00  0.00     0.135 A 
ATOM     58  C   UNL A   1      44.301  34.196  29.839  1.00  0.00     0.135 A 
ATOM     59  F   UNL A   1      44.107  32.441  33.023  1.00  0.00    -0.206 F 
ATOM     60  C   UNL A   1      44.447  34.718  32.571  1.00  0.00     0.059 A 
ATOM     61  C   UNL A   1      44.522  35.498  30.272  1.00  0.00     0.059 A 
ATOM     62  F   UNL A   1      44.218  33.974  28.518  1.00  0.00    -0.206 F 
ATOM     63  C   UNL A   1      44.587  35.750  31.642  1.00  0.00     0.060 A 
BRANCH  63  64
ATOM     64  S   UNL A   1      44.871  37.425  32.253  1.00  0.00     0.124 S 
ATOM     65  O   UNL A   1      44.656  37.254  33.686  1.00  0.00    -0.237 OA
ATOM     66  O   UNL A   1      46.248  37.675  31.843  1.00  0.00    -0.237 OA
ATOM     67  O   UNL A   1      43.859  38.217  31.559  1.00  0.00    -0.744 OA
ENDBRANCH  63  64
ENDBRANCH  42  56
BRANCH  43  68
ATOM     68  C   UNL A   1      42.572  23.765  27.588  1.00  0.00     0.058 A 
ATOM     69  C   UNL A   1      42.452  22.669  28.456  1.00  0.00     0.135 A 
ATOM     70  C   UNL A   1      42.542  23.505  26.208  1.00  0.00     0.135 A 
ATOM     71  F   UNL A   1      42.487  22.857  29.784  1.00  0.00    -0.206 F 
ATOM     72  C   UNL A   1      42.346  21.365  27.977  1.00  0.00     0.059 A 
ATOM     73  C   UNL A   1      42.403  22.216  25.705  1.00  0.00     0.059 A 
ATOM     74  F   UNL A   1      42.647  24.516  25.330  1.00  0.00    -0.206 F 
ATOM     75  C   UNL A   1      42.328  21.149  26.598  1.00  0.00     0.060 A 
BRANCH  75  76
ATOM     76  S   UNL A   1      42.191  19.456  25.984  1.00  0.00     0.124 S 
ATOM     77  O   UNL A   1      40.768  19.371  25.674  1.00  0.00    -0.237 OA
ATOM     78  O   UNL A   1      43.094  19.471  24.838  1.00  0.00    -0.237 OA
ATOM     79  O   UNL A   1      42.639  18.650  27.116  1.00  0.00    -0.744 OA
ENDBRANCH  75  76
ENDBRANCH  43  68
BRANCH  55  80
ATOM     80  C   UNL A   1      48.306  27.480  29.023  1.00  0.00     0.058 A 
ATOM     81  C   UNL A   1      49.112  27.780  27.914  1.00  0.00     0.135 A 
ATOM     82  C   UNL A   1      48.925  26.906  30.146  1.00  0.00     0.135 A 
ATOM     83  F   UNL A   1      48.571  28.325  26.813  1.00  0.00    -0.206 F 
ATOM     84  C   UNL A   1      50.475  27.504  27.911  1.00  0.00     0.059 A 
ATOM     85  C   UNL A   1      50.292  26.648  30.177  1.00  0.00     0.059 A 
ATOM     86  F   UNL A   1      48.203  26.609  31.239  1.00  0.00    -0.206 F 
ATOM     87  C   UNL A   1      51.057  26.941  29.049  1.00  0.00     0.060 A 
BRANCH  87  88
ATOM     88  S   UNL A   1      52.834  26.623  29.047  1.00  0.00     0.124 S 
ATOM     89  O   UNL A   1      53.375  27.976  28.954  1.00  0.00    -0.237 OA
ATOM     90  O   UNL A   1      53.032  25.948  30.325  1.00  0.00    -0.237 OA
ATOM     91  O   UNL A   1      53.030  25.788  27.867  1.00  0.00    -0.744 OA
ENDBRANCH  87  88
ENDBRANCH  55  80
ENDBRANCH  29  30
ENDBRANCH  22  24
ENDBRANCH  21  22
ENDBRANCH   1  21
TORSDOF 16
ENDMDL
MODEL 2
REMARK VINA RESULT:     -10.7      1.727      3.788
REMARK SMILES CC1(C)C[C@@](Cc2ccccc2)(C(=O)OCCOC(=O)c2ccc(-c3c4nc(c(-c5c(F)cc(S(=O)(=O)[O-])cc5F)c5ccc([nH]5)c(-c5c(F)cc(S(=O)(=O)[O-])cc5F)c5nc(c(-c6c(F)cc(S(=O)(=O)[O-])cc6F)c6ccc3[nH]6)C=C5)C=C4)cc2)CCO1
REMARK SMILES IDX 17 1 16 2 15 3 13 4 14 5 5 6 1 7 2 8 3 9 4 10 89 11 88 12
REMARK SMILES IDX 87 13 6 14 7 15 8 16 12 17 9 18 11 19 10 20 18 21 19 22
REMARK SMILES IDX 20 23 21 24 22 25 86 26 23 27 85 28 24 29 25 30 26 31 79 32
REMARK SMILES IDX 27 33 84 34 78 35 80 36 28 37 83 38 77 39 76 40 29 42 63 43
REMARK SMILES IDX 42 44 62 45 43 46 46 47 61 48 81 49 44 50 45 51 60 53 82 54
REMARK SMILES IDX 47 55 30 56 31 57 40 58 32 59 33 60 39 61 41 62 34 63 35 64
REMARK SMILES IDX 36 65 37 66 38 67 64 68 65 69 74 70 66 71 67 72 73 73 75 74
REMARK SMILES IDX 68 75 69 76 70 77 71 78 72 79 48 80 49 81 58 82 50 83 51 84
REMARK SMILES IDX 57 85 59 86 52 87 53 88 54 89 55 90 56 91
REMARK H PARENT 80 41 46 52
REMARK Flexibility Score: inf
ROOT
ATOM      1  C   UNL A   1      33.020  28.331  27.408  1.00  0.00     0.275 C 
ENDROOT
BRANCH   1   2
ATOM      2  C   UNL A   1      31.757  28.774  26.670  1.00  0.00     0.274 C 
BRANCH   2   3
ATOM      3  O   UNL A   1      31.916  28.684  25.235  1.00  0.00    -0.462 OA
BRANCH   3   4
ATOM      4  C   UNL A   1      31.113  27.777  24.613  1.00  0.00     0.312 C 
ATOM      5  O   UNL A   1      30.646  26.800  25.190  1.00  0.00    -0.252 OA
BRANCH   4   6
ATOM      6  C   UNL A   1      30.965  28.007  23.097  1.00  0.00     0.077 C 
ATOM      7  C   UNL A   1      33.265  25.797  23.833  1.00  0.00     0.042 C 
ATOM      8  C   UNL A   1      32.771  26.257  22.451  1.00  0.00     0.064 C 
ATOM      9  C   UNL A   1      32.961  25.080  21.482  1.00  0.00     0.042 C 
ATOM     10  C   UNL A   1      31.282  26.663  22.402  1.00  0.00     0.054 C 
ATOM     11  O   UNL A   1      33.585  27.324  21.947  1.00  0.00    -0.376 OA
ATOM     12  C   UNL A   1      33.415  28.587  22.585  1.00  0.00     0.162 C 
ATOM     13  C   UNL A   1      31.967  29.059  22.554  1.00  0.00     0.047 C 
BRANCH   6  14
ATOM     14  C   UNL A   1      29.532  28.468  22.663  1.00  0.00     0.054 C 
BRANCH  14  15
ATOM     15  C   UNL A   1      29.176  29.931  22.516  1.00  0.00    -0.047 A 
ATOM     16  C   UNL A   1      29.190  30.765  23.647  1.00  0.00     0.004 A 
ATOM     17  C   UNL A   1      28.717  30.477  21.311  1.00  0.00     0.004 A 
ATOM     18  C   UNL A   1      28.824  32.112  23.554  1.00  0.00     0.000 A 
ATOM     19  C   UNL A   1      28.396  31.833  21.206  1.00  0.00     0.000 A 
ATOM     20  C   UNL A   1      28.449  32.651  22.328  1.00  0.00     0.000 A 
ENDBRANCH  14  15
ENDBRANCH   6  14
ENDBRANCH   4   6
ENDBRANCH   3   4
ENDBRANCH   2   3
ENDBRANCH   1   2
BRANCH   1  21
ATOM     21  O   UNL A   1      34.164  29.029  26.892  1.00  0.00    -0.458 OA
BRANCH  21  22
ATOM     22  C   UNL A   1      34.520  30.110  27.629  1.00  0.00     0.338 C 
ATOM     23  O   UNL A   1      33.794  31.004  28.024  1.00  0.00    -0.246 OA
BRANCH  22  24
ATOM     24  C   UNL A   1      35.893  29.914  28.116  1.00  0.00     0.060 A 
ATOM     25  C   UNL A   1      36.907  30.056  27.170  1.00  0.00     0.016 A 
ATOM     26  C   UNL A   1      36.197  29.578  29.432  1.00  0.00     0.016 A 
ATOM     27  C   UNL A   1      38.243  29.905  27.530  1.00  0.00     0.010 A 
ATOM     28  C   UNL A   1      37.535  29.373  29.786  1.00  0.00     0.010 A 
ATOM     29  C   UNL A   1      38.565  29.533  28.838  1.00  0.00    -0.014 A 
BRANCH  29  30
ATOM     30  C   UNL A   1      39.959  29.155  29.171  1.00  0.00     0.031 A 
ATOM     31  C   UNL A   1      40.848  30.191  29.792  1.00  0.00     0.074 A 
ATOM     32  C   UNL A   1      40.420  27.911  28.951  1.00  0.00     0.049 A 
ATOM     33  N   UNL A   1      42.133  30.147  30.021  1.00  0.00    -0.248 NA
ATOM     34  C   UNL A   1      40.200  31.443  30.214  1.00  0.00     0.031 C 
ATOM     35  C   UNL A   1      39.622  26.798  28.445  1.00  0.00     0.029 A 
ATOM     36  N   UNL A   1      41.673  27.374  29.116  1.00  0.00    -0.354 N 
ATOM     37  C   UNL A   1      42.453  31.367  30.601  1.00  0.00     0.074 A 
ATOM     38  C   UNL A   1      41.230  32.136  30.678  1.00  0.00     0.031 C 
ATOM     39  C   UNL A   1      40.408  25.715  28.317  1.00  0.00     0.029 A 
ATOM     40  C   UNL A   1      41.777  26.075  28.677  1.00  0.00     0.049 A 
ATOM     41  H   UNL A   1      42.425  27.873  29.511  1.00  0.00     0.167 HD
ATOM     42  C   UNL A   1      43.660  31.804  31.026  1.00  0.00     0.037 A 
ATOM     43  C   UNL A   1      42.863  25.287  28.534  1.00  0.00     0.037 A 
ATOM     44  C   UNL A   1      44.871  31.031  30.935  1.00  0.00     0.049 A 
ATOM     45  C   UNL A   1      44.217  25.837  28.912  1.00  0.00     0.074 A 
ATOM     46  C   UNL A   1      46.155  31.399  31.296  1.00  0.00     0.029 A 
ATOM     47  N   UNL A   1      44.948  29.733  30.453  1.00  0.00    -0.354 N 
ATOM     48  N   UNL A   1      44.520  27.012  29.415  1.00  0.00    -0.248 NA
ATOM     49  C   UNL A   1      45.378  24.963  28.694  1.00  0.00     0.031 C 
ATOM     50  C   UNL A   1      47.015  30.339  30.991  1.00  0.00     0.029 A 
ATOM     51  C   UNL A   1      46.259  29.290  30.494  1.00  0.00     0.049 A 
ATOM     52  H   UNL A   1      44.184  29.204  30.128  1.00  0.00     0.167 HD
ATOM     53  C   UNL A   1      45.899  27.003  29.602  1.00  0.00     0.074 A 
ATOM     54  C   UNL A   1      46.370  25.703  29.172  1.00  0.00     0.031 C 
ATOM     55  C   UNL A   1      46.705  27.982  30.084  1.00  0.00     0.037 A 
BRANCH  42  56
ATOM     56  C   UNL A   1      43.739  33.192  31.593  1.00  0.00     0.058 A 
ATOM     57  C   UNL A   1      43.890  34.317  30.768  1.00  0.00     0.135 A 
ATOM     58  C   UNL A   1      43.616  33.402  32.975  1.00  0.00     0.135 A 
ATOM     59  F   UNL A   1      44.040  34.170  29.442  1.00  0.00    -0.206 F 
ATOM     60  C   UNL A   1      43.927  35.603  31.296  1.00  0.00     0.059 A 
ATOM     61  C   UNL A   1      43.624  34.680  33.523  1.00  0.00     0.059 A 
ATOM     62  F   UNL A   1      43.482  32.358  33.808  1.00  0.00    -0.206 F 
ATOM     63  C   UNL A   1      43.787  35.774  32.675  1.00  0.00     0.060 A 
BRANCH  63  64
ATOM     64  S   UNL A   1      43.805  37.453  33.339  1.00  0.00     0.124 S 
ATOM     65  O   UNL A   1      42.607  37.449  34.174  1.00  0.00    -0.237 OA
ATOM     66  O   UNL A   1      45.076  37.489  34.054  1.00  0.00    -0.237 OA
ATOM     67  O   UNL A   1      43.734  38.292  32.147  1.00  0.00    -0.744 OA
ENDBRANCH  63  64
ENDBRANCH  42  56
BRANCH  43  68
ATOM     68  C   UNL A   1      42.742  23.922  27.945  1.00  0.00     0.058 A 
ATOM     69  C   UNL A   1      42.653  23.729  26.558  1.00  0.00     0.135 A 
ATOM     70  C   UNL A   1      42.651  22.785  28.765  1.00  0.00     0.135 A 
ATOM     71  F   UNL A   1      42.720  24.781  25.729  1.00  0.00    -0.206 F 
ATOM     72  C   UNL A   1      42.443  22.467  26.008  1.00  0.00     0.059 A 
ATOM     73  C   UNL A   1      42.475  21.510  28.237  1.00  0.00     0.059 A 
ATOM     74  F   UNL A   1      42.736  22.908  30.099  1.00  0.00    -0.206 F 
ATOM     75  C   UNL A   1      42.350  21.363  26.857  1.00  0.00     0.060 A 
BRANCH  75  76
ATOM     76  S   UNL A   1      42.077  19.730  26.136  1.00  0.00     0.124 S 
ATOM     77  O   UNL A   1      40.644  19.764  25.866  1.00  0.00    -0.237 OA
ATOM     78  O   UNL A   1      42.948  19.763  24.965  1.00  0.00    -0.237 OA
ATOM     79  O   UNL A   1      42.498  18.820  27.197  1.00  0.00    -0.744 OA
ENDBRANCH  75  76
ENDBRANCH  43  68
BRANCH  55  80
ATOM     80  C   UNL A   1      48.170  27.671  30.228  1.00  0.00     0.058 A 
ATOM     81  C   UNL A   1      48.693  27.080  31.389  1.00  0.00     0.135 A 
ATOM     82  C   UNL A   1      49.053  27.912  29.161  1.00  0.00     0.135 A 
ATOM     83  F   UNL A   1      47.896  26.833  32.439  1.00  0.00    -0.206 F 
ATOM     84  C   UNL A   1      50.043  26.759  31.495  1.00  0.00     0.059 A 
ATOM     85  C   UNL A   1      50.400  27.571  29.234  1.00  0.00     0.059 A 
ATOM     86  F   UNL A   1      48.602  28.464  28.023  1.00  0.00    -0.206 F 
ATOM     87  C   UNL A   1      50.887  27.005  30.411  1.00  0.00     0.060 A 
BRANCH  87  88
ATOM     88  S   UNL A   1      52.628  26.548  30.548  1.00  0.00     0.124 S 
ATOM     89  O   UNL A   1      53.206  27.757  31.126  1.00  0.00    -0.237 OA
ATOM     90  O   UNL A   1      52.577  25.386  31.430  1.00  0.00    -0.237 OA
ATOM     91  O   UNL A   1      53.016  26.264  29.170  1.00  0.00    -0.744 OA
ENDBRANCH  87  88
ENDBRANCH  55  80
ENDBRANCH  29  30
ENDBRANCH  22  24
ENDBRANCH  21  22
ENDBRANCH   1  21
TORSDOF 16
ENDMDL
MODEL 3
REMARK VINA RESULT:     -10.6      3.118      6.457
REMARK SMILES CC1(C)C[C@@](Cc2ccccc2)(C(=O)OCCOC(=O)c2ccc(-c3c4nc(c(-c5c(F)cc(S(=O)(=O)[O-])cc5F)c5ccc([nH]5)c(-c5c(F)cc(S(=O)(=O)[O-])cc5F)c5nc(c(-c6c(F)cc(S(=O)(=O)[O-])cc6F)c6ccc3[nH]6)C=C5)C=C4)cc2)CCO1
REMARK SMILES IDX 17 1 16 2 15 3 13 4 14 5 5 6 1 7 2 8 3 9 4 10 89 11 88 12
REMARK SMILES IDX 87 13 6 14 7 15 8 16 12 17 9 18 11 19 10 20 18 21 19 22
REMARK SMILES IDX 20 23 21 24 22 25 86 26 23 27 85 28 24 29 25 30 26 31 79 32
REMARK SMILES IDX 27 33 84 34 78 35 80 36 28 37 83 38 77 39 76 40 29 42 63 43
REMARK SMILES IDX 42 44 62 45 43 46 46 47 61 48 81 49 44 50 45 51 60 53 82 54
REMARK SMILES IDX 47 55 30 56 31 57 40 58 32 59 33 60 39 61 41 62 34 63 35 64
REMARK SMILES IDX 36 65 37 66 38 67 64 68 65 69 74 70 66 71 67 72 73 73 75 74
REMARK SMILES IDX 68 75 69 76 70 77 71 78 72 79 48 80 49 81 58 82 50 83 51 84
REMARK SMILES IDX 57 85 59 86 52 87 53 88 54 89 55 90 56 91
REMARK H PARENT 80 41 46 52
REMARK Flexibility Score: inf
ROOT
ATOM      1  C   UNL A   1      34.611  32.999  28.663  1.00  0.00     0.275 C 
ENDROOT
BRANCH   1   2
ATOM      2  C   UNL A   1      35.851  33.719  29.194  1.00  0.00     0.274 C 
BRANCH   2   3
ATOM      3  O   UNL A   1      36.456  33.001  30.296  1.00  0.00    -0.462 OA
BRANCH   3   4
ATOM      4  C   UNL A   1      36.704  33.742  31.411  1.00  0.00     0.312 C 
ATOM      5  O   UNL A   1      37.510  34.666  31.428  1.00  0.00    -0.252 OA
BRANCH   4   6
ATOM      6  C   UNL A   1      35.992  33.226  32.676  1.00  0.00     0.077 C 
ATOM      7  C   UNL A   1      39.238  33.446  33.039  1.00  0.00     0.042 C 
ATOM      8  C   UNL A   1      38.173  33.041  34.072  1.00  0.00     0.064 C 
ATOM      9  C   UNL A   1      38.709  33.433  35.458  1.00  0.00     0.042 C 
ATOM     10  C   UNL A   1      36.806  33.732  33.890  1.00  0.00     0.054 C 
ATOM     11  O   UNL A   1      38.003  31.618  34.099  1.00  0.00    -0.376 OA
ATOM     12  C   UNL A   1      37.332  31.054  32.976  1.00  0.00     0.162 C 
ATOM     13  C   UNL A   1      35.960  31.678  32.751  1.00  0.00     0.047 C 
BRANCH   6  14
ATOM     14  C   UNL A   1      34.515  33.726  32.821  1.00  0.00     0.054 C 
BRANCH  14  15
ATOM     15  C   UNL A   1      34.093  35.105  32.365  1.00  0.00    -0.047 A 
ATOM     16  C   UNL A   1      34.414  36.224  33.153  1.00  0.00     0.004 A 
ATOM     17  C   UNL A   1      33.288  35.313  31.239  1.00  0.00     0.004 A 
ATOM     18  C   UNL A   1      34.000  37.509  32.783  1.00  0.00     0.000 A 
ATOM     19  C   UNL A   1      32.914  36.600  30.843  1.00  0.00     0.000 A 
ATOM     20  C   UNL A   1      33.270  37.699  31.615  1.00  0.00     0.000 A 
ENDBRANCH  14  15
ENDBRANCH   6  14
ENDBRANCH   4   6
ENDBRANCH   3   4
ENDBRANCH   2   3
ENDBRANCH   1   2
BRANCH   1  21
ATOM     21  O   UNL A   1      34.447  31.739  29.332  1.00  0.00    -0.458 OA
BRANCH  21  22
ATOM     22  C   UNL A   1      34.517  30.669  28.503  1.00  0.00     0.338 C 
ATOM     23  O   UNL A   1      33.672  30.295  27.710  1.00  0.00    -0.246 OA
BRANCH  22  24
ATOM     24  C   UNL A   1      35.897  30.161  28.508  1.00  0.00     0.060 A 
ATOM     25  C   UNL A   1      36.383  29.714  29.735  1.00  0.00     0.016 A 
ATOM     26  C   UNL A   1      36.708  30.139  27.377  1.00  0.00     0.016 A 
ATOM     27  C   UNL A   1      37.671  29.200  29.848  1.00  0.00     0.010 A 
ATOM     28  C   UNL A   1      38.022  29.673  27.496  1.00  0.00     0.010 A 
ATOM     29  C   UNL A   1      38.511  29.203  28.731  1.00  0.00    -0.014 A 
BRANCH  29  30
ATOM     30  C   UNL A   1      39.946  28.867  28.893  1.00  0.00     0.031 A 
ATOM     31  C   UNL A   1      40.880  29.941  29.367  1.00  0.00     0.074 A 
ATOM     32  C   UNL A   1      40.408  27.627  28.651  1.00  0.00     0.049 A 
ATOM     33  N   UNL A   1      42.184  29.934  29.429  1.00  0.00    -0.248 NA
ATOM     34  C   UNL A   1      40.257  31.191  29.833  1.00  0.00     0.031 C 
ATOM     35  C   UNL A   1      39.583  26.482  28.281  1.00  0.00     0.029 A 
ATOM     36  N   UNL A   1      41.686  27.125  28.668  1.00  0.00    -0.354 N 
ATOM     37  C   UNL A   1      42.542  31.179  29.930  1.00  0.00     0.074 A 
ATOM     38  C   UNL A   1      41.319  31.922  30.142  1.00  0.00     0.031 C 
ATOM     39  C   UNL A   1      40.374  25.414  28.084  1.00  0.00     0.029 A 
ATOM     40  C   UNL A   1      41.768  25.815  28.255  1.00  0.00     0.049 A 
ATOM     41  H   UNL A   1      42.469  27.653  28.949  1.00  0.00     0.167 HD
ATOM     42  C   UNL A   1      43.782  31.656  30.185  1.00  0.00     0.037 A 
ATOM     43  C   UNL A   1      42.848  25.049  27.996  1.00  0.00     0.037 A 
ATOM     44  C   UNL A   1      44.991  30.909  29.961  1.00  0.00     0.049 A 
ATOM     45  C   UNL A   1      44.224  25.642  28.182  1.00  0.00     0.074 A 
ATOM     46  C   UNL A   1      46.301  31.317  30.144  1.00  0.00     0.029 A 
ATOM     47  N   UNL A   1      45.041  29.599  29.508  1.00  0.00    -0.354 N 
ATOM     48  N   UNL A   1      44.557  26.838  28.609  1.00  0.00    -0.248 NA
ATOM     49  C   UNL A   1      45.370  24.788  27.841  1.00  0.00     0.031 C 
ATOM     50  C   UNL A   1      47.143  30.268  29.760  1.00  0.00     0.029 A 
ATOM     51  C   UNL A   1      46.358  29.187  29.393  1.00  0.00     0.049 A 
ATOM     52  H   UNL A   1      44.255  29.043  29.298  1.00  0.00     0.167 HD
ATOM     53  C   UNL A   1      45.948  26.866  28.618  1.00  0.00     0.074 A 
ATOM     54  C   UNL A   1      46.395  25.565  28.168  1.00  0.00     0.031 C 
ATOM     55  C   UNL A   1      46.782  27.878  28.965  1.00  0.00     0.037 A 
BRANCH  42  56
ATOM     56  C   UNL A   1      43.895  33.062  30.698  1.00  0.00     0.058 A 
ATOM     57  C   UNL A   1      43.926  33.345  32.072  1.00  0.00     0.135 A 
ATOM     58  C   UNL A   1      44.017  34.136  29.802  1.00  0.00     0.135 A 
ATOM     59  F   UNL A   1      43.784  32.358  32.971  1.00  0.00    -0.206 F 
ATOM     60  C   UNL A   1      44.066  34.647  32.541  1.00  0.00     0.059 A 
ATOM     61  C   UNL A   1      44.185  35.442  30.248  1.00  0.00     0.059 A 
ATOM     62  F   UNL A   1      43.981  33.920  28.478  1.00  0.00    -0.206 F 
ATOM     63  C   UNL A   1      44.201  35.688  31.621  1.00  0.00     0.060 A 
BRANCH  63  64
ATOM     64  S   UNL A   1      44.414  37.368  32.248  1.00  0.00     0.124 S 
ATOM     65  O   UNL A   1      44.005  38.164  31.095  1.00  0.00    -0.237 OA
ATOM     66  O   UNL A   1      43.505  37.390  33.388  1.00  0.00    -0.237 OA
ATOM     67  O   UNL A   1      45.834  37.430  32.579  1.00  0.00    -0.744 OA
ENDBRANCH  63  64
ENDBRANCH  42  56
BRANCH  43  68
ATOM     68  C   UNL A   1      42.689  23.664  27.466  1.00  0.00     0.058 A 
ATOM     69  C   UNL A   1      42.503  22.569  28.324  1.00  0.00     0.135 A 
ATOM     70  C   UNL A   1      42.781  23.400  26.089  1.00  0.00     0.135 A 
ATOM     71  F   UNL A   1      42.422  22.763  29.649  1.00  0.00    -0.206 F 
ATOM     72  C   UNL A   1      42.451  21.264  27.843  1.00  0.00     0.059 A 
ATOM     73  C   UNL A   1      42.697  22.107  25.581  1.00  0.00     0.059 A 
ATOM     74  F   UNL A   1      42.952  24.408  25.219  1.00  0.00    -0.206 F 
ATOM     75  C   UNL A   1      42.555  21.043  26.468  1.00  0.00     0.060 A 
BRANCH  75  76
ATOM     76  S   UNL A   1      42.486  19.346  25.851  1.00  0.00     0.124 S 
ATOM     77  O   UNL A   1      41.059  19.185  25.596  1.00  0.00    -0.237 OA
ATOM     78  O   UNL A   1      43.342  19.415  24.671  1.00  0.00    -0.237 OA
ATOM     79  O   UNL A   1      43.021  18.563  26.960  1.00  0.00    -0.744 OA
ENDBRANCH  75  76
ENDBRANCH  43  68
BRANCH  55  80
ATOM     80  C   UNL A   1      48.262  27.605  28.929  1.00  0.00     0.058 A 
ATOM     81  C   UNL A   1      48.937  27.025  30.014  1.00  0.00     0.135 A 
ATOM     82  C   UNL A   1      49.002  27.873  27.765  1.00  0.00     0.135 A 
ATOM     83  F   UNL A   1      48.279  26.752  31.152  1.00  0.00    -0.206 F 
ATOM     84  C   UNL A   1      50.297  26.739  29.954  1.00  0.00     0.059 A 
ATOM     85  C   UNL A   1      50.356  27.568  27.672  1.00  0.00     0.059 A 
ATOM     86  F   UNL A   1      48.403  28.417  26.693  1.00  0.00    -0.206 F 
ATOM     87  C   UNL A   1      50.997  27.011  28.777  1.00  0.00     0.060 A 
BRANCH  87  88
ATOM     88  S   UNL A   1      52.753  26.599  28.699  1.00  0.00     0.124 S 
ATOM     89  O   UNL A   1      53.348  27.899  28.405  1.00  0.00    -0.237 OA
ATOM     90  O   UNL A   1      53.010  26.073  30.036  1.00  0.00    -0.237 OA
ATOM     91  O   UNL A   1      52.827  25.618  27.622  1.00  0.00    -0.744 OA
ENDBRANCH  87  88
ENDBRANCH  55  80
ENDBRANCH  29  30
ENDBRANCH  22  24
ENDBRANCH  21  22
ENDBRANCH   1  21
TORSDOF 16
ENDMDL
