MODEL 1
REMARK VINA RESULT:     -10.1      0.000      0.000
REMARK SMILES Cc1cc(C)cc(-c2ccc([C@@H](C)C(=O)OCCOC(=O)c3ccc(-c4c5nc(c(-c6c(F)cc(S(=O)(=O)[O-])cc6F)c6ccc([nH]6)c(-c6c(F)cc(S(=O)(=O)[O-])cc6F)c6nc(c(-c7c(F)cc(S(=O)(=O)[O-])cc7F)c7ccc4[nH]7)C=C6)C=C5)cc3)cc2F)c1
REMARK SMILES IDX 18 1 17 2 16 3 14 4 15 5 12 6 13 7 11 8 8 9 9 10 89 11 10 12
REMARK SMILES IDX 88 13 90 14 7 15 1 16 2 17 3 18 91 19 4 20 5 21 6 22 19 23
REMARK SMILES IDX 20 24 21 25 22 26 23 27 87 28 24 29 86 30 25 31 26 32 27 33
REMARK SMILES IDX 80 34 28 35 85 36 79 37 81 38 29 39 84 40 78 41 77 42 30 44
REMARK SMILES IDX 64 45 43 46 63 47 44 48 47 49 62 50 82 51 45 52 46 53 61 55
REMARK SMILES IDX 83 56 48 57 31 58 32 59 41 60 33 61 34 62 40 63 42 64 35 65
REMARK SMILES IDX 36 66 37 67 38 68 39 69 65 70 66 71 75 72 67 73 68 74 74 75
REMARK SMILES IDX 76 76 69 77 70 78 71 79 72 80 73 81 49 82 50 83 59 84 51 85
REMARK SMILES IDX 52 86 58 87 60 88 53 89 54 90 55 91 56 92 57 93
REMARK H PARENT 81 43 47 54
REMARK Flexibility Score: inf
ROOT
ATOM      1  C   UNL A   1      34.001  32.891  27.627  1.00  0.00     0.275 C 
ENDROOT
BRANCH   1   2
ATOM      2  C   UNL A   1      33.183  33.989  28.313  1.00  0.00     0.274 C 
BRANCH   2   3
ATOM      3  O   UNL A   1      33.991  34.756  29.225  1.00  0.00    -0.462 OA
BRANCH   3   4
ATOM      4  C   UNL A   1      33.864  34.463  30.546  1.00  0.00     0.313 C 
ATOM      5  O   UNL A   1      33.112  35.057  31.313  1.00  0.00    -0.252 OA
BRANCH   4   6
ATOM      6  C   UNL A   1      34.795  33.355  31.025  1.00  0.00     0.126 C 
ATOM      7  C   UNL A   1      34.532  33.067  32.503  1.00  0.00     0.025 C 
BRANCH   6   8
ATOM      8  C   UNL A   1      36.275  33.550  30.727  1.00  0.00    -0.031 A 
ATOM      9  C   UNL A   1      39.036  33.997  30.190  1.00  0.00     0.017 A 
ATOM     10  C   UNL A   1      38.200  33.384  29.243  1.00  0.00     0.012 A 
ATOM     11  C   UNL A   1      38.466  34.358  31.415  1.00  0.00     0.131 A 
ATOM     12  C   UNL A   1      36.842  33.164  29.505  1.00  0.00     0.005 A 
ATOM     13  C   UNL A   1      37.111  34.150  31.682  1.00  0.00     0.044 A 
ATOM     14  F   UNL A   1      39.209  34.956  32.359  1.00  0.00    -0.206 F 
BRANCH   9  15
ATOM     15  C   UNL A   1      40.443  34.279  29.871  1.00  0.00    -0.015 A 
ATOM     16  C   UNL A   1      42.544  36.716  27.811  1.00  0.00     0.044 C 
ATOM     17  C   UNL A   1      42.157  35.593  28.727  1.00  0.00    -0.050 A 
ATOM     18  C   UNL A   1      43.151  34.794  29.306  1.00  0.00     0.006 A 
ATOM     19  C   UNL A   1      40.811  35.326  29.012  1.00  0.00     0.012 A 
ATOM     20  C   UNL A   1      42.814  33.736  30.156  1.00  0.00    -0.050 A 
ATOM     21  C   UNL A   1      43.886  32.881  30.760  1.00  0.00     0.044 C 
ATOM     22  C   UNL A   1      41.464  33.491  30.433  1.00  0.00     0.012 A 
ENDBRANCH   9  15
ENDBRANCH   6   8
ENDBRANCH   4   6
ENDBRANCH   3   4
ENDBRANCH   2   3
ENDBRANCH   1   2
BRANCH   1  23
ATOM     23  O   UNL A   1      33.812  31.617  28.268  1.00  0.00    -0.458 OA
BRANCH  23  24
ATOM     24  C   UNL A   1      34.217  30.548  27.540  1.00  0.00     0.338 C 
ATOM     25  O   UNL A   1      33.679  30.085  26.550  1.00  0.00    -0.246 OA
BRANCH  24  26
ATOM     26  C   UNL A   1      35.513  30.070  28.042  1.00  0.00     0.060 A 
ATOM     27  C   UNL A   1      35.586  29.674  29.378  1.00  0.00     0.016 A 
ATOM     28  C   UNL A   1      36.660  30.100  27.248  1.00  0.00     0.016 A 
ATOM     29  C   UNL A   1      36.809  29.328  29.940  1.00  0.00     0.010 A 
ATOM     30  C   UNL A   1      37.890  29.741  27.810  1.00  0.00     0.010 A 
ATOM     31  C   UNL A   1      37.974  29.370  29.164  1.00  0.00    -0.014 A 
BRANCH  31  32
ATOM     32  C   UNL A   1      39.278  29.069  29.801  1.00  0.00     0.031 A 
ATOM     33  C   UNL A   1      39.693  29.799  31.046  1.00  0.00     0.074 A 
ATOM     34  C   UNL A   1      40.059  28.095  29.293  1.00  0.00     0.049 A 
ATOM     35  N   UNL A   1      40.800  29.695  31.733  1.00  0.00    -0.248 NA
ATOM     36  C   UNL A   1      38.734  30.773  31.591  1.00  0.00     0.031 C 
ATOM     37  C   UNL A   1      39.737  27.284  28.118  1.00  0.00     0.029 A 
ATOM     38  N   UNL A   1      41.274  27.615  29.709  1.00  0.00    -0.354 N 
ATOM     39  C   UNL A   1      40.681  30.596  32.785  1.00  0.00     0.074 A 
ATOM     40  C   UNL A   1      39.399  31.252  32.635  1.00  0.00     0.031 C 
ATOM     41  C   UNL A   1      40.722  26.394  27.918  1.00  0.00     0.029 A 
ATOM     42  C   UNL A   1      41.762  26.598  28.924  1.00  0.00     0.049 A 
ATOM     43  H   UNL A   1      41.753  27.966  30.495  1.00  0.00     0.167 HD
ATOM     44  C   UNL A   1      41.558  30.846  33.785  1.00  0.00     0.037 A 
ATOM     45  C   UNL A   1      42.923  25.918  28.997  1.00  0.00     0.037 A 
ATOM     46  C   UNL A   1      42.825  30.178  33.938  1.00  0.00     0.049 A 
ATOM     47  C   UNL A   1      43.901  26.247  30.089  1.00  0.00     0.074 A 
ATOM     48  C   UNL A   1      43.785  30.367  34.917  1.00  0.00     0.029 A 
ATOM     49  N   UNL A   1      43.306  29.189  33.094  1.00  0.00    -0.354 N 
ATOM     50  N   UNL A   1      43.788  27.125  31.057  1.00  0.00    -0.248 NA
ATOM     51  C   UNL A   1      45.168  25.503  30.095  1.00  0.00     0.031 C 
ATOM     52  C   UNL A   1      44.860  29.513  34.648  1.00  0.00     0.029 A 
ATOM     53  C   UNL A   1      44.554  28.766  33.521  1.00  0.00     0.049 A 
ATOM     54  H   UNL A   1      42.830  28.837  32.306  1.00  0.00     0.167 HD
ATOM     55  C   UNL A   1      44.965  27.035  31.792  1.00  0.00     0.074 A 
ATOM     56  C   UNL A   1      45.769  26.004  31.167  1.00  0.00     0.031 C 
ATOM     57  C   UNL A   1      45.345  27.744  32.882  1.00  0.00     0.037 A 
BRANCH  44  58
ATOM     58  C   UNL A   1      41.190  31.903  34.787  1.00  0.00     0.058 A 
ATOM     59  C   UNL A   1      40.378  31.587  35.887  1.00  0.00     0.135 A 
ATOM     60  C   UNL A   1      41.603  33.236  34.636  1.00  0.00     0.135 A 
ATOM     61  F   UNL A   1      39.963  30.325  36.082  1.00  0.00    -0.206 F 
ATOM     62  C   UNL A   1      39.978  32.558  36.798  1.00  0.00     0.059 A 
ATOM     63  C   UNL A   1      41.231  34.221  35.547  1.00  0.00     0.059 A 
ATOM     64  F   UNL A   1      42.400  33.584  33.614  1.00  0.00    -0.206 F 
ATOM     65  C   UNL A   1      40.407  33.874  36.619  1.00  0.00     0.060 A 
BRANCH  65  66
ATOM     66  S   UNL A   1      39.913  35.117  37.833  1.00  0.00     0.124 S 
ATOM     67  O   UNL A   1      38.735  34.499  38.432  1.00  0.00    -0.237 OA
ATOM     68  O   UNL A   1      41.093  35.198  38.688  1.00  0.00    -0.237 OA
ATOM     69  O   UNL A   1      39.660  36.302  37.018  1.00  0.00    -0.744 OA
ENDBRANCH  65  66
ENDBRANCH  44  58
BRANCH  45  70
ATOM     70  C   UNL A   1      43.216  24.860  27.996  1.00  0.00     0.058 A 
ATOM     71  C   UNL A   1      42.897  23.517  28.246  1.00  0.00     0.135 A 
ATOM     72  C   UNL A   1      43.860  25.167  26.789  1.00  0.00     0.135 A 
ATOM     73  F   UNL A   1      42.283  23.172  29.389  1.00  0.00    -0.206 F 
ATOM     74  C   UNL A   1      43.233  22.509  27.349  1.00  0.00     0.059 A 
ATOM     75  C   UNL A   1      44.187  24.178  25.864  1.00  0.00     0.059 A 
ATOM     76  F   UNL A   1      44.170  26.440  26.500  1.00  0.00    -0.206 F 
ATOM     77  C   UNL A   1      43.887  22.850  26.164  1.00  0.00     0.060 A 
BRANCH  77  78
ATOM     78  S   UNL A   1      44.337  21.527  25.021  1.00  0.00     0.124 S 
ATOM     79  O   UNL A   1      43.363  20.498  25.370  1.00  0.00    -0.237 OA
ATOM     80  O   UNL A   1      44.148  22.163  23.721  1.00  0.00    -0.237 OA
ATOM     81  O   UNL A   1      45.721  21.231  25.376  1.00  0.00    -0.744 OA
ENDBRANCH  77  78
ENDBRANCH  45  70
BRANCH  57  82
ATOM     82  C   UNL A   1      46.689  27.431  33.475  1.00  0.00     0.058 A 
ATOM     83  C   UNL A   1      46.822  26.442  34.461  1.00  0.00     0.135 A 
ATOM     84  C   UNL A   1      47.836  28.151  33.105  1.00  0.00     0.135 A 
ATOM     85  F   UNL A   1      45.755  25.728  34.852  1.00  0.00    -0.206 F 
ATOM     86  C   UNL A   1      48.046  26.184  35.070  1.00  0.00     0.059 A 
ATOM     87  C   UNL A   1      49.074  27.897  33.687  1.00  0.00     0.059 A 
ATOM     88  F   UNL A   1      47.761  29.099  32.157  1.00  0.00    -0.206 F 
ATOM     89  C   UNL A   1      49.166  26.920  34.680  1.00  0.00     0.060 A 
BRANCH  89  90
ATOM     90  S   UNL A   1      50.754  26.557  35.458  1.00  0.00     0.124 S 
ATOM     91  O   UNL A   1      50.708  25.103  35.566  1.00  0.00    -0.237 OA
ATOM     92  O   UNL A   1      51.706  27.092  34.488  1.00  0.00    -0.237 OA
ATOM     93  O   UNL A   1      50.684  27.285  36.722  1.00  0.00    -0.744 OA
ENDBRANCH  89  90
ENDBRANCH  57  82
ENDBRANCH  31  32
ENDBRANCH  24  26
ENDBRANCH  23  24
ENDBRANCH   1  23
TORSDOF 16
ENDMDL
MODEL 2
REMARK VINA RESULT:     -10.0      2.332      3.659
REMARK SMILES Cc1cc(C)cc(-c2ccc([C@@H](C)C(=O)OCCOC(=O)c3ccc(-c4c5nc(c(-c6c(F)cc(S(=O)(=O)[O-])cc6F)c6ccc([nH]6)c(-c6c(F)cc(S(=O)(=O)[O-])cc6F)c6nc(c(-c7c(F)cc(S(=O)(=O)[O-])cc7F)c7ccc4[nH]7)C=C6)C=C5)cc3)cc2F)c1
REMARK SMILES IDX 18 1 17 2 16 3 14 4 15 5 12 6 13 7 11 8 8 9 9 10 89 11 10 12
REMARK SMILES IDX 88 13 90 14 7 15 1 16 2 17 3 18 91 19 4 20 5 21 6 22 19 23
REMARK SMILES IDX 20 24 21 25 22 26 23 27 87 28 24 29 86 30 25 31 26 32 27 33
REMARK SMILES IDX 80 34 28 35 85 36 79 37 81 38 29 39 84 40 78 41 77 42 30 44
REMARK SMILES IDX 64 45 43 46 63 47 44 48 47 49 62 50 82 51 45 52 46 53 61 55
REMARK SMILES IDX 83 56 48 57 31 58 32 59 41 60 33 61 34 62 40 63 42 64 35 65
REMARK SMILES IDX 36 66 37 67 38 68 39 69 65 70 66 71 75 72 67 73 68 74 74 75
REMARK SMILES IDX 76 76 69 77 70 78 71 79 72 80 73 81 49 82 50 83 59 84 51 85
REMARK SMILES IDX 52 86 58 87 60 88 53 89 54 90 55 91 56 92 57 93
REMARK H PARENT 81 43 47 54
REMARK Flexibility Score: inf
ROOT
ATOM      1  C   UNL A   1      33.394  32.752  27.773  1.00  0.00     0.275 C 
ENDROOT
BRANCH   1   2
ATOM      2  C   UNL A   1      33.493  34.189  28.292  1.00  0.00     0.274 C 
BRANCH   2   3
ATOM      3  O   UNL A   1      33.306  34.249  29.719  1.00  0.00    -0.462 OA
BRANCH   3   4
ATOM      4  C   UNL A   1      32.933  35.449  30.235  1.00  0.00     0.313 C 
ATOM      5  O   UNL A   1      32.470  36.370  29.568  1.00  0.00    -0.252 OA
BRANCH   4   6
ATOM      6  C   UNL A   1      33.199  35.588  31.730  1.00  0.00     0.126 C 
ATOM      7  C   UNL A   1      33.311  37.068  32.096  1.00  0.00     0.025 C 
BRANCH   6   8
ATOM      8  C   UNL A   1      34.353  34.764  32.283  1.00  0.00    -0.031 A 
ATOM      9  C   UNL A   1      36.546  33.219  33.239  1.00  0.00     0.017 A 
ATOM     10  C   UNL A   1      35.220  32.859  33.529  1.00  0.00     0.012 A 
ATOM     11  C   UNL A   1      36.748  34.378  32.483  1.00  0.00     0.131 A 
ATOM     12  C   UNL A   1      34.141  33.617  33.059  1.00  0.00     0.005 A 
ATOM     13  C   UNL A   1      35.678  35.135  32.004  1.00  0.00     0.044 A 
ATOM     14  F   UNL A   1      37.991  34.771  32.166  1.00  0.00    -0.206 F 
BRANCH   9  15
ATOM     15  C   UNL A   1      37.663  32.373  33.686  1.00  0.00    -0.015 A 
ATOM     16  C   UNL A   1      39.184  28.936  33.003  1.00  0.00     0.044 C 
ATOM     17  C   UNL A   1      38.956  30.302  33.578  1.00  0.00    -0.050 A 
ATOM     18  C   UNL A   1      39.826  30.799  34.557  1.00  0.00     0.006 A 
ATOM     19  C   UNL A   1      37.879  31.093  33.153  1.00  0.00     0.012 A 
ATOM     20  C   UNL A   1      39.628  32.066  35.115  1.00  0.00    -0.050 A 
ATOM     21  C   UNL A   1      40.559  32.582  36.170  1.00  0.00     0.044 C 
ATOM     22  C   UNL A   1      38.550  32.842  34.671  1.00  0.00     0.012 A 
ENDBRANCH   9  15
ENDBRANCH   6   8
ENDBRANCH   4   6
ENDBRANCH   3   4
ENDBRANCH   2   3
ENDBRANCH   1   2
BRANCH   1  23
ATOM     23  O   UNL A   1      34.198  31.853  28.557  1.00  0.00    -0.458 OA
BRANCH  23  24
ATOM     24  C   UNL A   1      34.289  30.595  28.065  1.00  0.00     0.338 C 
ATOM     25  O   UNL A   1      33.427  29.972  27.471  1.00  0.00    -0.246 OA
BRANCH  24  26
ATOM     26  C   UNL A   1      35.661  30.095  28.235  1.00  0.00     0.060 A 
ATOM     27  C   UNL A   1      36.051  29.691  29.513  1.00  0.00     0.016 A 
ATOM     28  C   UNL A   1      36.579  30.110  27.185  1.00  0.00     0.016 A 
ATOM     29  C   UNL A   1      37.369  29.325  29.760  1.00  0.00     0.010 A 
ATOM     30  C   UNL A   1      37.904  29.730  27.429  1.00  0.00     0.010 A 
ATOM     31  C   UNL A   1      38.310  29.352  28.722  1.00  0.00    -0.014 A 
BRANCH  31  32
ATOM     32  C   UNL A   1      39.725  29.028  29.021  1.00  0.00     0.031 A 
ATOM     33  C   UNL A   1      40.581  30.016  29.761  1.00  0.00     0.074 A 
ATOM     34  C   UNL A   1      40.219  27.822  28.682  1.00  0.00     0.049 A 
ATOM     35  N   UNL A   1      41.843  29.927  30.092  1.00  0.00    -0.248 NA
ATOM     36  C   UNL A   1      39.933  31.267  30.185  1.00  0.00     0.031 C 
ATOM     37  C   UNL A   1      39.466  26.763  28.007  1.00  0.00     0.029 A 
ATOM     38  N   UNL A   1      41.464  27.280  28.871  1.00  0.00    -0.354 N 
ATOM     39  C   UNL A   1      42.146  31.112  30.754  1.00  0.00     0.074 A 
ATOM     40  C   UNL A   1      40.939  31.912  30.760  1.00  0.00     0.031 C 
ATOM     41  C   UNL A   1      40.261  25.691  27.854  1.00  0.00     0.029 A 
ATOM     42  C   UNL A   1      41.587  26.001  28.383  1.00  0.00     0.049 A 
ATOM     43  H   UNL A   1      42.200  27.760  29.314  1.00  0.00     0.167 HD
ATOM     44  C   UNL A   1      43.321  31.492  31.309  1.00  0.00     0.037 A 
ATOM     45  C   UNL A   1      42.652  25.177  28.352  1.00  0.00     0.037 A 
ATOM     46  C   UNL A   1      44.513  30.684  31.314  1.00  0.00     0.049 A 
ATOM     47  C   UNL A   1      43.958  25.640  28.932  1.00  0.00     0.074 A 
ATOM     48  C   UNL A   1      45.755  30.986  31.847  1.00  0.00     0.029 A 
ATOM     49  N   UNL A   1      44.612  29.415  30.765  1.00  0.00    -0.354 N 
ATOM     50  N   UNL A   1      44.238  26.776  29.524  1.00  0.00    -0.248 NA
ATOM     51  C   UNL A   1      45.097  24.716  28.833  1.00  0.00     0.031 C 
ATOM     52  C   UNL A   1      46.613  29.910  31.594  1.00  0.00     0.029 A 
ATOM     53  C   UNL A   1      45.897  28.924  30.936  1.00  0.00     0.049 A 
ATOM     54  H   UNL A   1      43.878  28.932  30.321  1.00  0.00     0.167 HD
ATOM     55  C   UNL A   1      45.582  26.703  29.874  1.00  0.00     0.074 A 
ATOM     56  C   UNL A   1      46.054  25.403  29.444  1.00  0.00     0.031 C 
ATOM     57  C   UNL A   1      46.353  27.630  30.492  1.00  0.00     0.037 A 
BRANCH  44  58
ATOM     58  C   UNL A   1      43.384  32.852  31.942  1.00  0.00     0.058 A 
ATOM     59  C   UNL A   1      43.153  33.008  33.317  1.00  0.00     0.135 A 
ATOM     60  C   UNL A   1      43.631  34.007  31.183  1.00  0.00     0.135 A 
ATOM     61  F   UNL A   1      42.922  31.935  34.090  1.00  0.00    -0.206 F 
ATOM     62  C   UNL A   1      43.152  34.262  33.918  1.00  0.00     0.059 A 
ATOM     63  C   UNL A   1      43.655  35.271  31.767  1.00  0.00     0.059 A 
ATOM     64  F   UNL A   1      43.882  33.909  29.868  1.00  0.00    -0.206 F 
ATOM     65  C   UNL A   1      43.402  35.389  33.133  1.00  0.00     0.060 A 
BRANCH  65  66
ATOM     66  S   UNL A   1      43.438  37.008  33.935  1.00  0.00     0.124 S 
ATOM     67  O   UNL A   1      44.629  36.902  34.769  1.00  0.00    -0.237 OA
ATOM     68  O   UNL A   1      43.537  37.914  32.795  1.00  0.00    -0.237 OA
ATOM     69  O   UNL A   1      42.166  37.056  34.652  1.00  0.00    -0.744 OA
ENDBRANCH  65  66
ENDBRANCH  44  58
BRANCH  45  70
ATOM     70  C   UNL A   1      42.519  23.829  27.741  1.00  0.00     0.058 A 
ATOM     71  C   UNL A   1      42.390  22.681  28.538  1.00  0.00     0.135 A 
ATOM     72  C   UNL A   1      42.559  23.659  26.350  1.00  0.00     0.135 A 
ATOM     73  F   UNL A   1      42.350  22.791  29.875  1.00  0.00    -0.206 F 
ATOM     74  C   UNL A   1      42.338  21.409  27.980  1.00  0.00     0.059 A 
ATOM     75  C   UNL A   1      42.486  22.398  25.766  1.00  0.00     0.059 A 
ATOM     76  F   UNL A   1      42.665  24.730  25.548  1.00  0.00    -0.206 F 
ATOM     77  C   UNL A   1      42.397  21.278  26.592  1.00  0.00     0.060 A 
BRANCH  77  78
ATOM     78  S   UNL A   1      42.351  19.617  25.884  1.00  0.00     0.124 S 
ATOM     79  O   UNL A   1      40.969  19.537  25.421  1.00  0.00    -0.237 OA
ATOM     80  O   UNL A   1      43.366  19.697  24.839  1.00  0.00    -0.237 OA
ATOM     81  O   UNL A   1      42.685  18.759  27.016  1.00  0.00    -0.744 OA
ENDBRANCH  77  78
ENDBRANCH  45  70
BRANCH  57  82
ATOM     82  C   UNL A   1      47.790  27.275  30.745  1.00  0.00     0.058 A 
ATOM     83  C   UNL A   1      48.792  27.662  29.843  1.00  0.00     0.135 A 
ATOM     84  C   UNL A   1      48.166  26.501  31.856  1.00  0.00     0.135 A 
ATOM     85  F   UNL A   1      48.484  28.399  28.765  1.00  0.00    -0.206 F 
ATOM     86  C   UNL A   1      50.119  27.285  30.026  1.00  0.00     0.059 A 
ATOM     87  C   UNL A   1      49.490  26.130  32.069  1.00  0.00     0.059 A 
ATOM     88  F   UNL A   1      47.245  26.118  32.753  1.00  0.00    -0.206 F 
ATOM     89  C   UNL A   1      50.458  26.515  31.139  1.00  0.00     0.060 A 
BRANCH  89  90
ATOM     90  S   UNL A   1      52.187  26.055  31.380  1.00  0.00     0.124 S 
ATOM     91  O   UNL A   1      52.697  26.087  30.013  1.00  0.00    -0.237 OA
ATOM     92  O   UNL A   1      52.671  27.112  32.263  1.00  0.00    -0.237 OA
ATOM     93  O   UNL A   1      52.102  24.731  31.989  1.00  0.00    -0.744 OA
ENDBRANCH  89  90
ENDBRANCH  57  82
ENDBRANCH  31  32
ENDBRANCH  24  26
ENDBRANCH  23  24
ENDBRANCH   1  23
TORSDOF 16
ENDMDL
MODEL 3
REMARK VINA RESULT:     -10.0      4.527      6.400
REMARK SMILES Cc1cc(C)cc(-c2ccc([C@@H](C)C(=O)OCCOC(=O)c3ccc(-c4c5nc(c(-c6c(F)cc(S(=O)(=O)[O-])cc6F)c6ccc([nH]6)c(-c6c(F)cc(S(=O)(=O)[O-])cc6F)c6nc(c(-c7c(F)cc(S(=O)(=O)[O-])cc7F)c7ccc4[nH]7)C=C6)C=C5)cc3)cc2F)c1
REMARK SMILES IDX 18 1 17 2 16 3 14 4 15 5 12 6 13 7 11 8 8 9 9 10 89 11 10 12
REMARK SMILES IDX 88 13 90 14 7 15 1 16 2 17 3 18 91 19 4 20 5 21 6 22 19 23
REMARK SMILES IDX 20 24 21 25 22 26 23 27 87 28 24 29 86 30 25 31 26 32 27 33
REMARK SMILES IDX 80 34 28 35 85 36 79 37 81 38 29 39 84 40 78 41 77 42 30 44
REMARK SMILES IDX 64 45 43 46 63 47 44 48 47 49 62 50 82 51 45 52 46 53 61 55
REMARK SMILES IDX 83 56 48 57 31 58 32 59 41 60 33 61 34 62 40 63 42 64 35 65
REMARK SMILES IDX 36 66 37 67 38 68 39 69 65 70 66 71 75 72 67 73 68 74 74 75
REMARK SMILES IDX 76 76 69 77 70 78 71 79 72 80 73 81 49 82 50 83 59 84 51 85
REMARK SMILES IDX 52 86 58 87 60 88 53 89 54 90 55 91 56 92 57 93
REMARK H PARENT 81 43 47 54
REMARK Flexibility Score: inf
ROOT
ATOM      1  C   UNL A   1      35.120  32.369  31.018  1.00  0.00     0.275 C 
ENDROOT
BRANCH   1   2
ATOM      2  C   UNL A   1      35.577  32.732  32.433  1.00  0.00     0.274 C 
BRANCH   2   3
ATOM      3  O   UNL A   1      36.196  34.032  32.470  1.00  0.00    -0.462 OA
BRANCH   3   4
ATOM      4  C   UNL A   1      37.354  34.136  33.175  1.00  0.00     0.313 C 
ATOM      5  O   UNL A   1      37.536  34.941  34.083  1.00  0.00    -0.252 OA
BRANCH   4   6
ATOM      6  C   UNL A   1      38.454  33.197  32.695  1.00  0.00     0.126 C 
ATOM      7  C   UNL A   1      39.213  32.638  33.899  1.00  0.00     0.025 C 
BRANCH   6   8
ATOM      8  C   UNL A   1      39.387  33.750  31.627  1.00  0.00    -0.031 A 
ATOM      9  C   UNL A   1      41.160  34.842  29.684  1.00  0.00     0.017 A 
ATOM     10  C   UNL A   1      39.799  34.646  29.400  1.00  0.00     0.012 A 
ATOM     11  C   UNL A   1      41.615  34.458  30.950  1.00  0.00     0.131 A 
ATOM     12  C   UNL A   1      38.926  34.109  30.354  1.00  0.00     0.005 A 
ATOM     13  C   UNL A   1      40.750  33.930  31.910  1.00  0.00     0.044 A 
ATOM     14  F   UNL A   1      42.903  34.628  31.287  1.00  0.00    -0.206 F 
BRANCH   9  15
ATOM     15  C   UNL A   1      42.047  35.468  28.693  1.00  0.00    -0.015 A 
ATOM     16  C   UNL A   1      43.582  34.739  25.271  1.00  0.00     0.044 C 
ATOM     17  C   UNL A   1      43.224  35.434  26.551  1.00  0.00    -0.050 A 
ATOM     18  C   UNL A   1      43.732  36.712  26.814  1.00  0.00     0.006 A 
ATOM     19  C   UNL A   1      42.388  34.821  27.495  1.00  0.00     0.012 A 
ATOM     20  C   UNL A   1      43.420  37.376  28.005  1.00  0.00    -0.050 A 
ATOM     21  C   UNL A   1      43.979  38.738  28.281  1.00  0.00     0.044 C 
ATOM     22  C   UNL A   1      42.578  36.748  28.931  1.00  0.00     0.012 A 
ENDBRANCH   9  15
ENDBRANCH   6   8
ENDBRANCH   4   6
ENDBRANCH   3   4
ENDBRANCH   2   3
ENDBRANCH   1   2
BRANCH   1  23
ATOM     23  O   UNL A   1      36.172  31.728  30.274  1.00  0.00    -0.458 OA
BRANCH  23  24
ATOM     24  C   UNL A   1      36.613  30.562  30.802  1.00  0.00     0.338 C 
ATOM     25  O   UNL A   1      35.967  29.751  31.442  1.00  0.00    -0.246 OA
BRANCH  24  26
ATOM     26  C   UNL A   1      38.002  30.323  30.383  1.00  0.00     0.060 A 
ATOM     27  C   UNL A   1      38.284  30.368  29.017  1.00  0.00     0.016 A 
ATOM     28  C   UNL A   1      38.991  29.967  31.300  1.00  0.00     0.016 A 
ATOM     29  C   UNL A   1      39.550  30.032  28.552  1.00  0.00     0.010 A 
ATOM     30  C   UNL A   1      40.269  29.641  30.835  1.00  0.00     0.010 A 
ATOM     31  C   UNL A   1      40.551  29.654  29.457  1.00  0.00    -0.014 A 
BRANCH  31  32
ATOM     32  C   UNL A   1      41.873  29.229  28.936  1.00  0.00     0.031 A 
ATOM     33  C   UNL A   1      43.021  30.198  28.920  1.00  0.00     0.074 A 
ATOM     34  C   UNL A   1      42.053  27.955  28.538  1.00  0.00     0.049 A 
ATOM     35  N   UNL A   1      44.240  30.023  28.482  1.00  0.00    -0.248 NA
ATOM     36  C   UNL A   1      42.763  31.538  29.468  1.00  0.00     0.031 C 
ATOM     37  C   UNL A   1      41.026  26.912  28.558  1.00  0.00     0.029 A 
ATOM     38  N   UNL A   1      43.167  27.318  28.055  1.00  0.00    -0.354 N 
ATOM     39  C   UNL A   1      44.895  31.231  28.690  1.00  0.00     0.074 A 
ATOM     40  C   UNL A   1      43.931  32.137  29.277  1.00  0.00     0.031 C 
ATOM     41  C   UNL A   1      41.564  25.761  28.123  1.00  0.00     0.029 A 
ATOM     42  C   UNL A   1      42.959  25.993  27.757  1.00  0.00     0.049 A 
ATOM     43  H   UNL A   1      44.035  27.768  27.932  1.00  0.00     0.167 HD
ATOM     44  C   UNL A   1      46.183  31.550  28.422  1.00  0.00     0.037 A 
ATOM     45  C   UNL A   1      43.792  25.073  27.234  1.00  0.00     0.037 A 
ATOM     46  C   UNL A   1      47.142  30.638  27.854  1.00  0.00     0.049 A 
ATOM     47  C   UNL A   1      45.204  25.465  26.900  1.00  0.00     0.074 A 
ATOM     48  C   UNL A   1      48.470  30.871  27.540  1.00  0.00     0.029 A 
ATOM     49  N   UNL A   1      46.879  29.318  27.519  1.00  0.00    -0.354 N 
ATOM     50  N   UNL A   1      45.799  26.621  27.072  1.00  0.00    -0.248 NA
ATOM     51  C   UNL A   1      46.056  24.433  26.293  1.00  0.00     0.031 C 
ATOM     52  C   UNL A   1      49.002  29.700  26.988  1.00  0.00     0.029 A 
ATOM     53  C   UNL A   1      48.015  28.727  26.991  1.00  0.00     0.049 A 
ATOM     54  H   UNL A   1      46.012  28.867  27.640  1.00  0.00     0.167 HD
ATOM     55  C   UNL A   1      47.096  26.455  26.601  1.00  0.00     0.074 A 
ATOM     56  C   UNL A   1      47.205  25.081  26.153  1.00  0.00     0.031 C 
ATOM     57  C   UNL A   1      48.103  27.360  26.541  1.00  0.00     0.037 A 
BRANCH  44  58
ATOM     58  C   UNL A   1      46.631  32.952  28.721  1.00  0.00     0.058 A 
ATOM     59  C   UNL A   1      46.623  33.930  27.716  1.00  0.00     0.135 A 
ATOM     60  C   UNL A   1      47.108  33.317  29.990  1.00  0.00     0.135 A 
ATOM     61  F   UNL A   1      46.168  33.635  26.488  1.00  0.00    -0.206 F 
ATOM     62  C   UNL A   1      47.084  35.220  27.953  1.00  0.00     0.059 A 
ATOM     63  C   UNL A   1      47.555  34.609  30.255  1.00  0.00     0.059 A 
ATOM     64  F   UNL A   1      47.112  32.424  30.993  1.00  0.00    -0.206 F 
ATOM     65  C   UNL A   1      47.551  35.550  29.226  1.00  0.00     0.060 A 
BRANCH  65  66
ATOM     66  S   UNL A   1      48.108  37.242  29.530  1.00  0.00     0.124 S 
ATOM     67  O   UNL A   1      48.507  37.671  28.194  1.00  0.00    -0.237 OA
ATOM     68  O   UNL A   1      46.906  37.870  30.068  1.00  0.00    -0.237 OA
ATOM     69  O   UNL A   1      49.196  37.070  30.489  1.00  0.00    -0.744 OA
ENDBRANCH  65  66
ENDBRANCH  44  58
BRANCH  45  70
ATOM     70  C   UNL A   1      43.300  23.692  26.991  1.00  0.00     0.058 A 
ATOM     71  C   UNL A   1      43.262  22.745  28.025  1.00  0.00     0.135 A 
ATOM     72  C   UNL A   1      42.900  23.283  25.711  1.00  0.00     0.135 A 
ATOM     73  F   UNL A   1      43.639  23.088  29.267  1.00  0.00    -0.206 F 
ATOM     74  C   UNL A   1      42.874  21.430  27.794  1.00  0.00     0.059 A 
ATOM     75  C   UNL A   1      42.485  21.978  25.459  1.00  0.00     0.059 A 
ATOM     76  F   UNL A   1      42.904  24.159  24.696  1.00  0.00    -0.206 F 
ATOM     77  C   UNL A   1      42.496  21.054  26.504  1.00  0.00     0.060 A 
BRANCH  77  78
ATOM     78  S   UNL A   1      42.016  19.337  26.216  1.00  0.00     0.124 S 
ATOM     79  O   UNL A   1      40.587  19.475  25.955  1.00  0.00    -0.237 OA
ATOM     80  O   UNL A   1      42.839  18.974  25.067  1.00  0.00    -0.237 OA
ATOM     81  O   UNL A   1      42.366  18.676  27.469  1.00  0.00    -0.744 OA
ENDBRANCH  77  78
ENDBRANCH  45  70
BRANCH  57  82
ATOM     82  C   UNL A   1      49.415  26.897  25.976  1.00  0.00     0.058 A 
ATOM     83  C   UNL A   1      50.377  26.293  26.801  1.00  0.00     0.135 A 
ATOM     84  C   UNL A   1      49.741  27.103  24.626  1.00  0.00     0.135 A 
ATOM     85  F   UNL A   1      50.114  26.077  28.099  1.00  0.00    -0.206 F 
ATOM     86  C   UNL A   1      51.622  25.918  26.309  1.00  0.00     0.059 A 
ATOM     87  C   UNL A   1      50.974  26.718  24.108  1.00  0.00     0.059 A 
ATOM     88  F   UNL A   1      48.850  27.665  23.795  1.00  0.00    -0.206 F 
ATOM     89  C   UNL A   1      51.914  26.139  24.962  1.00  0.00     0.060 A 
BRANCH  89  90
ATOM     90  S   UNL A   1      53.525  25.624  24.330  1.00  0.00     0.124 S 
ATOM     91  O   UNL A   1      54.433  26.458  25.110  1.00  0.00    -0.237 OA
ATOM     92  O   UNL A   1      53.543  24.198  24.646  1.00  0.00    -0.237 OA
ATOM     93  O   UNL A   1      53.445  25.941  22.907  1.00  0.00    -0.744 OA
ENDBRANCH  89  90
ENDBRANCH  57  82
ENDBRANCH  31  32
ENDBRANCH  24  26
ENDBRANCH  23  24
ENDBRANCH   1  23
TORSDOF 16
ENDMDL
