MODEL 1
REMARK VINA RESULT:     -10.4      0.000      0.000
REMARK SMILES C=C1C=C[C@H](C(=O)OCCOC(=O)c2ccc(-c3c4nc(c(-c5c(F)cc(S(=O)(=O)[O-])cc5F)c5ccc([nH]5)c(-c5c(F)cc(S(=O)(=O)[O-])cc5F)c5nc(c(-c6c(F)cc(S(=O)(=O)[O-])cc6F)c6ccc3[nH]6)C=C5)C=C4)cc2)C(=S)N1
REMARK SMILES IDX 11 1 10 2 9 3 8 4 6 5 7 6 5 7 1 8 2 9 3 10 82 11 4 12 80 13
REMARK SMILES IDX 81 15 12 16 13 17 14 18 15 19 79 20 16 21 78 22 17 23 18 24
REMARK SMILES IDX 19 25 72 26 20 27 77 28 71 29 73 30 21 31 76 32 70 33 69 34
REMARK SMILES IDX 22 36 56 37 35 38 55 39 36 40 39 41 54 42 74 43 37 44 38 45
REMARK SMILES IDX 53 47 75 48 40 49 23 50 24 51 33 52 25 53 26 54 32 55 34 56
REMARK SMILES IDX 27 57 28 58 29 59 30 60 31 61 57 62 58 63 67 64 59 65 60 66
REMARK SMILES IDX 66 67 68 68 61 69 62 70 63 71 64 72 65 73 41 74 42 75 51 76
REMARK SMILES IDX 43 77 44 78 50 79 52 80 45 81 46 82 47 83 48 84 49 85
REMARK H PARENT 82 14 73 35 39 46
REMARK Flexibility Score: inf
ROOT
ATOM      1  O   UNL A   1      44.231  25.404  26.210  1.00  0.00    -0.458 OA
ENDROOT
BRANCH   1   2
ATOM      2  C   UNL A   1      45.189  25.433  25.134  1.00  0.00     0.275 C 
BRANCH   2   3
ATOM      3  C   UNL A   1      46.134  24.229  25.181  1.00  0.00     0.274 C 
BRANCH   3   4
ATOM      4  O   UNL A   1      46.031  23.404  24.003  1.00  0.00    -0.461 OA
BRANCH   4   5
ATOM      5  C   UNL A   1      44.897  22.656  23.906  1.00  0.00     0.319 C 
ATOM      6  O   UNL A   1      44.217  22.558  22.890  1.00  0.00    -0.251 OA
BRANCH   5   7
ATOM      7  C   UNL A   1      44.569  21.906  25.191  1.00  0.00     0.180 C 
ATOM      8  C   UNL A   1      42.032  18.789  26.578  1.00  0.00     0.037 C 
ATOM      9  C   UNL A   1      42.803  19.767  26.090  1.00  0.00     0.031 C 
ATOM     10  C   UNL A   1      42.329  21.123  25.988  1.00  0.00     0.022 C 
ATOM     11  N   UNL A   1      44.076  19.499  25.659  1.00  0.00    -0.350 N 
ATOM     12  C   UNL A   1      43.122  22.113  25.568  1.00  0.00    -0.003 C 
ATOM     13  C   UNL A   1      44.967  20.430  25.179  1.00  0.00     0.098 C 
ATOM     14  H   UNL A   1      44.377  18.563  25.694  1.00  0.00     0.167 HD
ATOM     15  S   UNL A   1      46.490  19.898  24.712  1.00  0.00    -0.064 S 
ENDBRANCH   5   7
ENDBRANCH   4   5
ENDBRANCH   3   4
ENDBRANCH   2   3
ENDBRANCH   1   2
BRANCH   1  16
ATOM     16  C   UNL A   1      42.988  25.827  25.881  1.00  0.00     0.338 C 
ATOM     17  O   UNL A   1      42.367  25.568  24.863  1.00  0.00    -0.246 OA
BRANCH  16  18
ATOM     18  C   UNL A   1      42.394  26.583  26.992  1.00  0.00     0.060 A 
ATOM     19  C   UNL A   1      42.804  27.905  27.169  1.00  0.00     0.016 A 
ATOM     20  C   UNL A   1      41.564  25.970  27.932  1.00  0.00     0.016 A 
ATOM     21  C   UNL A   1      42.440  28.602  28.314  1.00  0.00     0.010 A 
ATOM     22  C   UNL A   1      41.160  26.690  29.066  1.00  0.00     0.010 A 
ATOM     23  C   UNL A   1      41.619  28.001  29.277  1.00  0.00    -0.014 A 
BRANCH  23  24
ATOM     24  C   UNL A   1      41.291  28.772  30.503  1.00  0.00     0.031 A 
ATOM     25  C   UNL A   1      42.186  28.707  31.709  1.00  0.00     0.074 A 
ATOM     26  C   UNL A   1      40.236  29.609  30.487  1.00  0.00     0.049 A 
ATOM     27  N   UNL A   1      42.087  29.352  32.844  1.00  0.00    -0.248 NA
ATOM     28  C   UNL A   1      43.340  27.799  31.633  1.00  0.00     0.031 C 
ATOM     29  C   UNL A   1      39.308  29.776  29.366  1.00  0.00     0.029 A 
ATOM     30  N   UNL A   1      39.786  30.500  31.428  1.00  0.00    -0.354 N 
ATOM     31  C   UNL A   1      43.147  28.912  33.626  1.00  0.00     0.074 A 
ATOM     32  C   UNL A   1      43.874  27.937  32.840  1.00  0.00     0.031 C 
ATOM     33  C   UNL A   1      38.426  30.742  29.667  1.00  0.00     0.029 A 
ATOM     34  C   UNL A   1      38.704  31.238  31.012  1.00  0.00     0.049 A 
ATOM     35  H   UNL A   1      40.199  30.601  32.316  1.00  0.00     0.167 HD
ATOM     36  C   UNL A   1      43.485  29.288  34.884  1.00  0.00     0.037 A 
ATOM     37  C   UNL A   1      38.013  32.207  31.641  1.00  0.00     0.037 A 
ATOM     38  C   UNL A   1      42.780  30.279  35.654  1.00  0.00     0.049 A 
ATOM     39  C   UNL A   1      38.427  32.627  33.021  1.00  0.00     0.074 A 
ATOM     40  C   UNL A   1      43.041  30.719  36.941  1.00  0.00     0.029 A 
ATOM     41  N   UNL A   1      41.681  30.995  35.204  1.00  0.00    -0.354 N 
ATOM     42  N   UNL A   1      39.417  32.178  33.755  1.00  0.00    -0.248 NA
ATOM     43  C   UNL A   1      37.630  33.683  33.659  1.00  0.00     0.031 C 
ATOM     44  C   UNL A   1      42.090  31.694  37.273  1.00  0.00     0.029 A 
ATOM     45  C   UNL A   1      41.252  31.874  36.184  1.00  0.00     0.049 A 
ATOM     46  H   UNL A   1      41.267  30.893  34.316  1.00  0.00     0.167 HD
ATOM     47  C   UNL A   1      39.361  32.895  34.944  1.00  0.00     0.074 A 
ATOM     48  C   UNL A   1      38.256  33.826  34.819  1.00  0.00     0.031 C 
ATOM     49  C   UNL A   1      40.146  32.786  36.044  1.00  0.00     0.037 A 
BRANCH  36  50
ATOM     50  C   UNL A   1      44.659  28.596  35.512  1.00  0.00     0.058 A 
ATOM     51  C   UNL A   1      44.508  27.412  36.253  1.00  0.00     0.135 A 
ATOM     52  C   UNL A   1      45.954  29.119  35.364  1.00  0.00     0.135 A 
ATOM     53  F   UNL A   1      43.290  26.883  36.439  1.00  0.00    -0.206 F 
ATOM     54  C   UNL A   1      45.599  26.785  36.847  1.00  0.00     0.059 A 
ATOM     55  C   UNL A   1      47.060  28.498  35.937  1.00  0.00     0.059 A 
ATOM     56  F   UNL A   1      46.150  30.249  34.668  1.00  0.00    -0.206 F 
ATOM     57  C   UNL A   1      46.870  27.341  36.690  1.00  0.00     0.060 A 
BRANCH  57  58
ATOM     58  S   UNL A   1      48.280  26.531  37.477  1.00  0.00     0.124 S 
ATOM     59  O   UNL A   1      49.239  27.629  37.554  1.00  0.00    -0.237 OA
ATOM     60  O   UNL A   1      47.723  26.088  38.751  1.00  0.00    -0.237 OA
ATOM     61  O   UNL A   1      48.620  25.463  36.541  1.00  0.00    -0.744 OA
ENDBRANCH  57  58
ENDBRANCH  36  50
BRANCH  37  62
ATOM     62  C   UNL A   1      36.861  32.846  30.960  1.00  0.00     0.058 A 
ATOM     63  C   UNL A   1      35.543  32.512  31.303  1.00  0.00     0.135 A 
ATOM     64  C   UNL A   1      37.057  33.828  29.977  1.00  0.00     0.135 A 
ATOM     65  F   UNL A   1      35.309  31.575  32.233  1.00  0.00    -0.206 F 
ATOM     66  C   UNL A   1      34.456  33.128  30.691  1.00  0.00     0.059 A 
ATOM     67  C   UNL A   1      35.987  34.470  29.365  1.00  0.00     0.059 A 
ATOM     68  F   UNL A   1      38.302  34.188  29.627  1.00  0.00    -0.206 F 
ATOM     69  C   UNL A   1      34.689  34.108  29.723  1.00  0.00     0.060 A 
BRANCH  69  70
ATOM     70  S   UNL A   1      33.282  34.959  28.978  1.00  0.00     0.124 S 
ATOM     71  O   UNL A   1      32.438  35.204  30.143  1.00  0.00    -0.237 OA
ATOM     72  O   UNL A   1      33.904  36.138  28.382  1.00  0.00    -0.237 OA
ATOM     73  O   UNL A   1      32.774  33.980  28.022  1.00  0.00    -0.744 OA
ENDBRANCH  69  70
ENDBRANCH  37  62
BRANCH  49  74
ATOM     74  C   UNL A   1      39.829  33.700  37.189  1.00  0.00     0.058 A 
ATOM     75  C   UNL A   1      40.423  34.968  37.295  1.00  0.00     0.135 A 
ATOM     76  C   UNL A   1      38.929  33.307  38.191  1.00  0.00     0.135 A 
ATOM     77  F   UNL A   1      41.294  35.384  36.363  1.00  0.00    -0.206 F 
ATOM     78  C   UNL A   1      40.159  35.804  38.374  1.00  0.00     0.059 A 
ATOM     79  C   UNL A   1      38.639  34.134  39.271  1.00  0.00     0.059 A 
ATOM     80  F   UNL A   1      38.331  32.107  38.130  1.00  0.00    -0.206 F 
ATOM     81  C   UNL A   1      39.273  35.374  39.363  1.00  0.00     0.060 A 
BRANCH  81  82
ATOM     82  S   UNL A   1      38.935  36.456  40.768  1.00  0.00     0.124 S 
ATOM     83  O   UNL A   1      40.244  36.519  41.410  1.00  0.00    -0.237 OA
ATOM     84  O   UNL A   1      38.485  37.686  40.125  1.00  0.00    -0.237 OA
ATOM     85  O   UNL A   1      37.905  35.731  41.506  1.00  0.00    -0.744 OA
ENDBRANCH  81  82
ENDBRANCH  49  74
ENDBRANCH  23  24
ENDBRANCH  16  18
ENDBRANCH   1  16
TORSDOF 14
ENDMDL
MODEL 2
REMARK VINA RESULT:     -10.3      6.698     14.158
REMARK SMILES C=C1C=C[C@H](C(=O)OCCOC(=O)c2ccc(-c3c4nc(c(-c5c(F)cc(S(=O)(=O)[O-])cc5F)c5ccc([nH]5)c(-c5c(F)cc(S(=O)(=O)[O-])cc5F)c5nc(c(-c6c(F)cc(S(=O)(=O)[O-])cc6F)c6ccc3[nH]6)C=C5)C=C4)cc2)C(=S)N1
REMARK SMILES IDX 11 1 10 2 9 3 8 4 6 5 7 6 5 7 1 8 2 9 3 10 82 11 4 12 80 13
REMARK SMILES IDX 81 15 12 16 13 17 14 18 15 19 79 20 16 21 78 22 17 23 18 24
REMARK SMILES IDX 19 25 72 26 20 27 77 28 71 29 73 30 21 31 76 32 70 33 69 34
REMARK SMILES IDX 22 36 56 37 35 38 55 39 36 40 39 41 54 42 74 43 37 44 38 45
REMARK SMILES IDX 53 47 75 48 40 49 23 50 24 51 33 52 25 53 26 54 32 55 34 56
REMARK SMILES IDX 27 57 28 58 29 59 30 60 31 61 57 62 58 63 67 64 59 65 60 66
REMARK SMILES IDX 66 67 68 68 61 69 62 70 63 71 64 72 65 73 41 74 42 75 51 76
REMARK SMILES IDX 43 77 44 78 50 79 52 80 45 81 46 82 47 83 48 84 49 85
REMARK H PARENT 82 14 73 35 39 46
REMARK Flexibility Score: inf
ROOT
ATOM      1  O   UNL A   1      35.798  30.870  28.705  1.00  0.00    -0.458 OA
ENDROOT
BRANCH   1   2
ATOM      2  C   UNL A   1      34.607  30.366  28.070  1.00  0.00     0.275 C 
BRANCH   2   3
ATOM      3  C   UNL A   1      33.686  31.498  27.608  1.00  0.00     0.274 C 
BRANCH   3   4
ATOM      4  O   UNL A   1      34.301  32.796  27.739  1.00  0.00    -0.461 OA
BRANCH   4   5
ATOM      5  C   UNL A   1      33.473  33.801  28.137  1.00  0.00     0.319 C 
ATOM      6  O   UNL A   1      32.275  33.855  27.876  1.00  0.00    -0.251 OA
BRANCH   5   7
ATOM      7  C   UNL A   1      34.177  34.850  28.988  1.00  0.00     0.180 C 
ATOM      8  C   UNL A   1      33.312  37.665  32.055  1.00  0.00     0.037 C 
ATOM      9  C   UNL A   1      33.527  36.768  31.085  1.00  0.00     0.031 C 
ATOM     10  C   UNL A   1      33.314  37.090  29.698  1.00  0.00     0.022 C 
ATOM     11  N   UNL A   1      33.950  35.501  31.392  1.00  0.00    -0.350 N 
ATOM     12  C   UNL A   1      33.597  36.219  28.725  1.00  0.00    -0.003 C 
ATOM     13  C   UNL A   1      34.240  34.515  30.479  1.00  0.00     0.098 C 
ATOM     14  H   UNL A   1      34.054  35.278  32.345  1.00  0.00     0.167 HD
ATOM     15  S   UNL A   1      34.759  33.028  31.060  1.00  0.00    -0.064 S 
ENDBRANCH   5   7
ENDBRANCH   4   5
ENDBRANCH   3   4
ENDBRANCH   2   3
ENDBRANCH   1   2
BRANCH   1  16
ATOM     16  C   UNL A   1      36.402  30.009  29.555  1.00  0.00     0.338 C 
ATOM     17  O   UNL A   1      35.871  29.334  30.422  1.00  0.00    -0.246 OA
BRANCH  16  18
ATOM     18  C   UNL A   1      37.831  29.886  29.231  1.00  0.00     0.060 A 
ATOM     19  C   UNL A   1      38.178  29.704  27.891  1.00  0.00     0.016 A 
ATOM     20  C   UNL A   1      38.802  29.800  30.229  1.00  0.00     0.016 A 
ATOM     21  C   UNL A   1      39.483  29.377  27.546  1.00  0.00     0.010 A 
ATOM     22  C   UNL A   1      40.128  29.513  29.875  1.00  0.00     0.010 A 
ATOM     23  C   UNL A   1      40.470  29.272  28.534  1.00  0.00    -0.014 A 
BRANCH  23  24
ATOM     24  C   UNL A   1      41.841  28.878  28.120  1.00  0.00     0.031 A 
ATOM     25  C   UNL A   1      42.972  29.866  28.185  1.00  0.00     0.074 A 
ATOM     26  C   UNL A   1      42.080  27.597  27.779  1.00  0.00     0.049 A 
ATOM     27  N   UNL A   1      44.241  29.684  27.917  1.00  0.00    -0.248 NA
ATOM     28  C   UNL A   1      42.637  31.235  28.604  1.00  0.00     0.031 C 
ATOM     29  C   UNL A   1      41.067  26.542  27.702  1.00  0.00     0.029 A 
ATOM     30  N   UNL A   1      43.252  26.957  27.468  1.00  0.00    -0.354 N 
ATOM     31  C   UNL A   1      44.851  30.917  28.108  1.00  0.00     0.074 A 
ATOM     32  C   UNL A   1      43.812  31.844  28.508  1.00  0.00     0.031 C 
ATOM     33  C   UNL A   1      41.667  25.378  27.408  1.00  0.00     0.029 A 
ATOM     34  C   UNL A   1      43.099  25.610  27.242  1.00  0.00     0.049 A 
ATOM     35  H   UNL A   1      44.120  27.418  27.412  1.00  0.00     0.167 HD
ATOM     36  C   UNL A   1      46.158  31.247  27.966  1.00  0.00     0.037 A 
ATOM     37  C   UNL A   1      44.009  24.666  26.938  1.00  0.00     0.037 A 
ATOM     38  C   UNL A   1      47.195  30.320  27.598  1.00  0.00     0.049 A 
ATOM     39  C   UNL A   1      45.455  25.051  26.817  1.00  0.00     0.074 A 
ATOM     40  C   UNL A   1      48.547  30.561  27.419  1.00  0.00     0.029 A 
ATOM     41  N   UNL A   1      46.999  28.966  27.364  1.00  0.00    -0.354 N 
ATOM     42  N   UNL A   1      46.009  26.229  26.975  1.00  0.00    -0.248 NA
ATOM     43  C   UNL A   1      46.400  23.980  26.476  1.00  0.00     0.031 C 
ATOM     44  C   UNL A   1      49.166  29.356  27.064  1.00  0.00     0.029 A 
ATOM     45  C   UNL A   1      48.203  28.360  27.045  1.00  0.00     0.049 A 
ATOM     46  H   UNL A   1      46.132  28.505  27.419  1.00  0.00     0.167 HD
ATOM     47  C   UNL A   1      47.367  26.043  26.750  1.00  0.00     0.074 A 
ATOM     48  C   UNL A   1      47.554  24.632  26.471  1.00  0.00     0.031 C 
ATOM     49  C   UNL A   1      48.367  26.957  26.762  1.00  0.00     0.037 A 
BRANCH  36  50
ATOM     50  C   UNL A   1      46.529  32.685  28.185  1.00  0.00     0.058 A 
ATOM     51  C   UNL A   1      46.424  33.638  27.159  1.00  0.00     0.135 A 
ATOM     52  C   UNL A   1      46.987  33.117  29.440  1.00  0.00     0.135 A 
ATOM     53  F   UNL A   1      46.008  33.271  25.937  1.00  0.00    -0.206 F 
ATOM     54  C   UNL A   1      46.785  34.966  27.363  1.00  0.00     0.059 A 
ATOM     55  C   UNL A   1      47.338  34.444  29.670  1.00  0.00     0.059 A 
ATOM     56  F   UNL A   1      47.108  32.244  30.452  1.00  0.00    -0.206 F 
ATOM     57  C   UNL A   1      47.249  35.357  28.621  1.00  0.00     0.060 A 
BRANCH  57  58
ATOM     58  S   UNL A   1      47.731  37.079  28.877  1.00  0.00     0.124 S 
ATOM     59  O   UNL A   1      46.616  37.788  28.258  1.00  0.00    -0.237 OA
ATOM     60  O   UNL A   1      47.812  37.174  30.332  1.00  0.00    -0.237 OA
ATOM     61  O   UNL A   1      49.008  37.178  28.176  1.00  0.00    -0.744 OA
ENDBRANCH  57  58
ENDBRANCH  36  50
BRANCH  37  62
ATOM     62  C   UNL A   1      43.571  23.264  26.733  1.00  0.00     0.058 A 
ATOM     63  C   UNL A   1      43.527  22.701  25.450  1.00  0.00     0.135 A 
ATOM     64  C   UNL A   1      43.221  22.451  27.822  1.00  0.00     0.135 A 
ATOM     65  F   UNL A   1      43.847  23.444  24.380  1.00  0.00    -0.206 F 
ATOM     66  C   UNL A   1      43.146  21.379  25.251  1.00  0.00     0.059 A 
ATOM     67  C   UNL A   1      42.856  21.121  27.649  1.00  0.00     0.059 A 
ATOM     68  F   UNL A   1      43.263  22.944  29.069  1.00  0.00    -0.206 F 
ATOM     69  C   UNL A   1      42.813  20.595  26.358  1.00  0.00     0.060 A 
BRANCH  69  70
ATOM     70  S   UNL A   1      42.387  18.858  26.110  1.00  0.00     0.124 S 
ATOM     71  O   UNL A   1      40.983  18.954  25.724  1.00  0.00    -0.237 OA
ATOM     72  O   UNL A   1      43.312  18.452  25.055  1.00  0.00    -0.237 OA
ATOM     73  O   UNL A   1      42.646  18.266  27.419  1.00  0.00    -0.744 OA
ENDBRANCH  69  70
ENDBRANCH  37  62
BRANCH  49  74
ATOM     74  C   UNL A   1      49.746  26.449  26.465  1.00  0.00     0.058 A 
ATOM     75  C   UNL A   1      50.216  26.347  25.146  1.00  0.00     0.135 A 
ATOM     76  C   UNL A   1      50.604  26.058  27.504  1.00  0.00     0.135 A 
ATOM     77  F   UNL A   1      49.428  26.704  24.120  1.00  0.00    -0.206 F 
ATOM     78  C   UNL A   1      51.481  25.843  24.864  1.00  0.00     0.059 A 
ATOM     79  C   UNL A   1      51.879  25.565  27.245  1.00  0.00     0.059 A 
ATOM     80  F   UNL A   1      50.203  26.144  28.781  1.00  0.00    -0.206 F 
ATOM     81  C   UNL A   1      52.302  25.445  25.920  1.00  0.00     0.060 A 
BRANCH  81  82
ATOM     82  S   UNL A   1      53.942  24.784  25.555  1.00  0.00     0.124 S 
ATOM     83  O   UNL A   1      53.621  23.427  25.128  1.00  0.00    -0.237 OA
ATOM     84  O   UNL A   1      54.424  25.681  24.509  1.00  0.00    -0.237 OA
ATOM     85  O   UNL A   1      54.638  24.894  26.833  1.00  0.00    -0.744 OA
ENDBRANCH  81  82
ENDBRANCH  49  74
ENDBRANCH  23  24
ENDBRANCH  16  18
ENDBRANCH   1  16
TORSDOF 14
ENDMDL
MODEL 3
REMARK VINA RESULT:     -10.3      2.765     11.446
REMARK SMILES C=C1C=C[C@H](C(=O)OCCOC(=O)c2ccc(-c3c4nc(c(-c5c(F)cc(S(=O)(=O)[O-])cc5F)c5ccc([nH]5)c(-c5c(F)cc(S(=O)(=O)[O-])cc5F)c5nc(c(-c6c(F)cc(S(=O)(=O)[O-])cc6F)c6ccc3[nH]6)C=C5)C=C4)cc2)C(=S)N1
REMARK SMILES IDX 11 1 10 2 9 3 8 4 6 5 7 6 5 7 1 8 2 9 3 10 82 11 4 12 80 13
REMARK SMILES IDX 81 15 12 16 13 17 14 18 15 19 79 20 16 21 78 22 17 23 18 24
REMARK SMILES IDX 19 25 72 26 20 27 77 28 71 29 73 30 21 31 76 32 70 33 69 34
REMARK SMILES IDX 22 36 56 37 35 38 55 39 36 40 39 41 54 42 74 43 37 44 38 45
REMARK SMILES IDX 53 47 75 48 40 49 23 50 24 51 33 52 25 53 26 54 32 55 34 56
REMARK SMILES IDX 27 57 28 58 29 59 30 60 31 61 57 62 58 63 67 64 59 65 60 66
REMARK SMILES IDX 66 67 68 68 61 69 62 70 63 71 64 72 65 73 41 74 42 75 51 76
REMARK SMILES IDX 43 77 44 78 50 79 52 80 45 81 46 82 47 83 48 84 49 85
REMARK H PARENT 82 14 73 35 39 46
REMARK Flexibility Score: inf
ROOT
ATOM      1  O   UNL A   1      33.886  31.590  28.363  1.00  0.00    -0.458 OA
ENDROOT
BRANCH   1   2
ATOM      2  C   UNL A   1      33.707  32.870  27.727  1.00  0.00     0.275 C 
BRANCH   2   3
ATOM      3  C   UNL A   1      33.408  33.974  28.743  1.00  0.00     0.274 C 
BRANCH   3   4
ATOM      4  O   UNL A   1      34.581  34.373  29.483  1.00  0.00    -0.461 OA
BRANCH   4   5
ATOM      5  C   UNL A   1      34.877  33.609  30.571  1.00  0.00     0.319 C 
ATOM      6  O   UNL A   1      34.045  33.193  31.371  1.00  0.00    -0.251 OA
BRANCH   5   7
ATOM      7  C   UNL A   1      36.360  33.280  30.682  1.00  0.00     0.180 C 
ATOM      8  C   UNL A   1      40.141  34.923  29.641  1.00  0.00     0.037 C 
ATOM      9  C   UNL A   1      38.926  34.449  29.939  1.00  0.00     0.031 C 
ATOM     10  C   UNL A   1      38.159  33.687  28.989  1.00  0.00     0.022 C 
ATOM     11  N   UNL A   1      38.368  34.690  31.168  1.00  0.00    -0.350 N 
ATOM     12  C   UNL A   1      36.976  33.152  29.310  1.00  0.00    -0.003 C 
ATOM     13  C   UNL A   1      37.148  34.221  31.595  1.00  0.00     0.098 C 
ATOM     14  H   UNL A   1      38.882  35.247  31.796  1.00  0.00     0.167 HD
ATOM     15  S   UNL A   1      36.648  34.619  33.147  1.00  0.00    -0.064 S 
ENDBRANCH   5   7
ENDBRANCH   4   5
ENDBRANCH   3   4
ENDBRANCH   2   3
ENDBRANCH   1   2
BRANCH   1  16
ATOM     16  C   UNL A   1      34.322  30.602  27.548  1.00  0.00     0.338 C 
ATOM     17  O   UNL A   1      33.792  30.202  26.525  1.00  0.00    -0.246 OA
BRANCH  16  18
ATOM     18  C   UNL A   1      35.633  30.110  27.997  1.00  0.00     0.060 A 
ATOM     19  C   UNL A   1      35.737  29.649  29.310  1.00  0.00     0.016 A 
ATOM     20  C   UNL A   1      36.772  30.233  27.199  1.00  0.00     0.016 A 
ATOM     21  C   UNL A   1      36.984  29.367  29.854  1.00  0.00     0.010 A 
ATOM     22  C   UNL A   1      38.025  29.906  27.736  1.00  0.00     0.010 A 
ATOM     23  C   UNL A   1      38.141  29.498  29.076  1.00  0.00    -0.014 A 
BRANCH  23  24
ATOM     24  C   UNL A   1      39.454  29.226  29.715  1.00  0.00     0.031 A 
ATOM     25  C   UNL A   1      39.853  29.940  30.975  1.00  0.00     0.074 A 
ATOM     26  C   UNL A   1      40.241  28.258  29.206  1.00  0.00     0.049 A 
ATOM     27  N   UNL A   1      40.933  29.790  31.700  1.00  0.00    -0.248 NA
ATOM     28  C   UNL A   1      38.921  30.954  31.490  1.00  0.00     0.031 C 
ATOM     29  C   UNL A   1      39.949  27.480  28.000  1.00  0.00     0.029 A 
ATOM     30  N   UNL A   1      41.429  27.742  29.657  1.00  0.00    -0.354 N 
ATOM     31  C   UNL A   1      40.825  30.706  32.739  1.00  0.00     0.074 A 
ATOM     32  C   UNL A   1      39.577  31.415  32.547  1.00  0.00     0.031 C 
ATOM     33  C   UNL A   1      40.908  26.557  27.831  1.00  0.00     0.029 A 
ATOM     34  C   UNL A   1      41.899  26.700  28.894  1.00  0.00     0.049 A 
ATOM     35  H   UNL A   1      41.899  28.084  30.451  1.00  0.00     0.167 HD
ATOM     36  C   UNL A   1      41.686  30.933  33.761  1.00  0.00     0.037 A 
ATOM     37  C   UNL A   1      43.001  25.941  29.036  1.00  0.00     0.037 A 
ATOM     38  C   UNL A   1      42.912  30.208  33.969  1.00  0.00     0.049 A 
ATOM     39  C   UNL A   1      43.923  26.193  30.194  1.00  0.00     0.074 A 
ATOM     40  C   UNL A   1      43.855  30.374  34.969  1.00  0.00     0.029 A 
ATOM     41  N   UNL A   1      43.361  29.168  33.167  1.00  0.00    -0.354 N 
ATOM     42  N   UNL A   1      43.817  27.083  31.151  1.00  0.00    -0.248 NA
ATOM     43  C   UNL A   1      45.114  25.339  30.291  1.00  0.00     0.031 C 
ATOM     44  C   UNL A   1      44.881  29.441  34.765  1.00  0.00     0.029 A 
ATOM     45  C   UNL A   1      44.564  28.682  33.651  1.00  0.00     0.049 A 
ATOM     46  H   UNL A   1      42.891  28.826  32.373  1.00  0.00     0.167 HD
ATOM     47  C   UNL A   1      44.929  26.899  31.964  1.00  0.00     0.074 A 
ATOM     48  C   UNL A   1      45.680  25.794  31.400  1.00  0.00     0.031 C 
ATOM     49  C   UNL A   1      45.300  27.587  33.070  1.00  0.00     0.037 A 
BRANCH  36  50
ATOM     50  C   UNL A   1      41.337  32.037  34.717  1.00  0.00     0.058 A 
ATOM     51  C   UNL A   1      41.797  33.349  34.528  1.00  0.00     0.135 A 
ATOM     52  C   UNL A   1      40.524  31.779  35.832  1.00  0.00     0.135 A 
ATOM     53  F   UNL A   1      42.592  33.643  33.488  1.00  0.00    -0.206 F 
ATOM     54  C   UNL A   1      41.484  34.364  35.427  1.00  0.00     0.059 A 
ATOM     55  C   UNL A   1      40.185  32.783  36.735  1.00  0.00     0.059 A 
ATOM     56  F   UNL A   1      40.061  30.540  36.059  1.00  0.00    -0.206 F 
ATOM     57  C   UNL A   1      40.684  34.069  36.532  1.00  0.00     0.060 A 
BRANCH  57  58
ATOM     58  S   UNL A   1      40.293  35.386  37.704  1.00  0.00     0.124 S 
ATOM     59  O   UNL A   1      39.972  36.489  36.805  1.00  0.00    -0.237 OA
ATOM     60  O   UNL A   1      39.167  34.828  38.447  1.00  0.00    -0.237 OA
ATOM     61  O   UNL A   1      41.529  35.535  38.468  1.00  0.00    -0.744 OA
ENDBRANCH  57  58
ENDBRANCH  36  50
BRANCH  37  62
ATOM     62  C   UNL A   1      43.286  24.869  28.052  1.00  0.00     0.058 A 
ATOM     63  C   UNL A   1      44.013  25.134  26.883  1.00  0.00     0.135 A 
ATOM     64  C   UNL A   1      42.863  23.550  28.279  1.00  0.00     0.135 A 
ATOM     65  F   UNL A   1      44.432  26.382  26.623  1.00  0.00    -0.206 F 
ATOM     66  C   UNL A   1      44.310  24.129  25.969  1.00  0.00     0.059 A 
ATOM     67  C   UNL A   1      43.164  22.525  27.389  1.00  0.00     0.059 A 
ATOM     68  F   UNL A   1      42.176  23.247  29.391  1.00  0.00    -0.206 F 
ATOM     69  C   UNL A   1      43.882  22.826  26.232  1.00  0.00     0.060 A 
BRANCH  69  70
ATOM     70  S   UNL A   1      44.326  21.506  25.083  1.00  0.00     0.124 S 
ATOM     71  O   UNL A   1      43.274  20.529  25.340  1.00  0.00    -0.237 OA
ATOM     72  O   UNL A   1      44.269  22.180  23.789  1.00  0.00    -0.237 OA
ATOM     73  O   UNL A   1      45.665  21.125  25.521  1.00  0.00    -0.744 OA
ENDBRANCH  69  70
ENDBRANCH  37  62
BRANCH  49  74
ATOM     74  C   UNL A   1      46.574  27.158  33.734  1.00  0.00     0.058 A 
ATOM     75  C   UNL A   1      46.576  26.178  34.740  1.00  0.00     0.135 A 
ATOM     76  C   UNL A   1      47.801  27.728  33.366  1.00  0.00     0.135 A 
ATOM     77  F   UNL A   1      45.424  25.608  35.128  1.00  0.00    -0.206 F 
ATOM     78  C   UNL A   1      47.750  25.802  35.384  1.00  0.00     0.059 A 
ATOM     79  C   UNL A   1      48.989  27.356  33.986  1.00  0.00     0.059 A 
ATOM     80  F   UNL A   1      47.851  28.664  32.405  1.00  0.00    -0.206 F 
ATOM     81  C   UNL A   1      48.951  26.404  35.006  1.00  0.00     0.060 A 
BRANCH  81  82
ATOM     82  S   UNL A   1      50.475  25.921  35.846  1.00  0.00     0.124 S 
ATOM     83  O   UNL A   1      50.685  24.578  35.318  1.00  0.00    -0.237 OA
ATOM     84  O   UNL A   1      51.424  26.935  35.397  1.00  0.00    -0.237 OA
ATOM     85  O   UNL A   1      50.114  25.995  37.258  1.00  0.00    -0.744 OA
ENDBRANCH  81  82
ENDBRANCH  49  74
ENDBRANCH  23  24
ENDBRANCH  16  18
ENDBRANCH   1  16
TORSDOF 14
ENDMDL
