MODEL 1
REMARK VINA RESULT:     -12.6      0.000      0.000
REMARK SMILES O=C(OCCOC(=O)[C@H]1CCCC[C@H]1C(=O)N1CCN(S(=O)(=O)c2ccc(F)cc2)CC1)c1ccc(-c2c3nc(c(-c4c(F)cc(S(=O)(=O)[O-])cc4F)c4ccc([nH]4)c(-c4c(F)cc(S(=O)(=O)[O-])cc4F)c4nc(c(-c5c(F)cc(S(=O)(=O)[O-])cc5F)c5ccc2[nH]5)C=C4)C=C3)cc1
REMARK SMILES IDX 4 1 3 2 2 3 1 4 33 5 34 6 98 7 35 8 97 9 36 10 37 11 38 12
REMARK SMILES IDX 91 13 39 14 96 15 90 16 92 17 40 18 95 19 89 20 88 21 41 23
REMARK SMILES IDX 75 24 54 25 74 26 55 27 58 28 73 29 93 30 56 31 57 32 72 34
REMARK SMILES IDX 94 35 59 36 42 37 43 38 52 39 44 40 45 41 51 42 53 43 46 44
REMARK SMILES IDX 47 45 48 46 49 47 50 48 76 49 77 50 86 51 78 52 79 53 85 54
REMARK SMILES IDX 87 55 80 56 81 57 82 58 83 59 84 60 60 61 61 62 70 63 62 64
REMARK SMILES IDX 63 65 69 66 71 67 64 68 65 69 66 70 67 71 68 72 5 73 6 74
REMARK SMILES IDX 7 75 8 76 9 77 10 78 14 79 11 80 13 81 12 82 15 83 16 84
REMARK SMILES IDX 17 85 18 86 32 87 19 88 31 89 20 90 21 91 22 92 23 93 24 94
REMARK SMILES IDX 25 95 30 96 26 97 29 98 27 99 28 100
REMARK H PARENT 92 22 58 33
REMARK Flexibility Score: inf
ROOT
ATOM      1  C   UNL A   1      34.059  28.805  26.388  1.00  0.00     0.275 C 
ENDROOT
BRANCH   1   2
ATOM      2  O   UNL A   1      33.984  29.566  27.623  1.00  0.00    -0.458 OA
BRANCH   2   3
ATOM      3  C   UNL A   1      34.864  30.427  28.205  1.00  0.00     0.338 C 
ATOM      4  O   UNL A   1      34.579  31.610  28.344  1.00  0.00    -0.246 OA
BRANCH   3   5
ATOM      5  C   UNL A   1      36.236  29.983  28.497  1.00  0.00     0.060 A 
ATOM      6  C   UNL A   1      36.570  29.573  29.778  1.00  0.00     0.016 A 
ATOM      7  C   UNL A   1      37.214  30.017  27.483  1.00  0.00     0.016 A 
ATOM      8  C   UNL A   1      37.818  29.051  30.022  1.00  0.00     0.010 A 
ATOM      9  C   UNL A   1      38.510  29.558  27.746  1.00  0.00     0.010 A 
ATOM     10  C   UNL A   1      38.799  29.068  29.022  1.00  0.00    -0.014 A 
BRANCH  10  11
ATOM     11  C   UNL A   1      40.150  28.802  29.543  1.00  0.00     0.031 A 
ATOM     12  C   UNL A   1      40.725  27.470  29.173  1.00  0.00     0.074 A 
ATOM     13  C   UNL A   1      40.907  29.858  29.893  1.00  0.00     0.049 A 
ATOM     14  N   UNL A   1      41.972  27.133  29.026  1.00  0.00    -0.248 NA
ATOM     15  C   UNL A   1      39.761  26.414  28.808  1.00  0.00     0.031 C 
ATOM     16  C   UNL A   1      40.389  31.210  30.089  1.00  0.00     0.029 A 
ATOM     17  N   UNL A   1      42.260  29.999  30.030  1.00  0.00    -0.354 N 
ATOM     18  C   UNL A   1      41.944  25.848  28.503  1.00  0.00     0.074 A 
ATOM     19  C   UNL A   1      40.562  25.454  28.373  1.00  0.00     0.031 C 
ATOM     20  C   UNL A   1      41.410  32.060  30.279  1.00  0.00     0.029 A 
ATOM     21  C   UNL A   1      42.657  31.304  30.232  1.00  0.00     0.049 A 
ATOM     22  H   UNL A   1      42.889  29.244  29.990  1.00  0.00     0.167 HD
ATOM     23  C   UNL A   1      42.996  25.080  28.152  1.00  0.00     0.037 A 
ATOM     24  C   UNL A   1      43.895  31.823  30.346  1.00  0.00     0.037 A 
ATOM     25  C   UNL A   1      44.354  25.498  28.353  1.00  0.00     0.049 A 
ATOM     26  C   UNL A   1      45.047  30.877  30.137  1.00  0.00     0.074 A 
ATOM     27  C   UNL A   1      45.513  24.768  28.192  1.00  0.00     0.029 A 
ATOM     28  N   UNL A   1      44.725  26.767  28.782  1.00  0.00    -0.354 N 
ATOM     29  N   UNL A   1      45.015  29.634  29.711  1.00  0.00    -0.248 NA
ATOM     30  C   UNL A   1      46.391  31.385  30.424  1.00  0.00     0.031 C 
ATOM     31  C   UNL A   1      46.585  25.579  28.580  1.00  0.00     0.029 A 
ATOM     32  C   UNL A   1      46.097  26.834  28.925  1.00  0.00     0.049 A 
ATOM     33  H   UNL A   1      44.102  27.509  28.958  1.00  0.00     0.167 HD
ATOM     34  C   UNL A   1      46.334  29.208  29.679  1.00  0.00     0.074 A 
ATOM     35  C   UNL A   1      47.142  30.342  30.092  1.00  0.00     0.031 C 
ATOM     36  C   UNL A   1      46.842  27.994  29.351  1.00  0.00     0.037 A 
BRANCH  23  37
ATOM     37  C   UNL A   1      42.709  23.713  27.612  1.00  0.00     0.058 A 
ATOM     38  C   UNL A   1      42.578  22.625  28.488  1.00  0.00     0.135 A 
ATOM     39  C   UNL A   1      42.571  23.469  26.236  1.00  0.00     0.135 A 
ATOM     40  F   UNL A   1      42.663  22.812  29.815  1.00  0.00    -0.206 F 
ATOM     41  C   UNL A   1      42.356  21.336  28.018  1.00  0.00     0.059 A 
ATOM     42  C   UNL A   1      42.332  22.189  25.744  1.00  0.00     0.059 A 
ATOM     43  F   UNL A   1      42.636  24.485  25.361  1.00  0.00    -0.206 F 
ATOM     44  C   UNL A   1      42.244  21.125  26.643  1.00  0.00     0.060 A 
BRANCH  44  45
ATOM     45  S   UNL A   1      41.970  19.440  26.056  1.00  0.00     0.124 S 
ATOM     46  O   UNL A   1      42.373  18.651  27.215  1.00  0.00    -0.237 OA
ATOM     47  O   UNL A   1      40.541  19.451  25.759  1.00  0.00    -0.237 OA
ATOM     48  O   UNL A   1      42.845  19.341  24.892  1.00  0.00    -0.744 OA
ENDBRANCH  44  45
ENDBRANCH  23  37
BRANCH  24  49
ATOM     49  C   UNL A   1      44.097  33.255  30.711  1.00  0.00     0.058 A 
ATOM     50  C   UNL A   1      44.091  33.653  32.061  1.00  0.00     0.135 A 
ATOM     51  C   UNL A   1      44.323  34.254  29.751  1.00  0.00     0.135 A 
ATOM     52  F   UNL A   1      43.880  32.748  33.029  1.00  0.00    -0.206 F 
ATOM     53  C   UNL A   1      44.285  34.975  32.442  1.00  0.00     0.059 A 
ATOM     54  C   UNL A   1      44.551  35.585  30.110  1.00  0.00     0.059 A 
ATOM     55  F   UNL A   1      44.347  33.937  28.447  1.00  0.00    -0.206 F 
ATOM     56  C   UNL A   1      44.521  35.936  31.460  1.00  0.00     0.060 A 
BRANCH  56  57
ATOM     57  S   UNL A   1      44.815  37.638  31.989  1.00  0.00     0.124 S 
ATOM     58  O   UNL A   1      44.876  37.485  33.439  1.00  0.00    -0.237 OA
ATOM     59  O   UNL A   1      46.081  37.946  31.331  1.00  0.00    -0.237 OA
ATOM     60  O   UNL A   1      43.653  38.356  31.479  1.00  0.00    -0.744 OA
ENDBRANCH  56  57
ENDBRANCH  24  49
BRANCH  36  61
ATOM     61  C   UNL A   1      48.330  27.839  29.440  1.00  0.00     0.058 A 
ATOM     62  C   UNL A   1      49.131  28.019  28.303  1.00  0.00     0.135 A 
ATOM     63  C   UNL A   1      48.947  27.438  30.634  1.00  0.00     0.135 A 
ATOM     64  F   UNL A   1      48.579  28.392  27.136  1.00  0.00    -0.206 F 
ATOM     65  C   UNL A   1      50.498  27.792  28.343  1.00  0.00     0.059 A 
ATOM     66  C   UNL A   1      50.318  27.236  30.705  1.00  0.00     0.059 A 
ATOM     67  F   UNL A   1      48.216  27.264  31.747  1.00  0.00    -0.206 F 
ATOM     68  C   UNL A   1      51.083  27.400  29.549  1.00  0.00     0.060 A 
BRANCH  68  69
ATOM     69  S   UNL A   1      52.866  27.138  29.590  1.00  0.00     0.124 S 
ATOM     70  O   UNL A   1      53.140  26.751  28.211  1.00  0.00    -0.237 OA
ATOM     71  O   UNL A   1      53.360  28.451  29.994  1.00  0.00    -0.237 OA
ATOM     72  O   UNL A   1      53.028  26.082  30.585  1.00  0.00    -0.744 OA
ENDBRANCH  68  69
ENDBRANCH  36  61
ENDBRANCH  10  11
ENDBRANCH   3   5
ENDBRANCH   2   3
ENDBRANCH   1   2
BRANCH   1  73
ATOM     73  C   UNL A   1      33.348  29.411  25.172  1.00  0.00     0.274 C 
BRANCH  73  74
ATOM     74  O   UNL A   1      33.431  28.571  24.014  1.00  0.00    -0.462 OA
BRANCH  74  75
ATOM     75  C   UNL A   1      32.244  28.193  23.442  1.00  0.00     0.309 C 
ATOM     76  O   UNL A   1      32.136  27.640  22.358  1.00  0.00    -0.252 OA
BRANCH  75  77
ATOM     77  C   UNL A   1      31.101  28.492  24.390  1.00  0.00     0.111 C 
ATOM     78  C   UNL A   1      30.065  29.306  23.592  1.00  0.00     0.016 C 
ATOM     79  C   UNL A   1      30.451  27.300  25.125  1.00  0.00     0.093 C 
ATOM     80  C   UNL A   1      29.193  28.444  22.686  1.00  0.00     0.001 C 
ATOM     81  C   UNL A   1      29.546  26.463  24.210  1.00  0.00     0.014 C 
ATOM     82  C   UNL A   1      28.526  27.323  23.467  1.00  0.00     0.001 C 
BRANCH  79  83
ATOM     83  C   UNL A   1      31.211  26.340  26.087  1.00  0.00     0.226 C 
ATOM     84  O   UNL A   1      31.359  26.677  27.267  1.00  0.00    -0.275 OA
ATOM     85  N   UNL A   1      31.507  25.045  25.696  1.00  0.00    -0.340 N 
ATOM     86  C   UNL A   1      31.451  23.947  26.669  1.00  0.00     0.136 C 
ATOM     87  C   UNL A   1      32.570  24.811  24.754  1.00  0.00     0.136 C 
ATOM     88  C   UNL A   1      31.327  22.559  25.981  1.00  0.00     0.124 C 
ATOM     89  C   UNL A   1      32.313  23.542  23.948  1.00  0.00     0.124 C 
ATOM     90  N   UNL A   1      32.293  22.341  24.829  1.00  0.00    -0.194 NA
BRANCH  90  91
ATOM     91  S   UNL A   1      33.790  21.649  25.270  1.00  0.00     0.243 S 
ATOM     92  O   UNL A   1      34.835  22.352  24.564  1.00  0.00    -0.207 OA
ATOM     93  O   UNL A   1      33.813  21.566  26.717  1.00  0.00    -0.207 OA
BRANCH  91  94
ATOM     94  C   UNL A   1      33.735  19.972  24.645  1.00  0.00     0.082 A 
ATOM     95  C   UNL A   1      32.619  19.544  23.911  1.00  0.00     0.025 A 
ATOM     96  C   UNL A   1      34.829  19.116  24.815  1.00  0.00     0.025 A 
ATOM     97  C   UNL A   1      32.560  18.235  23.424  1.00  0.00     0.040 A 
ATOM     98  C   UNL A   1      34.776  17.816  24.299  1.00  0.00     0.040 A 
ATOM     99  C   UNL A   1      33.637  17.381  23.626  1.00  0.00     0.123 A 
ATOM    100  F   UNL A   1      33.582  16.127  23.158  1.00  0.00    -0.207 F 
ENDBRANCH  91  94
ENDBRANCH  90  91
ENDBRANCH  79  83
ENDBRANCH  75  77
ENDBRANCH  74  75
ENDBRANCH  73  74
ENDBRANCH   1  73
TORSDOF 17
ENDMDL
MODEL 2
REMARK VINA RESULT:     -12.2      2.237      3.082
REMARK SMILES O=C(OCCOC(=O)[C@H]1CCCC[C@H]1C(=O)N1CCN(S(=O)(=O)c2ccc(F)cc2)CC1)c1ccc(-c2c3nc(c(-c4c(F)cc(S(=O)(=O)[O-])cc4F)c4ccc([nH]4)c(-c4c(F)cc(S(=O)(=O)[O-])cc4F)c4nc(c(-c5c(F)cc(S(=O)(=O)[O-])cc5F)c5ccc2[nH]5)C=C4)C=C3)cc1
REMARK SMILES IDX 4 1 3 2 2 3 1 4 33 5 34 6 98 7 35 8 97 9 36 10 37 11 38 12
REMARK SMILES IDX 91 13 39 14 96 15 90 16 92 17 40 18 95 19 89 20 88 21 41 23
REMARK SMILES IDX 75 24 54 25 74 26 55 27 58 28 73 29 93 30 56 31 57 32 72 34
REMARK SMILES IDX 94 35 59 36 42 37 43 38 52 39 44 40 45 41 51 42 53 43 46 44
REMARK SMILES IDX 47 45 48 46 49 47 50 48 76 49 77 50 86 51 78 52 79 53 85 54
REMARK SMILES IDX 87 55 80 56 81 57 82 58 83 59 84 60 60 61 61 62 70 63 62 64
REMARK SMILES IDX 63 65 69 66 71 67 64 68 65 69 66 70 67 71 68 72 5 73 6 74
REMARK SMILES IDX 7 75 8 76 9 77 10 78 14 79 11 80 13 81 12 82 15 83 16 84
REMARK SMILES IDX 17 85 18 86 32 87 19 88 31 89 20 90 21 91 22 92 23 93 24 94
REMARK SMILES IDX 25 95 30 96 26 97 29 98 27 99 28 100
REMARK H PARENT 92 22 58 33
REMARK Flexibility Score: inf
ROOT
ATOM      1  C   UNL A   1      34.510  29.812  26.919  1.00  0.00     0.275 C 
ENDROOT
BRANCH   1   2
ATOM      2  O   UNL A   1      35.891  29.749  27.364  1.00  0.00    -0.458 OA
BRANCH   2   3
ATOM      3  C   UNL A   1      36.476  30.115  28.537  1.00  0.00     0.338 C 
ATOM      4  O   UNL A   1      35.843  30.734  29.384  1.00  0.00    -0.246 OA
BRANCH   3   5
ATOM      5  C   UNL A   1      37.925  29.939  28.718  1.00  0.00     0.060 A 
ATOM      6  C   UNL A   1      38.704  29.493  27.661  1.00  0.00     0.016 A 
ATOM      7  C   UNL A   1      38.510  30.184  29.977  1.00  0.00     0.016 A 
ATOM      8  C   UNL A   1      40.070  29.439  27.797  1.00  0.00     0.010 A 
ATOM      9  C   UNL A   1      39.894  30.057  30.142  1.00  0.00     0.010 A 
ATOM     10  C   UNL A   1      40.667  29.690  29.039  1.00  0.00    -0.014 A 
BRANCH  10  11
ATOM     11  C   UNL A   1      42.073  29.255  29.094  1.00  0.00     0.031 A 
ATOM     12  C   UNL A   1      42.309  27.816  28.753  1.00  0.00     0.074 A 
ATOM     13  C   UNL A   1      43.026  30.199  28.998  1.00  0.00     0.049 A 
ATOM     14  N   UNL A   1      43.366  27.264  28.235  1.00  0.00    -0.248 NA
ATOM     15  C   UNL A   1      41.159  26.904  28.907  1.00  0.00     0.031 C 
ATOM     16  C   UNL A   1      42.782  31.631  29.155  1.00  0.00     0.029 A 
ATOM     17  N   UNL A   1      44.343  30.127  28.635  1.00  0.00    -0.354 N 
ATOM     18  C   UNL A   1      42.995  25.957  27.954  1.00  0.00     0.074 A 
ATOM     19  C   UNL A   1      41.625  25.787  28.370  1.00  0.00     0.031 C 
ATOM     20  C   UNL A   1      43.896  32.314  28.850  1.00  0.00     0.029 A 
ATOM     21  C   UNL A   1      44.940  31.362  28.489  1.00  0.00     0.049 A 
ATOM     22  H   UNL A   1      44.818  29.277  28.493  1.00  0.00     0.167 HD
ATOM     23  C   UNL A   1      43.747  24.995  27.380  1.00  0.00     0.037 A 
ATOM     24  C   UNL A   1      46.187  31.676  28.088  1.00  0.00     0.037 A 
ATOM     25  C   UNL A   1      45.125  25.199  27.034  1.00  0.00     0.049 A 
ATOM     26  C   UNL A   1      47.061  30.536  27.638  1.00  0.00     0.074 A 
ATOM     27  C   UNL A   1      46.049  24.275  26.593  1.00  0.00     0.029 A 
ATOM     28  N   UNL A   1      45.776  26.425  27.111  1.00  0.00    -0.354 N 
ATOM     29  N   UNL A   1      46.727  29.280  27.442  1.00  0.00    -0.248 NA
ATOM     30  C   UNL A   1      48.468  30.839  27.362  1.00  0.00     0.031 C 
ATOM     31  C   UNL A   1      47.277  24.931  26.460  1.00  0.00     0.029 A 
ATOM     32  C   UNL A   1      47.103  26.276  26.759  1.00  0.00     0.049 A 
ATOM     33  H   UNL A   1      45.354  27.273  27.379  1.00  0.00     0.167 HD
ATOM     34  C   UNL A   1      47.882  28.640  27.019  1.00  0.00     0.074 A 
ATOM     35  C   UNL A   1      48.915  29.659  26.952  1.00  0.00     0.031 C 
ATOM     36  C   UNL A   1      48.085  27.332  26.722  1.00  0.00     0.037 A 
BRANCH  23  37
ATOM     37  C   UNL A   1      43.121  23.648  27.185  1.00  0.00     0.058 A 
ATOM     38  C   UNL A   1      42.606  23.287  25.931  1.00  0.00     0.135 A 
ATOM     39  C   UNL A   1      43.019  22.717  28.231  1.00  0.00     0.135 A 
ATOM     40  F   UNL A   1      42.714  24.127  24.890  1.00  0.00    -0.206 F 
ATOM     41  C   UNL A   1      41.979  22.064  25.728  1.00  0.00     0.059 A 
ATOM     42  C   UNL A   1      42.409  21.478  28.046  1.00  0.00     0.059 A 
ATOM     43  F   UNL A   1      43.543  22.994  29.436  1.00  0.00    -0.206 F 
ATOM     44  C   UNL A   1      41.876  21.169  26.794  1.00  0.00     0.060 A 
BRANCH  44  45
ATOM     45  S   UNL A   1      41.045  19.592  26.509  1.00  0.00     0.124 S 
ATOM     46  O   UNL A   1      40.882  19.090  27.868  1.00  0.00    -0.237 OA
ATOM     47  O   UNL A   1      39.820  20.012  25.835  1.00  0.00    -0.237 OA
ATOM     48  O   UNL A   1      41.991  18.856  25.674  1.00  0.00    -0.744 OA
ENDBRANCH  44  45
ENDBRANCH  23  37
BRANCH  24  49
ATOM     49  C   UNL A   1      46.678  33.083  28.141  1.00  0.00     0.058 A 
ATOM     50  C   UNL A   1      46.513  33.937  27.035  1.00  0.00     0.135 A 
ATOM     51  C   UNL A   1      47.294  33.625  29.281  1.00  0.00     0.135 A 
ATOM     52  F   UNL A   1      45.933  33.482  25.914  1.00  0.00    -0.206 F 
ATOM     53  C   UNL A   1      46.949  35.257  27.049  1.00  0.00     0.059 A 
ATOM     54  C   UNL A   1      47.712  34.957  29.331  1.00  0.00     0.059 A 
ATOM     55  F   UNL A   1      47.473  32.864  30.371  1.00  0.00    -0.206 F 
ATOM     56  C   UNL A   1      47.543  35.762  28.204  1.00  0.00     0.060 A 
BRANCH  56  57
ATOM     57  S   UNL A   1      48.055  37.494  28.208  1.00  0.00     0.124 S 
ATOM     58  O   UNL A   1      48.599  37.639  26.862  1.00  0.00    -0.237 OA
ATOM     59  O   UNL A   1      46.794  38.184  28.461  1.00  0.00    -0.237 OA
ATOM     60  O   UNL A   1      49.031  37.555  29.291  1.00  0.00    -0.744 OA
ENDBRANCH  56  57
ENDBRANCH  24  49
BRANCH  36  61
ATOM     61  C   UNL A   1      49.473  26.943  26.313  1.00  0.00     0.058 A 
ATOM     62  C   UNL A   1      49.875  27.054  24.974  1.00  0.00     0.135 A 
ATOM     63  C   UNL A   1      50.373  26.388  27.236  1.00  0.00     0.135 A 
ATOM     64  F   UNL A   1      49.041  27.568  24.055  1.00  0.00    -0.206 F 
ATOM     65  C   UNL A   1      51.123  26.613  24.559  1.00  0.00     0.059 A 
ATOM     66  C   UNL A   1      51.638  25.971  26.848  1.00  0.00     0.059 A 
ATOM     67  F   UNL A   1      50.029  26.273  28.529  1.00  0.00    -0.206 F 
ATOM     68  C   UNL A   1      51.998  26.073  25.503  1.00  0.00     0.060 A 
BRANCH  68  69
ATOM     69  S   UNL A   1      53.627  25.534  24.951  1.00  0.00     0.124 S 
ATOM     70  O   UNL A   1      54.505  26.415  25.714  1.00  0.00    -0.237 OA
ATOM     71  O   UNL A   1      53.635  24.128  25.346  1.00  0.00    -0.237 OA
ATOM     72  O   UNL A   1      53.591  25.773  23.512  1.00  0.00    -0.744 OA
ENDBRANCH  68  69
ENDBRANCH  36  61
ENDBRANCH  10  11
ENDBRANCH   3   5
ENDBRANCH   2   3
ENDBRANCH   1   2
BRANCH   1  73
ATOM     73  C   UNL A   1      33.605  28.648  27.344  1.00  0.00     0.274 C 
BRANCH  73  74
ATOM     74  O   UNL A   1      33.755  27.501  26.499  1.00  0.00    -0.462 OA
BRANCH  74  75
ATOM     75  C   UNL A   1      33.261  27.608  25.224  1.00  0.00     0.309 C 
ATOM     76  O   UNL A   1      33.940  27.597  24.209  1.00  0.00    -0.252 OA
BRANCH  75  77
ATOM     77  C   UNL A   1      31.748  27.658  25.265  1.00  0.00     0.111 C 
ATOM     78  C   UNL A   1      31.319  28.826  24.357  1.00  0.00     0.016 C 
ATOM     79  C   UNL A   1      30.980  26.360  24.931  1.00  0.00     0.093 C 
ATOM     80  C   UNL A   1      31.347  28.476  22.874  1.00  0.00     0.001 C 
ATOM     81  C   UNL A   1      30.984  26.040  23.429  1.00  0.00     0.014 C 
ATOM     82  C   UNL A   1      30.526  27.229  22.587  1.00  0.00     0.001 C 
BRANCH  79  83
ATOM     83  C   UNL A   1      31.118  25.027  25.724  1.00  0.00     0.226 C 
ATOM     84  O   UNL A   1      30.383  24.839  26.700  1.00  0.00    -0.275 OA
ATOM     85  N   UNL A   1      31.874  23.984  25.216  1.00  0.00    -0.340 N 
ATOM     86  C   UNL A   1      31.442  22.594  25.411  1.00  0.00     0.136 C 
ATOM     87  C   UNL A   1      33.311  24.060  25.254  1.00  0.00     0.136 C 
ATOM     88  C   UNL A   1      32.106  21.625  24.394  1.00  0.00     0.124 C 
ATOM     89  C   UNL A   1      33.928  23.260  24.113  1.00  0.00     0.124 C 
ATOM     90  N   UNL A   1      33.606  21.811  24.237  1.00  0.00    -0.194 NA
BRANCH  90  91
ATOM     91  S   UNL A   1      34.560  20.868  25.295  1.00  0.00     0.243 S 
ATOM     92  O   UNL A   1      35.933  20.957  24.860  1.00  0.00    -0.207 OA
ATOM     93  O   UNL A   1      34.195  21.244  26.647  1.00  0.00    -0.207 OA
BRANCH  91  94
ATOM     94  C   UNL A   1      34.010  19.182  25.047  1.00  0.00     0.082 A 
ATOM     95  C   UNL A   1      34.796  18.303  24.290  1.00  0.00     0.025 A 
ATOM     96  C   UNL A   1      32.846  18.718  25.670  1.00  0.00     0.025 A 
ATOM     97  C   UNL A   1      34.375  16.986  24.083  1.00  0.00     0.040 A 
ATOM     98  C   UNL A   1      32.445  17.390  25.484  1.00  0.00     0.040 A 
ATOM     99  C   UNL A   1      33.201  16.542  24.679  1.00  0.00     0.123 A 
ATOM    100  F   UNL A   1      32.797  15.280  24.482  1.00  0.00    -0.207 F 
ENDBRANCH  91  94
ENDBRANCH  90  91
ENDBRANCH  79  83
ENDBRANCH  75  77
ENDBRANCH  74  75
ENDBRANCH  73  74
ENDBRANCH   1  73
TORSDOF 17
ENDMDL
MODEL 3
REMARK VINA RESULT:     -11.9      1.668      2.271
REMARK SMILES O=C(OCCOC(=O)[C@H]1CCCC[C@H]1C(=O)N1CCN(S(=O)(=O)c2ccc(F)cc2)CC1)c1ccc(-c2c3nc(c(-c4c(F)cc(S(=O)(=O)[O-])cc4F)c4ccc([nH]4)c(-c4c(F)cc(S(=O)(=O)[O-])cc4F)c4nc(c(-c5c(F)cc(S(=O)(=O)[O-])cc5F)c5ccc2[nH]5)C=C4)C=C3)cc1
REMARK SMILES IDX 4 1 3 2 2 3 1 4 33 5 34 6 98 7 35 8 97 9 36 10 37 11 38 12
REMARK SMILES IDX 91 13 39 14 96 15 90 16 92 17 40 18 95 19 89 20 88 21 41 23
REMARK SMILES IDX 75 24 54 25 74 26 55 27 58 28 73 29 93 30 56 31 57 32 72 34
REMARK SMILES IDX 94 35 59 36 42 37 43 38 52 39 44 40 45 41 51 42 53 43 46 44
REMARK SMILES IDX 47 45 48 46 49 47 50 48 76 49 77 50 86 51 78 52 79 53 85 54
REMARK SMILES IDX 87 55 80 56 81 57 82 58 83 59 84 60 60 61 61 62 70 63 62 64
REMARK SMILES IDX 63 65 69 66 71 67 64 68 65 69 66 70 67 71 68 72 5 73 6 74
REMARK SMILES IDX 7 75 8 76 9 77 10 78 14 79 11 80 13 81 12 82 15 83 16 84
REMARK SMILES IDX 17 85 18 86 32 87 19 88 31 89 20 90 21 91 22 92 23 93 24 94
REMARK SMILES IDX 25 95 30 96 26 97 29 98 27 99 28 100
REMARK H PARENT 92 22 58 33
REMARK Flexibility Score: inf
ROOT
ATOM      1  C   UNL A   1      33.244  30.104  27.449  1.00  0.00     0.275 C 
ENDROOT
BRANCH   1   2
ATOM      2  O   UNL A   1      34.685  30.213  27.592  1.00  0.00    -0.458 OA
BRANCH   2   3
ATOM      3  C   UNL A   1      35.455  30.701  28.603  1.00  0.00     0.338 C 
ATOM      4  O   UNL A   1      35.084  31.667  29.260  1.00  0.00    -0.246 OA
BRANCH   3   5
ATOM      5  C   UNL A   1      36.822  30.193  28.792  1.00  0.00     0.060 A 
ATOM      6  C   UNL A   1      37.275  29.886  30.065  1.00  0.00     0.016 A 
ATOM      7  C   UNL A   1      37.680  30.060  27.681  1.00  0.00     0.016 A 
ATOM      8  C   UNL A   1      38.509  29.304  30.227  1.00  0.00     0.010 A 
ATOM      9  C   UNL A   1      38.968  29.538  27.850  1.00  0.00     0.010 A 
ATOM     10  C   UNL A   1      39.370  29.155  29.131  1.00  0.00    -0.014 A 
BRANCH  10  11
ATOM     11  C   UNL A   1      40.753  28.847  29.530  1.00  0.00     0.031 A 
ATOM     12  C   UNL A   1      41.242  27.488  29.134  1.00  0.00     0.074 A 
ATOM     13  C   UNL A   1      41.577  29.878  29.789  1.00  0.00     0.049 A 
ATOM     14  N   UNL A   1      42.458  27.103  28.878  1.00  0.00    -0.248 NA
ATOM     15  C   UNL A   1      40.212  26.463  28.880  1.00  0.00     0.031 C 
ATOM     16  C   UNL A   1      41.129  31.252  30.006  1.00  0.00     0.029 A 
ATOM     17  N   UNL A   1      42.941  29.971  29.797  1.00  0.00    -0.354 N 
ATOM     18  C   UNL A   1      42.335  25.812  28.385  1.00  0.00     0.074 A 
ATOM     19  C   UNL A   1      40.934  25.468  28.391  1.00  0.00     0.031 C 
ATOM     20  C   UNL A   1      42.193  32.066  30.084  1.00  0.00     0.029 A 
ATOM     21  C   UNL A   1      43.402  31.264  29.937  1.00  0.00     0.049 A 
ATOM     22  H   UNL A   1      43.536  29.192  29.713  1.00  0.00     0.167 HD
ATOM     23  C   UNL A   1      43.321  24.999  27.952  1.00  0.00     0.037 A 
ATOM     24  C   UNL A   1      44.663  31.737  29.926  1.00  0.00     0.037 A 
ATOM     25  C   UNL A   1      44.707  25.369  28.019  1.00  0.00     0.049 A 
ATOM     26  C   UNL A   1      45.756  30.745  29.629  1.00  0.00     0.074 A 
ATOM     27  C   UNL A   1      45.819  24.594  27.766  1.00  0.00     0.029 A 
ATOM     28  N   UNL A   1      45.161  26.630  28.387  1.00  0.00    -0.354 N 
ATOM     29  N   UNL A   1      45.639  29.498  29.231  1.00  0.00    -0.248 NA
ATOM     30  C   UNL A   1      47.138  31.206  29.780  1.00  0.00     0.031 C 
ATOM     31  C   UNL A   1      46.950  25.370  28.037  1.00  0.00     0.029 A 
ATOM     32  C   UNL A   1      46.542  26.647  28.401  1.00  0.00     0.049 A 
ATOM     33  H   UNL A   1      44.585  27.397  28.606  1.00  0.00     0.167 HD
ATOM     34  C   UNL A   1      46.934  29.022  29.085  1.00  0.00     0.074 A 
ATOM     35  C   UNL A   1      47.817  30.131  29.400  1.00  0.00     0.031 C 
ATOM     36  C   UNL A   1      47.364  27.785  28.734  1.00  0.00     0.037 A 
BRANCH  23  37
ATOM     37  C   UNL A   1      42.936  23.636  27.468  1.00  0.00     0.058 A 
ATOM     38  C   UNL A   1      42.760  22.588  28.384  1.00  0.00     0.135 A 
ATOM     39  C   UNL A   1      42.749  23.355  26.105  1.00  0.00     0.135 A 
ATOM     40  F   UNL A   1      42.890  22.813  29.701  1.00  0.00    -0.206 F 
ATOM     41  C   UNL A   1      42.447  21.300  27.965  1.00  0.00     0.059 A 
ATOM     42  C   UNL A   1      42.418  22.076  25.663  1.00  0.00     0.059 A 
ATOM     43  F   UNL A   1      42.854  24.335  25.193  1.00  0.00    -0.206 F 
ATOM     44  C   UNL A   1      42.287  21.052  26.601  1.00  0.00     0.060 A 
BRANCH  44  45
ATOM     45  S   UNL A   1      41.895  19.368  26.080  1.00  0.00     0.124 S 
ATOM     46  O   UNL A   1      42.770  19.201  24.925  1.00  0.00    -0.237 OA
ATOM     47  O   UNL A   1      42.249  18.593  27.265  1.00  0.00    -0.237 OA
ATOM     48  O   UNL A   1      40.466  19.430  25.784  1.00  0.00    -0.744 OA
ENDBRANCH  44  45
ENDBRANCH  23  37
BRANCH  24  49
ATOM     49  C   UNL A   1      44.949  33.166  30.243  1.00  0.00     0.058 A 
ATOM     50  C   UNL A   1      45.114  33.579  31.578  1.00  0.00     0.135 A 
ATOM     51  C   UNL A   1      45.091  34.146  29.248  1.00  0.00     0.135 A 
ATOM     52  F   UNL A   1      44.991  32.692  32.577  1.00  0.00    -0.206 F 
ATOM     53  C   UNL A   1      45.391  34.899  31.914  1.00  0.00     0.059 A 
ATOM     54  C   UNL A   1      45.400  35.473  29.558  1.00  0.00     0.059 A 
ATOM     55  F   UNL A   1      44.953  33.814  27.956  1.00  0.00    -0.206 F 
ATOM     56  C   UNL A   1      45.539  35.840  30.897  1.00  0.00     0.060 A 
BRANCH  56  57
ATOM     57  S   UNL A   1      45.945  37.538  31.363  1.00  0.00     0.124 S 
ATOM     58  O   UNL A   1      47.301  37.381  31.879  1.00  0.00    -0.237 OA
ATOM     59  O   UNL A   1      45.828  38.239  30.088  1.00  0.00    -0.237 OA
ATOM     60  O   UNL A   1      44.927  37.868  32.355  1.00  0.00    -0.744 OA
ENDBRANCH  56  57
ENDBRANCH  24  49
BRANCH  36  61
ATOM     61  C   UNL A   1      48.848  27.576  28.688  1.00  0.00     0.058 A 
ATOM     62  C   UNL A   1      49.539  27.148  29.831  1.00  0.00     0.135 A 
ATOM     63  C   UNL A   1      49.587  27.876  27.535  1.00  0.00     0.135 A 
ATOM     64  F   UNL A   1      48.871  26.861  30.960  1.00  0.00    -0.206 F 
ATOM     65  C   UNL A   1      50.921  27.037  29.836  1.00  0.00     0.059 A 
ATOM     66  C   UNL A   1      50.968  27.741  27.507  1.00  0.00     0.059 A 
ATOM     67  F   UNL A   1      48.962  28.281  26.417  1.00  0.00    -0.206 F 
ATOM     68  C   UNL A   1      51.628  27.336  28.669  1.00  0.00     0.060 A 
BRANCH  68  69
ATOM     69  S   UNL A   1      53.421  27.158  28.685  1.00  0.00     0.124 S 
ATOM     70  O   UNL A   1      53.666  26.510  27.401  1.00  0.00    -0.237 OA
ATOM     71  O   UNL A   1      53.867  28.543  28.795  1.00  0.00    -0.237 OA
ATOM     72  O   UNL A   1      53.667  26.332  29.863  1.00  0.00    -0.744 OA
ENDBRANCH  68  69
ENDBRANCH  36  61
ENDBRANCH  10  11
ENDBRANCH   3   5
ENDBRANCH   2   3
ENDBRANCH   1   2
BRANCH   1  73
ATOM     73  C   UNL A   1      32.674  28.682  27.366  1.00  0.00     0.274 C 
BRANCH  73  74
ATOM     74  O   UNL A   1      33.396  27.855  26.446  1.00  0.00    -0.462 OA
BRANCH  74  75
ATOM     75  C   UNL A   1      32.962  27.860  25.145  1.00  0.00     0.309 C 
ATOM     76  O   UNL A   1      33.681  27.714  24.169  1.00  0.00    -0.252 OA
BRANCH  75  77
ATOM     77  C   UNL A   1      31.454  27.990  25.110  1.00  0.00     0.111 C 
ATOM     78  C   UNL A   1      31.133  29.176  24.180  1.00  0.00     0.016 C 
ATOM     79  C   UNL A   1      30.635  26.733  24.739  1.00  0.00     0.093 C 
ATOM     80  C   UNL A   1      31.216  28.819  22.701  1.00  0.00     0.001 C 
ATOM     81  C   UNL A   1      30.697  26.408  23.240  1.00  0.00     0.014 C 
ATOM     82  C   UNL A   1      30.345  27.616  22.374  1.00  0.00     0.001 C 
BRANCH  79  83
ATOM     83  C   UNL A   1      30.663  25.398  25.540  1.00  0.00     0.226 C 
ATOM     84  O   UNL A   1      29.811  25.215  26.418  1.00  0.00    -0.275 OA
ATOM     85  N   UNL A   1      31.466  24.349  25.127  1.00  0.00    -0.340 N 
ATOM     86  C   UNL A   1      31.002  22.963  25.264  1.00  0.00     0.136 C 
ATOM     87  C   UNL A   1      32.888  24.412  25.342  1.00  0.00     0.136 C 
ATOM     88  C   UNL A   1      31.778  21.989  24.334  1.00  0.00     0.124 C 
ATOM     89  C   UNL A   1      33.634  23.608  24.284  1.00  0.00     0.124 C 
ATOM     90  N   UNL A   1      33.287  22.162  24.364  1.00  0.00    -0.194 NA
BRANCH  90  91
ATOM     91  S   UNL A   1      34.095  21.209  25.528  1.00  0.00     0.243 S 
ATOM     92  O   UNL A   1      33.419  21.377  26.793  1.00  0.00    -0.207 OA
ATOM     93  O   UNL A   1      34.261  19.887  24.957  1.00  0.00    -0.207 OA
BRANCH  91  94
ATOM     94  C   UNL A   1      35.727  21.931  25.675  1.00  0.00     0.082 A 
ATOM     95  C   UNL A   1      35.884  23.156  26.338  1.00  0.00     0.025 A 
ATOM     96  C   UNL A   1      36.851  21.243  25.204  1.00  0.00     0.025 A 
ATOM     97  C   UNL A   1      37.152  23.734  26.453  1.00  0.00     0.040 A 
ATOM     98  C   UNL A   1      38.121  21.813  25.349  1.00  0.00     0.040 A 
ATOM     99  C   UNL A   1      38.259  23.059  25.953  1.00  0.00     0.123 A 
ATOM    100  F   UNL A   1      39.474  23.611  26.065  1.00  0.00    -0.207 F 
ENDBRANCH  91  94
ENDBRANCH  90  91
ENDBRANCH  79  83
ENDBRANCH  75  77
ENDBRANCH  74  75
ENDBRANCH  73  74
ENDBRANCH   1  73
TORSDOF 17
ENDMDL
