MODEL 1
REMARK VINA RESULT:     -11.5      0.000      0.000
REMARK SMILES C[C@@H](C(=O)OCCOC(=O)c1ccc(-c2c3nc(c(-c4c(F)cc(S(=O)(=O)[O-])cc4F)c4ccc([nH]4)c(-c4c(F)cc(S(=O)(=O)[O-])cc4F)c4nc(c(-c5c(F)cc(S(=O)(=O)[O-])cc5F)c5ccc2[nH]5)C=C4)C=C3)cc1)c1ccc(C[C@H]2CCCC2=O)cc1F
REMARK SMILES IDX 6 1 5 2 3 3 4 4 2 5 1 6 77 7 78 8 89 9 79 10 88 11 90 12
REMARK SMILES IDX 80 13 81 14 82 15 83 16 86 17 84 18 85 19 87 20 7 21 8 22
REMARK SMILES IDX 9 23 10 24 11 25 12 26 76 27 13 28 75 29 14 30 15 31 16 32
REMARK SMILES IDX 69 33 17 34 74 35 68 36 70 37 18 38 73 39 67 40 66 41 19 43
REMARK SMILES IDX 53 44 32 45 52 46 33 47 36 48 51 49 71 50 34 51 35 52 50 54
REMARK SMILES IDX 72 55 37 56 20 57 21 58 30 59 22 60 23 61 29 62 31 63 24 64
REMARK SMILES IDX 25 65 26 66 27 67 28 68 54 69 55 70 64 71 56 72 57 73 63 74
REMARK SMILES IDX 65 75 58 76 59 77 60 78 61 79 62 80 38 81 39 82 48 83 40 84
REMARK SMILES IDX 41 85 47 86 49 87 42 88 43 89 44 90 45 91 46 92
REMARK H PARENT 70 42 36 53
REMARK Flexibility Score: inf
ROOT
ATOM      1  C   UNL A   1      32.784  30.074  26.743  1.00  0.00     0.274 C 
ENDROOT
BRANCH   1   2
ATOM      2  O   UNL A   1      33.220  29.441  25.522  1.00  0.00    -0.462 OA
BRANCH   2   3
ATOM      3  C   UNL A   1      33.349  28.084  25.554  1.00  0.00     0.313 C 
ATOM      4  O   UNL A   1      33.816  27.461  26.502  1.00  0.00    -0.252 OA
BRANCH   3   5
ATOM      5  C   UNL A   1      32.926  27.423  24.238  1.00  0.00     0.129 C 
ATOM      6  C   UNL A   1      34.046  27.329  23.197  1.00  0.00     0.025 C 
BRANCH   5   7
ATOM      7  C   UNL A   1      31.661  28.064  23.686  1.00  0.00     0.002 A 
ATOM      8  C   UNL A   1      31.747  29.068  22.710  1.00  0.00     0.008 A 
ATOM      9  C   UNL A   1      30.385  27.630  24.058  1.00  0.00     0.127 A 
ATOM     10  C   UNL A   1      30.593  29.600  22.122  1.00  0.00     0.004 A 
ATOM     11  C   UNL A   1      29.233  28.159  23.478  1.00  0.00     0.043 A 
ATOM     12  F   UNL A   1      30.245  26.638  24.948  1.00  0.00    -0.207 F 
ATOM     13  C   UNL A   1      29.322  29.138  22.485  1.00  0.00    -0.044 A 
BRANCH  13  14
ATOM     14  C   UNL A   1      28.091  29.639  21.761  1.00  0.00     0.047 C 
BRANCH  14  15
ATOM     15  C   UNL A   1      27.491  30.967  22.220  1.00  0.00     0.060 C 
ATOM     16  C   UNL A   1      27.664  31.308  23.704  1.00  0.00     0.012 C 
ATOM     17  C   UNL A   1      28.135  32.152  21.539  1.00  0.00     0.136 C 
ATOM     18  C   UNL A   1      28.858  32.249  23.791  1.00  0.00     0.009 C 
ATOM     19  C   UNL A   1      28.821  33.073  22.513  1.00  0.00     0.076 C 
ATOM     20  O   UNL A   1      28.101  32.357  20.332  1.00  0.00    -0.299 OA
ENDBRANCH  14  15
ENDBRANCH  13  14
ENDBRANCH   5   7
ENDBRANCH   3   5
ENDBRANCH   2   3
ENDBRANCH   1   2
BRANCH   1  21
ATOM     21  C   UNL A   1      33.916  30.915  27.328  1.00  0.00     0.275 C 
BRANCH  21  22
ATOM     22  O   UNL A   1      34.728  30.072  28.157  1.00  0.00    -0.458 OA
BRANCH  22  23
ATOM     23  C   UNL A   1      35.609  30.702  28.971  1.00  0.00     0.338 C 
ATOM     24  O   UNL A   1      35.370  31.657  29.690  1.00  0.00    -0.246 OA
BRANCH  23  25
ATOM     25  C   UNL A   1      36.941  30.054  28.862  1.00  0.00     0.060 A 
ATOM     26  C   UNL A   1      37.595  29.544  29.984  1.00  0.00     0.016 A 
ATOM     27  C   UNL A   1      37.586  30.015  27.624  1.00  0.00     0.016 A 
ATOM     28  C   UNL A   1      38.909  29.083  29.881  1.00  0.00     0.010 A 
ATOM     29  C   UNL A   1      38.877  29.475  27.513  1.00  0.00     0.010 A 
ATOM     30  C   UNL A   1      39.581  29.042  28.650  1.00  0.00    -0.014 A 
BRANCH  30  31
ATOM     31  C   UNL A   1      41.016  28.620  28.563  1.00  0.00     0.031 A 
ATOM     32  C   UNL A   1      42.128  29.595  28.887  1.00  0.00     0.074 A 
ATOM     33  C   UNL A   1      41.356  27.351  28.247  1.00  0.00     0.049 A 
ATOM     34  N   UNL A   1      43.416  29.481  28.682  1.00  0.00    -0.248 NA
ATOM     35  C   UNL A   1      41.741  30.864  29.523  1.00  0.00     0.031 C 
ATOM     36  C   UNL A   1      40.421  26.260  27.971  1.00  0.00     0.029 A 
ATOM     37  N   UNL A   1      42.593  26.758  28.125  1.00  0.00    -0.354 N 
ATOM     38  C   UNL A   1      43.980  30.689  29.078  1.00  0.00     0.074 A 
ATOM     39  C   UNL A   1      42.896  31.515  29.567  1.00  0.00     0.031 C 
ATOM     40  C   UNL A   1      41.107  25.124  27.781  1.00  0.00     0.029 A 
ATOM     41  C   UNL A   1      42.535  25.423  27.800  1.00  0.00     0.049 A 
ATOM     42  H   UNL A   1      43.439  27.244  28.257  1.00  0.00     0.167 HD
ATOM     43  C   UNL A   1      45.276  31.081  29.027  1.00  0.00     0.037 A 
ATOM     44  C   UNL A   1      43.505  24.538  27.492  1.00  0.00     0.037 A 
ATOM     45  C   UNL A   1      46.370  30.243  28.607  1.00  0.00     0.049 A 
ATOM     46  C   UNL A   1      44.934  24.994  27.427  1.00  0.00     0.074 A 
ATOM     47  C   UNL A   1      47.716  30.562  28.518  1.00  0.00     0.029 A 
ATOM     48  N   UNL A   1      46.253  28.914  28.233  1.00  0.00    -0.354 N 
ATOM     49  N   UNL A   1      45.431  26.178  27.684  1.00  0.00    -0.248 NA
ATOM     50  C   UNL A   1      45.928  24.002  26.994  1.00  0.00     0.031 C 
ATOM     51  C   UNL A   1      48.409  29.432  28.069  1.00  0.00     0.029 A 
ATOM     52  C   UNL A   1      47.500  28.400  27.911  1.00  0.00     0.049 A 
ATOM     53  H   UNL A   1      45.410  28.409  28.199  1.00  0.00     0.167 HD
ATOM     54  C   UNL A   1      46.794  26.079  27.426  1.00  0.00     0.074 A 
ATOM     55  C   UNL A   1      47.048  24.710  27.026  1.00  0.00     0.031 C 
ATOM     56  C   UNL A   1      47.745  27.042  27.498  1.00  0.00     0.037 A 
BRANCH  43  57
ATOM     57  C   UNL A   1      45.589  32.506  29.392  1.00  0.00     0.058 A 
ATOM     58  C   UNL A   1      45.581  33.540  28.445  1.00  0.00     0.135 A 
ATOM     59  C   UNL A   1      45.854  32.844  30.731  1.00  0.00     0.135 A 
ATOM     60  F   UNL A   1      45.354  33.267  27.150  1.00  0.00    -0.206 F 
ATOM     61  C   UNL A   1      45.842  34.858  28.809  1.00  0.00     0.059 A 
ATOM     62  C   UNL A   1      46.096  34.157  31.120  1.00  0.00     0.059 A 
ATOM     63  F   UNL A   1      45.874  31.891  31.677  1.00  0.00    -0.206 F 
ATOM     64  C   UNL A   1      46.101  35.156  30.149  1.00  0.00     0.060 A 
BRANCH  64  65
ATOM     65  S   UNL A   1      46.429  36.871  30.610  1.00  0.00     0.124 S 
ATOM     66  O   UNL A   1      47.195  36.698  31.840  1.00  0.00    -0.237 OA
ATOM     67  O   UNL A   1      47.179  37.368  29.461  1.00  0.00    -0.237 OA
ATOM     68  O   UNL A   1      45.095  37.439  30.775  1.00  0.00    -0.744 OA
ENDBRANCH  64  65
ENDBRANCH  43  57
BRANCH  44  69
ATOM     69  C   UNL A   1      43.137  23.140  27.149  1.00  0.00     0.058 A 
ATOM     70  C   UNL A   1      43.133  22.698  25.819  1.00  0.00     0.135 A 
ATOM     71  C   UNL A   1      42.828  22.206  28.151  1.00  0.00     0.135 A 
ATOM     72  F   UNL A   1      43.400  23.560  24.826  1.00  0.00    -0.206 F 
ATOM     73  C   UNL A   1      42.850  21.376  25.493  1.00  0.00     0.059 A 
ATOM     74  C   UNL A   1      42.570  20.874  27.853  1.00  0.00     0.059 A 
ATOM     75  F   UNL A   1      42.825  22.580  29.440  1.00  0.00    -0.206 F 
ATOM     76  C   UNL A   1      42.580  20.468  26.519  1.00  0.00     0.060 A 
BRANCH  76  77
ATOM     77  S   UNL A   1      42.317  18.729  26.109  1.00  0.00     0.124 S 
ATOM     78  O   UNL A   1      42.645  18.077  27.371  1.00  0.00    -0.237 OA
ATOM     79  O   UNL A   1      40.909  18.706  25.725  1.00  0.00    -0.237 OA
ATOM     80  O   UNL A   1      43.257  18.503  25.015  1.00  0.00    -0.744 OA
ENDBRANCH  76  77
ENDBRANCH  44  69
BRANCH  56  81
ATOM     81  C   UNL A   1      49.148  26.651  27.136  1.00  0.00     0.058 A 
ATOM     82  C   UNL A   1      50.072  26.258  28.117  1.00  0.00     0.135 A 
ATOM     83  C   UNL A   1      49.567  26.642  25.797  1.00  0.00     0.135 A 
ATOM     84  F   UNL A   1      49.720  26.255  29.412  1.00  0.00    -0.206 F 
ATOM     85  C   UNL A   1      51.372  25.891  27.784  1.00  0.00     0.059 A 
ATOM     86  C   UNL A   1      50.857  26.262  25.440  1.00  0.00     0.059 A 
ATOM     87  F   UNL A   1      48.719  27.003  24.821  1.00  0.00    -0.206 F 
ATOM     88  C   UNL A   1      51.757  25.900  26.443  1.00  0.00     0.060 A 
BRANCH  88  89
ATOM     89  S   UNL A   1      53.441  25.408  26.019  1.00  0.00     0.124 S 
ATOM     90  O   UNL A   1      53.816  26.442  25.059  1.00  0.00    -0.237 OA
ATOM     91  O   UNL A   1      54.122  25.463  27.308  1.00  0.00    -0.237 OA
ATOM     92  O   UNL A   1      53.272  24.068  25.464  1.00  0.00    -0.744 OA
ENDBRANCH  88  89
ENDBRANCH  56  81
ENDBRANCH  30  31
ENDBRANCH  23  25
ENDBRANCH  22  23
ENDBRANCH  21  22
ENDBRANCH   1  21
TORSDOF 17
ENDMDL
MODEL 2
REMARK VINA RESULT:     -11.4      2.142      4.515
REMARK SMILES C[C@@H](C(=O)OCCOC(=O)c1ccc(-c2c3nc(c(-c4c(F)cc(S(=O)(=O)[O-])cc4F)c4ccc([nH]4)c(-c4c(F)cc(S(=O)(=O)[O-])cc4F)c4nc(c(-c5c(F)cc(S(=O)(=O)[O-])cc5F)c5ccc2[nH]5)C=C4)C=C3)cc1)c1ccc(C[C@H]2CCCC2=O)cc1F
REMARK SMILES IDX 6 1 5 2 3 3 4 4 2 5 1 6 77 7 78 8 89 9 79 10 88 11 90 12
REMARK SMILES IDX 80 13 81 14 82 15 83 16 86 17 84 18 85 19 87 20 7 21 8 22
REMARK SMILES IDX 9 23 10 24 11 25 12 26 76 27 13 28 75 29 14 30 15 31 16 32
REMARK SMILES IDX 69 33 17 34 74 35 68 36 70 37 18 38 73 39 67 40 66 41 19 43
REMARK SMILES IDX 53 44 32 45 52 46 33 47 36 48 51 49 71 50 34 51 35 52 50 54
REMARK SMILES IDX 72 55 37 56 20 57 21 58 30 59 22 60 23 61 29 62 31 63 24 64
REMARK SMILES IDX 25 65 26 66 27 67 28 68 54 69 55 70 64 71 56 72 57 73 63 74
REMARK SMILES IDX 65 75 58 76 59 77 60 78 61 79 62 80 38 81 39 82 48 83 40 84
REMARK SMILES IDX 41 85 47 86 49 87 42 88 43 89 44 90 45 91 46 92
REMARK H PARENT 70 42 36 53
REMARK Flexibility Score: inf
ROOT
ATOM      1  C   UNL A   1      31.760  29.605  26.881  1.00  0.00     0.274 C 
ENDROOT
BRANCH   1   2
ATOM      2  O   UNL A   1      31.773  28.777  25.700  1.00  0.00    -0.462 OA
BRANCH   2   3
ATOM      3  C   UNL A   1      31.274  27.515  25.837  1.00  0.00     0.313 C 
ATOM      4  O   UNL A   1      30.945  27.020  26.910  1.00  0.00    -0.252 OA
BRANCH   3   5
ATOM      5  C   UNL A   1      31.247  26.747  24.511  1.00  0.00     0.129 C 
ATOM      6  C   UNL A   1      29.858  26.236  24.113  1.00  0.00     0.025 C 
BRANCH   5   7
ATOM      7  C   UNL A   1      32.304  25.653  24.491  1.00  0.00     0.002 A 
ATOM      8  C   UNL A   1      31.924  24.305  24.396  1.00  0.00     0.008 A 
ATOM      9  C   UNL A   1      33.672  25.942  24.483  1.00  0.00     0.127 A 
ATOM     10  C   UNL A   1      32.885  23.294  24.280  1.00  0.00     0.004 A 
ATOM     11  C   UNL A   1      34.633  24.938  24.371  1.00  0.00     0.043 A 
ATOM     12  F   UNL A   1      34.091  27.214  24.520  1.00  0.00    -0.207 F 
ATOM     13  C   UNL A   1      34.252  23.599  24.247  1.00  0.00    -0.044 A 
BRANCH  13  14
ATOM     14  C   UNL A   1      35.273  22.509  24.005  1.00  0.00     0.047 C 
BRANCH  14  15
ATOM     15  C   UNL A   1      35.904  21.847  25.229  1.00  0.00     0.060 C 
ATOM     16  C   UNL A   1      36.245  20.360  25.091  1.00  0.00     0.012 C 
ATOM     17  C   UNL A   1      37.241  22.455  25.583  1.00  0.00     0.136 C 
ATOM     18  C   UNL A   1      37.730  20.291  24.758  1.00  0.00     0.009 C 
ATOM     19  C   UNL A   1      38.368  21.460  25.494  1.00  0.00     0.076 C 
ATOM     20  O   UNL A   1      37.402  23.622  25.918  1.00  0.00    -0.299 OA
ENDBRANCH  14  15
ENDBRANCH  13  14
ENDBRANCH   5   7
ENDBRANCH   3   5
ENDBRANCH   2   3
ENDBRANCH   1   2
BRANCH   1  21
ATOM     21  C   UNL A   1      33.045  30.425  26.958  1.00  0.00     0.275 C 
BRANCH  21  22
ATOM     22  O   UNL A   1      33.873  29.878  27.994  1.00  0.00    -0.458 OA
BRANCH  22  23
ATOM     23  C   UNL A   1      34.731  30.739  28.592  1.00  0.00     0.338 C 
ATOM     24  O   UNL A   1      34.452  31.835  29.047  1.00  0.00    -0.246 OA
BRANCH  23  25
ATOM     25  C   UNL A   1      36.095  30.151  28.615  1.00  0.00     0.060 A 
ATOM     26  C   UNL A   1      36.634  29.612  29.783  1.00  0.00     0.016 A 
ATOM     27  C   UNL A   1      36.882  30.199  27.462  1.00  0.00     0.016 A 
ATOM     28  C   UNL A   1      37.971  29.209  29.818  1.00  0.00     0.010 A 
ATOM     29  C   UNL A   1      38.200  29.717  27.483  1.00  0.00     0.010 A 
ATOM     30  C   UNL A   1      38.784  29.256  28.675  1.00  0.00    -0.014 A 
BRANCH  30  31
ATOM     31  C   UNL A   1      40.237  28.895  28.742  1.00  0.00     0.031 A 
ATOM     32  C   UNL A   1      41.257  29.895  29.244  1.00  0.00     0.074 A 
ATOM     33  C   UNL A   1      40.669  27.659  28.409  1.00  0.00     0.049 A 
ATOM     34  N   UNL A   1      42.564  29.843  29.191  1.00  0.00    -0.248 NA
ATOM     35  C   UNL A   1      40.740  31.112  29.889  1.00  0.00     0.031 C 
ATOM     36  C   UNL A   1      39.824  26.549  27.970  1.00  0.00     0.029 A 
ATOM     37  N   UNL A   1      41.937  27.122  28.409  1.00  0.00    -0.354 N 
ATOM     38  C   UNL A   1      43.022  31.049  29.709  1.00  0.00     0.074 A 
ATOM     39  C   UNL A   1      41.851  31.804  30.103  1.00  0.00     0.031 C 
ATOM     40  C   UNL A   1      40.578  25.452  27.810  1.00  0.00     0.029 A 
ATOM     41  C   UNL A   1      41.979  25.806  28.015  1.00  0.00     0.049 A 
ATOM     42  H   UNL A   1      42.738  27.634  28.666  1.00  0.00     0.167 HD
ATOM     43  C   UNL A   1      44.296  31.494  29.834  1.00  0.00     0.037 A 
ATOM     44  C   UNL A   1      43.017  24.977  27.785  1.00  0.00     0.037 A 
ATOM     45  C   UNL A   1      45.469  30.723  29.510  1.00  0.00     0.049 A 
ATOM     46  C   UNL A   1      44.422  25.491  27.915  1.00  0.00     0.074 A 
ATOM     47  C   UNL A   1      46.800  31.099  29.600  1.00  0.00     0.029 A 
ATOM     48  N   UNL A   1      45.458  29.412  29.061  1.00  0.00    -0.354 N 
ATOM     49  N   UNL A   1      44.832  26.679  28.287  1.00  0.00    -0.248 NA
ATOM     50  C   UNL A   1      45.504  24.563  27.558  1.00  0.00     0.031 C 
ATOM     51  C   UNL A   1      47.592  30.023  29.184  1.00  0.00     0.029 A 
ATOM     52  C   UNL A   1      46.756  28.965  28.868  1.00  0.00     0.049 A 
ATOM     53  H   UNL A   1      44.648  28.877  28.902  1.00  0.00     0.167 HD
ATOM     54  C   UNL A   1      46.218  26.647  28.190  1.00  0.00     0.074 A 
ATOM     55  C   UNL A   1      46.580  25.312  27.759  1.00  0.00     0.031 C 
ATOM     56  C   UNL A   1      47.109  27.641  28.423  1.00  0.00     0.037 A 
BRANCH  43  57
ATOM     57  C   UNL A   1      44.499  32.909  30.303  1.00  0.00     0.058 A 
ATOM     58  C   UNL A   1      44.747  33.222  31.647  1.00  0.00     0.135 A 
ATOM     59  C   UNL A   1      44.491  33.963  29.373  1.00  0.00     0.135 A 
ATOM     60  F   UNL A   1      44.745  32.254  32.577  1.00  0.00    -0.206 F 
ATOM     61  C   UNL A   1      44.964  34.535  32.056  1.00  0.00     0.059 A 
ATOM     62  C   UNL A   1      44.727  35.279  29.756  1.00  0.00     0.059 A 
ATOM     63  F   UNL A   1      44.258  33.716  28.074  1.00  0.00    -0.206 F 
ATOM     64  C   UNL A   1      44.950  35.556  31.103  1.00  0.00     0.060 A 
BRANCH  64  65
ATOM     65  S   UNL A   1      45.242  37.254  31.646  1.00  0.00     0.124 S 
ATOM     66  O   UNL A   1      46.248  37.056  32.685  1.00  0.00    -0.237 OA
ATOM     67  O   UNL A   1      45.712  37.898  30.424  1.00  0.00    -0.237 OA
ATOM     68  O   UNL A   1      43.932  37.690  32.116  1.00  0.00    -0.744 OA
ENDBRANCH  64  65
ENDBRANCH  43  57
BRANCH  44  69
ATOM     69  C   UNL A   1      42.756  23.585  27.333  1.00  0.00     0.058 A 
ATOM     70  C   UNL A   1      42.835  23.238  25.978  1.00  0.00     0.135 A 
ATOM     71  C   UNL A   1      42.469  22.567  28.257  1.00  0.00     0.135 A 
ATOM     72  F   UNL A   1      43.086  24.181  25.058  1.00  0.00    -0.206 F 
ATOM     73  C   UNL A   1      42.654  21.926  25.553  1.00  0.00     0.059 A 
ATOM     74  C   UNL A   1      42.312  21.245  27.859  1.00  0.00     0.059 A 
ATOM     75  F   UNL A   1      42.389  22.850  29.566  1.00  0.00    -0.206 F 
ATOM     76  C   UNL A   1      42.402  20.934  26.503  1.00  0.00     0.060 A 
BRANCH  76  77
ATOM     77  S   UNL A   1      42.271  19.214  25.967  1.00  0.00     0.124 S 
ATOM     78  O   UNL A   1      43.137  19.206  24.795  1.00  0.00    -0.237 OA
ATOM     79  O   UNL A   1      42.763  18.483  27.130  1.00  0.00    -0.237 OA
ATOM     80  O   UNL A   1      40.843  19.060  25.701  1.00  0.00    -0.744 OA
ENDBRANCH  76  77
ENDBRANCH  44  69
BRANCH  56  81
ATOM     81  C   UNL A   1      48.561  27.326  28.215  1.00  0.00     0.058 A 
ATOM     82  C   UNL A   1      49.177  27.514  26.968  1.00  0.00     0.135 A 
ATOM     83  C   UNL A   1      49.352  26.856  29.275  1.00  0.00     0.135 A 
ATOM     84  F   UNL A   1      48.461  27.956  25.922  1.00  0.00    -0.206 F 
ATOM     85  C   UNL A   1      50.525  27.227  26.773  1.00  0.00     0.059 A 
ATOM     86  C   UNL A   1      50.706  26.579  29.106  1.00  0.00     0.059 A 
ATOM     87  F   UNL A   1      48.813  26.666  30.489  1.00  0.00    -0.206 F 
ATOM     88  C   UNL A   1      51.280  26.755  27.847  1.00  0.00     0.060 A 
BRANCH  88  89
ATOM     89  S   UNL A   1      53.031  26.399  27.588  1.00  0.00     0.124 S 
ATOM     90  O   UNL A   1      52.966  25.229  26.718  1.00  0.00    -0.237 OA
ATOM     91  O   UNL A   1      53.516  27.627  26.966  1.00  0.00    -0.237 OA
ATOM     92  O   UNL A   1      53.528  26.151  28.938  1.00  0.00    -0.744 OA
ENDBRANCH  88  89
ENDBRANCH  56  81
ENDBRANCH  30  31
ENDBRANCH  23  25
ENDBRANCH  22  23
ENDBRANCH  21  22
ENDBRANCH   1  21
TORSDOF 17
ENDMDL
MODEL 3
REMARK VINA RESULT:     -11.3      1.960      4.105
REMARK SMILES C[C@@H](C(=O)OCCOC(=O)c1ccc(-c2c3nc(c(-c4c(F)cc(S(=O)(=O)[O-])cc4F)c4ccc([nH]4)c(-c4c(F)cc(S(=O)(=O)[O-])cc4F)c4nc(c(-c5c(F)cc(S(=O)(=O)[O-])cc5F)c5ccc2[nH]5)C=C4)C=C3)cc1)c1ccc(C[C@H]2CCCC2=O)cc1F
REMARK SMILES IDX 6 1 5 2 3 3 4 4 2 5 1 6 77 7 78 8 89 9 79 10 88 11 90 12
REMARK SMILES IDX 80 13 81 14 82 15 83 16 86 17 84 18 85 19 87 20 7 21 8 22
REMARK SMILES IDX 9 23 10 24 11 25 12 26 76 27 13 28 75 29 14 30 15 31 16 32
REMARK SMILES IDX 69 33 17 34 74 35 68 36 70 37 18 38 73 39 67 40 66 41 19 43
REMARK SMILES IDX 53 44 32 45 52 46 33 47 36 48 51 49 71 50 34 51 35 52 50 54
REMARK SMILES IDX 72 55 37 56 20 57 21 58 30 59 22 60 23 61 29 62 31 63 24 64
REMARK SMILES IDX 25 65 26 66 27 67 28 68 54 69 55 70 64 71 56 72 57 73 63 74
REMARK SMILES IDX 65 75 58 76 59 77 60 78 61 79 62 80 38 81 39 82 48 83 40 84
REMARK SMILES IDX 41 85 47 86 49 87 42 88 43 89 44 90 45 91 46 92
REMARK H PARENT 70 42 36 53
REMARK Flexibility Score: inf
ROOT
ATOM      1  C   UNL A   1      33.734  30.037  27.481  1.00  0.00     0.274 C 
ENDROOT
BRANCH   1   2
ATOM      2  O   UNL A   1      32.309  29.930  27.286  1.00  0.00    -0.462 OA
BRANCH   2   3
ATOM      3  C   UNL A   1      31.815  28.675  27.084  1.00  0.00     0.313 C 
ATOM      4  O   UNL A   1      31.312  27.986  27.966  1.00  0.00    -0.252 OA
BRANCH   3   5
ATOM      5  C   UNL A   1      32.034  28.180  25.651  1.00  0.00     0.129 C 
ATOM      6  C   UNL A   1      30.794  28.285  24.758  1.00  0.00     0.025 C 
BRANCH   5   7
ATOM      7  C   UNL A   1      32.650  26.788  25.641  1.00  0.00     0.002 A 
ATOM      8  C   UNL A   1      34.028  26.628  25.431  1.00  0.00     0.008 A 
ATOM      9  C   UNL A   1      31.899  25.642  25.916  1.00  0.00     0.127 A 
ATOM     10  C   UNL A   1      34.625  25.364  25.514  1.00  0.00     0.004 A 
ATOM     11  C   UNL A   1      32.488  24.381  25.996  1.00  0.00     0.043 A 
ATOM     12  F   UNL A   1      30.588  25.742  26.175  1.00  0.00    -0.207 F 
ATOM     13  C   UNL A   1      33.865  24.227  25.817  1.00  0.00    -0.044 A 
BRANCH  13  14
ATOM     14  C   UNL A   1      34.541  22.888  26.017  1.00  0.00     0.047 C 
BRANCH  14  15
ATOM     15  C   UNL A   1      35.140  22.207  24.787  1.00  0.00     0.060 C 
ATOM     16  C   UNL A   1      36.552  22.652  24.391  1.00  0.00     0.012 C 
ATOM     17  C   UNL A   1      35.313  20.719  24.982  1.00  0.00     0.136 C 
ATOM     18  C   UNL A   1      37.505  21.612  24.963  1.00  0.00     0.009 C 
ATOM     19  C   UNL A   1      36.754  20.290  24.898  1.00  0.00     0.076 C 
ATOM     20  O   UNL A   1      34.390  19.937  25.179  1.00  0.00    -0.299 OA
ENDBRANCH  14  15
ENDBRANCH  13  14
ENDBRANCH   5   7
ENDBRANCH   3   5
ENDBRANCH   2   3
ENDBRANCH   1   2
BRANCH   1  21
ATOM     21  C   UNL A   1      34.115  31.490  27.755  1.00  0.00     0.275 C 
BRANCH  21  22
ATOM     22  O   UNL A   1      35.540  31.566  27.906  1.00  0.00    -0.458 OA
BRANCH  22  23
ATOM     23  C   UNL A   1      36.026  31.303  29.143  1.00  0.00     0.338 C 
ATOM     24  O   UNL A   1      35.494  31.586  30.202  1.00  0.00    -0.246 OA
BRANCH  23  25
ATOM     25  C   UNL A   1      37.333  30.605  29.028  1.00  0.00     0.060 A 
ATOM     26  C   UNL A   1      38.175  30.454  30.130  1.00  0.00     0.016 A 
ATOM     27  C   UNL A   1      37.761  30.151  27.778  1.00  0.00     0.016 A 
ATOM     28  C   UNL A   1      39.461  29.936  29.964  1.00  0.00     0.010 A 
ATOM     29  C   UNL A   1      39.024  29.557  27.635  1.00  0.00     0.010 A 
ATOM     30  C   UNL A   1      39.917  29.482  28.717  1.00  0.00    -0.014 A 
BRANCH  30  31
ATOM     31  C   UNL A   1      41.324  29.000  28.534  1.00  0.00     0.031 A 
ATOM     32  C   UNL A   1      42.494  29.933  28.769  1.00  0.00     0.074 A 
ATOM     33  C   UNL A   1      41.591  27.717  28.209  1.00  0.00     0.049 A 
ATOM     34  N   UNL A   1      43.759  29.765  28.475  1.00  0.00    -0.248 NA
ATOM     35  C   UNL A   1      42.204  31.221  29.417  1.00  0.00     0.031 C 
ATOM     36  C   UNL A   1      40.596  26.662  28.011  1.00  0.00     0.029 A 
ATOM     37  N   UNL A   1      42.791  27.073  28.007  1.00  0.00    -0.354 N 
ATOM     38  C   UNL A   1      44.397  30.953  28.818  1.00  0.00     0.074 A 
ATOM     39  C   UNL A   1      43.384  31.825  29.373  1.00  0.00     0.031 C 
ATOM     40  C   UNL A   1      41.221  25.498  27.785  1.00  0.00     0.029 A 
ATOM     41  C   UNL A   1      42.657  25.739  27.701  1.00  0.00     0.049 A 
ATOM     42  H   UNL A   1      43.662  27.525  28.074  1.00  0.00     0.167 HD
ATOM     43  C   UNL A   1      45.701  31.291  28.672  1.00  0.00     0.037 A 
ATOM     44  C   UNL A   1      43.567  24.814  27.335  1.00  0.00     0.037 A 
ATOM     45  C   UNL A   1      46.729  30.407  28.186  1.00  0.00     0.049 A 
ATOM     46  C   UNL A   1      45.005  25.210  27.166  1.00  0.00     0.074 A 
ATOM     47  C   UNL A   1      48.077  30.670  27.999  1.00  0.00     0.029 A 
ATOM     48  N   UNL A   1      46.533  29.080  27.834  1.00  0.00    -0.354 N 
ATOM     49  N   UNL A   1      45.566  26.376  27.374  1.00  0.00    -0.248 NA
ATOM     50  C   UNL A   1      45.925  24.175  26.674  1.00  0.00     0.031 C 
ATOM     51  C   UNL A   1      48.691  29.510  27.514  1.00  0.00     0.029 A 
ATOM     52  C   UNL A   1      47.732  28.513  27.432  1.00  0.00     0.049 A 
ATOM     53  H   UNL A   1      45.669  28.609  27.866  1.00  0.00     0.167 HD
ATOM     54  C   UNL A   1      46.902  26.219  27.022  1.00  0.00     0.074 A 
ATOM     55  C   UNL A   1      47.073  24.838  26.620  1.00  0.00     0.031 C 
ATOM     56  C   UNL A   1      47.893  27.143  27.017  1.00  0.00     0.037 A 
BRANCH  43  57
ATOM     57  C   UNL A   1      46.096  32.705  28.999  1.00  0.00     0.058 A 
ATOM     58  C   UNL A   1      45.897  33.763  28.101  1.00  0.00     0.135 A 
ATOM     59  C   UNL A   1      46.639  33.007  30.260  1.00  0.00     0.135 A 
ATOM     60  F   UNL A   1      45.400  33.525  26.877  1.00  0.00    -0.206 F 
ATOM     61  C   UNL A   1      46.239  35.071  28.435  1.00  0.00     0.059 A 
ATOM     62  C   UNL A   1      46.968  34.308  30.623  1.00  0.00     0.059 A 
ATOM     63  F   UNL A   1      46.850  32.029  31.157  1.00  0.00    -0.206 F 
ATOM     64  C   UNL A   1      46.776  35.333  29.698  1.00  0.00     0.060 A 
BRANCH  64  65
ATOM     65  S   UNL A   1      47.208  37.034  30.123  1.00  0.00     0.124 S 
ATOM     66  O   UNL A   1      46.230  37.784  29.340  1.00  0.00    -0.237 OA
ATOM     67  O   UNL A   1      47.013  37.057  31.568  1.00  0.00    -0.237 OA
ATOM     68  O   UNL A   1      48.593  37.154  29.679  1.00  0.00    -0.744 OA
ENDBRANCH  64  65
ENDBRANCH  43  57
BRANCH  44  69
ATOM     69  C   UNL A   1      43.120  23.428  27.034  1.00  0.00     0.058 A 
ATOM     70  C   UNL A   1      42.938  22.998  25.712  1.00  0.00     0.135 A 
ATOM     71  C   UNL A   1      42.913  22.495  28.062  1.00  0.00     0.135 A 
ATOM     72  F   UNL A   1      43.104  23.860  24.698  1.00  0.00    -0.206 F 
ATOM     73  C   UNL A   1      42.580  21.687  25.418  1.00  0.00     0.059 A 
ATOM     74  C   UNL A   1      42.582  21.173  27.792  1.00  0.00     0.059 A 
ATOM     75  F   UNL A   1      43.080  22.858  29.343  1.00  0.00    -0.206 F 
ATOM     76  C   UNL A   1      42.415  20.778  26.465  1.00  0.00     0.060 A 
BRANCH  76  77
ATOM     77  S   UNL A   1      42.054  19.050  26.083  1.00  0.00     0.124 S 
ATOM     78  O   UNL A   1      42.882  18.832  24.903  1.00  0.00    -0.237 OA
ATOM     79  O   UNL A   1      42.480  18.363  27.298  1.00  0.00    -0.237 OA
ATOM     80  O   UNL A   1      40.611  19.058  25.853  1.00  0.00    -0.744 OA
ENDBRANCH  76  77
ENDBRANCH  44  69
BRANCH  56  81
ATOM     81  C   UNL A   1      49.250  26.693  26.562  1.00  0.00     0.058 A 
ATOM     82  C   UNL A   1      50.138  26.049  27.438  1.00  0.00     0.135 A 
ATOM     83  C   UNL A   1      49.660  26.882  25.233  1.00  0.00     0.135 A 
ATOM     84  F   UNL A   1      49.794  25.851  28.721  1.00  0.00    -0.206 F 
ATOM     85  C   UNL A   1      51.395  25.627  27.018  1.00  0.00     0.059 A 
ATOM     86  C   UNL A   1      50.906  26.451  24.787  1.00  0.00     0.059 A 
ATOM     87  F   UNL A   1      48.845  27.486  24.353  1.00  0.00    -0.206 F 
ATOM     88  C   UNL A   1      51.772  25.836  25.691  1.00  0.00     0.060 A 
BRANCH  88  89
ATOM     89  S   UNL A   1      53.399  25.272  25.150  1.00  0.00     0.124 S 
ATOM     90  O   UNL A   1      53.394  25.665  23.745  1.00  0.00    -0.237 OA
ATOM     91  O   UNL A   1      54.300  26.026  26.016  1.00  0.00    -0.237 OA
ATOM     92  O   UNL A   1      53.358  23.834  25.401  1.00  0.00    -0.744 OA
ENDBRANCH  88  89
ENDBRANCH  56  81
ENDBRANCH  30  31
ENDBRANCH  23  25
ENDBRANCH  22  23
ENDBRANCH  21  22
ENDBRANCH   1  21
TORSDOF 17
ENDMDL
