MODEL 1
REMARK VINA RESULT:      -9.5      0.000      0.000
REMARK SMILES CC(C)[N@@H+](C)Cc1cc2c(cc1Cl)C=C(C(=O)OCCOC(=O)c1ccc(-c3c4nc(c(-c5c(F)cc(S(=O)(=O)[O-])cc5F)c5ccc([nH]5)c(-c5c(F)cc(S(=O)(=O)[O-])cc5F)c5nc(c(-c6c(F)cc(S(=O)(=O)[O-])cc6F)c6ccc3[nH]6)C=C5)C=C4)cc1)[C@@H](C(F)(F)F)O2
REMARK SMILES IDX 19 1 18 2 16 3 17 4 15 5 7 6 8 7 12 8 9 9 11 10 13 11 10 12
REMARK SMILES IDX 95 13 14 14 90 15 6 16 4 17 5 18 2 20 1 21 3 22 91 23 92 24
REMARK SMILES IDX 93 25 94 26 20 27 21 28 22 29 23 30 24 31 25 32 89 33 26 34
REMARK SMILES IDX 88 35 27 36 28 37 29 38 82 39 30 40 87 41 81 42 83 43 31 44
REMARK SMILES IDX 86 45 80 46 79 47 32 49 66 50 45 51 65 52 46 53 49 54 64 55
REMARK SMILES IDX 84 56 47 57 48 58 63 60 85 61 50 62 33 63 34 64 43 65 35 66
REMARK SMILES IDX 36 67 42 68 44 69 37 70 38 71 39 72 40 73 41 74 67 75 68 76
REMARK SMILES IDX 77 77 69 78 70 79 76 80 78 81 71 82 72 83 73 84 74 85 75 86
REMARK SMILES IDX 51 87 52 88 61 89 53 90 54 91 60 92 62 93 55 94 56 95 57 96
REMARK SMILES IDX 58 97 59 98
REMARK H PARENT 4 19 83 48 49 59
REMARK Flexibility Score: inf
ROOT
ATOM      1  C   UNL A   1      33.910  34.421  29.225  1.00  0.00     0.275 C 
ENDROOT
BRANCH   1   2
ATOM      2  O   UNL A   1      34.735  33.683  30.153  1.00  0.00    -0.459 OA
BRANCH   2   3
ATOM      3  C   UNL A   1      34.753  34.176  31.413  1.00  0.00     0.338 C 
ATOM      4  O   UNL A   1      33.784  34.390  32.124  1.00  0.00    -0.246 OA
BRANCH   3   5
ATOM      5  C   UNL A   1      36.130  34.444  31.857  1.00  0.00     0.087 C 
ATOM      6  C   UNL A   1      41.147  34.445  32.224  1.00  0.00     0.029 A 
ATOM      7  C   UNL A   1      40.082  34.578  33.141  1.00  0.00     0.058 A 
ATOM      8  C   UNL A   1      40.833  34.182  30.881  1.00  0.00     0.050 A 
ATOM      9  C   UNL A   1      38.756  34.578  32.720  1.00  0.00     0.128 A 
ATOM     10  C   UNL A   1      39.504  34.175  30.458  1.00  0.00     0.033 A 
ATOM     11  Cl  UNL A   1      42.028  33.854  29.681  1.00  0.00    -0.084 Cl
ATOM     12  C   UNL A   1      38.472  34.395  31.375  1.00  0.00     0.019 A 
ATOM     13  O   UNL A   1      37.805  34.799  33.676  1.00  0.00    -0.475 OA
ATOM     14  C   UNL A   1      37.097  34.374  30.936  1.00  0.00     0.027 C 
ATOM     15  C   UNL A   1      36.404  34.606  33.323  1.00  0.00     0.316 C 
BRANCH   6  16
ATOM     16  C   UNL A   1      42.569  34.619  32.715  1.00  0.00     0.300 C 
BRANCH  16  17
ATOM     17  N   UNL A   1      42.893  35.885  33.397  1.00  0.00    -0.332 N 
ATOM     18  C   UNL A   1      43.810  36.754  32.673  1.00  0.00     0.333 C 
ATOM     19  H   UNL A   1      41.971  36.320  33.356  1.00  0.00     0.348 HD
BRANCH  17  20
ATOM     20  C   UNL A   1      43.142  35.868  34.849  1.00  0.00     0.177 C 
ATOM     21  C   UNL A   1      44.551  36.359  35.193  1.00  0.00     0.075 C 
ATOM     22  C   UNL A   1      42.106  36.566  35.740  1.00  0.00     0.075 C 
ENDBRANCH  17  20
ENDBRANCH  16  17
ENDBRANCH   6  16
BRANCH  15  23
ATOM     23  C   UNL A   1      35.851  33.435  34.147  1.00  0.00     0.430 C 
ATOM     24  F   UNL A   1      36.707  33.092  35.142  1.00  0.00    -0.167 F 
ATOM     25  F   UNL A   1      34.679  33.756  34.746  1.00  0.00    -0.167 F 
ATOM     26  F   UNL A   1      35.640  32.332  33.396  1.00  0.00    -0.167 F 
ENDBRANCH  15  23
ENDBRANCH   3   5
ENDBRANCH   2   3
ENDBRANCH   1   2
BRANCH   1  27
ATOM     27  C   UNL A   1      33.331  33.513  28.140  1.00  0.00     0.275 C 
BRANCH  27  28
ATOM     28  O   UNL A   1      34.380  32.858  27.405  1.00  0.00    -0.458 OA
BRANCH  28  29
ATOM     29  C   UNL A   1      34.357  31.507  27.452  1.00  0.00     0.338 C 
ATOM     30  O   UNL A   1      33.468  30.768  27.064  1.00  0.00    -0.246 OA
BRANCH  29  31
ATOM     31  C   UNL A   1      35.637  31.008  27.971  1.00  0.00     0.060 A 
ATOM     32  C   UNL A   1      36.740  31.844  28.099  1.00  0.00     0.016 A 
ATOM     33  C   UNL A   1      35.677  29.719  28.489  1.00  0.00     0.016 A 
ATOM     34  C   UNL A   1      37.885  31.364  28.748  1.00  0.00     0.010 A 
ATOM     35  C   UNL A   1      36.742  29.311  29.281  1.00  0.00     0.010 A 
ATOM     36  C   UNL A   1      37.885  30.107  29.387  1.00  0.00    -0.014 A 
BRANCH  36  37
ATOM     37  C   UNL A   1      39.067  29.597  30.142  1.00  0.00     0.031 A 
ATOM     38  C   UNL A   1      39.323  30.052  31.563  1.00  0.00     0.074 A 
ATOM     39  C   UNL A   1      39.943  28.767  29.538  1.00  0.00     0.049 A 
ATOM     40  N   UNL A   1      40.326  29.766  32.356  1.00  0.00    -0.248 NA
ATOM     41  C   UNL A   1      38.353  30.987  32.159  1.00  0.00     0.031 C 
ATOM     42  C   UNL A   1      39.866  28.320  28.145  1.00  0.00     0.029 A 
ATOM     43  N   UNL A   1      41.066  28.142  30.020  1.00  0.00    -0.354 N 
ATOM     44  C   UNL A   1      40.119  30.505  33.518  1.00  0.00     0.074 A 
ATOM     45  C   UNL A   1      38.943  31.314  33.297  1.00  0.00     0.031 C 
ATOM     46  C   UNL A   1      40.849  27.438  27.908  1.00  0.00     0.029 A 
ATOM     47  C   UNL A   1      41.660  27.295  29.112  1.00  0.00     0.049 A 
ATOM     48  H   UNL A   1      41.414  28.285  30.929  1.00  0.00     0.167 HD
ATOM     49  C   UNL A   1      40.813  30.481  34.681  1.00  0.00     0.037 A 
ATOM     50  C   UNL A   1      42.730  26.486  29.237  1.00  0.00     0.037 A 
ATOM     51  C   UNL A   1      41.945  29.625  34.919  1.00  0.00     0.049 A 
ATOM     52  C   UNL A   1      43.455  26.434  30.553  1.00  0.00     0.074 A 
ATOM     53  C   UNL A   1      42.680  29.473  36.082  1.00  0.00     0.029 A 
ATOM     54  N   UNL A   1      42.493  28.762  33.982  1.00  0.00    -0.354 N 
ATOM     55  N   UNL A   1      43.214  27.108  31.653  1.00  0.00    -0.248 NA
ATOM     56  C   UNL A   1      44.592  25.510  30.648  1.00  0.00     0.031 C 
ATOM     57  C   UNL A   1      43.692  28.539  35.838  1.00  0.00     0.029 A 
ATOM     58  C   UNL A   1      43.559  28.075  34.538  1.00  0.00     0.049 A 
ATOM     59  H   UNL A   1      42.171  28.654  33.057  1.00  0.00     0.167 HD
ATOM     60  C   UNL A   1      44.156  26.674  32.577  1.00  0.00     0.074 A 
ATOM     61  C   UNL A   1      44.958  25.667  31.913  1.00  0.00     0.031 C 
ATOM     62  C   UNL A   1      44.342  27.074  33.861  1.00  0.00     0.037 A 
BRANCH  49  63
ATOM     63  C   UNL A   1      40.343  31.375  35.799  1.00  0.00     0.058 A 
ATOM     64  C   UNL A   1      41.059  32.525  36.173  1.00  0.00     0.135 A 
ATOM     65  C   UNL A   1      39.142  31.109  36.480  1.00  0.00     0.135 A 
ATOM     66  F   UNL A   1      42.222  32.823  35.570  1.00  0.00    -0.206 F 
ATOM     67  C   UNL A   1      40.620  33.360  37.195  1.00  0.00     0.059 A 
ATOM     68  C   UNL A   1      38.667  31.949  37.484  1.00  0.00     0.059 A 
ATOM     69  F   UNL A   1      38.414  30.026  36.166  1.00  0.00    -0.206 F 
ATOM     70  C   UNL A   1      39.421  33.066  37.843  1.00  0.00     0.060 A 
BRANCH  70  71
ATOM     71  S   UNL A   1      38.858  34.177  39.151  1.00  0.00     0.124 S 
ATOM     72  O   UNL A   1      39.868  33.950  40.181  1.00  0.00    -0.237 OA
ATOM     73  O   UNL A   1      38.905  35.479  38.494  1.00  0.00    -0.237 OA
ATOM     74  O   UNL A   1      37.521  33.684  39.466  1.00  0.00    -0.744 OA
ENDBRANCH  70  71
ENDBRANCH  49  63
BRANCH  50  75
ATOM     75  C   UNL A   1      43.132  25.613  28.100  1.00  0.00     0.058 A 
ATOM     76  C   UNL A   1      44.133  26.021  27.204  1.00  0.00     0.135 A 
ATOM     77  C   UNL A   1      42.566  24.344  27.912  1.00  0.00     0.135 A 
ATOM     78  F   UNL A   1      44.702  27.229  27.339  1.00  0.00    -0.206 F 
ATOM     79  C   UNL A   1      44.555  25.204  26.160  1.00  0.00     0.059 A 
ATOM     80  C   UNL A   1      42.989  23.498  26.890  1.00  0.00     0.059 A 
ATOM     81  F   UNL A   1      41.619  23.899  28.752  1.00  0.00    -0.206 F 
ATOM     82  C   UNL A   1      43.983  23.940  26.016  1.00  0.00     0.060 A 
BRANCH  82  83
ATOM     83  S   UNL A   1      44.592  22.862  24.702  1.00  0.00     0.124 S 
ATOM     84  O   UNL A   1      43.398  22.689  23.884  1.00  0.00    -0.237 OA
ATOM     85  O   UNL A   1      45.657  23.670  24.114  1.00  0.00    -0.237 OA
ATOM     86  O   UNL A   1      45.041  21.674  25.421  1.00  0.00    -0.744 OA
ENDBRANCH  82  83
ENDBRANCH  50  75
BRANCH  62  87
ATOM     87  C   UNL A   1      45.437  26.400  34.639  1.00  0.00     0.058 A 
ATOM     88  C   UNL A   1      46.738  26.920  34.682  1.00  0.00     0.135 A 
ATOM     89  C   UNL A   1      45.166  25.243  35.387  1.00  0.00     0.135 A 
ATOM     90  F   UNL A   1      47.049  28.024  33.983  1.00  0.00    -0.206 F 
ATOM     91  C   UNL A   1      47.744  26.300  35.414  1.00  0.00     0.059 A 
ATOM     92  C   UNL A   1      46.149  24.621  36.150  1.00  0.00     0.059 A 
ATOM     93  F   UNL A   1      43.932  24.713  35.392  1.00  0.00    -0.206 F 
ATOM     94  C   UNL A   1      47.439  25.149  36.144  1.00  0.00     0.060 A 
BRANCH  94  95
ATOM     95  S   UNL A   1      48.753  24.358  37.098  1.00  0.00     0.124 S 
ATOM     96  O   UNL A   1      49.561  23.759  36.042  1.00  0.00    -0.237 OA
ATOM     97  O   UNL A   1      49.357  25.490  37.794  1.00  0.00    -0.237 OA
ATOM     98  O   UNL A   1      48.034  23.416  37.950  1.00  0.00    -0.744 OA
ENDBRANCH  94  95
ENDBRANCH  62  87
ENDBRANCH  36  37
ENDBRANCH  29  31
ENDBRANCH  28  29
ENDBRANCH  27  28
ENDBRANCH   1  27
TORSDOF 18
ENDMDL
MODEL 2
REMARK VINA RESULT:      -9.5      4.484     11.669
REMARK SMILES CC(C)[N@@H+](C)Cc1cc2c(cc1Cl)C=C(C(=O)OCCOC(=O)c1ccc(-c3c4nc(c(-c5c(F)cc(S(=O)(=O)[O-])cc5F)c5ccc([nH]5)c(-c5c(F)cc(S(=O)(=O)[O-])cc5F)c5nc(c(-c6c(F)cc(S(=O)(=O)[O-])cc6F)c6ccc3[nH]6)C=C5)C=C4)cc1)[C@@H](C(F)(F)F)O2
REMARK SMILES IDX 19 1 18 2 16 3 17 4 15 5 7 6 8 7 12 8 9 9 11 10 13 11 10 12
REMARK SMILES IDX 95 13 14 14 90 15 6 16 4 17 5 18 2 20 1 21 3 22 91 23 92 24
REMARK SMILES IDX 93 25 94 26 20 27 21 28 22 29 23 30 24 31 25 32 89 33 26 34
REMARK SMILES IDX 88 35 27 36 28 37 29 38 82 39 30 40 87 41 81 42 83 43 31 44
REMARK SMILES IDX 86 45 80 46 79 47 32 49 66 50 45 51 65 52 46 53 49 54 64 55
REMARK SMILES IDX 84 56 47 57 48 58 63 60 85 61 50 62 33 63 34 64 43 65 35 66
REMARK SMILES IDX 36 67 42 68 44 69 37 70 38 71 39 72 40 73 41 74 67 75 68 76
REMARK SMILES IDX 77 77 69 78 70 79 76 80 78 81 71 82 72 83 73 84 74 85 75 86
REMARK SMILES IDX 51 87 52 88 61 89 53 90 54 91 60 92 62 93 55 94 56 95 57 96
REMARK SMILES IDX 58 97 59 98
REMARK H PARENT 4 19 83 48 49 59
REMARK Flexibility Score: inf
ROOT
ATOM      1  C   UNL A   1      39.064  21.918  26.122  1.00  0.00     0.275 C 
ENDROOT
BRANCH   1   2
ATOM      2  O   UNL A   1      37.752  22.499  25.963  1.00  0.00    -0.459 OA
BRANCH   2   3
ATOM      3  C   UNL A   1      37.087  22.107  24.853  1.00  0.00     0.338 C 
ATOM      4  O   UNL A   1      37.462  21.283  24.034  1.00  0.00    -0.246 OA
BRANCH   3   5
ATOM      5  C   UNL A   1      35.803  22.814  24.727  1.00  0.00     0.087 C 
ATOM      6  C   UNL A   1      31.994  26.023  25.432  1.00  0.00     0.029 A 
ATOM      7  C   UNL A   1      32.102  24.690  24.981  1.00  0.00     0.058 A 
ATOM      8  C   UNL A   1      33.162  26.667  25.872  1.00  0.00     0.050 A 
ATOM      9  C   UNL A   1      33.337  24.064  24.850  1.00  0.00     0.128 A 
ATOM     10  C   UNL A   1      34.401  26.039  25.747  1.00  0.00     0.033 A 
ATOM     11  Cl  UNL A   1      33.160  28.240  26.582  1.00  0.00    -0.084 Cl
ATOM     12  C   UNL A   1      34.486  24.748  25.217  1.00  0.00     0.019 A 
ATOM     13  O   UNL A   1      33.337  22.803  24.325  1.00  0.00    -0.475 OA
ATOM     14  C   UNL A   1      35.768  24.097  25.102  1.00  0.00     0.027 C 
ATOM     15  C   UNL A   1      34.575  22.034  24.358  1.00  0.00     0.316 C 
BRANCH   6  16
ATOM     16  C   UNL A   1      30.644  26.707  25.397  1.00  0.00     0.300 C 
BRANCH  16  17
ATOM     17  N   UNL A   1      30.298  27.445  24.168  1.00  0.00    -0.332 N 
ATOM     18  C   UNL A   1      30.355  26.658  22.944  1.00  0.00     0.333 C 
ATOM     19  H   UNL A   1      29.312  27.619  24.367  1.00  0.00     0.348 HD
BRANCH  17  20
ATOM     20  C   UNL A   1      30.806  28.817  23.994  1.00  0.00     0.177 C 
ATOM     21  C   UNL A   1      32.045  28.858  23.095  1.00  0.00     0.075 C 
ATOM     22  C   UNL A   1      29.793  29.881  23.549  1.00  0.00     0.075 C 
ENDBRANCH  17  20
ENDBRANCH  16  17
ENDBRANCH   6  16
BRANCH  15  23
ATOM     23  C   UNL A   1      34.368  20.817  25.270  1.00  0.00     0.430 C 
ATOM     24  F   UNL A   1      35.096  19.756  24.840  1.00  0.00    -0.167 F 
ATOM     25  F   UNL A   1      34.774  21.068  26.538  1.00  0.00    -0.167 F 
ATOM     26  F   UNL A   1      33.076  20.427  25.322  1.00  0.00    -0.167 F 
ENDBRANCH  15  23
ENDBRANCH   3   5
ENDBRANCH   2   3
ENDBRANCH   1   2
BRANCH   1  27
ATOM     27  C   UNL A   1      40.068  22.931  26.674  1.00  0.00     0.275 C 
BRANCH  27  28
ATOM     28  O   UNL A   1      39.540  24.267  26.600  1.00  0.00    -0.458 OA
BRANCH  28  29
ATOM     29  C   UNL A   1      40.460  25.239  26.406  1.00  0.00     0.338 C 
ATOM     30  O   UNL A   1      41.082  25.476  25.386  1.00  0.00    -0.246 OA
BRANCH  29  31
ATOM     31  C   UNL A   1      40.559  26.074  27.611  1.00  0.00     0.060 A 
ATOM     32  C   UNL A   1      41.446  27.142  27.679  1.00  0.00     0.016 A 
ATOM     33  C   UNL A   1      39.627  25.879  28.623  1.00  0.00     0.016 A 
ATOM     34  C   UNL A   1      41.389  28.004  28.781  1.00  0.00     0.010 A 
ATOM     35  C   UNL A   1      39.458  26.832  29.618  1.00  0.00     0.010 A 
ATOM     36  C   UNL A   1      40.365  27.887  29.743  1.00  0.00    -0.014 A 
BRANCH  36  37
ATOM     37  C   UNL A   1      40.239  28.831  30.892  1.00  0.00     0.031 A 
ATOM     38  C   UNL A   1      41.151  28.703  32.094  1.00  0.00     0.074 A 
ATOM     39  C   UNL A   1      39.271  29.772  30.885  1.00  0.00     0.049 A 
ATOM     40  N   UNL A   1      41.153  29.390  33.209  1.00  0.00    -0.248 NA
ATOM     41  C   UNL A   1      42.165  27.634  32.063  1.00  0.00     0.031 C 
ATOM     42  C   UNL A   1      38.268  29.949  29.832  1.00  0.00     0.029 A 
ATOM     43  N   UNL A   1      38.978  30.765  31.786  1.00  0.00    -0.354 N 
ATOM     44  C   UNL A   1      42.137  28.818  34.011  1.00  0.00     0.074 A 
ATOM     45  C   UNL A   1      42.656  27.679  33.290  1.00  0.00     0.031 C 
ATOM     46  C   UNL A   1      37.521  31.028  30.110  1.00  0.00     0.029 A 
ATOM     47  C   UNL A   1      37.953  31.591  31.384  1.00  0.00     0.049 A 
ATOM     48  H   UNL A   1      39.455  30.875  32.639  1.00  0.00     0.167 HD
ATOM     49  C   UNL A   1      42.603  29.228  35.214  1.00  0.00     0.037 A 
ATOM     50  C   UNL A   1      37.428  32.685  31.968  1.00  0.00     0.037 A 
ATOM     51  C   UNL A   1      42.130  30.402  35.898  1.00  0.00     0.049 A 
ATOM     52  C   UNL A   1      37.995  33.154  33.280  1.00  0.00     0.074 A 
ATOM     53  C   UNL A   1      42.578  30.944  37.090  1.00  0.00     0.029 A 
ATOM     54  N   UNL A   1      41.112  31.226  35.440  1.00  0.00    -0.354 N 
ATOM     55  N   UNL A   1      38.957  32.623  33.998  1.00  0.00    -0.248 NA
ATOM     56  C   UNL A   1      37.411  34.371  33.857  1.00  0.00     0.031 C 
ATOM     57  C   UNL A   1      41.810  32.080  37.367  1.00  0.00     0.029 A 
ATOM     58  C   UNL A   1      40.916  32.272  36.325  1.00  0.00     0.049 A 
ATOM     59  H   UNL A   1      40.605  31.087  34.607  1.00  0.00     0.167 HD
ATOM     60  C   UNL A   1      39.107  33.454  35.102  1.00  0.00     0.074 A 
ATOM     61  C   UNL A   1      38.151  34.531  34.947  1.00  0.00     0.031 C 
ATOM     62  C   UNL A   1      39.960  33.336  36.151  1.00  0.00     0.037 A 
BRANCH  49  63
ATOM     63  C   UNL A   1      43.710  28.426  35.850  1.00  0.00     0.058 A 
ATOM     64  C   UNL A   1      45.063  28.722  35.610  1.00  0.00     0.135 A 
ATOM     65  C   UNL A   1      43.423  27.379  36.741  1.00  0.00     0.135 A 
ATOM     66  F   UNL A   1      45.401  29.701  34.755  1.00  0.00    -0.206 F 
ATOM     67  C   UNL A   1      46.087  27.993  36.206  1.00  0.00     0.059 A 
ATOM     68  C   UNL A   1      44.432  26.657  37.375  1.00  0.00     0.059 A 
ATOM     69  F   UNL A   1      42.149  27.051  37.010  1.00  0.00    -0.206 F 
ATOM     70  C   UNL A   1      45.762  26.964  37.090  1.00  0.00     0.060 A 
BRANCH  70  71
ATOM     71  S   UNL A   1      47.108  26.047  37.871  1.00  0.00     0.124 S 
ATOM     72  O   UNL A   1      47.473  25.109  36.814  1.00  0.00    -0.237 OA
ATOM     73  O   UNL A   1      48.080  27.100  38.147  1.00  0.00    -0.237 OA
ATOM     74  O   UNL A   1      46.479  25.453  39.046  1.00  0.00    -0.744 OA
ENDBRANCH  70  71
ENDBRANCH  49  63
BRANCH  50  75
ATOM     75  C   UNL A   1      36.347  33.443  31.280  1.00  0.00     0.058 A 
ATOM     76  C   UNL A   1      36.618  34.175  30.114  1.00  0.00     0.135 A 
ATOM     77  C   UNL A   1      35.023  33.416  31.740  1.00  0.00     0.135 A 
ATOM     78  F   UNL A   1      37.871  34.236  29.636  1.00  0.00    -0.206 F 
ATOM     79  C   UNL A   1      35.617  34.856  29.430  1.00  0.00     0.059 A 
ATOM     80  C   UNL A   1      33.998  34.068  31.059  1.00  0.00     0.059 A 
ATOM     81  F   UNL A   1      34.707  32.715  32.841  1.00  0.00    -0.206 F 
ATOM     82  C   UNL A   1      34.307  34.790  29.906  1.00  0.00     0.060 A 
BRANCH  82  83
ATOM     83  S   UNL A   1      33.005  35.618  28.968  1.00  0.00     0.124 S 
ATOM     84  O   UNL A   1      33.774  36.566  28.170  1.00  0.00    -0.237 OA
ATOM     85  O   UNL A   1      32.404  34.507  28.236  1.00  0.00    -0.237 OA
ATOM     86  O   UNL A   1      32.162  36.205  30.006  1.00  0.00    -0.744 OA
ENDBRANCH  82  83
ENDBRANCH  50  75
BRANCH  62  87
ATOM     87  C   UNL A   1      39.917  34.413  37.197  1.00  0.00     0.058 A 
ATOM     88  C   UNL A   1      39.067  34.327  38.309  1.00  0.00     0.135 A 
ATOM     89  C   UNL A   1      40.771  35.525  37.106  1.00  0.00     0.135 A 
ATOM     90  F   UNL A   1      38.230  33.285  38.442  1.00  0.00    -0.206 F 
ATOM     91  C   UNL A   1      39.040  35.321  39.281  1.00  0.00     0.059 A 
ATOM     92  C   UNL A   1      40.782  36.517  38.081  1.00  0.00     0.059 A 
ATOM     93  F   UNL A   1      41.614  35.647  36.069  1.00  0.00    -0.206 F 
ATOM     94  C   UNL A   1      39.901  36.413  39.157  1.00  0.00     0.060 A 
BRANCH  94  95
ATOM     95  S   UNL A   1      39.862  37.692  40.431  1.00  0.00     0.124 S 
ATOM     96  O   UNL A   1      39.380  36.941  41.585  1.00  0.00    -0.237 OA
ATOM     97  O   UNL A   1      41.258  38.117  40.489  1.00  0.00    -0.237 OA
ATOM     98  O   UNL A   1      38.934  38.681  39.892  1.00  0.00    -0.744 OA
ENDBRANCH  94  95
ENDBRANCH  62  87
ENDBRANCH  36  37
ENDBRANCH  29  31
ENDBRANCH  28  29
ENDBRANCH  27  28
ENDBRANCH   1  27
TORSDOF 18
ENDMDL
MODEL 3
REMARK VINA RESULT:      -9.4      4.915      8.359
REMARK SMILES CC(C)[N@@H+](C)Cc1cc2c(cc1Cl)C=C(C(=O)OCCOC(=O)c1ccc(-c3c4nc(c(-c5c(F)cc(S(=O)(=O)[O-])cc5F)c5ccc([nH]5)c(-c5c(F)cc(S(=O)(=O)[O-])cc5F)c5nc(c(-c6c(F)cc(S(=O)(=O)[O-])cc6F)c6ccc3[nH]6)C=C5)C=C4)cc1)[C@@H](C(F)(F)F)O2
REMARK SMILES IDX 19 1 18 2 16 3 17 4 15 5 7 6 8 7 12 8 9 9 11 10 13 11 10 12
REMARK SMILES IDX 95 13 14 14 90 15 6 16 4 17 5 18 2 20 1 21 3 22 91 23 92 24
REMARK SMILES IDX 93 25 94 26 20 27 21 28 22 29 23 30 24 31 25 32 89 33 26 34
REMARK SMILES IDX 88 35 27 36 28 37 29 38 82 39 30 40 87 41 81 42 83 43 31 44
REMARK SMILES IDX 86 45 80 46 79 47 32 49 66 50 45 51 65 52 46 53 49 54 64 55
REMARK SMILES IDX 84 56 47 57 48 58 63 60 85 61 50 62 33 63 34 64 43 65 35 66
REMARK SMILES IDX 36 67 42 68 44 69 37 70 38 71 39 72 40 73 41 74 67 75 68 76
REMARK SMILES IDX 77 77 69 78 70 79 76 80 78 81 71 82 72 83 73 84 74 85 75 86
REMARK SMILES IDX 51 87 52 88 61 89 53 90 54 91 60 92 62 93 55 94 56 95 57 96
REMARK SMILES IDX 58 97 59 98
REMARK H PARENT 4 19 83 48 49 59
REMARK Flexibility Score: inf
ROOT
ATOM      1  C   UNL A   1      32.272  29.537  25.418  1.00  0.00     0.275 C 
ENDROOT
BRANCH   1   2
ATOM      2  O   UNL A   1      32.725  28.259  25.916  1.00  0.00    -0.459 OA
BRANCH   2   3
ATOM      3  C   UNL A   1      33.345  27.480  25.001  1.00  0.00     0.338 C 
ATOM      4  O   UNL A   1      34.035  27.862  24.069  1.00  0.00    -0.246 OA
BRANCH   3   5
ATOM      5  C   UNL A   1      33.083  26.054  25.254  1.00  0.00     0.087 C 
ATOM      6  C   UNL A   1      33.463  21.039  25.335  1.00  0.00     0.029 A 
ATOM      7  C   UNL A   1      32.391  21.957  25.348  1.00  0.00     0.058 A 
ATOM      8  C   UNL A   1      34.766  21.549  25.205  1.00  0.00     0.050 A 
ATOM      9  C   UNL A   1      32.608  23.330  25.360  1.00  0.00     0.128 A 
ATOM     10  C   UNL A   1      34.985  22.926  25.211  1.00  0.00     0.033 A 
ATOM     11  Cl  UNL A   1      36.157  20.543  25.031  1.00  0.00    -0.084 Cl
ATOM     12  C   UNL A   1      33.908  23.811  25.310  1.00  0.00     0.019 A 
ATOM     13  O   UNL A   1      31.505  24.129  25.458  1.00  0.00    -0.475 OA
ATOM     14  C   UNL A   1      34.139  25.235  25.303  1.00  0.00     0.027 C 
ATOM     15  C   UNL A   1      31.665  25.565  25.270  1.00  0.00     0.316 C 
BRANCH   6  16
ATOM     16  C   UNL A   1      33.173  19.562  25.491  1.00  0.00     0.300 C 
BRANCH  16  17
ATOM     17  N   UNL A   1      33.353  18.713  24.300  1.00  0.00    -0.332 N 
ATOM     18  C   UNL A   1      32.303  18.832  23.298  1.00  0.00     0.333 C 
ATOM     19  H   UNL A   1      34.185  19.162  23.917  1.00  0.00     0.348 HD
BRANCH  17  20
ATOM     20  C   UNL A   1      33.825  17.328  24.477  1.00  0.00     0.177 C 
ATOM     21  C   UNL A   1      32.873  16.507  25.351  1.00  0.00     0.075 C 
ATOM     22  C   UNL A   1      34.180  16.547  23.204  1.00  0.00     0.075 C 
ENDBRANCH  17  20
ENDBRANCH  16  17
ENDBRANCH   6  16
BRANCH  15  23
ATOM     23  C   UNL A   1      30.897  25.980  24.007  1.00  0.00     0.430 C 
ATOM     24  F   UNL A   1      31.730  26.086  22.943  1.00  0.00    -0.167 F 
ATOM     25  F   UNL A   1      29.960  25.063  23.668  1.00  0.00    -0.167 F 
ATOM     26  F   UNL A   1      30.273  27.170  24.153  1.00  0.00    -0.167 F 
ENDBRANCH  15  23
ENDBRANCH   3   5
ENDBRANCH   2   3
ENDBRANCH   1   2
BRANCH   1  27
ATOM     27  C   UNL A   1      32.222  30.589  26.527  1.00  0.00     0.275 C 
BRANCH  27  28
ATOM     28  O   UNL A   1      33.307  30.408  27.454  1.00  0.00    -0.458 OA
BRANCH  28  29
ATOM     29  C   UNL A   1      34.080  31.499  27.654  1.00  0.00     0.338 C 
ATOM     30  O   UNL A   1      33.746  32.668  27.571  1.00  0.00    -0.246 OA
BRANCH  29  31
ATOM     31  C   UNL A   1      35.418  31.084  28.094  1.00  0.00     0.060 A 
ATOM     32  C   UNL A   1      36.473  31.987  28.152  1.00  0.00     0.016 A 
ATOM     33  C   UNL A   1      35.570  29.803  28.612  1.00  0.00     0.016 A 
ATOM     34  C   UNL A   1      37.684  31.584  28.729  1.00  0.00     0.010 A 
ATOM     35  C   UNL A   1      36.706  29.467  29.337  1.00  0.00     0.010 A 
ATOM     36  C   UNL A   1      37.802  30.333  29.370  1.00  0.00    -0.014 A 
BRANCH  36  37
ATOM     37  C   UNL A   1      39.058  29.903  30.052  1.00  0.00     0.031 A 
ATOM     38  C   UNL A   1      39.483  30.548  31.354  1.00  0.00     0.074 A 
ATOM     39  C   UNL A   1      39.848  28.971  29.478  1.00  0.00     0.049 A 
ATOM     40  N   UNL A   1      40.567  30.348  32.061  1.00  0.00    -0.248 NA
ATOM     41  C   UNL A   1      38.600  31.585  31.915  1.00  0.00     0.031 C 
ATOM     42  C   UNL A   1      39.603  28.333  28.182  1.00  0.00     0.029 A 
ATOM     43  N   UNL A   1      41.012  28.388  29.915  1.00  0.00    -0.354 N 
ATOM     44  C   UNL A   1      40.506  31.251  33.119  1.00  0.00     0.074 A 
ATOM     45  C   UNL A   1      39.322  32.053  32.920  1.00  0.00     0.031 C 
ATOM     46  C   UNL A   1      40.542  27.399  27.965  1.00  0.00     0.029 A 
ATOM     47  C   UNL A   1      41.486  27.405  29.077  1.00  0.00     0.049 A 
ATOM     48  H   UNL A   1      41.464  28.649  30.748  1.00  0.00     0.167 HD
ATOM     49  C   UNL A   1      41.330  31.372  34.187  1.00  0.00     0.037 A 
ATOM     50  C   UNL A   1      42.553  26.591  29.195  1.00  0.00     0.037 A 
ATOM     51  C   UNL A   1      42.472  30.527  34.417  1.00  0.00     0.049 A 
ATOM     52  C   UNL A   1      43.426  26.707  30.414  1.00  0.00     0.074 A 
ATOM     53  C   UNL A   1      43.335  30.520  35.498  1.00  0.00     0.029 A 
ATOM     54  N   UNL A   1      42.897  29.524  33.558  1.00  0.00    -0.354 N 
ATOM     55  N   UNL A   1      43.322  27.537  31.425  1.00  0.00    -0.248 NA
ATOM     56  C   UNL A   1      44.555  25.773  30.511  1.00  0.00     0.031 C 
ATOM     57  C   UNL A   1      44.302  29.533  35.278  1.00  0.00     0.029 A 
ATOM     58  C   UNL A   1      44.012  28.893  34.083  1.00  0.00     0.049 A 
ATOM     59  H   UNL A   1      42.469  29.295  32.701  1.00  0.00     0.167 HD
ATOM     60  C   UNL A   1      44.361  27.211  32.289  1.00  0.00     0.074 A 
ATOM     61  C   UNL A   1      45.068  26.098  31.691  1.00  0.00     0.031 C 
ATOM     62  C   UNL A   1      44.699  27.784  33.472  1.00  0.00     0.037 A 
BRANCH  49  63
ATOM     63  C   UNL A   1      41.004  32.429  35.211  1.00  0.00     0.058 A 
ATOM     64  C   UNL A   1      40.123  32.174  36.275  1.00  0.00     0.135 A 
ATOM     65  C   UNL A   1      41.608  33.696  35.158  1.00  0.00     0.135 A 
ATOM     66  F   UNL A   1      39.501  30.987  36.371  1.00  0.00    -0.206 F 
ATOM     67  C   UNL A   1      39.830  33.143  37.230  1.00  0.00     0.059 A 
ATOM     68  C   UNL A   1      41.355  34.670  36.121  1.00  0.00     0.059 A 
ATOM     69  F   UNL A   1      42.460  33.997  34.165  1.00  0.00    -0.206 F 
ATOM     70  C   UNL A   1      40.454  34.388  37.147  1.00  0.00     0.060 A 
BRANCH  70  71
ATOM     71  S   UNL A   1      40.078  35.622  38.411  1.00  0.00     0.124 S 
ATOM     72  O   UNL A   1      41.328  35.659  39.163  1.00  0.00    -0.237 OA
ATOM     73  O   UNL A   1      39.787  36.806  37.609  1.00  0.00    -0.237 OA
ATOM     74  O   UNL A   1      38.937  35.050  39.118  1.00  0.00    -0.744 OA
ENDBRANCH  70  71
ENDBRANCH  49  63
BRANCH  50  75
ATOM     75  C   UNL A   1      42.810  25.555  28.157  1.00  0.00     0.058 A 
ATOM     76  C   UNL A   1      43.759  25.774  27.147  1.00  0.00     0.135 A 
ATOM     77  C   UNL A   1      42.154  24.315  28.179  1.00  0.00     0.135 A 
ATOM     78  F   UNL A   1      44.410  26.946  27.081  1.00  0.00    -0.206 F 
ATOM     79  C   UNL A   1      44.046  24.803  26.193  1.00  0.00     0.059 A 
ATOM     80  C   UNL A   1      42.443  23.319  27.251  1.00  0.00     0.059 A 
ATOM     81  F   UNL A   1      41.251  24.049  29.136  1.00  0.00    -0.206 F 
ATOM     82  C   UNL A   1      43.388  23.575  26.258  1.00  0.00     0.060 A 
BRANCH  82  83
ATOM     83  S   UNL A   1      43.825  22.298  25.058  1.00  0.00     0.124 S 
ATOM     84  O   UNL A   1      45.228  22.061  25.377  1.00  0.00    -0.237 OA
ATOM     85  O   UNL A   1      42.901  21.223  25.406  1.00  0.00    -0.237 OA
ATOM     86  O   UNL A   1      43.571  22.942  23.772  1.00  0.00    -0.744 OA
ENDBRANCH  82  83
ENDBRANCH  50  75
BRANCH  62  87
ATOM     87  C   UNL A   1      45.870  27.197  34.211  1.00  0.00     0.058 A 
ATOM     88  C   UNL A   1      47.173  27.682  34.032  1.00  0.00     0.135 A 
ATOM     89  C   UNL A   1      45.674  26.164  35.142  1.00  0.00     0.135 A 
ATOM     90  F   UNL A   1      47.413  28.668  33.151  1.00  0.00    -0.206 F 
ATOM     91  C   UNL A   1      48.249  27.143  34.726  1.00  0.00     0.059 A 
ATOM     92  C   UNL A   1      46.732  25.629  35.870  1.00  0.00     0.059 A 
ATOM     93  F   UNL A   1      44.444  25.675  35.362  1.00  0.00    -0.206 F 
ATOM     94  C   UNL A   1      48.018  26.115  35.643  1.00  0.00     0.060 A 
BRANCH  94  95
ATOM     95  S   UNL A   1      49.425  25.431  36.545  1.00  0.00     0.124 S 
ATOM     96  O   UNL A   1      49.693  24.212  35.790  1.00  0.00    -0.237 OA
ATOM     97  O   UNL A   1      50.422  26.489  36.417  1.00  0.00    -0.237 OA
ATOM     98  O   UNL A   1      48.900  25.233  37.893  1.00  0.00    -0.744 OA
ENDBRANCH  94  95
ENDBRANCH  62  87
ENDBRANCH  36  37
ENDBRANCH  29  31
ENDBRANCH  28  29
ENDBRANCH  27  28
ENDBRANCH   1  27
TORSDOF 18
ENDMDL
