MODEL 1
REMARK VINA RESULT:     -11.7      0.000      0.000
REMARK SMILES NC(=O)C1CC[NH+](Cc2ccc(C(=O)OCCOC(=O)c3ccc(-c4c5nc(c(-c6c(F)cc(S(=O)(=O)[O-])cc6F)c6ccc([nH]6)c(-c6c(F)cc(S(=O)(=O)[O-])cc6F)c6nc(c(-c7c(F)cc(S(=O)(=O)[O-])cc7F)c7ccc4[nH]7)C=C6)C=C5)cc3)cc2)CC1
REMARK SMILES IDX 16 1 15 2 13 3 14 4 12 5 9 6 10 7 88 8 11 9 87 10 8 11 7 12
REMARK SMILES IDX 4 13 5 14 90 15 6 16 89 17 2 19 1 20 3 23 17 24 18 25 19 26
REMARK SMILES IDX 20 27 21 28 22 29 86 30 23 31 85 32 24 33 25 34 26 35 79 36
REMARK SMILES IDX 27 37 84 38 78 39 80 40 28 41 83 42 77 43 76 44 29 46 63 47
REMARK SMILES IDX 42 48 62 49 43 50 46 51 61 52 81 53 44 54 45 55 60 57 82 58
REMARK SMILES IDX 47 59 30 60 31 61 40 62 32 63 33 64 39 65 41 66 34 67 35 68
REMARK SMILES IDX 36 69 37 70 38 71 64 72 65 73 74 74 66 75 67 76 73 77 75 78
REMARK SMILES IDX 68 79 69 80 70 81 71 82 72 83 48 84 49 85 58 86 50 87 51 88
REMARK SMILES IDX 57 89 59 90 52 91 53 92 54 93 55 94 56 95
REMARK H PARENT 7 18 1 21 1 22 80 45 46 56
REMARK Flexibility Score: inf
ROOT
ATOM      1  C   UNL A   1      33.258  31.424  27.272  1.00  0.00     0.275 C 
ENDROOT
BRANCH   1   2
ATOM      2  O   UNL A   1      33.138  29.997  27.125  1.00  0.00    -0.458 OA
BRANCH   2   3
ATOM      3  C   UNL A   1      32.208  29.590  26.223  1.00  0.00     0.338 C 
ATOM      4  O   UNL A   1      31.522  30.312  25.525  1.00  0.00    -0.246 OA
BRANCH   3   5
ATOM      5  C   UNL A   1      32.173  28.108  26.125  1.00  0.00     0.060 A 
ATOM      6  C   UNL A   1      31.946  25.310  26.140  1.00  0.00     0.006 A 
ATOM      7  C   UNL A   1      30.814  26.108  25.940  1.00  0.00     0.010 A 
ATOM      8  C   UNL A   1      33.208  25.924  26.215  1.00  0.00     0.010 A 
ATOM      9  C   UNL A   1      30.922  27.494  25.977  1.00  0.00     0.016 A 
ATOM     10  C   UNL A   1      33.323  27.318  26.206  1.00  0.00     0.016 A 
BRANCH   6  11
ATOM     11  C   UNL A   1      31.770  23.833  26.443  1.00  0.00     0.299 C 
BRANCH  11  12
ATOM     12  N   UNL A   1      32.757  22.939  25.782  1.00  0.00    -0.331 N 
ATOM     13  C   UNL A   1      33.836  20.367  24.827  1.00  0.00     0.089 C 
ATOM     14  C   UNL A   1      34.400  21.106  26.045  1.00  0.00     0.075 C 
ATOM     15  C   UNL A   1      33.213  21.388  23.870  1.00  0.00     0.075 C 
ATOM     16  C   UNL A   1      33.329  21.965  26.714  1.00  0.00     0.263 C 
ATOM     17  C   UNL A   1      32.203  22.296  24.577  1.00  0.00     0.263 C 
ATOM     18  H   UNL A   1      33.526  23.532  25.469  1.00  0.00     0.348 HD
BRANCH  13  19
ATOM     19  C   UNL A   1      32.846  19.272  25.226  1.00  0.00     0.220 C 
ATOM     20  N   UNL A   1      33.003  18.767  26.484  1.00  0.00    -0.369 N 
ATOM     21  H   UNL A   1      32.401  18.059  26.808  1.00  0.00     0.159 HD
ATOM     22  H   UNL A   1      33.718  19.112  27.067  1.00  0.00     0.159 HD
ATOM     23  O   UNL A   1      31.979  18.810  24.494  1.00  0.00    -0.275 OA
ENDBRANCH  13  19
ENDBRANCH  11  12
ENDBRANCH   6  11
ENDBRANCH   3   5
ENDBRANCH   2   3
ENDBRANCH   1   2
BRANCH   1  24
ATOM     24  C   UNL A   1      34.557  31.783  27.991  1.00  0.00     0.275 C 
BRANCH  24  25
ATOM     25  O   UNL A   1      35.317  30.594  28.275  1.00  0.00    -0.458 OA
BRANCH  25  26
ATOM     26  C   UNL A   1      36.053  30.623  29.409  1.00  0.00     0.338 C 
ATOM     27  O   UNL A   1      35.718  31.055  30.501  1.00  0.00    -0.246 OA
BRANCH  26  28
ATOM     28  C   UNL A   1      37.369  30.014  29.160  1.00  0.00     0.060 A 
ATOM     29  C   UNL A   1      38.160  29.650  30.247  1.00  0.00     0.016 A 
ATOM     30  C   UNL A   1      37.875  29.918  27.867  1.00  0.00     0.016 A 
ATOM     31  C   UNL A   1      39.483  29.261  30.059  1.00  0.00     0.010 A 
ATOM     32  C   UNL A   1      39.177  29.437  27.673  1.00  0.00     0.010 A 
ATOM     33  C   UNL A   1      40.008  29.130  28.768  1.00  0.00    -0.014 A 
BRANCH  33  34
ATOM     34  C   UNL A   1      41.424  28.705  28.563  1.00  0.00     0.031 A 
ATOM     35  C   UNL A   1      42.541  29.711  28.679  1.00  0.00     0.074 A 
ATOM     36  C   UNL A   1      41.718  27.419  28.278  1.00  0.00     0.049 A 
ATOM     37  N   UNL A   1      43.802  29.591  28.348  1.00  0.00    -0.248 NA
ATOM     38  C   UNL A   1      42.189  31.032  29.223  1.00  0.00     0.031 C 
ATOM     39  C   UNL A   1      40.747  26.327  28.179  1.00  0.00     0.029 A 
ATOM     40  N   UNL A   1      42.922  26.811  28.016  1.00  0.00    -0.354 N 
ATOM     41  C   UNL A   1      44.379  30.833  28.587  1.00  0.00     0.074 A 
ATOM     42  C   UNL A   1      43.330  31.695  29.089  1.00  0.00     0.031 C 
ATOM     43  C   UNL A   1      41.393  25.184  27.908  1.00  0.00     0.029 A 
ATOM     44  C   UNL A   1      42.811  25.471  27.721  1.00  0.00     0.049 A 
ATOM     45  H   UNL A   1      43.784  27.288  28.037  1.00  0.00     0.167 HD
ATOM     46  C   UNL A   1      45.665  31.220  28.403  1.00  0.00     0.037 A 
ATOM     47  C   UNL A   1      43.728  24.580  27.297  1.00  0.00     0.037 A 
ATOM     48  C   UNL A   1      46.718  30.340  27.957  1.00  0.00     0.049 A 
ATOM     49  C   UNL A   1      45.143  25.035  27.075  1.00  0.00     0.074 A 
ATOM     50  C   UNL A   1      48.056  30.631  27.759  1.00  0.00     0.029 A 
ATOM     51  N   UNL A   1      46.553  28.996  27.654  1.00  0.00    -0.354 N 
ATOM     52  N   UNL A   1      45.662  26.226  27.253  1.00  0.00    -0.248 NA
ATOM     53  C   UNL A   1      46.093  24.032  26.573  1.00  0.00     0.031 C 
ATOM     54  C   UNL A   1      48.694  29.472  27.302  1.00  0.00     0.029 A 
ATOM     55  C   UNL A   1      47.762  28.448  27.257  1.00  0.00     0.049 A 
ATOM     56  H   UNL A   1      45.701  28.504  27.712  1.00  0.00     0.167 HD
ATOM     57  C   UNL A   1      47.000  26.115  26.891  1.00  0.00     0.074 A 
ATOM     58  C   UNL A   1      47.215  24.736  26.505  1.00  0.00     0.031 C 
ATOM     59  C   UNL A   1      47.961  27.071  26.876  1.00  0.00     0.037 A 
BRANCH  46  60
ATOM     60  C   UNL A   1      46.004  32.665  28.647  1.00  0.00     0.058 A 
ATOM     61  C   UNL A   1      46.416  33.136  29.903  1.00  0.00     0.135 A 
ATOM     62  C   UNL A   1      45.942  33.592  27.591  1.00  0.00     0.135 A 
ATOM     63  F   UNL A   1      46.479  32.298  30.950  1.00  0.00    -0.206 F 
ATOM     64  C   UNL A   1      46.724  34.477  30.113  1.00  0.00     0.059 A 
ATOM     65  C   UNL A   1      46.271  34.933  27.771  1.00  0.00     0.059 A 
ATOM     66  F   UNL A   1      45.558  33.197  26.367  1.00  0.00    -0.206 F 
ATOM     67  C   UNL A   1      46.644  35.369  29.041  1.00  0.00     0.060 A 
BRANCH  67  68
ATOM     68  S   UNL A   1      47.041  37.107  29.328  1.00  0.00     0.124 S 
ATOM     69  O   UNL A   1      48.155  37.000  30.266  1.00  0.00    -0.237 OA
ATOM     70  O   UNL A   1      47.383  37.577  27.990  1.00  0.00    -0.237 OA
ATOM     71  O   UNL A   1      45.806  37.652  29.884  1.00  0.00    -0.744 OA
ENDBRANCH  67  68
ENDBRANCH  46  60
BRANCH  47  72
ATOM     72  C   UNL A   1      43.317  23.180  27.006  1.00  0.00     0.058 A 
ATOM     73  C   UNL A   1      43.237  22.707  25.688  1.00  0.00     0.135 A 
ATOM     74  C   UNL A   1      43.028  22.279  28.042  1.00  0.00     0.135 A 
ATOM     75  F   UNL A   1      43.489  23.533  24.661  1.00  0.00    -0.206 F 
ATOM     76  C   UNL A   1      42.883  21.391  25.408  1.00  0.00     0.059 A 
ATOM     77  C   UNL A   1      42.701  20.951  27.789  1.00  0.00     0.059 A 
ATOM     78  F   UNL A   1      43.099  22.679  29.321  1.00  0.00    -0.206 F 
ATOM     79  C   UNL A   1      42.623  20.517  26.467  1.00  0.00     0.060 A 
BRANCH  79  80
ATOM     80  S   UNL A   1      42.232  18.793  26.099  1.00  0.00     0.124 S 
ATOM     81  O   UNL A   1      42.462  18.158  27.391  1.00  0.00    -0.237 OA
ATOM     82  O   UNL A   1      40.840  18.877  25.669  1.00  0.00    -0.237 OA
ATOM     83  O   UNL A   1      43.184  18.451  25.047  1.00  0.00    -0.744 OA
ENDBRANCH  79  80
ENDBRANCH  47  72
BRANCH  59  84
ATOM     84  C   UNL A   1      49.340  26.655  26.450  1.00  0.00     0.058 A 
ATOM     85  C   UNL A   1      50.218  26.007  27.332  1.00  0.00     0.135 A 
ATOM     86  C   UNL A   1      49.769  26.862  25.129  1.00  0.00     0.135 A 
ATOM     87  F   UNL A   1      49.859  25.794  28.608  1.00  0.00    -0.206 F 
ATOM     88  C   UNL A   1      51.483  25.596  26.925  1.00  0.00     0.059 A 
ATOM     89  C   UNL A   1      51.020  26.438  24.694  1.00  0.00     0.059 A 
ATOM     90  F   UNL A   1      48.963  27.470  24.244  1.00  0.00    -0.206 F 
ATOM     91  C   UNL A   1      51.874  25.815  25.602  1.00  0.00     0.060 A 
BRANCH  91  92
ATOM     92  S   UNL A   1      53.503  25.242  25.074  1.00  0.00     0.124 S 
ATOM     93  O   UNL A   1      53.424  23.816  25.374  1.00  0.00    -0.237 OA
ATOM     94  O   UNL A   1      53.515  25.591  23.658  1.00  0.00    -0.237 OA
ATOM     95  O   UNL A   1      54.421  26.010  25.910  1.00  0.00    -0.744 OA
ENDBRANCH  91  92
ENDBRANCH  59  84
ENDBRANCH  33  34
ENDBRANCH  26  28
ENDBRANCH  25  26
ENDBRANCH  24  25
ENDBRANCH   1  24
TORSDOF 17
ENDMDL
MODEL 2
REMARK VINA RESULT:     -11.5      6.664     12.287
REMARK SMILES NC(=O)C1CC[NH+](Cc2ccc(C(=O)OCCOC(=O)c3ccc(-c4c5nc(c(-c6c(F)cc(S(=O)(=O)[O-])cc6F)c6ccc([nH]6)c(-c6c(F)cc(S(=O)(=O)[O-])cc6F)c6nc(c(-c7c(F)cc(S(=O)(=O)[O-])cc7F)c7ccc4[nH]7)C=C6)C=C5)cc3)cc2)CC1
REMARK SMILES IDX 16 1 15 2 13 3 14 4 12 5 9 6 10 7 88 8 11 9 87 10 8 11 7 12
REMARK SMILES IDX 4 13 5 14 90 15 6 16 89 17 2 19 1 20 3 23 17 24 18 25 19 26
REMARK SMILES IDX 20 27 21 28 22 29 86 30 23 31 85 32 24 33 25 34 26 35 79 36
REMARK SMILES IDX 27 37 84 38 78 39 80 40 28 41 83 42 77 43 76 44 29 46 63 47
REMARK SMILES IDX 42 48 62 49 43 50 46 51 61 52 81 53 44 54 45 55 60 57 82 58
REMARK SMILES IDX 47 59 30 60 31 61 40 62 32 63 33 64 39 65 41 66 34 67 35 68
REMARK SMILES IDX 36 69 37 70 38 71 64 72 65 73 74 74 66 75 67 76 73 77 75 78
REMARK SMILES IDX 68 79 69 80 70 81 71 82 72 83 48 84 49 85 58 86 50 87 51 88
REMARK SMILES IDX 57 89 59 90 52 91 53 92 54 93 55 94 56 95
REMARK H PARENT 7 18 1 21 1 22 80 45 46 56
REMARK Flexibility Score: inf
ROOT
ATOM      1  C   UNL A   1      39.753  21.203  26.242  1.00  0.00     0.275 C 
ENDROOT
BRANCH   1   2
ATOM      2  O   UNL A   1      38.629  21.838  25.604  1.00  0.00    -0.458 OA
BRANCH   2   3
ATOM      3  C   UNL A   1      37.774  20.992  24.973  1.00  0.00     0.338 C 
ATOM      4  O   UNL A   1      37.925  19.792  24.834  1.00  0.00    -0.246 OA
BRANCH   3   5
ATOM      5  C   UNL A   1      36.553  21.706  24.520  1.00  0.00     0.060 A 
ATOM      6  C   UNL A   1      34.333  23.261  23.793  1.00  0.00     0.006 A 
ATOM      7  C   UNL A   1      35.622  23.652  23.413  1.00  0.00     0.010 A 
ATOM      8  C   UNL A   1      34.158  22.026  24.439  1.00  0.00     0.010 A 
ATOM      9  C   UNL A   1      36.724  22.903  23.812  1.00  0.00     0.016 A 
ATOM     10  C   UNL A   1      35.263  21.249  24.801  1.00  0.00     0.016 A 
BRANCH   6  11
ATOM     11  C   UNL A   1      33.187  24.249  23.657  1.00  0.00     0.299 C 
BRANCH  11  12
ATOM     12  N   UNL A   1      33.602  25.668  23.512  1.00  0.00    -0.331 N 
ATOM     13  C   UNL A   1      33.194  28.557  23.087  1.00  0.00     0.089 C 
ATOM     14  C   UNL A   1      33.788  27.635  22.019  1.00  0.00     0.075 C 
ATOM     15  C   UNL A   1      33.502  27.978  24.472  1.00  0.00     0.075 C 
ATOM     16  C   UNL A   1      33.286  26.202  22.185  1.00  0.00     0.263 C 
ATOM     17  C   UNL A   1      33.067  26.515  24.593  1.00  0.00     0.263 C 
ATOM     18  H   UNL A   1      34.618  25.687  23.601  1.00  0.00     0.348 HD
BRANCH  13  19
ATOM     19  C   UNL A   1      31.697  28.789  22.879  1.00  0.00     0.220 C 
ATOM     20  N   UNL A   1      31.372  29.769  21.988  1.00  0.00    -0.369 N 
ATOM     21  H   UNL A   1      30.427  29.974  21.804  1.00  0.00     0.159 HD
ATOM     22  H   UNL A   1      32.083  30.272  21.529  1.00  0.00     0.159 HD
ATOM     23  O   UNL A   1      30.806  28.196  23.475  1.00  0.00    -0.275 OA
ENDBRANCH  13  19
ENDBRANCH  11  12
ENDBRANCH   6  11
ENDBRANCH   3   5
ENDBRANCH   2   3
ENDBRANCH   1   2
BRANCH   1  24
ATOM     24  C   UNL A   1      40.923  22.178  26.362  1.00  0.00     0.275 C 
BRANCH  24  25
ATOM     25  O   UNL A   1      40.440  23.518  26.564  1.00  0.00    -0.458 OA
BRANCH  25  26
ATOM     26  C   UNL A   1      41.347  24.505  26.383  1.00  0.00     0.338 C 
ATOM     27  O   UNL A   1      42.243  24.547  25.555  1.00  0.00    -0.246 OA
BRANCH  26  28
ATOM     28  C   UNL A   1      41.093  25.591  27.342  1.00  0.00     0.060 A 
ATOM     29  C   UNL A   1      41.919  26.712  27.324  1.00  0.00     0.016 A 
ATOM     30  C   UNL A   1      40.129  25.452  28.336  1.00  0.00     0.016 A 
ATOM     31  C   UNL A   1      41.841  27.664  28.337  1.00  0.00     0.010 A 
ATOM     32  C   UNL A   1      39.989  26.456  29.303  1.00  0.00     0.010 A 
ATOM     33  C   UNL A   1      40.862  27.561  29.333  1.00  0.00    -0.014 A 
BRANCH  33  34
ATOM     34  C   UNL A   1      40.771  28.584  30.416  1.00  0.00     0.031 A 
ATOM     35  C   UNL A   1      41.721  28.536  31.586  1.00  0.00     0.074 A 
ATOM     36  C   UNL A   1      39.842  29.562  30.357  1.00  0.00     0.049 A 
ATOM     37  N   UNL A   1      41.683  29.201  32.713  1.00  0.00    -0.248 NA
ATOM     38  C   UNL A   1      42.855  27.604  31.480  1.00  0.00     0.031 C 
ATOM     39  C   UNL A   1      38.886  29.761  29.266  1.00  0.00     0.029 A 
ATOM     40  N   UNL A   1      39.548  30.574  31.239  1.00  0.00    -0.354 N 
ATOM     41  C   UNL A   1      42.747  28.728  33.472  1.00  0.00     0.074 A 
ATOM     42  C   UNL A   1      43.412  27.716  32.678  1.00  0.00     0.031 C 
ATOM     43  C   UNL A   1      38.134  30.841  29.528  1.00  0.00     0.029 A 
ATOM     44  C   UNL A   1      38.488  31.358  30.845  1.00  0.00     0.049 A 
ATOM     45  H   UNL A   1      40.048  30.725  32.074  1.00  0.00     0.167 HD
ATOM     46  C   UNL A   1      43.133  29.101  34.717  1.00  0.00     0.037 A 
ATOM     47  C   UNL A   1      37.834  32.347  31.485  1.00  0.00     0.037 A 
ATOM     48  C   UNL A   1      42.500  30.148  35.479  1.00  0.00     0.049 A 
ATOM     49  C   UNL A   1      38.261  32.728  32.875  1.00  0.00     0.074 A 
ATOM     50  C   UNL A   1      42.828  30.615  36.740  1.00  0.00     0.029 A 
ATOM     51  N   UNL A   1      41.419  30.902  35.045  1.00  0.00    -0.354 N 
ATOM     52  N   UNL A   1      39.235  32.234  33.601  1.00  0.00    -0.248 NA
ATOM     53  C   UNL A   1      37.487  33.785  33.542  1.00  0.00     0.031 C 
ATOM     54  C   UNL A   1      41.924  31.626  37.083  1.00  0.00     0.029 A 
ATOM     55  C   UNL A   1      41.059  31.819  36.019  1.00  0.00     0.049 A 
ATOM     56  H   UNL A   1      40.972  30.800  34.173  1.00  0.00     0.167 HD
ATOM     57  C   UNL A   1      39.196  32.924  34.808  1.00  0.00     0.074 A 
ATOM     58  C   UNL A   1      38.116  33.883  34.706  1.00  0.00     0.031 C 
ATOM     59  C   UNL A   1      39.981  32.771  35.902  1.00  0.00     0.037 A 
BRANCH  46  60
ATOM     60  C   UNL A   1      44.270  28.348  35.353  1.00  0.00     0.058 A 
ATOM     61  C   UNL A   1      45.605  28.765  35.231  1.00  0.00     0.135 A 
ATOM     62  C   UNL A   1      44.012  27.202  36.125  1.00  0.00     0.135 A 
ATOM     63  F   UNL A   1      45.909  29.844  34.493  1.00  0.00    -0.206 F 
ATOM     64  C   UNL A   1      46.646  28.056  35.823  1.00  0.00     0.059 A 
ATOM     65  C   UNL A   1      45.035  26.493  36.749  1.00  0.00     0.059 A 
ATOM     66  F   UNL A   1      42.755  26.760  36.279  1.00  0.00    -0.206 F 
ATOM     67  C   UNL A   1      46.351  26.919  36.578  1.00  0.00     0.060 A 
BRANCH  67  68
ATOM     68  S   UNL A   1      47.711  26.005  37.337  1.00  0.00     0.124 S 
ATOM     69  O   UNL A   1      46.995  24.931  38.019  1.00  0.00    -0.237 OA
ATOM     70  O   UNL A   1      48.504  25.602  36.180  1.00  0.00    -0.237 OA
ATOM     71  O   UNL A   1      48.339  26.992  38.210  1.00  0.00    -0.744 OA
ENDBRANCH  67  68
ENDBRANCH  46  60
BRANCH  47  72
ATOM     72  C   UNL A   1      36.671  33.007  30.832  1.00  0.00     0.058 A 
ATOM     73  C   UNL A   1      35.360  32.756  31.260  1.00  0.00     0.135 A 
ATOM     74  C   UNL A   1      36.853  33.926  29.786  1.00  0.00     0.135 A 
ATOM     75  F   UNL A   1      35.131  31.874  32.245  1.00  0.00    -0.206 F 
ATOM     76  C   UNL A   1      34.269  33.392  30.674  1.00  0.00     0.059 A 
ATOM     77  C   UNL A   1      35.782  34.596  29.205  1.00  0.00     0.059 A 
ATOM     78  F   UNL A   1      38.089  34.208  29.346  1.00  0.00    -0.206 F 
ATOM     79  C   UNL A   1      34.491  34.317  29.651  1.00  0.00     0.060 A 
BRANCH  79  80
ATOM     80  S   UNL A   1      33.078  35.189  28.942  1.00  0.00     0.124 S 
ATOM     81  O   UNL A   1      32.598  34.223  27.961  1.00  0.00    -0.237 OA
ATOM     82  O   UNL A   1      32.223  35.391  30.108  1.00  0.00    -0.237 OA
ATOM     83  O   UNL A   1      33.675  36.404  28.395  1.00  0.00    -0.744 OA
ENDBRANCH  79  80
ENDBRANCH  47  72
BRANCH  59  84
ATOM     84  C   UNL A   1      39.717  33.677  37.071  1.00  0.00     0.058 A 
ATOM     85  C   UNL A   1      38.831  33.313  38.098  1.00  0.00     0.135 A 
ATOM     86  C   UNL A   1      40.394  34.901  37.190  1.00  0.00     0.135 A 
ATOM     87  F   UNL A   1      38.152  32.157  38.026  1.00  0.00    -0.206 F 
ATOM     88  C   UNL A   1      38.612  34.141  39.194  1.00  0.00     0.059 A 
ATOM     89  C   UNL A   1      40.208  35.734  38.289  1.00  0.00     0.059 A 
ATOM     90  F   UNL A   1      41.257  35.291  36.238  1.00  0.00    -0.206 F 
ATOM     91  C   UNL A   1      39.307  35.349  39.281  1.00  0.00     0.060 A 
BRANCH  91  92
ATOM     92  S   UNL A   1      39.044  36.398  40.727  1.00  0.00     0.124 S 
ATOM     93  O   UNL A   1      40.393  36.486  41.275  1.00  0.00    -0.237 OA
ATOM     94  O   UNL A   1      38.521  37.625  40.135  1.00  0.00    -0.237 OA
ATOM     95  O   UNL A   1      38.088  35.640  41.527  1.00  0.00    -0.744 OA
ENDBRANCH  91  92
ENDBRANCH  59  84
ENDBRANCH  33  34
ENDBRANCH  26  28
ENDBRANCH  25  26
ENDBRANCH  24  25
ENDBRANCH   1  24
TORSDOF 17
ENDMDL
MODEL 3
REMARK VINA RESULT:     -11.4      2.441      3.371
REMARK SMILES NC(=O)C1CC[NH+](Cc2ccc(C(=O)OCCOC(=O)c3ccc(-c4c5nc(c(-c6c(F)cc(S(=O)(=O)[O-])cc6F)c6ccc([nH]6)c(-c6c(F)cc(S(=O)(=O)[O-])cc6F)c6nc(c(-c7c(F)cc(S(=O)(=O)[O-])cc7F)c7ccc4[nH]7)C=C6)C=C5)cc3)cc2)CC1
REMARK SMILES IDX 16 1 15 2 13 3 14 4 12 5 9 6 10 7 88 8 11 9 87 10 8 11 7 12
REMARK SMILES IDX 4 13 5 14 90 15 6 16 89 17 2 19 1 20 3 23 17 24 18 25 19 26
REMARK SMILES IDX 20 27 21 28 22 29 86 30 23 31 85 32 24 33 25 34 26 35 79 36
REMARK SMILES IDX 27 37 84 38 78 39 80 40 28 41 83 42 77 43 76 44 29 46 63 47
REMARK SMILES IDX 42 48 62 49 43 50 46 51 61 52 81 53 44 54 45 55 60 57 82 58
REMARK SMILES IDX 47 59 30 60 31 61 40 62 32 63 33 64 39 65 41 66 34 67 35 68
REMARK SMILES IDX 36 69 37 70 38 71 64 72 65 73 74 74 66 75 67 76 73 77 75 78
REMARK SMILES IDX 68 79 69 80 70 81 71 82 72 83 48 84 49 85 58 86 50 87 51 88
REMARK SMILES IDX 57 89 59 90 52 91 53 92 54 93 55 94 56 95
REMARK H PARENT 7 18 1 21 1 22 80 45 46 56
REMARK Flexibility Score: inf
ROOT
ATOM      1  C   UNL A   1      34.730  33.666  30.307  1.00  0.00     0.275 C 
ENDROOT
BRANCH   1   2
ATOM      2  O   UNL A   1      33.977  32.817  29.421  1.00  0.00    -0.458 OA
BRANCH   2   3
ATOM      3  C   UNL A   1      34.546  32.609  28.205  1.00  0.00     0.338 C 
ATOM      4  O   UNL A   1      35.336  33.347  27.648  1.00  0.00    -0.246 OA
BRANCH   3   5
ATOM      5  C   UNL A   1      34.138  31.295  27.643  1.00  0.00     0.060 A 
ATOM      6  C   UNL A   1      33.185  28.807  26.761  1.00  0.00     0.006 A 
ATOM      7  C   UNL A   1      32.348  29.929  26.744  1.00  0.00     0.010 A 
ATOM      8  C   UNL A   1      34.535  28.969  27.114  1.00  0.00     0.010 A 
ATOM      9  C   UNL A   1      32.810  31.151  27.223  1.00  0.00     0.016 A 
ATOM     10  C   UNL A   1      35.012  30.209  27.552  1.00  0.00     0.016 A 
BRANCH   6  11
ATOM     11  C   UNL A   1      32.581  27.427  26.571  1.00  0.00     0.299 C 
BRANCH  11  12
ATOM     12  N   UNL A   1      32.159  27.119  25.179  1.00  0.00    -0.331 N 
ATOM     13  C   UNL A   1      30.954  27.686  22.549  1.00  0.00     0.089 C 
ATOM     14  C   UNL A   1      30.276  26.805  23.603  1.00  0.00     0.075 C 
ATOM     15  C   UNL A   1      32.472  27.619  22.746  1.00  0.00     0.075 C 
ATOM     16  C   UNL A   1      30.706  27.201  25.014  1.00  0.00     0.263 C 
ATOM     17  C   UNL A   1      32.878  27.937  24.187  1.00  0.00     0.263 C 
ATOM     18  H   UNL A   1      32.420  26.149  25.002  1.00  0.00     0.348 HD
BRANCH  13  19
ATOM     19  C   UNL A   1      30.432  29.123  22.578  1.00  0.00     0.220 C 
ATOM     20  N   UNL A   1      30.946  29.955  21.626  1.00  0.00    -0.369 N 
ATOM     21  H   UNL A   1      30.656  30.894  21.585  1.00  0.00     0.159 HD
ATOM     22  H   UNL A   1      31.608  29.615  20.981  1.00  0.00     0.159 HD
ATOM     23  O   UNL A   1      29.639  29.565  23.400  1.00  0.00    -0.275 OA
ENDBRANCH  13  19
ENDBRANCH  11  12
ENDBRANCH   6  11
ENDBRANCH   3   5
ENDBRANCH   2   3
ENDBRANCH   1   2
BRANCH   1  24
ATOM     24  C   UNL A   1      35.421  32.836  31.387  1.00  0.00     0.275 C 
BRANCH  24  25
ATOM     25  O   UNL A   1      36.544  32.127  30.832  1.00  0.00    -0.458 OA
BRANCH  25  26
ATOM     26  C   UNL A   1      36.642  30.822  31.174  1.00  0.00     0.338 C 
ATOM     27  O   UNL A   1      35.841  30.159  31.812  1.00  0.00    -0.246 OA
BRANCH  26  28
ATOM     28  C   UNL A   1      37.889  30.262  30.630  1.00  0.00     0.060 A 
ATOM     29  C   UNL A   1      38.759  29.595  31.489  1.00  0.00     0.016 A 
ATOM     30  C   UNL A   1      38.260  30.502  29.310  1.00  0.00     0.016 A 
ATOM     31  C   UNL A   1      40.032  29.229  31.061  1.00  0.00     0.010 A 
ATOM     32  C   UNL A   1      39.507  30.051  28.854  1.00  0.00     0.010 A 
ATOM     33  C   UNL A   1      40.420  29.435  29.731  1.00  0.00    -0.014 A 
BRANCH  33  34
ATOM     34  C   UNL A   1      41.782  29.037  29.268  1.00  0.00     0.031 A 
ATOM     35  C   UNL A   1      42.904  30.043  29.261  1.00  0.00     0.074 A 
ATOM     36  C   UNL A   1      42.023  27.774  28.855  1.00  0.00     0.049 A 
ATOM     37  N   UNL A   1      44.093  29.956  28.720  1.00  0.00    -0.248 NA
ATOM     38  C   UNL A   1      42.650  31.323  29.941  1.00  0.00     0.031 C 
ATOM     39  C   UNL A   1      41.047  26.682  28.848  1.00  0.00     0.029 A 
ATOM     40  N   UNL A   1      43.166  27.195  28.358  1.00  0.00    -0.354 N 
ATOM     41  C   UNL A   1      44.704  31.186  28.940  1.00  0.00     0.074 A 
ATOM     42  C   UNL A   1      43.753  32.004  29.663  1.00  0.00     0.031 C 
ATOM     43  C   UNL A   1      41.637  25.565  28.399  1.00  0.00     0.029 A 
ATOM     44  C   UNL A   1      43.005  25.876  28.000  1.00  0.00     0.049 A 
ATOM     45  H   UNL A   1      44.020  27.678  28.267  1.00  0.00     0.167 HD
ATOM     46  C   UNL A   1      45.942  31.596  28.570  1.00  0.00     0.037 A 
ATOM     47  C   UNL A   1      43.838  25.023  27.372  1.00  0.00     0.037 A 
ATOM     48  C   UNL A   1      46.904  30.757  27.900  1.00  0.00     0.049 A 
ATOM     49  C   UNL A   1      45.197  25.505  26.948  1.00  0.00     0.074 A 
ATOM     50  C   UNL A   1      48.192  31.071  27.502  1.00  0.00     0.029 A 
ATOM     51  N   UNL A   1      46.690  29.433  27.542  1.00  0.00    -0.354 N 
ATOM     52  N   UNL A   1      45.740  26.686  27.115  1.00  0.00    -0.248 NA
ATOM     53  C   UNL A   1      46.049  24.544  26.232  1.00  0.00     0.031 C 
ATOM     54  C   UNL A   1      48.743  29.950  26.872  1.00  0.00     0.029 A 
ATOM     55  C   UNL A   1      47.815  28.923  26.916  1.00  0.00     0.049 A 
ATOM     56  H   UNL A   1      45.859  28.931  27.708  1.00  0.00     0.167 HD
ATOM     57  C   UNL A   1      46.999  26.611  26.530  1.00  0.00     0.074 A 
ATOM     58  C   UNL A   1      47.145  25.262  26.025  1.00  0.00     0.031 C 
ATOM     59  C   UNL A   1      47.946  27.575  26.419  1.00  0.00     0.037 A 
BRANCH  46  60
ATOM     60  C   UNL A   1      46.319  33.025  28.848  1.00  0.00     0.058 A 
ATOM     61  C   UNL A   1      47.001  33.407  30.014  1.00  0.00     0.135 A 
ATOM     62  C   UNL A   1      46.016  34.029  27.911  1.00  0.00     0.135 A 
ATOM     63  F   UNL A   1      47.303  32.493  30.949  1.00  0.00    -0.206 F 
ATOM     64  C   UNL A   1      47.340  34.735  30.257  1.00  0.00     0.059 A 
ATOM     65  C   UNL A   1      46.369  35.360  28.121  1.00  0.00     0.059 A 
ATOM     66  F   UNL A   1      45.367  33.721  26.777  1.00  0.00    -0.206 F 
ATOM     67  C   UNL A   1      47.016  35.705  29.306  1.00  0.00     0.060 A 
BRANCH  67  68
ATOM     68  S   UNL A   1      47.457  37.425  29.636  1.00  0.00     0.124 S 
ATOM     69  O   UNL A   1      46.159  38.084  29.524  1.00  0.00    -0.237 OA
ATOM     70  O   UNL A   1      48.017  37.354  30.982  1.00  0.00    -0.237 OA
ATOM     71  O   UNL A   1      48.413  37.741  28.579  1.00  0.00    -0.744 OA
ENDBRANCH  67  68
ENDBRANCH  46  60
BRANCH  47  72
ATOM     72  C   UNL A   1      43.382  23.641  27.062  1.00  0.00     0.058 A 
ATOM     73  C   UNL A   1      43.019  23.272  25.759  1.00  0.00     0.135 A 
ATOM     74  C   UNL A   1      43.332  22.654  28.060  1.00  0.00     0.135 A 
ATOM     75  F   UNL A   1      43.037  24.182  24.773  1.00  0.00    -0.206 F 
ATOM     76  C   UNL A   1      42.622  21.974  25.455  1.00  0.00     0.059 A 
ATOM     77  C   UNL A   1      42.965  21.343  27.775  1.00  0.00     0.059 A 
ATOM     78  F   UNL A   1      43.677  22.954  29.321  1.00  0.00    -0.206 F 
ATOM     79  C   UNL A   1      42.604  21.013  26.469  1.00  0.00     0.060 A 
BRANCH  79  80
ATOM     80  S   UNL A   1      42.153  19.314  26.055  1.00  0.00     0.124 S 
ATOM     81  O   UNL A   1      42.987  19.066  24.885  1.00  0.00    -0.237 OA
ATOM     82  O   UNL A   1      42.524  18.592  27.267  1.00  0.00    -0.237 OA
ATOM     83  O   UNL A   1      40.718  19.402  25.803  1.00  0.00    -0.744 OA
ENDBRANCH  79  80
ENDBRANCH  47  72
BRANCH  59  84
ATOM     84  C   UNL A   1      49.234  27.200  25.743  1.00  0.00     0.058 A 
ATOM     85  C   UNL A   1      49.390  27.299  24.352  1.00  0.00     0.135 A 
ATOM     86  C   UNL A   1      50.341  26.784  26.501  1.00  0.00     0.135 A 
ATOM     87  F   UNL A   1      48.360  27.683  23.582  1.00  0.00    -0.206 F 
ATOM     88  C   UNL A   1      50.594  26.979  23.733  1.00  0.00     0.059 A 
ATOM     89  C   UNL A   1      51.561  26.482  25.905  1.00  0.00     0.059 A 
ATOM     90  F   UNL A   1      50.244  26.680  27.836  1.00  0.00    -0.206 F 
ATOM     91  C   UNL A   1      51.675  26.573  24.519  1.00  0.00     0.060 A 
BRANCH  91  92
ATOM     92  S   UNL A   1      53.244  26.199  23.708  1.00  0.00     0.124 S 
ATOM     93  O   UNL A   1      52.835  26.091  22.311  1.00  0.00    -0.237 OA
ATOM     94  O   UNL A   1      54.056  27.364  24.041  1.00  0.00    -0.237 OA
ATOM     95  O   UNL A   1      53.663  24.951  24.338  1.00  0.00    -0.744 OA
ENDBRANCH  91  92
ENDBRANCH  59  84
ENDBRANCH  33  34
ENDBRANCH  26  28
ENDBRANCH  25  26
ENDBRANCH  24  25
ENDBRANCH   1  24
TORSDOF 17
ENDMDL
