MODEL 1
REMARK VINA RESULT:     -10.5      0.000      0.000
REMARK SMILES COC(=O)c1ccc(C[N@@H+](CC(=O)OCCOC(=O)c2ccc(-c3c4nc(c(-c5c(F)cc(S(=O)(=O)[O-])cc5F)c5ccc([nH]5)c(-c5c(F)cc(S(=O)(=O)[O-])cc5F)c5nc(c(-c6c(F)cc(S(=O)(=O)[O-])cc6F)c6ccc3[nH]6)C=C5)C=C4)cc2)C(C)(C)C)cc1
REMARK SMILES IDX 15 1 14 2 12 3 13 4 11 5 10 6 9 8 8 9 5 10 6 11 91 12 7 13
REMARK SMILES IDX 90 14 3 15 4 16 2 17 1 18 86 19 87 20 88 21 89 22 16 23
REMARK SMILES IDX 17 24 18 25 19 26 20 27 21 28 85 29 22 30 84 31 23 32 24 33
REMARK SMILES IDX 25 34 78 35 26 36 83 37 77 38 79 39 27 40 82 41 76 42 75 43
REMARK SMILES IDX 28 45 62 46 41 47 61 48 42 49 45 50 60 51 80 52 43 53 44 54
REMARK SMILES IDX 59 56 81 57 46 58 29 59 30 60 39 61 31 62 32 63 38 64 40 65
REMARK SMILES IDX 33 66 34 67 35 68 36 69 37 70 63 71 64 72 73 73 65 74 66 75
REMARK SMILES IDX 72 76 74 77 67 78 68 79 69 80 70 81 71 82 47 83 48 84 57 85
REMARK SMILES IDX 49 86 50 87 56 88 58 89 51 90 52 91 53 92 54 93 55 94
REMARK H PARENT 10 7 79 44 45 55
REMARK Flexibility Score: inf
ROOT
ATOM      1  C   UNL A   1      33.057  30.295  27.130  1.00  0.00     0.274 C 
ENDROOT
BRANCH   1   2
ATOM      2  O   UNL A   1      33.174  28.877  26.835  1.00  0.00    -0.458 OA
BRANCH   2   3
ATOM      3  C   UNL A   1      32.024  28.156  26.794  1.00  0.00     0.361 C 
ATOM      4  O   UNL A   1      31.434  27.789  27.811  1.00  0.00    -0.245 OA
BRANCH   3   5
ATOM      5  C   UNL A   1      31.483  27.773  25.405  1.00  0.00     0.387 C 
BRANCH   5   6
ATOM      6  N   UNL A   1      32.359  27.181  24.360  1.00  0.00    -0.318 N 
ATOM      7  H   UNL A   1      31.904  26.321  24.052  1.00  0.00     0.349 HD
BRANCH   6   8
ATOM      8  C   UNL A   1      33.635  26.746  24.940  1.00  0.00     0.299 C 
BRANCH   8   9
ATOM      9  C   UNL A   1      33.881  25.260  24.924  1.00  0.00     0.006 A 
ATOM     10  C   UNL A   1      34.614  22.564  25.001  1.00  0.00     0.060 A 
ATOM     11  C   UNL A   1      34.667  23.266  23.791  1.00  0.00     0.016 A 
ATOM     12  C   UNL A   1      34.153  23.197  26.162  1.00  0.00     0.016 A 
ATOM     13  C   UNL A   1      34.274  24.604  23.747  1.00  0.00     0.010 A 
ATOM     14  C   UNL A   1      33.787  24.539  26.122  1.00  0.00     0.010 A 
BRANCH  10  15
ATOM     15  C   UNL A   1      35.103  21.163  25.026  1.00  0.00     0.337 C 
ATOM     16  O   UNL A   1      34.491  20.218  24.580  1.00  0.00    -0.246 OA
BRANCH  15  17
ATOM     17  O   UNL A   1      36.307  21.122  25.659  1.00  0.00    -0.465 OA
ATOM     18  C   UNL A   1      37.315  20.415  24.944  1.00  0.00     0.282 C 
ENDBRANCH  15  17
ENDBRANCH  10  15
ENDBRANCH   8   9
ENDBRANCH   6   8
BRANCH   6  19
ATOM     19  C   UNL A   1      32.287  27.684  22.949  1.00  0.00     0.090 C 
ATOM     20  C   UNL A   1      33.642  28.125  22.331  1.00  0.00     0.078 C 
ATOM     21  C   UNL A   1      31.739  26.579  21.999  1.00  0.00     0.078 C 
ATOM     22  C   UNL A   1      31.224  28.803  22.756  1.00  0.00     0.078 C 
ENDBRANCH   6  19
ENDBRANCH   5   6
ENDBRANCH   3   5
ENDBRANCH   2   3
ENDBRANCH   1   2
BRANCH   1  23
ATOM     23  C   UNL A   1      34.389  30.900  27.620  1.00  0.00     0.275 C 
BRANCH  23  24
ATOM     24  O   UNL A   1      35.388  29.893  27.921  1.00  0.00    -0.458 OA
BRANCH  24  25
ATOM     25  C   UNL A   1      36.119  30.241  28.994  1.00  0.00     0.338 C 
ATOM     26  O   UNL A   1      35.657  30.605  30.060  1.00  0.00    -0.246 OA
BRANCH  25  27
ATOM     27  C   UNL A   1      37.567  30.143  28.903  1.00  0.00     0.060 A 
ATOM     28  C   UNL A   1      38.084  29.881  27.630  1.00  0.00     0.016 A 
ATOM     29  C   UNL A   1      38.313  29.882  30.052  1.00  0.00     0.016 A 
ATOM     30  C   UNL A   1      39.344  29.314  27.505  1.00  0.00     0.010 A 
ATOM     31  C   UNL A   1      39.613  29.390  29.919  1.00  0.00     0.010 A 
ATOM     32  C   UNL A   1      40.136  29.104  28.646  1.00  0.00    -0.014 A 
BRANCH  32  33
ATOM     33  C   UNL A   1      41.562  28.746  28.480  1.00  0.00     0.031 A 
ATOM     34  C   UNL A   1      42.657  29.766  28.553  1.00  0.00     0.074 A 
ATOM     35  C   UNL A   1      41.835  27.452  28.220  1.00  0.00     0.049 A 
ATOM     36  N   UNL A   1      43.928  29.624  28.278  1.00  0.00    -0.248 NA
ATOM     37  C   UNL A   1      42.281  31.122  28.981  1.00  0.00     0.031 C 
ATOM     38  C   UNL A   1      40.831  26.384  28.146  1.00  0.00     0.029 A 
ATOM     39  N   UNL A   1      43.016  26.813  27.963  1.00  0.00    -0.354 N 
ATOM     40  C   UNL A   1      44.505  30.874  28.469  1.00  0.00     0.074 A 
ATOM     41  C   UNL A   1      43.440  31.765  28.884  1.00  0.00     0.031 C 
ATOM     42  C   UNL A   1      41.440  25.223  27.884  1.00  0.00     0.029 A 
ATOM     43  C   UNL A   1      42.858  25.478  27.681  1.00  0.00     0.049 A 
ATOM     44  H   UNL A   1      43.892  27.264  27.979  1.00  0.00     0.167 HD
ATOM     45  C   UNL A   1      45.802  31.231  28.301  1.00  0.00     0.037 A 
ATOM     46  C   UNL A   1      43.743  24.564  27.250  1.00  0.00     0.037 A 
ATOM     47  C   UNL A   1      46.839  30.313  27.890  1.00  0.00     0.049 A 
ATOM     48  C   UNL A   1      45.160  24.992  27.037  1.00  0.00     0.074 A 
ATOM     49  C   UNL A   1      48.187  30.561  27.697  1.00  0.00     0.029 A 
ATOM     50  N   UNL A   1      46.639  28.967  27.604  1.00  0.00    -0.354 N 
ATOM     51  N   UNL A   1      45.689  26.182  27.201  1.00  0.00    -0.248 NA
ATOM     52  C   UNL A   1      46.099  23.965  26.576  1.00  0.00     0.031 C 
ATOM     53  C   UNL A   1      48.793  29.378  27.256  1.00  0.00     0.029 A 
ATOM     54  C   UNL A   1      47.834  28.378  27.220  1.00  0.00     0.049 A 
ATOM     55  H   UNL A   1      45.775  28.500  27.667  1.00  0.00     0.167 HD
ATOM     56  C   UNL A   1      47.029  26.047  26.870  1.00  0.00     0.074 A 
ATOM     57  C   UNL A   1      47.230  24.655  26.514  1.00  0.00     0.031 C 
ATOM     58  C   UNL A   1      48.004  26.990  26.860  1.00  0.00     0.037 A 
BRANCH  45  59
ATOM     59  C   UNL A   1      46.167  32.678  28.513  1.00  0.00     0.058 A 
ATOM     60  C   UNL A   1      46.119  33.621  27.473  1.00  0.00     0.135 A 
ATOM     61  C   UNL A   1      46.547  33.135  29.786  1.00  0.00     0.135 A 
ATOM     62  F   UNL A   1      45.771  33.242  26.233  1.00  0.00    -0.206 F 
ATOM     63  C   UNL A   1      46.468  34.953  27.679  1.00  0.00     0.059 A 
ATOM     64  C   UNL A   1      46.878  34.469  30.020  1.00  0.00     0.059 A 
ATOM     65  F   UNL A   1      46.606  32.282  30.820  1.00  0.00    -0.206 F 
ATOM     66  C   UNL A   1      46.854  35.367  28.955  1.00  0.00     0.060 A 
BRANCH  66  67
ATOM     67  S   UNL A   1      47.331  37.091  29.204  1.00  0.00     0.124 S 
ATOM     68  O   UNL A   1      47.358  37.586  27.831  1.00  0.00    -0.237 OA
ATOM     69  O   UNL A   1      46.249  37.601  30.039  1.00  0.00    -0.237 OA
ATOM     70  O   UNL A   1      48.631  36.994  29.859  1.00  0.00    -0.744 OA
ENDBRANCH  66  67
ENDBRANCH  45  59
BRANCH  46  71
ATOM     71  C   UNL A   1      43.278  23.183  26.973  1.00  0.00     0.058 A 
ATOM     72  C   UNL A   1      43.181  22.705  25.661  1.00  0.00     0.135 A 
ATOM     73  C   UNL A   1      43.021  22.283  28.022  1.00  0.00     0.135 A 
ATOM     74  F   UNL A   1      43.422  23.528  24.628  1.00  0.00    -0.206 F 
ATOM     75  C   UNL A   1      42.850  21.381  25.393  1.00  0.00     0.059 A 
ATOM     76  C   UNL A   1      42.715  20.948  27.780  1.00  0.00     0.059 A 
ATOM     77  F   UNL A   1      43.129  22.688  29.297  1.00  0.00    -0.206 F 
ATOM     78  C   UNL A   1      42.628  20.508  26.461  1.00  0.00     0.060 A 
BRANCH  78  79
ATOM     79  S   UNL A   1      42.284  18.772  26.106  1.00  0.00     0.124 S 
ATOM     80  O   UNL A   1      40.872  18.821  25.746  1.00  0.00    -0.237 OA
ATOM     81  O   UNL A   1      43.213  18.491  25.015  1.00  0.00    -0.237 OA
ATOM     82  O   UNL A   1      42.592  18.104  27.366  1.00  0.00    -0.744 OA
ENDBRANCH  78  79
ENDBRANCH  46  71
BRANCH  58  83
ATOM     83  C   UNL A   1      49.377  26.529  26.471  1.00  0.00     0.058 A 
ATOM     84  C   UNL A   1      49.841  26.633  25.151  1.00  0.00     0.135 A 
ATOM     85  C   UNL A   1      50.247  25.995  27.435  1.00  0.00     0.135 A 
ATOM     86  F   UNL A   1      49.042  27.123  24.190  1.00  0.00    -0.206 F 
ATOM     87  C   UNL A   1      51.114  26.200  24.794  1.00  0.00     0.059 A 
ATOM     88  C   UNL A   1      51.532  25.580  27.106  1.00  0.00     0.059 A 
ATOM     89  F   UNL A   1      49.849  25.878  28.712  1.00  0.00    -0.206 F 
ATOM     90  C   UNL A   1      51.952  25.675  25.780  1.00  0.00     0.060 A 
BRANCH  90  91
ATOM     91  S   UNL A   1      53.610  25.142  25.311  1.00  0.00     0.124 S 
ATOM     92  O   UNL A   1      53.739  25.721  23.978  1.00  0.00    -0.237 OA
ATOM     93  O   UNL A   1      54.440  25.748  26.349  1.00  0.00    -0.237 OA
ATOM     94  O   UNL A   1      53.525  23.685  25.359  1.00  0.00    -0.744 OA
ENDBRANCH  90  91
ENDBRANCH  58  83
ENDBRANCH  32  33
ENDBRANCH  25  27
ENDBRANCH  24  25
ENDBRANCH  23  24
ENDBRANCH   1  23
TORSDOF 20
ENDMDL
MODEL 2
REMARK VINA RESULT:     -10.4      6.771     11.946
REMARK SMILES COC(=O)c1ccc(C[N@@H+](CC(=O)OCCOC(=O)c2ccc(-c3c4nc(c(-c5c(F)cc(S(=O)(=O)[O-])cc5F)c5ccc([nH]5)c(-c5c(F)cc(S(=O)(=O)[O-])cc5F)c5nc(c(-c6c(F)cc(S(=O)(=O)[O-])cc6F)c6ccc3[nH]6)C=C5)C=C4)cc2)C(C)(C)C)cc1
REMARK SMILES IDX 15 1 14 2 12 3 13 4 11 5 10 6 9 8 8 9 5 10 6 11 91 12 7 13
REMARK SMILES IDX 90 14 3 15 4 16 2 17 1 18 86 19 87 20 88 21 89 22 16 23
REMARK SMILES IDX 17 24 18 25 19 26 20 27 21 28 85 29 22 30 84 31 23 32 24 33
REMARK SMILES IDX 25 34 78 35 26 36 83 37 77 38 79 39 27 40 82 41 76 42 75 43
REMARK SMILES IDX 28 45 62 46 41 47 61 48 42 49 45 50 60 51 80 52 43 53 44 54
REMARK SMILES IDX 59 56 81 57 46 58 29 59 30 60 39 61 31 62 32 63 38 64 40 65
REMARK SMILES IDX 33 66 34 67 35 68 36 69 37 70 63 71 64 72 73 73 65 74 66 75
REMARK SMILES IDX 72 76 74 77 67 78 68 79 69 80 70 81 71 82 47 83 48 84 57 85
REMARK SMILES IDX 49 86 50 87 56 88 58 89 51 90 52 91 53 92 54 93 55 94
REMARK H PARENT 10 7 79 44 45 55
REMARK Flexibility Score: inf
ROOT
ATOM      1  C   UNL A   1      37.685  22.502  25.331  1.00  0.00     0.274 C 
ENDROOT
BRANCH   1   2
ATOM      2  O   UNL A   1      36.438  22.885  25.970  1.00  0.00    -0.458 OA
BRANCH   2   3
ATOM      3  C   UNL A   1      35.660  23.789  25.319  1.00  0.00     0.361 C 
ATOM      4  O   UNL A   1      35.642  24.984  25.617  1.00  0.00    -0.245 OA
BRANCH   3   5
ATOM      5  C   UNL A   1      34.755  23.259  24.194  1.00  0.00     0.387 C 
BRANCH   5   6
ATOM      6  N   UNL A   1      33.278  23.175  24.349  1.00  0.00    -0.318 N 
ATOM      7  H   UNL A   1      32.971  24.084  24.698  1.00  0.00     0.349 HD
BRANCH   6   8
ATOM      8  C   UNL A   1      32.923  22.225  25.409  1.00  0.00     0.299 C 
BRANCH   8   9
ATOM      9  C   UNL A   1      33.209  20.777  25.104  1.00  0.00     0.006 A 
ATOM     10  C   UNL A   1      33.791  18.180  24.253  1.00  0.00     0.060 A 
ATOM     11  C   UNL A   1      32.458  18.587  24.390  1.00  0.00     0.016 A 
ATOM     12  C   UNL A   1      34.831  19.057  24.584  1.00  0.00     0.016 A 
ATOM     13  C   UNL A   1      32.168  19.874  24.842  1.00  0.00     0.010 A 
ATOM     14  C   UNL A   1      34.540  20.349  25.010  1.00  0.00     0.010 A 
BRANCH  10  15
ATOM     15  C   UNL A   1      34.063  16.827  23.707  1.00  0.00     0.337 C 
ATOM     16  O   UNL A   1      34.174  16.576  22.527  1.00  0.00    -0.246 OA
BRANCH  15  17
ATOM     17  O   UNL A   1      34.124  15.936  24.733  1.00  0.00    -0.465 OA
ATOM     18  C   UNL A   1      35.422  15.794  25.303  1.00  0.00     0.282 C 
ENDBRANCH  15  17
ENDBRANCH  10  15
ENDBRANCH   8   9
ENDBRANCH   6   8
BRANCH   6  19
ATOM     19  C   UNL A   1      32.388  23.368  23.159  1.00  0.00     0.090 C 
ATOM     20  C   UNL A   1      32.672  24.641  22.316  1.00  0.00     0.078 C 
ATOM     21  C   UNL A   1      32.530  22.175  22.168  1.00  0.00     0.078 C 
ATOM     22  C   UNL A   1      30.875  23.288  23.511  1.00  0.00     0.078 C 
ENDBRANCH   6  19
ENDBRANCH   5   6
ENDBRANCH   3   5
ENDBRANCH   2   3
ENDBRANCH   1   2
BRANCH   1  23
ATOM     23  C   UNL A   1      38.913  22.845  26.199  1.00  0.00     0.275 C 
BRANCH  23  24
ATOM     24  O   UNL A   1      39.089  24.271  26.387  1.00  0.00    -0.458 OA
BRANCH  24  25
ATOM     25  C   UNL A   1      40.359  24.565  26.716  1.00  0.00     0.338 C 
ATOM     26  O   UNL A   1      41.339  24.182  26.106  1.00  0.00    -0.246 OA
BRANCH  25  27
ATOM     27  C   UNL A   1      40.591  25.434  27.859  1.00  0.00     0.060 A 
ATOM     28  C   UNL A   1      39.520  25.580  28.746  1.00  0.00     0.016 A 
ATOM     29  C   UNL A   1      41.619  26.375  27.809  1.00  0.00     0.016 A 
ATOM     30  C   UNL A   1      39.455  26.699  29.564  1.00  0.00     0.010 A 
ATOM     31  C   UNL A   1      41.593  27.457  28.692  1.00  0.00     0.010 A 
ATOM     32  C   UNL A   1      40.512  27.624  29.575  1.00  0.00    -0.014 A 
BRANCH  32  33
ATOM     33  C   UNL A   1      40.552  28.663  30.628  1.00  0.00     0.031 A 
ATOM     34  C   UNL A   1      41.495  28.587  31.790  1.00  0.00     0.074 A 
ATOM     35  C   UNL A   1      39.668  29.673  30.515  1.00  0.00     0.049 A 
ATOM     36  N   UNL A   1      41.537  29.339  32.859  1.00  0.00    -0.248 NA
ATOM     37  C   UNL A   1      42.517  27.530  31.756  1.00  0.00     0.031 C 
ATOM     38  C   UNL A   1      38.721  29.837  29.406  1.00  0.00     0.029 A 
ATOM     39  N   UNL A   1      39.410  30.741  31.329  1.00  0.00    -0.354 N 
ATOM     40  C   UNL A   1      42.567  28.834  33.644  1.00  0.00     0.074 A 
ATOM     41  C   UNL A   1      43.125  27.707  32.925  1.00  0.00     0.031 C 
ATOM     42  C   UNL A   1      38.001  30.947  29.598  1.00  0.00     0.029 A 
ATOM     43  C   UNL A   1      38.371  31.522  30.884  1.00  0.00     0.049 A 
ATOM     44  H   UNL A   1      39.917  30.932  32.152  1.00  0.00     0.167 HD
ATOM     45  C   UNL A   1      42.990  29.276  34.855  1.00  0.00     0.037 A 
ATOM     46  C   UNL A   1      37.739  32.555  31.467  1.00  0.00     0.037 A 
ATOM     47  C   UNL A   1      42.412  30.407  35.541  1.00  0.00     0.049 A 
ATOM     48  C   UNL A   1      38.202  32.999  32.818  1.00  0.00     0.074 A 
ATOM     49  C   UNL A   1      42.766  30.950  36.765  1.00  0.00     0.029 A 
ATOM     50  N   UNL A   1      41.353  31.170  35.062  1.00  0.00    -0.354 N 
ATOM     51  N   UNL A   1      39.163  32.499  33.559  1.00  0.00    -0.248 NA
ATOM     52  C   UNL A   1      37.496  34.134  33.418  1.00  0.00     0.031 C 
ATOM     53  C   UNL A   1      41.896  32.011  37.044  1.00  0.00     0.029 A 
ATOM     54  C   UNL A   1      41.030  32.165  35.973  1.00  0.00     0.049 A 
ATOM     55  H   UNL A   1      40.899  31.026  34.201  1.00  0.00     0.167 HD
ATOM     56  C   UNL A   1      39.185  33.267  34.714  1.00  0.00     0.074 A 
ATOM     57  C   UNL A   1      38.151  34.274  34.562  1.00  0.00     0.031 C 
ATOM     58  C   UNL A   1      39.987  33.148  35.801  1.00  0.00     0.037 A 
BRANCH  45  59
ATOM     59  C   UNL A   1      44.096  28.510  35.536  1.00  0.00     0.058 A 
ATOM     60  C   UNL A   1      45.452  28.797  35.310  1.00  0.00     0.135 A 
ATOM     61  C   UNL A   1      43.792  27.488  36.452  1.00  0.00     0.135 A 
ATOM     62  F   UNL A   1      45.803  29.758  34.440  1.00  0.00    -0.206 F 
ATOM     63  C   UNL A   1      46.464  28.076  35.938  1.00  0.00     0.059 A 
ATOM     64  C   UNL A   1      44.789  26.770  37.109  1.00  0.00     0.059 A 
ATOM     65  F   UNL A   1      42.514  27.173  36.713  1.00  0.00    -0.206 F 
ATOM     66  C   UNL A   1      46.124  27.059  36.831  1.00  0.00     0.060 A 
BRANCH  66  67
ATOM     67  S   UNL A   1      47.446  26.113  37.618  1.00  0.00     0.124 S 
ATOM     68  O   UNL A   1      46.952  26.006  38.987  1.00  0.00    -0.237 OA
ATOM     69  O   UNL A   1      47.450  24.874  36.848  1.00  0.00    -0.237 OA
ATOM     70  O   UNL A   1      48.621  26.960  37.441  1.00  0.00    -0.744 OA
ENDBRANCH  66  67
ENDBRANCH  45  59
BRANCH  46  71
ATOM     71  C   UNL A   1      36.596  33.190  30.767  1.00  0.00     0.058 A 
ATOM     72  C   UNL A   1      35.285  33.019  31.227  1.00  0.00     0.135 A 
ATOM     73  C   UNL A   1      36.806  34.064  29.686  1.00  0.00     0.135 A 
ATOM     74  F   UNL A   1      35.039  32.197  32.259  1.00  0.00    -0.206 F 
ATOM     75  C   UNL A   1      34.218  33.695  30.645  1.00  0.00     0.059 A 
ATOM     76  C   UNL A   1      35.759  34.772  29.106  1.00  0.00     0.059 A 
ATOM     77  F   UNL A   1      38.049  34.282  29.228  1.00  0.00    -0.206 F 
ATOM     78  C   UNL A   1      34.467  34.576  29.591  1.00  0.00     0.060 A 
BRANCH  78  79
ATOM     79  S   UNL A   1      33.088  35.514  28.899  1.00  0.00     0.124 S 
ATOM     80  O   UNL A   1      32.471  34.525  28.024  1.00  0.00    -0.237 OA
ATOM     81  O   UNL A   1      32.330  35.873  30.094  1.00  0.00    -0.237 OA
ATOM     82  O   UNL A   1      33.745  36.631  28.227  1.00  0.00    -0.744 OA
ENDBRANCH  78  79
ENDBRANCH  46  71
BRANCH  58  83
ATOM     83  C   UNL A   1      39.782  34.153  36.897  1.00  0.00     0.058 A 
ATOM     84  C   UNL A   1      39.077  33.830  38.067  1.00  0.00     0.135 A 
ATOM     85  C   UNL A   1      40.315  35.446  36.783  1.00  0.00     0.135 A 
ATOM     86  F   UNL A   1      38.535  32.611  38.216  1.00  0.00    -0.206 F 
ATOM     87  C   UNL A   1      38.886  34.766  39.078  1.00  0.00     0.059 A 
ATOM     88  C   UNL A   1      40.159  36.389  37.792  1.00  0.00     0.059 A 
ATOM     89  F   UNL A   1      41.000  35.800  35.684  1.00  0.00    -0.206 F 
ATOM     90  C   UNL A   1      39.431  36.043  38.931  1.00  0.00     0.060 A 
BRANCH  90  91
ATOM     91  S   UNL A   1      39.201  37.241  40.260  1.00  0.00     0.124 S 
ATOM     92  O   UNL A   1      38.527  38.330  39.560  1.00  0.00    -0.237 OA
ATOM     93  O   UNL A   1      38.383  36.497  41.214  1.00  0.00    -0.237 OA
ATOM     94  O   UNL A   1      40.564  37.524  40.701  1.00  0.00    -0.744 OA
ENDBRANCH  90  91
ENDBRANCH  58  83
ENDBRANCH  32  33
ENDBRANCH  25  27
ENDBRANCH  24  25
ENDBRANCH  23  24
ENDBRANCH   1  23
TORSDOF 20
ENDMDL
MODEL 3
REMARK VINA RESULT:     -10.4      5.081     10.760
REMARK SMILES COC(=O)c1ccc(C[N@@H+](CC(=O)OCCOC(=O)c2ccc(-c3c4nc(c(-c5c(F)cc(S(=O)(=O)[O-])cc5F)c5ccc([nH]5)c(-c5c(F)cc(S(=O)(=O)[O-])cc5F)c5nc(c(-c6c(F)cc(S(=O)(=O)[O-])cc6F)c6ccc3[nH]6)C=C5)C=C4)cc2)C(C)(C)C)cc1
REMARK SMILES IDX 15 1 14 2 12 3 13 4 11 5 10 6 9 8 8 9 5 10 6 11 91 12 7 13
REMARK SMILES IDX 90 14 3 15 4 16 2 17 1 18 86 19 87 20 88 21 89 22 16 23
REMARK SMILES IDX 17 24 18 25 19 26 20 27 21 28 85 29 22 30 84 31 23 32 24 33
REMARK SMILES IDX 25 34 78 35 26 36 83 37 77 38 79 39 27 40 82 41 76 42 75 43
REMARK SMILES IDX 28 45 62 46 41 47 61 48 42 49 45 50 60 51 80 52 43 53 44 54
REMARK SMILES IDX 59 56 81 57 46 58 29 59 30 60 39 61 31 62 32 63 38 64 40 65
REMARK SMILES IDX 33 66 34 67 35 68 36 69 37 70 63 71 64 72 73 73 65 74 66 75
REMARK SMILES IDX 72 76 74 77 67 78 68 79 69 80 70 81 71 82 47 83 48 84 57 85
REMARK SMILES IDX 49 86 50 87 56 88 58 89 51 90 52 91 53 92 54 93 55 94
REMARK H PARENT 10 7 79 44 45 55
REMARK Flexibility Score: inf
ROOT
ATOM      1  C   UNL A   1      35.990  22.064  25.046  1.00  0.00     0.274 C 
ENDROOT
BRANCH   1   2
ATOM      2  O   UNL A   1      35.037  21.393  25.913  1.00  0.00    -0.458 OA
BRANCH   2   3
ATOM      3  C   UNL A   1      34.003  20.746  25.314  1.00  0.00     0.361 C 
ATOM      4  O   UNL A   1      34.157  19.721  24.650  1.00  0.00    -0.245 OA
BRANCH   3   5
ATOM      5  C   UNL A   1      32.603  21.366  25.467  1.00  0.00     0.387 C 
BRANCH   5   6
ATOM      6  N   UNL A   1      32.283  22.718  24.935  1.00  0.00    -0.318 N 
ATOM      7  H   UNL A   1      33.174  23.200  24.812  1.00  0.00     0.349 HD
BRANCH   6   8
ATOM      8  C   UNL A   1      31.561  23.510  25.937  1.00  0.00     0.299 C 
BRANCH   8   9
ATOM      9  C   UNL A   1      31.896  24.979  25.968  1.00  0.00     0.006 A 
ATOM     10  C   UNL A   1      32.585  27.664  26.319  1.00  0.00     0.060 A 
ATOM     11  C   UNL A   1      31.238  27.283  26.332  1.00  0.00     0.016 A 
ATOM     12  C   UNL A   1      33.584  26.710  26.087  1.00  0.00     0.016 A 
ATOM     13  C   UNL A   1      30.893  25.947  26.128  1.00  0.00     0.010 A 
ATOM     14  C   UNL A   1      33.240  25.374  25.911  1.00  0.00     0.010 A 
BRANCH  10  15
ATOM     15  C   UNL A   1      32.921  29.081  26.605  1.00  0.00     0.337 C 
ATOM     16  O   UNL A   1      32.243  30.025  26.265  1.00  0.00    -0.246 OA
BRANCH  15  17
ATOM     17  O   UNL A   1      34.112  29.133  27.261  1.00  0.00    -0.465 OA
ATOM     18  C   UNL A   1      34.538  30.453  27.586  1.00  0.00     0.282 C 
ENDBRANCH  15  17
ENDBRANCH  10  15
ENDBRANCH   8   9
ENDBRANCH   6   8
BRANCH   6  19
ATOM     19  C   UNL A   1      32.019  22.904  23.471  1.00  0.00     0.090 C 
ATOM     20  C   UNL A   1      30.795  23.796  23.125  1.00  0.00     0.078 C 
ATOM     21  C   UNL A   1      33.236  23.582  22.775  1.00  0.00     0.078 C 
ATOM     22  C   UNL A   1      31.936  21.561  22.692  1.00  0.00     0.078 C 
ENDBRANCH   6  19
ENDBRANCH   5   6
ENDBRANCH   3   5
ENDBRANCH   2   3
ENDBRANCH   1   2
BRANCH   1  23
ATOM     23  C   UNL A   1      36.528  23.368  25.670  1.00  0.00     0.275 C 
BRANCH  23  24
ATOM     24  O   UNL A   1      37.797  23.781  25.105  1.00  0.00    -0.458 OA
BRANCH  24  25
ATOM     25  C   UNL A   1      38.826  23.345  25.851  1.00  0.00     0.338 C 
ATOM     26  O   UNL A   1      39.257  22.207  25.838  1.00  0.00    -0.246 OA
BRANCH  25  27
ATOM     27  C   UNL A   1      39.508  24.299  26.710  1.00  0.00     0.060 A 
ATOM     28  C   UNL A   1      39.029  24.394  28.021  1.00  0.00     0.016 A 
ATOM     29  C   UNL A   1      40.254  25.329  26.139  1.00  0.00     0.016 A 
ATOM     30  C   UNL A   1      39.263  25.549  28.754  1.00  0.00     0.010 A 
ATOM     31  C   UNL A   1      40.559  26.454  26.909  1.00  0.00     0.010 A 
ATOM     32  C   UNL A   1      40.066  26.569  28.220  1.00  0.00    -0.014 A 
BRANCH  32  33
ATOM     33  C   UNL A   1      40.519  27.668  29.101  1.00  0.00     0.031 A 
ATOM     34  C   UNL A   1      41.787  27.585  29.897  1.00  0.00     0.074 A 
ATOM     35  C   UNL A   1      39.715  28.746  29.187  1.00  0.00     0.049 A 
ATOM     36  N   UNL A   1      42.228  28.400  30.820  1.00  0.00    -0.248 NA
ATOM     37  C   UNL A   1      42.670  26.439  29.633  1.00  0.00     0.031 C 
ATOM     38  C   UNL A   1      38.467  28.921  28.435  1.00  0.00     0.029 A 
ATOM     39  N   UNL A   1      39.810  29.885  29.937  1.00  0.00    -0.354 N 
ATOM     40  C   UNL A   1      43.425  27.857  31.272  1.00  0.00     0.074 A 
ATOM     41  C   UNL A   1      43.640  26.638  30.519  1.00  0.00     0.031 C 
ATOM     42  C   UNL A   1      37.925  30.103  28.745  1.00  0.00     0.029 A 
ATOM     43  C   UNL A   1      38.735  30.726  29.782  1.00  0.00     0.049 A 
ATOM     44  H   UNL A   1      40.572  30.083  30.530  1.00  0.00     0.167 HD
ATOM     45  C   UNL A   1      44.252  28.338  32.233  1.00  0.00     0.037 A 
ATOM     46  C   UNL A   1      38.399  31.849  30.439  1.00  0.00     0.037 A 
ATOM     47  C   UNL A   1      44.008  29.561  32.961  1.00  0.00     0.049 A 
ATOM     48  C   UNL A   1      39.310  32.338  31.520  1.00  0.00     0.074 A 
ATOM     49  C   UNL A   1      44.780  30.150  33.948  1.00  0.00     0.029 A 
ATOM     50  N   UNL A   1      42.901  30.384  32.782  1.00  0.00    -0.354 N 
ATOM     51  N   UNL A   1      40.428  31.804  31.952  1.00  0.00    -0.248 NA
ATOM     52  C   UNL A   1      38.916  33.571  32.207  1.00  0.00     0.031 C 
ATOM     53  C   UNL A   1      44.121  31.302  34.393  1.00  0.00     0.029 A 
ATOM     54  C   UNL A   1      42.962  31.462  33.651  1.00  0.00     0.049 A 
ATOM     55  H   UNL A   1      42.180  30.224  32.132  1.00  0.00     0.167 HD
ATOM     56  C   UNL A   1      40.880  32.642  32.961  1.00  0.00     0.074 A 
ATOM     57  C   UNL A   1      39.921  33.727  33.060  1.00  0.00     0.031 C 
ATOM     58  C   UNL A   1      41.986  32.523  33.736  1.00  0.00     0.037 A 
BRANCH  45  59
ATOM     59  C   UNL A   1      45.469  27.522  32.588  1.00  0.00     0.058 A 
ATOM     60  C   UNL A   1      46.678  27.639  31.883  1.00  0.00     0.135 A 
ATOM     61  C   UNL A   1      45.432  26.624  33.669  1.00  0.00     0.135 A 
ATOM     62  F   UNL A   1      46.771  28.475  30.836  1.00  0.00    -0.206 F 
ATOM     63  C   UNL A   1      47.792  26.872  32.214  1.00  0.00     0.059 A 
ATOM     64  C   UNL A   1      46.542  25.865  34.032  1.00  0.00     0.059 A 
ATOM     65  F   UNL A   1      44.306  26.473  34.383  1.00  0.00    -0.206 F 
ATOM     66  C   UNL A   1      47.713  25.982  33.286  1.00  0.00     0.060 A 
BRANCH  66  67
ATOM     67  S   UNL A   1      49.157  24.973  33.687  1.00  0.00     0.124 S 
ATOM     68  O   UNL A   1      49.742  25.729  34.791  1.00  0.00    -0.237 OA
ATOM     69  O   UNL A   1      48.558  23.692  34.046  1.00  0.00    -0.237 OA
ATOM     70  O   UNL A   1      49.929  24.976  32.449  1.00  0.00    -0.744 OA
ENDBRANCH  66  67
ENDBRANCH  45  59
BRANCH  46  71
ATOM     71  C   UNL A   1      37.132  32.538  30.091  1.00  0.00     0.058 A 
ATOM     72  C   UNL A   1      35.944  32.247  30.772  1.00  0.00     0.135 A 
ATOM     73  C   UNL A   1      37.110  33.574  29.142  1.00  0.00     0.135 A 
ATOM     74  F   UNL A   1      35.920  31.268  31.690  1.00  0.00    -0.206 F 
ATOM     75  C   UNL A   1      34.776  32.961  30.530  1.00  0.00     0.059 A 
ATOM     76  C   UNL A   1      35.962  34.320  28.902  1.00  0.00     0.059 A 
ATOM     77  F   UNL A   1      38.232  33.908  28.484  1.00  0.00    -0.206 F 
ATOM     78  C   UNL A   1      34.797  34.002  29.599  1.00  0.00     0.060 A 
BRANCH  78  79
ATOM     79  S   UNL A   1      33.299  34.979  29.354  1.00  0.00     0.124 S 
ATOM     80  O   UNL A   1      32.571  34.162  28.391  1.00  0.00    -0.237 OA
ATOM     81  O   UNL A   1      32.741  35.029  30.702  1.00  0.00    -0.237 OA
ATOM     82  O   UNL A   1      33.807  36.251  28.849  1.00  0.00    -0.744 OA
ENDBRANCH  78  79
ENDBRANCH  46  71
BRANCH  58  83
ATOM     83  C   UNL A   1      42.220  33.614  34.740  1.00  0.00     0.058 A 
ATOM     84  C   UNL A   1      41.695  33.541  36.039  1.00  0.00     0.135 A 
ATOM     85  C   UNL A   1      42.996  34.734  34.404  1.00  0.00     0.135 A 
ATOM     86  F   UNL A   1      40.933  32.497  36.404  1.00  0.00    -0.206 F 
ATOM     87  C   UNL A   1      41.911  34.556  36.965  1.00  0.00     0.059 A 
ATOM     88  C   UNL A   1      43.247  35.748  35.321  1.00  0.00     0.059 A 
ATOM     89  F   UNL A   1      43.523  34.846  33.174  1.00  0.00    -0.206 F 
ATOM     90  C   UNL A   1      42.689  35.656  36.596  1.00  0.00     0.060 A 
BRANCH  90  91
ATOM     91  S   UNL A   1      42.985  36.953  37.814  1.00  0.00     0.124 S 
ATOM     92  O   UNL A   1      43.562  38.007  36.984  1.00  0.00    -0.237 OA
ATOM     93  O   UNL A   1      41.644  37.214  38.328  1.00  0.00    -0.237 OA
ATOM     94  O   UNL A   1      43.902  36.326  38.762  1.00  0.00    -0.744 OA
ENDBRANCH  90  91
ENDBRANCH  58  83
ENDBRANCH  32  33
ENDBRANCH  25  27
ENDBRANCH  24  25
ENDBRANCH  23  24
ENDBRANCH   1  23
TORSDOF 20
ENDMDL
