MODEL 1
REMARK VINA RESULT:     -11.6      0.000      0.000
REMARK SMILES O=C(OCCOC(=O)[C@]12C[NH2+]C[C@H]1CN(C(=O)c1ccccc1-n1cncn1)C2)c1ccc(-c2c3nc(c(-c4c(F)cc(S(=O)(=O)[O-])cc4F)c4ccc([nH]4)c(-c4c(F)cc(S(=O)(=O)[O-])cc4F)c4nc(c(-c5c(F)cc(S(=O)(=O)[O-])cc5F)c5ccc2[nH]5)C=C4)C=C3)cc1
REMARK SMILES IDX 4 1 3 2 2 3 1 4 30 5 31 6 95 7 32 8 94 9 33 10 34 11 35 12
REMARK SMILES IDX 88 13 36 14 93 15 87 16 89 17 37 18 92 19 86 20 85 21 38 23
REMARK SMILES IDX 72 24 51 25 71 26 52 27 55 28 70 29 90 30 53 31 54 32 69 34
REMARK SMILES IDX 91 35 56 36 39 37 40 38 49 39 41 40 42 41 48 42 50 43 43 44
REMARK SMILES IDX 44 45 45 46 46 47 47 48 73 49 74 50 83 51 75 52 76 53 82 54
REMARK SMILES IDX 84 55 77 56 78 57 79 58 80 59 81 60 57 61 58 62 67 63 59 64
REMARK SMILES IDX 60 65 66 66 68 67 61 68 62 69 63 70 64 71 65 72 5 73 6 74
REMARK SMILES IDX 7 75 8 76 9 77 10 78 13 79 29 80 11 81 12 82 14 83 15 84
REMARK SMILES IDX 16 87 17 88 18 89 19 90 23 91 20 92 22 93 21 94 24 95 25 96
REMARK SMILES IDX 28 97 26 98 27 99
REMARK H PARENT 89 22 55 33 11 85 11 86
REMARK Flexibility Score: inf
ROOT
ATOM      1  C   UNL A   1      39.796  20.812  26.064  1.00  0.00     0.275 C 
ENDROOT
BRANCH   1   2
ATOM      2  O   UNL A   1      39.447  21.871  26.980  1.00  0.00    -0.458 OA
BRANCH   2   3
ATOM      3  C   UNL A   1      38.975  23.079  26.606  1.00  0.00     0.338 C 
ATOM      4  O   UNL A   1      37.970  23.178  25.911  1.00  0.00    -0.246 OA
BRANCH   3   5
ATOM      5  C   UNL A   1      39.572  24.277  27.261  1.00  0.00     0.060 A 
ATOM      6  C   UNL A   1      40.673  24.243  28.131  1.00  0.00     0.016 A 
ATOM      7  C   UNL A   1      38.958  25.508  26.981  1.00  0.00     0.016 A 
ATOM      8  C   UNL A   1      41.157  25.416  28.711  1.00  0.00     0.010 A 
ATOM      9  C   UNL A   1      39.439  26.675  27.555  1.00  0.00     0.010 A 
ATOM     10  C   UNL A   1      40.508  26.620  28.455  1.00  0.00    -0.014 A 
BRANCH  10  11
ATOM     11  C   UNL A   1      40.875  27.816  29.211  1.00  0.00     0.031 A 
ATOM     12  C   UNL A   1      41.965  28.689  28.674  1.00  0.00     0.074 A 
ATOM     13  C   UNL A   1      40.063  28.219  30.209  1.00  0.00     0.049 A 
ATOM     14  N   UNL A   1      43.106  29.015  29.199  1.00  0.00    -0.248 NA
ATOM     15  C   UNL A   1      41.790  29.202  27.310  1.00  0.00     0.031 C 
ATOM     16  C   UNL A   1      38.786  27.631  30.635  1.00  0.00     0.029 A 
ATOM     17  N   UNL A   1      40.145  29.337  30.972  1.00  0.00    -0.354 N 
ATOM     18  C   UNL A   1      43.696  29.932  28.316  1.00  0.00     0.074 A 
ATOM     19  C   UNL A   1      42.944  29.835  27.097  1.00  0.00     0.031 C 
ATOM     20  C   UNL A   1      38.105  28.529  31.379  1.00  0.00     0.029 A 
ATOM     21  C   UNL A   1      38.963  29.671  31.617  1.00  0.00     0.049 A 
ATOM     22  H   UNL A   1      40.971  29.865  31.060  1.00  0.00     0.167 HD
ATOM     23  C   UNL A   1      44.614  30.865  28.711  1.00  0.00     0.037 A 
ATOM     24  C   UNL A   1      38.699  30.852  32.225  1.00  0.00     0.037 A 
ATOM     25  C   UNL A   1      45.149  30.551  30.010  1.00  0.00     0.049 A 
ATOM     26  C   UNL A   1      40.016  31.487  32.511  1.00  0.00     0.074 A 
ATOM     27  C   UNL A   1      45.871  29.501  30.545  1.00  0.00     0.029 A 
ATOM     28  N   UNL A   1      44.659  31.243  31.093  1.00  0.00    -0.354 N 
ATOM     29  N   UNL A   1      40.907  30.964  33.316  1.00  0.00    -0.248 NA
ATOM     30  C   UNL A   1      40.542  32.432  31.536  1.00  0.00     0.031 C 
ATOM     31  C   UNL A   1      45.325  29.318  31.851  1.00  0.00     0.029 A 
ATOM     32  C   UNL A   1      44.360  30.306  32.050  1.00  0.00     0.049 A 
ATOM     33  H   UNL A   1      44.545  32.217  31.167  1.00  0.00     0.167 HD
ATOM     34  C   UNL A   1      42.133  31.202  32.710  1.00  0.00     0.074 A 
ATOM     35  C   UNL A   1      41.847  32.168  31.648  1.00  0.00     0.031 C 
ATOM     36  C   UNL A   1      43.214  30.390  32.928  1.00  0.00     0.037 A 
BRANCH  23  37
ATOM     37  C   UNL A   1      44.785  32.252  28.100  1.00  0.00     0.058 A 
ATOM     38  C   UNL A   1      45.987  32.566  27.421  1.00  0.00     0.135 A 
ATOM     39  C   UNL A   1      43.965  33.363  28.398  1.00  0.00     0.135 A 
ATOM     40  F   UNL A   1      46.841  31.597  27.054  1.00  0.00    -0.206 F 
ATOM     41  C   UNL A   1      46.392  33.880  27.171  1.00  0.00     0.059 A 
ATOM     42  C   UNL A   1      44.326  34.677  28.110  1.00  0.00     0.059 A 
ATOM     43  F   UNL A   1      42.815  33.251  29.069  1.00  0.00    -0.206 F 
ATOM     44  C   UNL A   1      45.565  34.932  27.549  1.00  0.00     0.060 A 
BRANCH  44  45
ATOM     45  S   UNL A   1      46.148  36.629  27.385  1.00  0.00     0.124 S 
ATOM     46  O   UNL A   1      44.889  37.362  27.322  1.00  0.00    -0.237 OA
ATOM     47  O   UNL A   1      46.928  36.801  28.607  1.00  0.00    -0.237 OA
ATOM     48  O   UNL A   1      46.926  36.600  26.151  1.00  0.00    -0.744 OA
ENDBRANCH  44  45
ENDBRANCH  23  37
BRANCH  24  49
ATOM     49  C   UNL A   1      37.412  31.594  32.134  1.00  0.00     0.058 A 
ATOM     50  C   UNL A   1      36.700  31.985  33.278  1.00  0.00     0.135 A 
ATOM     51  C   UNL A   1      36.969  32.140  30.909  1.00  0.00     0.135 A 
ATOM     52  F   UNL A   1      37.073  31.537  34.487  1.00  0.00    -0.206 F 
ATOM     53  C   UNL A   1      35.624  32.879  33.215  1.00  0.00     0.059 A 
ATOM     54  C   UNL A   1      35.894  33.023  30.819  1.00  0.00     0.059 A 
ATOM     55  F   UNL A   1      37.622  31.893  29.764  1.00  0.00    -0.206 F 
ATOM     56  C   UNL A   1      35.236  33.404  31.980  1.00  0.00     0.060 A 
BRANCH  56  57
ATOM     57  S   UNL A   1      33.942  34.665  31.910  1.00  0.00     0.124 S 
ATOM     58  O   UNL A   1      34.672  35.869  32.292  1.00  0.00    -0.237 OA
ATOM     59  O   UNL A   1      33.517  34.594  30.516  1.00  0.00    -0.237 OA
ATOM     60  O   UNL A   1      32.957  34.198  32.883  1.00  0.00    -0.744 OA
ENDBRANCH  56  57
ENDBRANCH  24  49
BRANCH  36  61
ATOM     61  C   UNL A   1      43.112  29.319  33.989  1.00  0.00     0.058 A 
ATOM     62  C   UNL A   1      43.259  29.572  35.366  1.00  0.00     0.135 A 
ATOM     63  C   UNL A   1      42.641  28.049  33.630  1.00  0.00     0.135 A 
ATOM     64  F   UNL A   1      43.584  30.791  35.806  1.00  0.00    -0.206 F 
ATOM     65  C   UNL A   1      42.989  28.606  36.336  1.00  0.00     0.059 A 
ATOM     66  C   UNL A   1      42.334  27.076  34.582  1.00  0.00     0.059 A 
ATOM     67  F   UNL A   1      42.402  27.763  32.339  1.00  0.00    -0.206 F 
ATOM     68  C   UNL A   1      42.519  27.359  35.935  1.00  0.00     0.060 A 
BRANCH  68  69
ATOM     69  S   UNL A   1      42.067  26.150  37.197  1.00  0.00     0.124 S 
ATOM     70  O   UNL A   1      42.108  24.898  36.451  1.00  0.00    -0.237 OA
ATOM     71  O   UNL A   1      43.117  26.326  38.198  1.00  0.00    -0.237 OA
ATOM     72  O   UNL A   1      40.737  26.581  37.622  1.00  0.00    -0.744 OA
ENDBRANCH  68  69
ENDBRANCH  36  61
ENDBRANCH  10  11
ENDBRANCH   3   5
ENDBRANCH   2   3
ENDBRANCH   1   2
BRANCH   1  73
ATOM     73  C   UNL A   1      40.944  19.887  26.459  1.00  0.00     0.274 C 
BRANCH  73  74
ATOM     74  O   UNL A   1      42.110  20.030  25.621  1.00  0.00    -0.461 OA
BRANCH  74  75
ATOM     75  C   UNL A   1      43.025  20.969  26.018  1.00  0.00     0.320 C 
ATOM     76  O   UNL A   1      42.815  21.791  26.900  1.00  0.00    -0.251 OA
BRANCH  75  77
ATOM     77  C   UNL A   1      44.298  20.862  25.123  1.00  0.00     0.144 C 
ATOM     78  C   UNL A   1      44.126  19.308  25.322  1.00  0.00     0.281 C 
ATOM     79  C   UNL A   1      45.836  20.546  24.911  1.00  0.00     0.088 C 
ATOM     80  C   UNL A   1      44.764  22.145  25.956  1.00  0.00     0.145 C 
ATOM     81  N   UNL A   1      44.794  18.635  24.207  1.00  0.00    -0.345 N 
ATOM     82  C   UNL A   1      45.992  19.393  23.953  1.00  0.00     0.267 C 
ATOM     83  C   UNL A   1      46.484  21.807  24.393  1.00  0.00     0.130 C 
ATOM     84  N   UNL A   1      45.847  22.784  25.217  1.00  0.00    -0.337 N 
ATOM     85  H   UNL A   1      44.193  18.633  23.383  1.00  0.00     0.346 HD
ATOM     86  H   UNL A   1      45.004  17.662  24.428  1.00  0.00     0.346 HD
BRANCH  84  87
ATOM     87  C   UNL A   1      46.250  24.097  25.255  1.00  0.00     0.256 C 
ATOM     88  O   UNL A   1      46.685  24.713  24.286  1.00  0.00    -0.269 OA
BRANCH  87  89
ATOM     89  C   UNL A   1      46.147  24.803  26.549  1.00  0.00     0.065 A 
ATOM     90  C   UNL A   1      47.150  24.498  27.483  1.00  0.00     0.016 A 
ATOM     91  C   UNL A   1      45.232  25.837  26.805  1.00  0.00     0.079 A 
ATOM     92  C   UNL A   1      47.260  25.236  28.660  1.00  0.00     0.001 A 
ATOM     93  C   UNL A   1      45.374  26.593  27.982  1.00  0.00     0.029 A 
ATOM     94  C   UNL A   1      46.377  26.285  28.906  1.00  0.00     0.002 A 
BRANCH  91  95
ATOM     95  N   UNL A   1      44.211  26.204  25.891  1.00  0.00    -0.220 N 
ATOM     96  C   UNL A   1      44.101  27.300  25.069  1.00  0.00     0.225 A 
ATOM     97  N   UNL A   1      43.073  25.469  25.793  1.00  0.00    -0.155 NA
ATOM     98  N   UNL A   1      42.883  27.390  24.586  1.00  0.00    -0.223 NA
ATOM     99  C   UNL A   1      42.280  26.275  25.085  1.00  0.00     0.246 A 
ENDBRANCH  91  95
ENDBRANCH  87  89
ENDBRANCH  84  87
ENDBRANCH  75  77
ENDBRANCH  74  75
ENDBRANCH  73  74
ENDBRANCH   1  73
TORSDOF 17
ENDMDL
MODEL 2
REMARK VINA RESULT:     -11.6      4.110      6.619
REMARK SMILES O=C(OCCOC(=O)[C@]12C[NH2+]C[C@H]1CN(C(=O)c1ccccc1-n1cncn1)C2)c1ccc(-c2c3nc(c(-c4c(F)cc(S(=O)(=O)[O-])cc4F)c4ccc([nH]4)c(-c4c(F)cc(S(=O)(=O)[O-])cc4F)c4nc(c(-c5c(F)cc(S(=O)(=O)[O-])cc5F)c5ccc2[nH]5)C=C4)C=C3)cc1
REMARK SMILES IDX 4 1 3 2 2 3 1 4 30 5 31 6 95 7 32 8 94 9 33 10 34 11 35 12
REMARK SMILES IDX 88 13 36 14 93 15 87 16 89 17 37 18 92 19 86 20 85 21 38 23
REMARK SMILES IDX 72 24 51 25 71 26 52 27 55 28 70 29 90 30 53 31 54 32 69 34
REMARK SMILES IDX 91 35 56 36 39 37 40 38 49 39 41 40 42 41 48 42 50 43 43 44
REMARK SMILES IDX 44 45 45 46 46 47 47 48 73 49 74 50 83 51 75 52 76 53 82 54
REMARK SMILES IDX 84 55 77 56 78 57 79 58 80 59 81 60 57 61 58 62 67 63 59 64
REMARK SMILES IDX 60 65 66 66 68 67 61 68 62 69 63 70 64 71 65 72 5 73 6 74
REMARK SMILES IDX 7 75 8 76 9 77 10 78 13 79 29 80 11 81 12 82 14 83 15 84
REMARK SMILES IDX 16 87 17 88 18 89 19 90 23 91 20 92 22 93 21 94 24 95 25 96
REMARK SMILES IDX 28 97 26 98 27 99
REMARK H PARENT 89 22 55 33 11 85 11 86
REMARK Flexibility Score: inf
ROOT
ATOM      1  C   UNL A   1      37.992  21.087  25.375  1.00  0.00     0.275 C 
ENDROOT
BRANCH   1   2
ATOM      2  O   UNL A   1      38.634  22.294  25.839  1.00  0.00    -0.458 OA
BRANCH   2   3
ATOM      3  C   UNL A   1      39.860  22.339  26.402  1.00  0.00     0.338 C 
ATOM      4  O   UNL A   1      40.653  21.414  26.264  1.00  0.00    -0.246 OA
BRANCH   3   5
ATOM      5  C   UNL A   1      40.295  23.640  26.983  1.00  0.00     0.060 A 
ATOM      6  C   UNL A   1      41.371  23.796  27.871  1.00  0.00     0.016 A 
ATOM      7  C   UNL A   1      39.549  24.769  26.608  1.00  0.00     0.016 A 
ATOM      8  C   UNL A   1      41.699  25.054  28.377  1.00  0.00     0.010 A 
ATOM      9  C   UNL A   1      39.874  26.020  27.107  1.00  0.00     0.010 A 
ATOM     10  C   UNL A   1      40.919  26.153  28.028  1.00  0.00    -0.014 A 
BRANCH  10  11
ATOM     11  C   UNL A   1      41.124  27.431  28.705  1.00  0.00     0.031 A 
ATOM     12  C   UNL A   1      42.308  28.260  28.315  1.00  0.00     0.074 A 
ATOM     13  C   UNL A   1      40.121  27.927  29.459  1.00  0.00     0.049 A 
ATOM     14  N   UNL A   1      43.313  28.664  29.029  1.00  0.00    -0.248 NA
ATOM     15  C   UNL A   1      42.426  28.616  26.896  1.00  0.00     0.031 C 
ATOM     16  C   UNL A   1      38.780  27.365  29.669  1.00  0.00     0.029 A 
ATOM     17  N   UNL A   1      40.046  29.123  30.092  1.00  0.00    -0.354 N 
ATOM     18  C   UNL A   1      44.081  29.488  28.193  1.00  0.00     0.074 A 
ATOM     19  C   UNL A   1      43.602  29.243  26.861  1.00  0.00     0.031 C 
ATOM     20  C   UNL A   1      37.963  28.326  30.148  1.00  0.00     0.029 A 
ATOM     21  C   UNL A   1      38.756  29.504  30.432  1.00  0.00     0.049 A 
ATOM     22  H   UNL A   1      40.837  29.673  30.291  1.00  0.00     0.167 HD
ATOM     23  C   UNL A   1      44.899  30.477  28.664  1.00  0.00     0.037 A 
ATOM     24  C   UNL A   1      38.375  30.740  30.835  1.00  0.00     0.037 A 
ATOM     25  C   UNL A   1      45.146  30.319  30.074  1.00  0.00     0.049 A 
ATOM     26  C   UNL A   1      39.605  31.427  31.318  1.00  0.00     0.074 A 
ATOM     27  C   UNL A   1      45.734  29.348  30.863  1.00  0.00     0.029 A 
ATOM     28  N   UNL A   1      44.442  31.116  30.945  1.00  0.00    -0.354 N 
ATOM     29  N   UNL A   1      40.304  31.014  32.345  1.00  0.00    -0.248 NA
ATOM     30  C   UNL A   1      40.330  32.268  30.376  1.00  0.00     0.031 C 
ATOM     31  C   UNL A   1      44.924  29.299  32.037  1.00  0.00     0.029 A 
ATOM     32  C   UNL A   1      43.943  30.285  31.916  1.00  0.00     0.049 A 
ATOM     33  H   UNL A   1      44.320  32.090  30.884  1.00  0.00     0.167 HD
ATOM     34  C   UNL A   1      41.632  31.206  31.989  1.00  0.00     0.074 A 
ATOM     35  C   UNL A   1      41.580  32.043  30.789  1.00  0.00     0.031 C 
ATOM     36  C   UNL A   1      42.637  30.444  32.519  1.00  0.00     0.037 A 
BRANCH  23  37
ATOM     37  C   UNL A   1      45.202  31.791  27.952  1.00  0.00     0.058 A 
ATOM     38  C   UNL A   1      46.530  32.069  27.548  1.00  0.00     0.135 A 
ATOM     39  C   UNL A   1      44.326  32.898  27.911  1.00  0.00     0.135 A 
ATOM     40  F   UNL A   1      47.455  31.096  27.514  1.00  0.00    -0.206 F 
ATOM     41  C   UNL A   1      46.974  33.360  27.248  1.00  0.00     0.059 A 
ATOM     42  C   UNL A   1      44.735  34.183  27.563  1.00  0.00     0.059 A 
ATOM     43  F   UNL A   1      43.048  32.821  28.295  1.00  0.00    -0.206 F 
ATOM     44  C   UNL A   1      46.072  34.417  27.289  1.00  0.00     0.060 A 
BRANCH  44  45
ATOM     45  S   UNL A   1      46.663  36.104  27.069  1.00  0.00     0.124 S 
ATOM     46  O   UNL A   1      47.353  36.004  25.787  1.00  0.00    -0.237 OA
ATOM     47  O   UNL A   1      45.418  36.865  27.067  1.00  0.00    -0.237 OA
ATOM     48  O   UNL A   1      47.518  36.316  28.232  1.00  0.00    -0.744 OA
ENDBRANCH  44  45
ENDBRANCH  23  37
BRANCH  24  49
ATOM     49  C   UNL A   1      37.140  31.442  30.392  1.00  0.00     0.058 A 
ATOM     50  C   UNL A   1      36.314  32.127  31.296  1.00  0.00     0.135 A 
ATOM     51  C   UNL A   1      36.869  31.650  29.022  1.00  0.00     0.135 A 
ATOM     52  F   UNL A   1      36.521  32.011  32.617  1.00  0.00    -0.206 F 
ATOM     53  C   UNL A   1      35.291  32.982  30.867  1.00  0.00     0.059 A 
ATOM     54  C   UNL A   1      35.851  32.487  28.570  1.00  0.00     0.059 A 
ATOM     55  F   UNL A   1      37.644  31.104  28.072  1.00  0.00    -0.206 F 
ATOM     56  C   UNL A   1      35.075  33.167  29.499  1.00  0.00     0.060 A 
BRANCH  56  57
ATOM     57  S   UNL A   1      33.852  34.376  28.941  1.00  0.00     0.124 S 
ATOM     58  O   UNL A   1      33.181  34.725  30.189  1.00  0.00    -0.237 OA
ATOM     59  O   UNL A   1      34.692  35.417  28.357  1.00  0.00    -0.237 OA
ATOM     60  O   UNL A   1      33.041  33.625  27.986  1.00  0.00    -0.744 OA
ENDBRANCH  56  57
ENDBRANCH  24  49
BRANCH  36  61
ATOM     61  C   UNL A   1      42.309  29.495  33.648  1.00  0.00     0.058 A 
ATOM     62  C   UNL A   1      41.739  28.223  33.453  1.00  0.00     0.135 A 
ATOM     63  C   UNL A   1      42.778  29.783  34.936  1.00  0.00     0.135 A 
ATOM     64  F   UNL A   1      41.376  27.816  32.233  1.00  0.00    -0.206 F 
ATOM     65  C   UNL A   1      41.605  27.298  34.489  1.00  0.00     0.059 A 
ATOM     66  C   UNL A   1      42.685  28.863  35.981  1.00  0.00     0.059 A 
ATOM     67  F   UNL A   1      43.404  30.947  35.177  1.00  0.00    -0.206 F 
ATOM     68  C   UNL A   1      42.089  27.624  35.752  1.00  0.00     0.060 A 
BRANCH  68  69
ATOM     69  S   UNL A   1      42.015  26.383  37.062  1.00  0.00     0.124 S 
ATOM     70  O   UNL A   1      40.675  26.586  37.602  1.00  0.00    -0.237 OA
ATOM     71  O   UNL A   1      42.221  25.135  36.331  1.00  0.00    -0.237 OA
ATOM     72  O   UNL A   1      43.111  26.760  37.952  1.00  0.00    -0.744 OA
ENDBRANCH  68  69
ENDBRANCH  36  61
ENDBRANCH  10  11
ENDBRANCH   3   5
ENDBRANCH   2   3
ENDBRANCH   1   2
BRANCH   1  73
ATOM     73  C   UNL A   1      36.926  21.227  24.292  1.00  0.00     0.274 C 
BRANCH  73  74
ATOM     74  O   UNL A   1      35.652  21.683  24.797  1.00  0.00    -0.461 OA
BRANCH  74  75
ATOM     75  C   UNL A   1      35.130  22.797  24.194  1.00  0.00     0.320 C 
ATOM     76  O   UNL A   1      35.503  23.219  23.107  1.00  0.00    -0.251 OA
BRANCH  75  77
ATOM     77  C   UNL A   1      34.078  23.452  25.139  1.00  0.00     0.144 C 
ATOM     78  C   UNL A   1      33.599  21.971  25.388  1.00  0.00     0.281 C 
ATOM     79  C   UNL A   1      32.594  23.869  25.505  1.00  0.00     0.088 C 
ATOM     80  C   UNL A   1      34.018  24.567  23.995  1.00  0.00     0.145 C 
ATOM     81  N   UNL A   1      32.911  21.931  26.679  1.00  0.00    -0.345 N 
ATOM     82  C   UNL A   1      32.158  23.156  26.761  1.00  0.00     0.267 C 
ATOM     83  C   UNL A   1      32.577  25.369  25.669  1.00  0.00     0.130 C 
ATOM     84  N   UNL A   1      33.402  25.758  24.569  1.00  0.00    -0.337 N 
ATOM     85  H   UNL A   1      33.588  21.879  27.441  1.00  0.00     0.346 HD
ATOM     86  H   UNL A   1      32.307  21.113  26.758  1.00  0.00     0.346 HD
BRANCH  84  87
ATOM     87  C   UNL A   1      33.540  27.067  24.174  1.00  0.00     0.256 C 
ATOM     88  O   UNL A   1      34.011  27.417  23.095  1.00  0.00    -0.269 OA
BRANCH  87  89
ATOM     89  C   UNL A   1      33.088  28.112  25.115  1.00  0.00     0.065 A 
ATOM     90  C   UNL A   1      33.992  28.432  26.141  1.00  0.00     0.016 A 
ATOM     91  C   UNL A   1      31.923  28.876  24.936  1.00  0.00     0.079 A 
ATOM     92  C   UNL A   1      33.753  29.525  26.972  1.00  0.00     0.001 A 
ATOM     93  C   UNL A   1      31.711  29.994  25.761  1.00  0.00     0.029 A 
ATOM     94  C   UNL A   1      32.617  30.308  26.777  1.00  0.00     0.002 A 
BRANCH  91  95
ATOM     95  N   UNL A   1      30.984  28.614  23.905  1.00  0.00    -0.220 N 
ATOM     96  C   UNL A   1      30.755  29.268  22.719  1.00  0.00     0.225 A 
ATOM     97  N   UNL A   1      30.055  27.633  24.049  1.00  0.00    -0.155 NA
ATOM     98  N   UNL A   1      29.625  28.866  22.184  1.00  0.00    -0.223 NA
ATOM     99  C   UNL A   1      29.213  27.897  23.049  1.00  0.00     0.246 A 
ENDBRANCH  91  95
ENDBRANCH  87  89
ENDBRANCH  84  87
ENDBRANCH  75  77
ENDBRANCH  74  75
ENDBRANCH  73  74
ENDBRANCH   1  73
TORSDOF 17
ENDMDL
MODEL 3
REMARK VINA RESULT:     -11.5      4.360      6.874
REMARK SMILES O=C(OCCOC(=O)[C@]12C[NH2+]C[C@H]1CN(C(=O)c1ccccc1-n1cncn1)C2)c1ccc(-c2c3nc(c(-c4c(F)cc(S(=O)(=O)[O-])cc4F)c4ccc([nH]4)c(-c4c(F)cc(S(=O)(=O)[O-])cc4F)c4nc(c(-c5c(F)cc(S(=O)(=O)[O-])cc5F)c5ccc2[nH]5)C=C4)C=C3)cc1
REMARK SMILES IDX 4 1 3 2 2 3 1 4 30 5 31 6 95 7 32 8 94 9 33 10 34 11 35 12
REMARK SMILES IDX 88 13 36 14 93 15 87 16 89 17 37 18 92 19 86 20 85 21 38 23
REMARK SMILES IDX 72 24 51 25 71 26 52 27 55 28 70 29 90 30 53 31 54 32 69 34
REMARK SMILES IDX 91 35 56 36 39 37 40 38 49 39 41 40 42 41 48 42 50 43 43 44
REMARK SMILES IDX 44 45 45 46 46 47 47 48 73 49 74 50 83 51 75 52 76 53 82 54
REMARK SMILES IDX 84 55 77 56 78 57 79 58 80 59 81 60 57 61 58 62 67 63 59 64
REMARK SMILES IDX 60 65 66 66 68 67 61 68 62 69 63 70 64 71 65 72 5 73 6 74
REMARK SMILES IDX 7 75 8 76 9 77 10 78 13 79 29 80 11 81 12 82 14 83 15 84
REMARK SMILES IDX 16 87 17 88 18 89 19 90 23 91 20 92 22 93 21 94 24 95 25 96
REMARK SMILES IDX 28 97 26 98 27 99
REMARK H PARENT 89 22 55 33 11 85 11 86
REMARK Flexibility Score: inf
ROOT
ATOM      1  C   UNL A   1      37.632  20.944  24.844  1.00  0.00     0.275 C 
ENDROOT
BRANCH   1   2
ATOM      2  O   UNL A   1      38.132  22.107  25.536  1.00  0.00    -0.458 OA
BRANCH   2   3
ATOM      3  C   UNL A   1      39.313  22.159  26.188  1.00  0.00     0.338 C 
ATOM      4  O   UNL A   1      40.161  21.288  26.030  1.00  0.00    -0.246 OA
BRANCH   3   5
ATOM      5  C   UNL A   1      39.638  23.421  26.910  1.00  0.00     0.060 A 
ATOM      6  C   UNL A   1      38.881  24.601  26.833  1.00  0.00     0.016 A 
ATOM      7  C   UNL A   1      40.796  23.402  27.704  1.00  0.00     0.016 A 
ATOM      8  C   UNL A   1      39.270  25.742  27.535  1.00  0.00     0.010 A 
ATOM      9  C   UNL A   1      41.183  24.534  28.404  1.00  0.00     0.010 A 
ATOM     10  C   UNL A   1      40.445  25.716  28.280  1.00  0.00    -0.014 A 
BRANCH  10  11
ATOM     11  C   UNL A   1      40.969  26.954  28.851  1.00  0.00     0.031 A 
ATOM     12  C   UNL A   1      42.278  27.473  28.344  1.00  0.00     0.074 A 
ATOM     13  C   UNL A   1      40.150  27.706  29.615  1.00  0.00     0.049 A 
ATOM     14  N   UNL A   1      43.392  27.684  28.976  1.00  0.00    -0.248 NA
ATOM     15  C   UNL A   1      42.381  27.707  26.899  1.00  0.00     0.031 C 
ATOM     16  C   UNL A   1      38.735  27.472  29.932  1.00  0.00     0.029 A 
ATOM     17  N   UNL A   1      40.380  28.926  30.161  1.00  0.00    -0.354 N 
ATOM     18  C   UNL A   1      44.266  28.264  28.046  1.00  0.00     0.074 A 
ATOM     19  C   UNL A   1      43.662  28.051  26.760  1.00  0.00     0.031 C 
ATOM     20  C   UNL A   1      38.180  28.619  30.378  1.00  0.00     0.029 A 
ATOM     21  C   UNL A   1      39.230  29.605  30.536  1.00  0.00     0.049 A 
ATOM     22  H   UNL A   1      41.284  29.296  30.282  1.00  0.00     0.167 HD
ATOM     23  C   UNL A   1      45.310  29.072  28.403  1.00  0.00     0.037 A 
ATOM     24  C   UNL A   1      39.156  30.917  30.865  1.00  0.00     0.037 A 
ATOM     25  C   UNL A   1      45.606  28.948  29.807  1.00  0.00     0.049 A 
ATOM     26  C   UNL A   1      40.535  31.339  31.236  1.00  0.00     0.074 A 
ATOM     27  C   UNL A   1      46.016  27.920  30.635  1.00  0.00     0.029 A 
ATOM     28  N   UNL A   1      45.152  29.933  30.650  1.00  0.00    -0.354 N 
ATOM     29  N   UNL A   1      41.190  30.843  32.256  1.00  0.00    -0.248 NA
ATOM     30  C   UNL A   1      41.365  31.939  30.201  1.00  0.00     0.031 C 
ATOM     31  C   UNL A   1      45.292  28.124  31.848  1.00  0.00     0.029 A 
ATOM     32  C   UNL A   1      44.546  29.296  31.703  1.00  0.00     0.049 A 
ATOM     33  H   UNL A   1      45.243  30.905  30.524  1.00  0.00     0.167 HD
ATOM     34  C   UNL A   1      42.502  30.712  31.821  1.00  0.00     0.074 A 
ATOM     35  C   UNL A   1      42.560  31.466  30.567  1.00  0.00     0.031 C 
ATOM     36  C   UNL A   1      43.348  29.778  32.356  1.00  0.00     0.037 A 
BRANCH  23  37
ATOM     37  C   UNL A   1      45.849  30.239  27.582  1.00  0.00     0.058 A 
ATOM     38  C   UNL A   1      47.242  30.344  27.359  1.00  0.00     0.135 A 
ATOM     39  C   UNL A   1      45.107  31.398  27.261  1.00  0.00     0.135 A 
ATOM     40  F   UNL A   1      48.056  29.302  27.597  1.00  0.00    -0.206 F 
ATOM     41  C   UNL A   1      47.857  31.537  26.967  1.00  0.00     0.059 A 
ATOM     42  C   UNL A   1      45.694  32.580  26.817  1.00  0.00     0.059 A 
ATOM     43  F   UNL A   1      43.787  31.484  27.446  1.00  0.00    -0.206 F 
ATOM     44  C   UNL A   1      47.074  32.660  26.728  1.00  0.00     0.060 A 
BRANCH  44  45
ATOM     45  S   UNL A   1      47.864  34.242  26.386  1.00  0.00     0.124 S 
ATOM     46  O   UNL A   1      47.418  34.499  25.021  1.00  0.00    -0.237 OA
ATOM     47  O   UNL A   1      47.288  35.099  27.418  1.00  0.00    -0.237 OA
ATOM     48  O   UNL A   1      49.285  33.950  26.543  1.00  0.00    -0.744 OA
ENDBRANCH  44  45
ENDBRANCH  23  37
BRANCH  24  49
ATOM     49  C   UNL A   1      38.080  31.849  30.433  1.00  0.00     0.058 A 
ATOM     50  C   UNL A   1      37.630  31.895  29.105  1.00  0.00     0.135 A 
ATOM     51  C   UNL A   1      37.306  32.559  31.377  1.00  0.00     0.135 A 
ATOM     52  F   UNL A   1      38.289  31.223  28.148  1.00  0.00    -0.206 F 
ATOM     53  C   UNL A   1      36.470  32.589  28.737  1.00  0.00     0.059 A 
ATOM     54  C   UNL A   1      36.154  33.265  31.034  1.00  0.00     0.059 A 
ATOM     55  F   UNL A   1      37.602  32.521  32.685  1.00  0.00    -0.206 F 
ATOM     56  C   UNL A   1      35.729  33.260  29.712  1.00  0.00     0.060 A 
BRANCH  56  57
ATOM     57  S   UNL A   1      34.158  34.036  29.267  1.00  0.00     0.124 S 
ATOM     58  O   UNL A   1      33.541  34.241  30.574  1.00  0.00    -0.237 OA
ATOM     59  O   UNL A   1      34.596  35.243  28.574  1.00  0.00    -0.237 OA
ATOM     60  O   UNL A   1      33.510  33.035  28.423  1.00  0.00    -0.744 OA
ENDBRANCH  56  57
ENDBRANCH  24  49
BRANCH  36  61
ATOM     61  C   UNL A   1      42.892  28.997  33.566  1.00  0.00     0.058 A 
ATOM     62  C   UNL A   1      42.141  27.809  33.486  1.00  0.00     0.135 A 
ATOM     63  C   UNL A   1      43.407  29.332  34.825  1.00  0.00     0.135 A 
ATOM     64  F   UNL A   1      41.714  27.347  32.307  1.00  0.00    -0.206 F 
ATOM     65  C   UNL A   1      41.881  27.014  34.603  1.00  0.00     0.059 A 
ATOM     66  C   UNL A   1      43.188  28.537  35.951  1.00  0.00     0.059 A 
ATOM     67  F   UNL A   1      44.198  30.409  34.960  1.00  0.00    -0.206 F 
ATOM     68  C   UNL A   1      42.415  27.382  35.834  1.00  0.00     0.060 A 
BRANCH  68  69
ATOM     69  S   UNL A   1      42.170  26.293  37.253  1.00  0.00     0.124 S 
ATOM     70  O   UNL A   1      43.185  26.770  38.185  1.00  0.00    -0.237 OA
ATOM     71  O   UNL A   1      40.785  26.568  37.630  1.00  0.00    -0.237 OA
ATOM     72  O   UNL A   1      42.402  24.959  36.704  1.00  0.00    -0.744 OA
ENDBRANCH  68  69
ENDBRANCH  36  61
ENDBRANCH  10  11
ENDBRANCH   3   5
ENDBRANCH   2   3
ENDBRANCH   1   2
BRANCH   1  73
ATOM     73  C   UNL A   1      36.173  20.558  25.076  1.00  0.00     0.274 C 
BRANCH  73  74
ATOM     74  O   UNL A   1      35.343  21.669  25.476  1.00  0.00    -0.461 OA
BRANCH  74  75
ATOM     75  C   UNL A   1      34.746  22.371  24.461  1.00  0.00     0.320 C 
ATOM     76  O   UNL A   1      35.246  22.519  23.354  1.00  0.00    -0.251 OA
BRANCH  75  77
ATOM     77  C   UNL A   1      33.412  22.992  24.976  1.00  0.00     0.144 C 
ATOM     78  C   UNL A   1      32.890  21.505  24.968  1.00  0.00     0.281 C 
ATOM     79  C   UNL A   1      31.894  23.402  24.782  1.00  0.00     0.088 C 
ATOM     80  C   UNL A   1      33.769  24.155  23.939  1.00  0.00     0.145 C 
ATOM     81  N   UNL A   1      31.773  21.415  25.910  1.00  0.00    -0.345 N 
ATOM     82  C   UNL A   1      31.031  22.640  25.757  1.00  0.00     0.267 C 
ATOM     83  C   UNL A   1      31.803  24.894  24.990  1.00  0.00     0.130 C 
ATOM     84  N   UNL A   1      32.973  25.324  24.291  1.00  0.00    -0.337 N 
ATOM     85  H   UNL A   1      32.120  21.326  26.865  1.00  0.00     0.346 HD
ATOM     86  H   UNL A   1      31.191  20.598  25.725  1.00  0.00     0.346 HD
BRANCH  84  87
ATOM     87  C   UNL A   1      33.234  26.648  24.030  1.00  0.00     0.256 C 
ATOM     88  O   UNL A   1      33.747  27.058  22.993  1.00  0.00    -0.269 OA
BRANCH  87  89
ATOM     89  C   UNL A   1      32.870  27.631  25.071  1.00  0.00     0.065 A 
ATOM     90  C   UNL A   1      33.749  27.708  26.162  1.00  0.00     0.016 A 
ATOM     91  C   UNL A   1      31.825  28.560  24.938  1.00  0.00     0.079 A 
ATOM     92  C   UNL A   1      33.608  28.723  27.107  1.00  0.00     0.001 A 
ATOM     93  C   UNL A   1      31.713  29.596  25.882  1.00  0.00     0.029 A 
ATOM     94  C   UNL A   1      32.594  29.668  26.963  1.00  0.00     0.002 A 
BRANCH  91  95
ATOM     95  N   UNL A   1      30.917  28.544  23.847  1.00  0.00    -0.220 N 
ATOM     96  C   UNL A   1      30.919  29.262  22.675  1.00  0.00     0.225 A 
ATOM     97  N   UNL A   1      29.783  27.799  23.902  1.00  0.00    -0.155 NA
ATOM     98  N   UNL A   1      29.763  29.142  22.063  1.00  0.00    -0.223 NA
ATOM     99  C   UNL A   1      29.088  28.273  22.866  1.00  0.00     0.246 A 
ENDBRANCH  91  95
ENDBRANCH  87  89
ENDBRANCH  84  87
ENDBRANCH  75  77
ENDBRANCH  74  75
ENDBRANCH  73  74
ENDBRANCH   1  73
TORSDOF 17
ENDMDL
