MODEL 1
REMARK VINA RESULT:     -12.7      0.000      0.000
REMARK SMILES COC(=O)c1c(NC(=O)[C@@H]2C[C@@H]2C(=O)OCCOC(=O)c2ccc(-c3c4nc(c(-c5c(F)cc(S(=O)(=O)[O-])cc5F)c5ccc([nH]5)c(-c5c(F)cc(S(=O)(=O)[O-])cc5F)c5nc(c(-c6c(F)cc(S(=O)(=O)[O-])cc6F)c6ccc3[nH]6)C=C5)C=C4)cc2)sc2c1CC[N@@H+](Cc1ccccc1)C2
REMARK SMILES IDX 16 1 15 2 13 3 14 4 12 5 10 6 11 7 8 8 7 9 9 11 6 12 5 13
REMARK SMILES IDX 89 14 87 15 88 16 90 17 100 18 91 19 92 20 3 22 4 23 2 24
REMARK SMILES IDX 1 25 93 26 94 27 95 28 99 29 96 30 98 31 97 32 17 33 18 34
REMARK SMILES IDX 19 35 20 36 21 37 22 38 86 39 23 40 85 41 24 42 25 43 26 44
REMARK SMILES IDX 79 45 27 46 84 47 78 48 80 49 28 50 83 51 77 52 76 53 29 55
REMARK SMILES IDX 63 56 42 57 62 58 43 59 46 60 61 61 81 62 44 63 45 64 60 66
REMARK SMILES IDX 82 67 47 68 30 69 31 70 40 71 32 72 33 73 39 74 41 75 34 76
REMARK SMILES IDX 35 77 36 78 37 79 38 80 64 81 65 82 74 83 66 84 67 85 73 86
REMARK SMILES IDX 75 87 68 88 69 89 70 90 71 91 72 92 48 93 49 94 58 95 50 96
REMARK SMILES IDX 51 97 57 98 59 99 52 100 53 101 54 102 55 103 56 104
REMARK H PARENT 7 10 92 21 80 54 46 65
REMARK Flexibility Score: inf
ROOT
ATOM      1  C   UNL A   1      31.953  30.364  25.869  1.00  0.00     0.274 C 
ENDROOT
BRANCH   1   2
ATOM      2  O   UNL A   1      32.150  29.438  24.777  1.00  0.00    -0.462 OA
BRANCH   2   3
ATOM      3  C   UNL A   1      31.026  29.147  24.068  1.00  0.00     0.309 C 
ATOM      4  O   UNL A   1      30.137  29.954  23.803  1.00  0.00    -0.252 OA
BRANCH   3   5
ATOM      5  C   UNL A   1      30.845  27.700  23.783  1.00  0.00     0.112 C 
ATOM      6  C   UNL A   1      31.786  26.644  23.236  1.00  0.00     0.094 C 
ATOM      7  C   UNL A   1      30.874  27.377  22.298  1.00  0.00     0.030 C 
BRANCH   6   8
ATOM      8  C   UNL A   1      33.240  26.719  23.073  1.00  0.00     0.229 C 
ATOM      9  N   UNL A   1      34.110  26.364  24.059  1.00  0.00    -0.317 N 
ATOM     10  H   UNL A   1      34.943  26.888  24.071  1.00  0.00     0.170 HD
ATOM     11  O   UNL A   1      33.676  26.999  21.959  1.00  0.00    -0.274 OA
BRANCH   9  12
ATOM     12  C   UNL A   1      34.036  25.405  25.041  1.00  0.00     0.110 A 
ATOM     13  C   UNL A   1      33.137  24.898  25.965  1.00  0.00     0.098 A 
ATOM     14  C   UNL A   1      33.607  23.617  26.461  1.00  0.00    -0.006 A 
ATOM     15  S   UNL A   1      35.499  24.500  24.999  1.00  0.00    -0.116 S 
ATOM     16  C   UNL A   1      34.804  23.242  25.886  1.00  0.00     0.065 A 
ATOM     17  C   UNL A   1      32.847  22.650  27.321  1.00  0.00     0.099 C 
ATOM     18  C   UNL A   1      35.404  21.872  25.955  1.00  0.00     0.310 C 
ATOM     19  C   UNL A   1      33.549  21.269  27.419  1.00  0.00     0.267 C 
ATOM     20  N   UNL A   1      34.388  20.851  26.283  1.00  0.00    -0.326 N 
ATOM     21  H   UNL A   1      34.895  20.031  26.614  1.00  0.00     0.348 HD
BRANCH  13  22
ATOM     22  C   UNL A   1      31.850  25.451  26.342  1.00  0.00     0.341 C 
ATOM     23  O   UNL A   1      31.721  26.358  27.155  1.00  0.00    -0.246 OA
BRANCH  22  24
ATOM     24  O   UNL A   1      30.811  24.804  25.741  1.00  0.00    -0.465 OA
ATOM     25  C   UNL A   1      29.495  25.116  26.215  1.00  0.00     0.282 C 
ENDBRANCH  22  24
ENDBRANCH  13  22
BRANCH  20  26
ATOM     26  C   UNL A   1      33.679  20.285  25.123  1.00  0.00     0.299 C 
BRANCH  26  27
ATOM     27  C   UNL A   1      33.619  18.778  24.975  1.00  0.00     0.006 A 
ATOM     28  C   UNL A   1      34.702  18.068  24.435  1.00  0.00     0.009 A 
ATOM     29  C   UNL A   1      32.492  18.057  25.397  1.00  0.00     0.009 A 
ATOM     30  C   UNL A   1      34.689  16.670  24.393  1.00  0.00     0.001 A 
ATOM     31  C   UNL A   1      32.486  16.660  25.374  1.00  0.00     0.001 A 
ATOM     32  C   UNL A   1      33.587  15.968  24.879  1.00  0.00     0.000 A 
ENDBRANCH  26  27
ENDBRANCH  20  26
ENDBRANCH   9  12
ENDBRANCH   6   8
ENDBRANCH   3   5
ENDBRANCH   2   3
ENDBRANCH   1   2
BRANCH   1  33
ATOM     33  C   UNL A   1      32.759  30.038  27.130  1.00  0.00     0.275 C 
BRANCH  33  34
ATOM     34  O   UNL A   1      34.164  30.257  26.990  1.00  0.00    -0.458 OA
BRANCH  34  35
ATOM     35  C   UNL A   1      34.608  31.195  27.851  1.00  0.00     0.338 C 
ATOM     36  O   UNL A   1      34.270  32.367  27.893  1.00  0.00    -0.246 OA
BRANCH  35  37
ATOM     37  C   UNL A   1      35.769  30.746  28.600  1.00  0.00     0.060 A 
ATOM     38  C   UNL A   1      36.627  31.748  29.039  1.00  0.00     0.016 A 
ATOM     39  C   UNL A   1      36.195  29.433  28.417  1.00  0.00     0.016 A 
ATOM     40  C   UNL A   1      37.978  31.510  29.053  1.00  0.00     0.010 A 
ATOM     41  C   UNL A   1      37.540  29.167  28.524  1.00  0.00     0.010 A 
ATOM     42  C   UNL A   1      38.432  30.221  28.756  1.00  0.00    -0.014 A 
BRANCH  42  43
ATOM     43  C   UNL A   1      39.846  29.950  28.982  1.00  0.00     0.031 A 
ATOM     44  C   UNL A   1      40.187  30.025  30.437  1.00  0.00     0.074 A 
ATOM     45  C   UNL A   1      40.650  29.500  27.996  1.00  0.00     0.049 A 
ATOM     46  N   UNL A   1      41.126  30.699  31.015  1.00  0.00    -0.248 NA
ATOM     47  C   UNL A   1      39.225  29.423  31.390  1.00  0.00     0.031 C 
ATOM     48  C   UNL A   1      40.267  29.196  26.613  1.00  0.00     0.029 A 
ATOM     49  N   UNL A   1      41.939  29.068  28.041  1.00  0.00    -0.354 N 
ATOM     50  C   UNL A   1      41.013  30.398  32.372  1.00  0.00     0.074 A 
ATOM     51  C   UNL A   1      39.720  29.809  32.563  1.00  0.00     0.031 C 
ATOM     52  C   UNL A   1      41.193  28.381  26.062  1.00  0.00     0.029 A 
ATOM     53  C   UNL A   1      42.283  28.200  27.004  1.00  0.00     0.049 A 
ATOM     54  H   UNL A   1      42.573  29.343  28.742  1.00  0.00     0.167 HD
ATOM     55  C   UNL A   1      42.114  30.355  33.169  1.00  0.00     0.037 A 
ATOM     56  C   UNL A   1      43.328  27.329  26.979  1.00  0.00     0.037 A 
ATOM     57  C   UNL A   1      43.162  31.183  32.632  1.00  0.00     0.049 A 
ATOM     58  C   UNL A   1      44.261  27.742  28.061  1.00  0.00     0.074 A 
ATOM     59  C   UNL A   1      43.263  32.521  32.304  1.00  0.00     0.029 A 
ATOM     60  N   UNL A   1      44.201  30.555  31.991  1.00  0.00    -0.354 N 
ATOM     61  N   UNL A   1      44.950  28.849  28.050  1.00  0.00    -0.248 NA
ATOM     62  C   UNL A   1      44.076  27.136  29.371  1.00  0.00     0.031 C 
ATOM     63  C   UNL A   1      44.058  32.554  31.123  1.00  0.00     0.029 A 
ATOM     64  C   UNL A   1      44.466  31.250  30.841  1.00  0.00     0.049 A 
ATOM     65  H   UNL A   1      44.672  29.749  32.303  1.00  0.00     0.167 HD
ATOM     66  C   UNL A   1      44.904  29.304  29.359  1.00  0.00     0.074 A 
ATOM     67  C   UNL A   1      44.424  28.168  30.142  1.00  0.00     0.031 C 
ATOM     68  C   UNL A   1      44.984  30.638  29.640  1.00  0.00     0.037 A 
BRANCH  55  69
ATOM     69  C   UNL A   1      42.371  29.222  34.141  1.00  0.00     0.058 A 
ATOM     70  C   UNL A   1      42.252  27.894  33.686  1.00  0.00     0.135 A 
ATOM     71  C   UNL A   1      42.430  29.374  35.548  1.00  0.00     0.135 A 
ATOM     72  F   UNL A   1      42.183  27.626  32.372  1.00  0.00    -0.206 F 
ATOM     73  C   UNL A   1      42.116  26.813  34.558  1.00  0.00     0.059 A 
ATOM     74  C   UNL A   1      42.348  28.307  36.432  1.00  0.00     0.059 A 
ATOM     75  F   UNL A   1      42.476  30.566  36.151  1.00  0.00    -0.206 F 
ATOM     76  C   UNL A   1      42.150  27.034  35.932  1.00  0.00     0.060 A 
BRANCH  76  77
ATOM     77  S   UNL A   1      41.891  25.661  37.063  1.00  0.00     0.124 S 
ATOM     78  O   UNL A   1      42.480  24.556  36.317  1.00  0.00    -0.237 OA
ATOM     79  O   UNL A   1      42.626  26.103  38.243  1.00  0.00    -0.237 OA
ATOM     80  O   UNL A   1      40.439  25.621  37.215  1.00  0.00    -0.744 OA
ENDBRANCH  76  77
ENDBRANCH  55  69
BRANCH  56  81
ATOM     81  C   UNL A   1      43.421  25.978  26.350  1.00  0.00     0.058 A 
ATOM     82  C   UNL A   1      44.411  25.700  25.385  1.00  0.00     0.135 A 
ATOM     83  C   UNL A   1      42.751  24.858  26.880  1.00  0.00     0.135 A 
ATOM     84  F   UNL A   1      45.111  26.700  24.829  1.00  0.00    -0.206 F 
ATOM     85  C   UNL A   1      44.762  24.393  25.022  1.00  0.00     0.059 A 
ATOM     86  C   UNL A   1      43.074  23.547  26.523  1.00  0.00     0.059 A 
ATOM     87  F   UNL A   1      41.823  24.991  27.838  1.00  0.00    -0.206 F 
ATOM     88  C   UNL A   1      44.103  23.320  25.618  1.00  0.00     0.060 A 
BRANCH  88  89
ATOM     89  S   UNL A   1      44.682  21.634  25.307  1.00  0.00     0.124 S 
ATOM     90  O   UNL A   1      43.688  20.835  26.016  1.00  0.00    -0.237 OA
ATOM     91  O   UNL A   1      44.639  21.557  23.850  1.00  0.00    -0.237 OA
ATOM     92  O   UNL A   1      46.022  21.622  25.889  1.00  0.00    -0.744 OA
ENDBRANCH  88  89
ENDBRANCH  56  81
BRANCH  68  93
ATOM     93  C   UNL A   1      45.473  31.568  28.562  1.00  0.00     0.058 A 
ATOM     94  C   UNL A   1      44.682  32.117  27.538  1.00  0.00     0.135 A 
ATOM     95  C   UNL A   1      46.797  32.024  28.665  1.00  0.00     0.135 A 
ATOM     96  F   UNL A   1      43.379  31.817  27.432  1.00  0.00    -0.206 F 
ATOM     97  C   UNL A   1      45.201  33.040  26.627  1.00  0.00     0.059 A 
ATOM     98  C   UNL A   1      47.324  32.968  27.793  1.00  0.00     0.059 A 
ATOM     99  F   UNL A   1      47.587  31.580  29.657  1.00  0.00    -0.206 F 
ATOM    100  C   UNL A   1      46.526  33.460  26.763  1.00  0.00     0.060 A 
BRANCH 100 101
ATOM    101  S   UNL A   1      47.192  34.690  25.621  1.00  0.00     0.124 S 
ATOM    102  O   UNL A   1      47.188  35.899  26.437  1.00  0.00    -0.237 OA
ATOM    103  O   UNL A   1      48.508  34.146  25.300  1.00  0.00    -0.237 OA
ATOM    104  O   UNL A   1      46.238  34.681  24.516  1.00  0.00    -0.744 OA
ENDBRANCH 100 101
ENDBRANCH  68  93
ENDBRANCH  42  43
ENDBRANCH  35  37
ENDBRANCH  34  35
ENDBRANCH  33  34
ENDBRANCH   1  33
TORSDOF 20
ENDMDL
MODEL 2
REMARK VINA RESULT:     -11.9      2.925      7.581
REMARK SMILES COC(=O)c1c(NC(=O)[C@@H]2C[C@@H]2C(=O)OCCOC(=O)c2ccc(-c3c4nc(c(-c5c(F)cc(S(=O)(=O)[O-])cc5F)c5ccc([nH]5)c(-c5c(F)cc(S(=O)(=O)[O-])cc5F)c5nc(c(-c6c(F)cc(S(=O)(=O)[O-])cc6F)c6ccc3[nH]6)C=C5)C=C4)cc2)sc2c1CC[N@@H+](Cc1ccccc1)C2
REMARK SMILES IDX 16 1 15 2 13 3 14 4 12 5 10 6 11 7 8 8 7 9 9 11 6 12 5 13
REMARK SMILES IDX 89 14 87 15 88 16 90 17 100 18 91 19 92 20 3 22 4 23 2 24
REMARK SMILES IDX 1 25 93 26 94 27 95 28 99 29 96 30 98 31 97 32 17 33 18 34
REMARK SMILES IDX 19 35 20 36 21 37 22 38 86 39 23 40 85 41 24 42 25 43 26 44
REMARK SMILES IDX 79 45 27 46 84 47 78 48 80 49 28 50 83 51 77 52 76 53 29 55
REMARK SMILES IDX 63 56 42 57 62 58 43 59 46 60 61 61 81 62 44 63 45 64 60 66
REMARK SMILES IDX 82 67 47 68 30 69 31 70 40 71 32 72 33 73 39 74 41 75 34 76
REMARK SMILES IDX 35 77 36 78 37 79 38 80 64 81 65 82 74 83 66 84 67 85 73 86
REMARK SMILES IDX 75 87 68 88 69 89 70 90 71 91 72 92 48 93 49 94 58 95 50 96
REMARK SMILES IDX 51 97 57 98 59 99 52 100 53 101 54 102 55 103 56 104
REMARK H PARENT 7 10 92 21 80 54 46 65
REMARK Flexibility Score: inf
ROOT
ATOM      1  C   UNL A   1      31.597  30.319  25.506  1.00  0.00     0.274 C 
ENDROOT
BRANCH   1   2
ATOM      2  O   UNL A   1      30.524  30.302  24.538  1.00  0.00    -0.462 OA
BRANCH   2   3
ATOM      3  C   UNL A   1      30.631  29.334  23.588  1.00  0.00     0.309 C 
ATOM      4  O   UNL A   1      30.769  29.546  22.384  1.00  0.00    -0.252 OA
BRANCH   3   5
ATOM      5  C   UNL A   1      30.376  27.959  24.090  1.00  0.00     0.112 C 
ATOM      6  C   UNL A   1      30.891  26.602  23.650  1.00  0.00     0.094 C 
ATOM      7  C   UNL A   1      29.584  27.106  23.112  1.00  0.00     0.030 C 
BRANCH   6   8
ATOM      8  C   UNL A   1      32.003  26.302  22.745  1.00  0.00     0.229 C 
ATOM      9  N   UNL A   1      33.228  25.906  23.192  1.00  0.00    -0.317 N 
ATOM     10  H   UNL A   1      33.979  26.212  22.634  1.00  0.00     0.170 HD
ATOM     11  O   UNL A   1      31.772  26.294  21.539  1.00  0.00    -0.274 OA
BRANCH   9  12
ATOM     12  C   UNL A   1      33.605  25.156  24.280  1.00  0.00     0.110 A 
ATOM     13  C   UNL A   1      33.256  24.958  25.605  1.00  0.00     0.098 A 
ATOM     14  C   UNL A   1      33.854  23.729  26.096  1.00  0.00    -0.006 A 
ATOM     15  S   UNL A   1      34.817  24.052  23.758  1.00  0.00    -0.116 S 
ATOM     16  C   UNL A   1      34.595  23.086  25.125  1.00  0.00     0.065 A 
ATOM     17  C   UNL A   1      33.574  23.051  27.405  1.00  0.00     0.099 C 
ATOM     18  C   UNL A   1      35.092  21.676  25.210  1.00  0.00     0.310 C 
ATOM     19  C   UNL A   1      34.173  21.620  27.469  1.00  0.00     0.267 C 
ATOM     20  N   UNL A   1      34.325  20.890  26.199  1.00  0.00    -0.326 N 
ATOM     21  H   UNL A   1      34.893  20.075  26.428  1.00  0.00     0.348 HD
BRANCH  13  22
ATOM     22  C   UNL A   1      32.346  25.752  26.409  1.00  0.00     0.341 C 
ATOM     23  O   UNL A   1      31.309  25.308  26.887  1.00  0.00    -0.246 OA
BRANCH  22  24
ATOM     24  O   UNL A   1      32.744  27.052  26.510  1.00  0.00    -0.465 OA
ATOM     25  C   UNL A   1      32.282  27.782  27.654  1.00  0.00     0.282 C 
ENDBRANCH  22  24
ENDBRANCH  13  22
BRANCH  20  26
ATOM     26  C   UNL A   1      33.113  20.240  25.671  1.00  0.00     0.299 C 
BRANCH  26  27
ATOM     27  C   UNL A   1      33.267  19.188  24.592  1.00  0.00     0.006 A 
ATOM     28  C   UNL A   1      34.301  18.241  24.656  1.00  0.00     0.009 A 
ATOM     29  C   UNL A   1      32.367  19.120  23.518  1.00  0.00     0.009 A 
ATOM     30  C   UNL A   1      34.382  17.208  23.717  1.00  0.00     0.001 A 
ATOM     31  C   UNL A   1      32.435  18.077  22.591  1.00  0.00     0.001 A 
ATOM     32  C   UNL A   1      33.438  17.118  22.696  1.00  0.00     0.000 A 
ENDBRANCH  26  27
ENDBRANCH  20  26
ENDBRANCH   9  12
ENDBRANCH   6   8
ENDBRANCH   3   5
ENDBRANCH   2   3
ENDBRANCH   1   2
BRANCH   1  33
ATOM     33  C   UNL A   1      31.538  31.485  26.497  1.00  0.00     0.275 C 
BRANCH  33  34
ATOM     34  O   UNL A   1      32.765  31.712  27.195  1.00  0.00    -0.458 OA
BRANCH  34  35
ATOM     35  C   UNL A   1      32.812  32.950  27.725  1.00  0.00     0.338 C 
ATOM     36  O   UNL A   1      32.066  33.883  27.472  1.00  0.00    -0.246 OA
BRANCH  35  37
ATOM     37  C   UNL A   1      34.039  33.183  28.468  1.00  0.00     0.060 A 
ATOM     38  C   UNL A   1      35.132  33.595  27.714  1.00  0.00     0.016 A 
ATOM     39  C   UNL A   1      34.185  32.549  29.699  1.00  0.00     0.016 A 
ATOM     40  C   UNL A   1      36.383  33.149  28.056  1.00  0.00     0.010 A 
ATOM     41  C   UNL A   1      35.451  32.184  30.095  1.00  0.00     0.010 A 
ATOM     42  C   UNL A   1      36.530  32.409  29.233  1.00  0.00    -0.014 A 
BRANCH  42  43
ATOM     43  C   UNL A   1      37.891  32.132  29.673  1.00  0.00     0.031 A 
ATOM     44  C   UNL A   1      38.273  30.711  29.399  1.00  0.00     0.074 A 
ATOM     45  C   UNL A   1      38.720  33.116  30.083  1.00  0.00     0.049 A 
ATOM     46  N   UNL A   1      38.769  29.836  30.208  1.00  0.00    -0.248 NA
ATOM     47  C   UNL A   1      37.856  30.139  28.097  1.00  0.00     0.031 C 
ATOM     48  C   UNL A   1      38.429  34.553  30.133  1.00  0.00     0.029 A 
ATOM     49  N   UNL A   1      40.043  33.077  30.398  1.00  0.00    -0.354 N 
ATOM     50  C   UNL A   1      38.953  28.687  29.439  1.00  0.00     0.074 A 
ATOM     51  C   UNL A   1      38.181  28.857  28.243  1.00  0.00     0.031 C 
ATOM     52  C   UNL A   1      39.591  35.243  30.168  1.00  0.00     0.029 A 
ATOM     53  C   UNL A   1      40.695  34.303  30.261  1.00  0.00     0.049 A 
ATOM     54  H   UNL A   1      40.500  32.258  30.695  1.00  0.00     0.167 HD
ATOM     55  C   UNL A   1      39.980  27.834  29.696  1.00  0.00     0.037 A 
ATOM     56  C   UNL A   1      42.033  34.508  30.131  1.00  0.00     0.037 A 
ATOM     57  C   UNL A   1      40.389  27.932  31.073  1.00  0.00     0.049 A 
ATOM     58  C   UNL A   1      42.706  33.253  30.557  1.00  0.00     0.074 A 
ATOM     59  C   UNL A   1      39.747  27.767  32.285  1.00  0.00     0.029 A 
ATOM     60  N   UNL A   1      41.540  28.629  31.345  1.00  0.00    -0.354 N 
ATOM     61  N   UNL A   1      42.713  32.805  31.781  1.00  0.00    -0.248 NA
ATOM     62  C   UNL A   1      42.984  32.260  29.529  1.00  0.00     0.031 C 
ATOM     63  C   UNL A   1      40.298  28.766  33.136  1.00  0.00     0.029 A 
ATOM     64  C   UNL A   1      41.300  29.432  32.427  1.00  0.00     0.049 A 
ATOM     65  H   UNL A   1      42.389  28.562  30.850  1.00  0.00     0.167 HD
ATOM     66  C   UNL A   1      42.554  31.433  31.655  1.00  0.00     0.074 A 
ATOM     67  C   UNL A   1      42.810  31.148  30.245  1.00  0.00     0.031 C 
ATOM     68  C   UNL A   1      41.950  30.704  32.639  1.00  0.00     0.037 A 
BRANCH  55  69
ATOM     69  C   UNL A   1      40.877  27.288  28.604  1.00  0.00     0.058 A 
ATOM     70  C   UNL A   1      40.903  25.898  28.376  1.00  0.00     0.135 A 
ATOM     71  C   UNL A   1      41.920  28.020  27.986  1.00  0.00     0.135 A 
ATOM     72  F   UNL A   1      39.968  25.100  28.915  1.00  0.00    -0.206 F 
ATOM     73  C   UNL A   1      41.930  25.276  27.665  1.00  0.00     0.059 A 
ATOM     74  C   UNL A   1      42.922  27.426  27.232  1.00  0.00     0.059 A 
ATOM     75  F   UNL A   1      42.085  29.336  28.152  1.00  0.00    -0.206 F 
ATOM     76  C   UNL A   1      42.944  26.050  27.109  1.00  0.00     0.060 A 
BRANCH  76  77
ATOM     77  S   UNL A   1      44.315  25.250  26.264  1.00  0.00     0.124 S 
ATOM     78  O   UNL A   1      44.333  25.971  24.997  1.00  0.00    -0.237 OA
ATOM     79  O   UNL A   1      45.424  25.520  27.172  1.00  0.00    -0.237 OA
ATOM     80  O   UNL A   1      43.897  23.854  26.193  1.00  0.00    -0.744 OA
ENDBRANCH  76  77
ENDBRANCH  55  69
BRANCH  56  81
ATOM     81  C   UNL A   1      42.760  35.548  29.344  1.00  0.00     0.058 A 
ATOM     82  C   UNL A   1      42.346  35.882  28.039  1.00  0.00     0.135 A 
ATOM     83  C   UNL A   1      43.675  36.437  29.942  1.00  0.00     0.135 A 
ATOM     84  F   UNL A   1      41.468  35.103  27.388  1.00  0.00    -0.206 F 
ATOM     85  C   UNL A   1      42.757  37.057  27.396  1.00  0.00     0.059 A 
ATOM     86  C   UNL A   1      44.110  37.607  29.316  1.00  0.00     0.059 A 
ATOM     87  F   UNL A   1      44.106  36.251  31.198  1.00  0.00    -0.206 F 
ATOM     88  C   UNL A   1      43.621  37.929  28.056  1.00  0.00     0.060 A 
BRANCH  88  89
ATOM     89  S   UNL A   1      43.999  39.538  27.320  1.00  0.00     0.124 S 
ATOM     90  O   UNL A   1      44.104  40.394  28.497  1.00  0.00    -0.237 OA
ATOM     91  O   UNL A   1      45.248  39.270  26.615  1.00  0.00    -0.237 OA
ATOM     92  O   UNL A   1      42.845  39.798  26.462  1.00  0.00    -0.744 OA
ENDBRANCH  88  89
ENDBRANCH  56  81
BRANCH  68  93
ATOM     93  C   UNL A   1      41.783  31.334  33.996  1.00  0.00     0.058 A 
ATOM     94  C   UNL A   1      40.700  32.137  34.394  1.00  0.00     0.135 A 
ATOM     95  C   UNL A   1      42.720  30.985  34.981  1.00  0.00     0.135 A 
ATOM     96  F   UNL A   1      39.705  32.430  33.543  1.00  0.00    -0.206 F 
ATOM     97  C   UNL A   1      40.584  32.613  35.703  1.00  0.00     0.059 A 
ATOM     98  C   UNL A   1      42.605  31.417  36.296  1.00  0.00     0.059 A 
ATOM     99  F   UNL A   1      43.746  30.174  34.677  1.00  0.00    -0.206 F 
ATOM    100  C   UNL A   1      41.544  32.246  36.648  1.00  0.00     0.060 A 
BRANCH 100 101
ATOM    101  S   UNL A   1      41.375  32.815  38.353  1.00  0.00     0.124 S 
ATOM    102  O   UNL A   1      39.930  32.774  38.549  1.00  0.00    -0.237 OA
ATOM    103  O   UNL A   1      42.144  31.821  39.097  1.00  0.00    -0.237 OA
ATOM    104  O   UNL A   1      41.963  34.151  38.327  1.00  0.00    -0.744 OA
ENDBRANCH 100 101
ENDBRANCH  68  93
ENDBRANCH  42  43
ENDBRANCH  35  37
ENDBRANCH  34  35
ENDBRANCH  33  34
ENDBRANCH   1  33
TORSDOF 20
ENDMDL
MODEL 3
REMARK VINA RESULT:     -11.7      3.054      9.656
REMARK SMILES COC(=O)c1c(NC(=O)[C@@H]2C[C@@H]2C(=O)OCCOC(=O)c2ccc(-c3c4nc(c(-c5c(F)cc(S(=O)(=O)[O-])cc5F)c5ccc([nH]5)c(-c5c(F)cc(S(=O)(=O)[O-])cc5F)c5nc(c(-c6c(F)cc(S(=O)(=O)[O-])cc6F)c6ccc3[nH]6)C=C5)C=C4)cc2)sc2c1CC[N@@H+](Cc1ccccc1)C2
REMARK SMILES IDX 16 1 15 2 13 3 14 4 12 5 10 6 11 7 8 8 7 9 9 11 6 12 5 13
REMARK SMILES IDX 89 14 87 15 88 16 90 17 100 18 91 19 92 20 3 22 4 23 2 24
REMARK SMILES IDX 1 25 93 26 94 27 95 28 99 29 96 30 98 31 97 32 17 33 18 34
REMARK SMILES IDX 19 35 20 36 21 37 22 38 86 39 23 40 85 41 24 42 25 43 26 44
REMARK SMILES IDX 79 45 27 46 84 47 78 48 80 49 28 50 83 51 77 52 76 53 29 55
REMARK SMILES IDX 63 56 42 57 62 58 43 59 46 60 61 61 81 62 44 63 45 64 60 66
REMARK SMILES IDX 82 67 47 68 30 69 31 70 40 71 32 72 33 73 39 74 41 75 34 76
REMARK SMILES IDX 35 77 36 78 37 79 38 80 64 81 65 82 74 83 66 84 67 85 73 86
REMARK SMILES IDX 75 87 68 88 69 89 70 90 71 91 72 92 48 93 49 94 58 95 50 96
REMARK SMILES IDX 51 97 57 98 59 99 52 100 53 101 54 102 55 103 56 104
REMARK H PARENT 7 10 92 21 80 54 46 65
REMARK Flexibility Score: inf
ROOT
ATOM      1  C   UNL A   1      36.156  21.103  25.911  1.00  0.00     0.274 C 
ENDROOT
BRANCH   1   2
ATOM      2  O   UNL A   1      34.966  21.085  25.092  1.00  0.00    -0.462 OA
BRANCH   2   3
ATOM      3  C   UNL A   1      33.827  20.735  25.750  1.00  0.00     0.309 C 
ATOM      4  O   UNL A   1      33.074  19.825  25.411  1.00  0.00    -0.252 OA
BRANCH   3   5
ATOM      5  C   UNL A   1      33.440  21.674  26.835  1.00  0.00     0.112 C 
ATOM      6  C   UNL A   1      32.331  22.703  26.945  1.00  0.00     0.094 C 
ATOM      7  C   UNL A   1      33.692  23.131  26.480  1.00  0.00     0.030 C 
BRANCH   6   8
ATOM      8  C   UNL A   1      31.161  22.873  26.080  1.00  0.00     0.229 C 
ATOM      9  N   UNL A   1      30.880  24.045  25.445  1.00  0.00    -0.317 N 
ATOM     10  H   UNL A   1      29.919  24.226  25.339  1.00  0.00     0.170 HD
ATOM     11  O   UNL A   1      30.484  21.878  25.833  1.00  0.00    -0.274 OA
BRANCH   9  12
ATOM     12  C   UNL A   1      31.697  25.020  24.924  1.00  0.00     0.110 A 
ATOM     13  C   UNL A   1      32.592  25.212  23.885  1.00  0.00     0.098 A 
ATOM     14  C   UNL A   1      32.839  26.630  23.701  1.00  0.00    -0.006 A 
ATOM     15  S   UNL A   1      31.399  26.472  25.798  1.00  0.00    -0.116 S 
ATOM     16  C   UNL A   1      32.122  27.404  24.590  1.00  0.00     0.065 A 
ATOM     17  C   UNL A   1      33.586  27.275  22.570  1.00  0.00     0.099 C 
ATOM     18  C   UNL A   1      31.924  28.885  24.483  1.00  0.00     0.310 C 
ATOM     19  C   UNL A   1      33.407  28.817  22.547  1.00  0.00     0.267 C 
ATOM     20  N   UNL A   1      32.159  29.364  23.105  1.00  0.00    -0.326 N 
ATOM     21  H   UNL A   1      32.314  30.370  23.168  1.00  0.00     0.348 HD
BRANCH  13  22
ATOM     22  C   UNL A   1      33.149  24.206  23.001  1.00  0.00     0.341 C 
ATOM     23  O   UNL A   1      34.334  24.166  22.690  1.00  0.00    -0.246 OA
BRANCH  22  24
ATOM     24  O   UNL A   1      32.198  23.363  22.509  1.00  0.00    -0.465 OA
ATOM     25  C   UNL A   1      32.435  21.958  22.666  1.00  0.00     0.282 C 
ENDBRANCH  22  24
ENDBRANCH  13  22
BRANCH  20  26
ATOM     26  C   UNL A   1      30.979  29.325  22.224  1.00  0.00     0.299 C 
BRANCH  26  27
ATOM     27  C   UNL A   1      29.648  29.800  22.772  1.00  0.00     0.006 A 
ATOM     28  C   UNL A   1      29.488  31.122  23.217  1.00  0.00     0.009 A 
ATOM     29  C   UNL A   1      28.542  28.940  22.825  1.00  0.00     0.009 A 
ATOM     30  C   UNL A   1      28.236  31.589  23.627  1.00  0.00     0.001 A 
ATOM     31  C   UNL A   1      27.286  29.410  23.215  1.00  0.00     0.001 A 
ATOM     32  C   UNL A   1      27.133  30.737  23.608  1.00  0.00     0.000 A 
ENDBRANCH  26  27
ENDBRANCH  20  26
ENDBRANCH   9  12
ENDBRANCH   6   8
ENDBRANCH   3   5
ENDBRANCH   2   3
ENDBRANCH   1   2
BRANCH   1  33
ATOM     33  C   UNL A   1      37.450  21.384  25.144  1.00  0.00     0.275 C 
BRANCH  33  34
ATOM     34  O   UNL A   1      38.095  22.602  25.524  1.00  0.00    -0.458 OA
BRANCH  34  35
ATOM     35  C   UNL A   1      39.224  22.368  26.221  1.00  0.00     0.338 C 
ATOM     36  O   UNL A   1      39.537  21.329  26.781  1.00  0.00    -0.246 OA
BRANCH  35  37
ATOM     37  C   UNL A   1      39.966  23.588  26.490  1.00  0.00     0.060 A 
ATOM     38  C   UNL A   1      41.104  23.441  27.276  1.00  0.00     0.016 A 
ATOM     39  C   UNL A   1      39.287  24.799  26.389  1.00  0.00     0.016 A 
ATOM     40  C   UNL A   1      41.428  24.429  28.171  1.00  0.00     0.010 A 
ATOM     41  C   UNL A   1      39.669  25.829  27.218  1.00  0.00     0.010 A 
ATOM     42  C   UNL A   1      40.679  25.610  28.163  1.00  0.00    -0.014 A 
BRANCH  42  43
ATOM     43  C   UNL A   1      41.175  26.713  28.975  1.00  0.00     0.031 A 
ATOM     44  C   UNL A   1      42.391  27.334  28.362  1.00  0.00     0.074 A 
ATOM     45  C   UNL A   1      40.475  27.194  30.024  1.00  0.00     0.049 A 
ATOM     46  N   UNL A   1      43.538  27.574  28.904  1.00  0.00    -0.248 NA
ATOM     47  C   UNL A   1      42.383  27.530  26.892  1.00  0.00     0.031 C 
ATOM     48  C   UNL A   1      39.161  26.741  30.493  1.00  0.00     0.029 A 
ATOM     49  N   UNL A   1      40.702  28.284  30.806  1.00  0.00    -0.354 N 
ATOM     50  C   UNL A   1      44.300  28.177  27.903  1.00  0.00     0.074 A 
ATOM     51  C   UNL A   1      43.634  27.918  26.660  1.00  0.00     0.031 C 
ATOM     52  C   UNL A   1      38.601  27.707  31.253  1.00  0.00     0.029 A 
ATOM     53  C   UNL A   1      39.556  28.789  31.420  1.00  0.00     0.049 A 
ATOM     54  H   UNL A   1      41.594  28.681  30.928  1.00  0.00     0.167 HD
ATOM     55  C   UNL A   1      45.235  29.114  28.209  1.00  0.00     0.037 A 
ATOM     56  C   UNL A   1      39.384  30.038  31.932  1.00  0.00     0.037 A 
ATOM     57  C   UNL A   1      45.708  28.939  29.557  1.00  0.00     0.049 A 
ATOM     58  C   UNL A   1      40.739  30.633  32.082  1.00  0.00     0.074 A 
ATOM     59  C   UNL A   1      46.304  27.898  30.243  1.00  0.00     0.029 A 
ATOM     60  N   UNL A   1      45.234  29.802  30.513  1.00  0.00    -0.354 N 
ATOM     61  N   UNL A   1      41.632  30.214  32.934  1.00  0.00    -0.248 NA
ATOM     62  C   UNL A   1      41.259  31.404  30.962  1.00  0.00     0.031 C 
ATOM     63  C   UNL A   1      45.750  27.953  31.554  1.00  0.00     0.029 A 
ATOM     64  C   UNL A   1      44.910  29.066  31.621  1.00  0.00     0.049 A 
ATOM     65  H   UNL A   1      45.143  30.778  30.419  1.00  0.00     0.167 HD
ATOM     66  C   UNL A   1      42.833  30.278  32.244  1.00  0.00     0.074 A 
ATOM     67  C   UNL A   1      42.553  31.096  31.066  1.00  0.00     0.031 C 
ATOM     68  C   UNL A   1      43.859  29.428  32.543  1.00  0.00     0.037 A 
BRANCH  55  69
ATOM     69  C   UNL A   1      45.352  30.424  27.456  1.00  0.00     0.058 A 
ATOM     70  C   UNL A   1      46.623  30.847  27.020  1.00  0.00     0.135 A 
ATOM     71  C   UNL A   1      44.338  31.411  27.407  1.00  0.00     0.135 A 
ATOM     72  F   UNL A   1      47.665  30.000  27.026  1.00  0.00    -0.206 F 
ATOM     73  C   UNL A   1      46.885  32.167  26.649  1.00  0.00     0.059 A 
ATOM     74  C   UNL A   1      44.566  32.716  26.992  1.00  0.00     0.059 A 
ATOM     75  F   UNL A   1      43.092  31.199  27.844  1.00  0.00    -0.206 F 
ATOM     76  C   UNL A   1      45.850  33.097  26.654  1.00  0.00     0.060 A 
BRANCH  76  77
ATOM     77  S   UNL A   1      46.196  34.818  26.260  1.00  0.00     0.124 S 
ATOM     78  O   UNL A   1      46.763  35.294  27.515  1.00  0.00    -0.237 OA
ATOM     79  O   UNL A   1      47.125  34.687  25.143  1.00  0.00    -0.237 OA
ATOM     80  O   UNL A   1      44.882  35.353  25.915  1.00  0.00    -0.744 OA
ENDBRANCH  76  77
ENDBRANCH  55  69
BRANCH  56  81
ATOM     81  C   UNL A   1      38.157  30.888  31.965  1.00  0.00     0.058 A 
ATOM     82  C   UNL A   1      37.456  31.092  33.172  1.00  0.00     0.135 A 
ATOM     83  C   UNL A   1      37.811  31.747  30.904  1.00  0.00     0.135 A 
ATOM     84  F   UNL A   1      37.721  30.330  34.244  1.00  0.00    -0.206 F 
ATOM     85  C   UNL A   1      36.526  32.126  33.336  1.00  0.00     0.059 A 
ATOM     86  C   UNL A   1      36.876  32.776  31.040  1.00  0.00     0.059 A 
ATOM     87  F   UNL A   1      38.440  31.681  29.723  1.00  0.00    -0.206 F 
ATOM     88  C   UNL A   1      36.262  32.981  32.269  1.00  0.00     0.060 A 
BRANCH  88  89
ATOM     89  S   UNL A   1      35.215  34.435  32.527  1.00  0.00     0.124 S 
ATOM     90  O   UNL A   1      34.236  33.938  33.488  1.00  0.00    -0.237 OA
ATOM     91  O   UNL A   1      36.168  35.414  33.039  1.00  0.00    -0.237 OA
ATOM     92  O   UNL A   1      34.691  34.717  31.193  1.00  0.00    -0.744 OA
ENDBRANCH  88  89
ENDBRANCH  56  81
BRANCH  68  93
ATOM     93  C   UNL A   1      43.806  28.673  33.843  1.00  0.00     0.058 A 
ATOM     94  C   UNL A   1      44.171  29.187  35.100  1.00  0.00     0.135 A 
ATOM     95  C   UNL A   1      43.224  27.396  33.816  1.00  0.00     0.135 A 
ATOM     96  F   UNL A   1      44.638  30.438  35.229  1.00  0.00    -0.206 F 
ATOM     97  C   UNL A   1      44.011  28.440  36.270  1.00  0.00     0.059 A 
ATOM     98  C   UNL A   1      43.021  26.651  34.971  1.00  0.00     0.059 A 
ATOM     99  F   UNL A   1      42.801  26.873  32.654  1.00  0.00    -0.206 F 
ATOM    100  C   UNL A   1      43.433  27.171  36.195  1.00  0.00     0.060 A 
BRANCH 100 101
ATOM    101  S   UNL A   1      43.176  26.220  37.708  1.00  0.00     0.124 S 
ATOM    102  O   UNL A   1      43.654  24.897  37.323  1.00  0.00    -0.237 OA
ATOM    103  O   UNL A   1      44.001  26.936  38.677  1.00  0.00    -0.237 OA
ATOM    104  O   UNL A   1      41.737  26.321  37.934  1.00  0.00    -0.744 OA
ENDBRANCH 100 101
ENDBRANCH  68  93
ENDBRANCH  42  43
ENDBRANCH  35  37
ENDBRANCH  34  35
ENDBRANCH  33  34
ENDBRANCH   1  33
TORSDOF 20
ENDMDL
