MODEL 1
REMARK VINA RESULT:     -13.0      0.000      0.000
REMARK SMILES CC1(C)[C@@]2(C(=O)OCCOC(=O)c3ccc(-c4c5nc(c(-c6c(F)cc(S(=O)(=O)[O-])cc6F)c6ccc([nH]6)c(-c6c(F)cc(S(=O)(=O)[O-])cc6F)c6nc(c(-c7c(F)cc(S(=O)(=O)[O-])cc7F)c7ccc4[nH]7)C=C6)C=C5)cc3)CC[C@]1(C)/C(=N/NC(=O)c1ccc(Cl)cc1)C2
REMARK SMILES IDX 9 1 8 2 7 3 5 4 6 5 4 6 1 7 2 8 3 9 81 10 79 11 95 12 80 13
REMARK SMILES IDX 82 14 83 15 84 16 85 17 86 18 87 20 88 21 89 22 94 23 90 24
REMARK SMILES IDX 93 25 91 26 92 27 10 28 11 29 12 30 13 31 14 32 78 33 15 34
REMARK SMILES IDX 77 35 16 36 17 37 18 38 71 39 19 40 76 41 70 42 72 43 20 44
REMARK SMILES IDX 75 45 69 46 68 47 21 49 55 50 34 51 54 52 35 53 38 54 53 55
REMARK SMILES IDX 73 56 36 57 37 58 52 60 74 61 39 62 22 63 23 64 32 65 24 66
REMARK SMILES IDX 25 67 31 68 33 69 26 70 27 71 28 72 29 73 30 74 56 75 57 76
REMARK SMILES IDX 66 77 58 78 59 79 65 80 67 81 60 82 61 83 62 84 63 85 64 86
REMARK SMILES IDX 40 87 41 88 50 89 42 90 43 91 49 92 51 93 44 94 45 95 46 96
REMARK SMILES IDX 47 97 48 98
REMARK H PARENT 85 19 72 48 38 59
REMARK Flexibility Score: inf
ROOT
ATOM      1  C   UNL A   1      34.131  32.085  27.934  1.00  0.00     0.275 C 
ENDROOT
BRANCH   1   2
ATOM      2  C   UNL A   1      33.073  31.028  27.626  1.00  0.00     0.274 C 
BRANCH   2   3
ATOM      3  O   UNL A   1      33.363  30.392  26.361  1.00  0.00    -0.462 OA
BRANCH   3   4
ATOM      4  C   UNL A   1      33.547  29.041  26.359  1.00  0.00     0.313 C 
ATOM      5  O   UNL A   1      34.515  28.471  26.840  1.00  0.00    -0.252 OA
BRANCH   4   6
ATOM      6  C   UNL A   1      32.476  28.341  25.539  1.00  0.00     0.079 C 
ATOM      7  C   UNL A   1      33.550  28.569  23.174  1.00  0.00     0.013 C 
ATOM      8  C   UNL A   1      32.832  27.657  24.187  1.00  0.00    -0.008 C 
ATOM      9  C   UNL A   1      33.651  26.351  24.312  1.00  0.00     0.013 C 
ATOM     10  C   UNL A   1      31.323  27.376  23.866  1.00  0.00     0.014 C 
ATOM     11  C   UNL A   1      31.414  29.411  25.126  1.00  0.00     0.021 C 
ATOM     12  C   UNL A   1      31.750  27.205  26.297  1.00  0.00     0.073 C 
ATOM     13  C   UNL A   1      30.647  28.752  23.969  1.00  0.00     0.014 C 
ATOM     14  C   UNL A   1      31.033  26.626  22.582  1.00  0.00     0.018 C 
ATOM     15  C   UNL A   1      30.906  26.662  25.175  1.00  0.00     0.046 C 
ATOM     16  N   UNL A   1      30.008  25.732  25.157  1.00  0.00    -0.181 NA
BRANCH  16  17
ATOM     17  N   UNL A   1      29.672  24.918  26.191  1.00  0.00    -0.243 N 
ATOM     18  C   UNL A   1      30.158  23.751  26.734  1.00  0.00     0.271 C 
ATOM     19  H   UNL A   1      28.881  25.246  26.675  1.00  0.00     0.194 HD
ATOM     20  O   UNL A   1      29.529  23.179  27.626  1.00  0.00    -0.267 OA
BRANCH  18  21
ATOM     21  C   UNL A   1      31.435  23.151  26.333  1.00  0.00     0.041 A 
ATOM     22  C   UNL A   1      31.404  22.164  25.332  1.00  0.00     0.015 A 
ATOM     23  C   UNL A   1      32.650  23.544  26.905  1.00  0.00     0.015 A 
ATOM     24  C   UNL A   1      32.596  21.636  24.840  1.00  0.00     0.021 A 
ATOM     25  C   UNL A   1      33.842  23.001  26.416  1.00  0.00     0.021 A 
ATOM     26  C   UNL A   1      33.811  22.066  25.375  1.00  0.00     0.041 A 
ATOM     27  Cl  UNL A   1      35.285  21.467  24.720  1.00  0.00    -0.084 Cl
ENDBRANCH  18  21
ENDBRANCH  16  17
ENDBRANCH   4   6
ENDBRANCH   3   4
ENDBRANCH   2   3
ENDBRANCH   1   2
BRANCH   1  28
ATOM     28  O   UNL A   1      35.409  31.433  27.907  1.00  0.00    -0.458 OA
BRANCH  28  29
ATOM     29  C   UNL A   1      35.971  31.129  29.096  1.00  0.00     0.338 C 
ATOM     30  O   UNL A   1      35.527  31.407  30.204  1.00  0.00    -0.246 OA
BRANCH  29  31
ATOM     31  C   UNL A   1      37.174  30.297  28.864  1.00  0.00     0.060 A 
ATOM     32  C   UNL A   1      37.917  29.835  29.949  1.00  0.00     0.016 A 
ATOM     33  C   UNL A   1      37.660  30.092  27.573  1.00  0.00     0.016 A 
ATOM     34  C   UNL A   1      39.193  29.314  29.760  1.00  0.00     0.010 A 
ATOM     35  C   UNL A   1      38.895  29.452  27.384  1.00  0.00     0.010 A 
ATOM     36  C   UNL A   1      39.713  29.110  28.479  1.00  0.00    -0.014 A 
BRANCH  36  37
ATOM     37  C   UNL A   1      41.129  28.659  28.291  1.00  0.00     0.031 A 
ATOM     38  C   UNL A   1      42.264  29.618  28.564  1.00  0.00     0.074 A 
ATOM     39  C   UNL A   1      41.443  27.390  27.947  1.00  0.00     0.049 A 
ATOM     40  N   UNL A   1      43.513  29.557  28.176  1.00  0.00    -0.248 NA
ATOM     41  C   UNL A   1      41.947  30.819  29.356  1.00  0.00     0.031 C 
ATOM     42  C   UNL A   1      40.495  26.295  27.733  1.00  0.00     0.029 A 
ATOM     43  N   UNL A   1      42.668  26.798  27.749  1.00  0.00    -0.354 N 
ATOM     44  C   UNL A   1      44.092  30.761  28.562  1.00  0.00     0.074 A 
ATOM     45  C   UNL A   1      43.071  31.515  29.257  1.00  0.00     0.031 C 
ATOM     46  C   UNL A   1      41.170  25.154  27.534  1.00  0.00     0.029 A 
ATOM     47  C   UNL A   1      42.595  25.453  27.464  1.00  0.00     0.049 A 
ATOM     48  H   UNL A   1      43.519  27.289  27.805  1.00  0.00     0.167 HD
ATOM     49  C   UNL A   1      45.353  31.201  28.333  1.00  0.00     0.037 A 
ATOM     50  C   UNL A   1      43.553  24.567  27.127  1.00  0.00     0.037 A 
ATOM     51  C   UNL A   1      46.394  30.393  27.754  1.00  0.00     0.049 A 
ATOM     52  C   UNL A   1      44.960  25.050  26.932  1.00  0.00     0.074 A 
ATOM     53  C   UNL A   1      47.694  30.748  27.434  1.00  0.00     0.029 A 
ATOM     54  N   UNL A   1      46.270  29.043  27.464  1.00  0.00    -0.354 N 
ATOM     55  N   UNL A   1      45.445  26.258  27.087  1.00  0.00    -0.248 NA
ATOM     56  C   UNL A   1      45.940  24.060  26.465  1.00  0.00     0.031 C 
ATOM     57  C   UNL A   1      48.356  29.610  26.956  1.00  0.00     0.029 A 
ATOM     58  C   UNL A   1      47.474  28.543  26.999  1.00  0.00     0.049 A 
ATOM     59  H   UNL A   1      45.444  28.517  27.573  1.00  0.00     0.167 HD
ATOM     60  C   UNL A   1      46.783  26.179  26.719  1.00  0.00     0.074 A 
ATOM     61  C   UNL A   1      47.039  24.796  26.371  1.00  0.00     0.031 C 
ATOM     62  C   UNL A   1      47.710  27.165  26.655  1.00  0.00     0.037 A 
BRANCH  49  63
ATOM     63  C   UNL A   1      45.654  32.639  28.650  1.00  0.00     0.058 A 
ATOM     64  C   UNL A   1      45.370  33.685  27.760  1.00  0.00     0.135 A 
ATOM     65  C   UNL A   1      46.235  32.971  29.886  1.00  0.00     0.135 A 
ATOM     66  F   UNL A   1      44.836  33.421  26.557  1.00  0.00    -0.206 F 
ATOM     67  C   UNL A   1      45.678  35.006  28.071  1.00  0.00     0.059 A 
ATOM     68  C   UNL A   1      46.530  34.286  30.228  1.00  0.00     0.059 A 
ATOM     69  F   UNL A   1      46.529  32.007  30.775  1.00  0.00    -0.206 F 
ATOM     70  C   UNL A   1      46.265  35.296  29.306  1.00  0.00     0.060 A 
BRANCH  70  71
ATOM     71  S   UNL A   1      46.671  37.010  29.703  1.00  0.00     0.124 S 
ATOM     72  O   UNL A   1      45.439  37.459  30.344  1.00  0.00    -0.237 OA
ATOM     73  O   UNL A   1      47.827  36.867  30.584  1.00  0.00    -0.237 OA
ATOM     74  O   UNL A   1      46.954  37.600  28.398  1.00  0.00    -0.744 OA
ENDBRANCH  70  71
ENDBRANCH  49  63
BRANCH  50  75
ATOM     75  C   UNL A   1      43.195  23.143  26.892  1.00  0.00     0.058 A 
ATOM     76  C   UNL A   1      43.161  22.617  25.593  1.00  0.00     0.135 A 
ATOM     77  C   UNL A   1      42.919  22.273  27.958  1.00  0.00     0.135 A 
ATOM     78  F   UNL A   1      43.401  23.414  24.541  1.00  0.00    -0.206 F 
ATOM     79  C   UNL A   1      42.876  21.276  25.358  1.00  0.00     0.059 A 
ATOM     80  C   UNL A   1      42.657  20.923  27.751  1.00  0.00     0.059 A 
ATOM     81  F   UNL A   1      42.945  22.728  29.221  1.00  0.00    -0.206 F 
ATOM     82  C   UNL A   1      42.634  20.434  26.445  1.00  0.00     0.060 A 
BRANCH  82  83
ATOM     83  S   UNL A   1      42.363  18.673  26.152  1.00  0.00     0.124 S 
ATOM     84  O   UNL A   1      43.334  18.398  25.101  1.00  0.00    -0.237 OA
ATOM     85  O   UNL A   1      42.653  18.088  27.458  1.00  0.00    -0.237 OA
ATOM     86  O   UNL A   1      40.960  18.618  25.752  1.00  0.00    -0.744 OA
ENDBRANCH  82  83
ENDBRANCH  50  75
BRANCH  62  87
ATOM     87  C   UNL A   1      49.085  26.771  26.207  1.00  0.00     0.058 A 
ATOM     88  C   UNL A   1      49.496  26.946  24.876  1.00  0.00     0.135 A 
ATOM     89  C   UNL A   1      49.997  26.211  27.113  1.00  0.00     0.135 A 
ATOM     90  F   UNL A   1      48.655  27.472  23.973  1.00  0.00    -0.206 F 
ATOM     91  C   UNL A   1      50.759  26.548  24.451  1.00  0.00     0.059 A 
ATOM     92  C   UNL A   1      51.270  25.819  26.713  1.00  0.00     0.059 A 
ATOM     93  F   UNL A   1      49.650  26.030  28.397  1.00  0.00    -0.206 F 
ATOM     94  C   UNL A   1      51.635  25.975  25.375  1.00  0.00     0.060 A 
BRANCH  94  95
ATOM     95  S   UNL A   1      53.270  25.449  24.817  1.00  0.00     0.124 S 
ATOM     96  O   UNL A   1      54.132  26.419  25.485  1.00  0.00    -0.237 OA
ATOM     97  O   UNL A   1      53.351  24.080  25.317  1.00  0.00    -0.237 OA
ATOM     98  O   UNL A   1      53.187  25.576  23.365  1.00  0.00    -0.744 OA
ENDBRANCH  94  95
ENDBRANCH  62  87
ENDBRANCH  36  37
ENDBRANCH  29  31
ENDBRANCH  28  29
ENDBRANCH   1  28
TORSDOF 16
ENDMDL
MODEL 2
REMARK VINA RESULT:     -12.7      3.912      6.179
REMARK SMILES CC1(C)[C@@]2(C(=O)OCCOC(=O)c3ccc(-c4c5nc(c(-c6c(F)cc(S(=O)(=O)[O-])cc6F)c6ccc([nH]6)c(-c6c(F)cc(S(=O)(=O)[O-])cc6F)c6nc(c(-c7c(F)cc(S(=O)(=O)[O-])cc7F)c7ccc4[nH]7)C=C6)C=C5)cc3)CC[C@]1(C)/C(=N/NC(=O)c1ccc(Cl)cc1)C2
REMARK SMILES IDX 9 1 8 2 7 3 5 4 6 5 4 6 1 7 2 8 3 9 81 10 79 11 95 12 80 13
REMARK SMILES IDX 82 14 83 15 84 16 85 17 86 18 87 20 88 21 89 22 94 23 90 24
REMARK SMILES IDX 93 25 91 26 92 27 10 28 11 29 12 30 13 31 14 32 78 33 15 34
REMARK SMILES IDX 77 35 16 36 17 37 18 38 71 39 19 40 76 41 70 42 72 43 20 44
REMARK SMILES IDX 75 45 69 46 68 47 21 49 55 50 34 51 54 52 35 53 38 54 53 55
REMARK SMILES IDX 73 56 36 57 37 58 52 60 74 61 39 62 22 63 23 64 32 65 24 66
REMARK SMILES IDX 25 67 31 68 33 69 26 70 27 71 28 72 29 73 30 74 56 75 57 76
REMARK SMILES IDX 66 77 58 78 59 79 65 80 67 81 60 82 61 83 62 84 63 85 64 86
REMARK SMILES IDX 40 87 41 88 50 89 42 90 43 91 49 92 51 93 44 94 45 95 46 96
REMARK SMILES IDX 47 97 48 98
REMARK H PARENT 85 19 72 48 38 59
REMARK Flexibility Score: inf
ROOT
ATOM      1  C   UNL A   1      33.470  32.040  28.254  1.00  0.00     0.275 C 
ENDROOT
BRANCH   1   2
ATOM      2  C   UNL A   1      34.294  33.294  27.977  1.00  0.00     0.274 C 
BRANCH   2   3
ATOM      3  O   UNL A   1      35.211  33.533  29.068  1.00  0.00    -0.462 OA
BRANCH   3   4
ATOM      4  C   UNL A   1      34.679  33.805  30.293  1.00  0.00     0.313 C 
ATOM      5  O   UNL A   1      33.589  34.327  30.478  1.00  0.00    -0.252 OA
BRANCH   4   6
ATOM      6  C   UNL A   1      35.681  33.529  31.402  1.00  0.00     0.079 C 
ATOM      7  C   UNL A   1      35.230  35.617  32.898  1.00  0.00     0.013 C 
ATOM      8  C   UNL A   1      35.455  34.095  32.835  1.00  0.00    -0.008 C 
ATOM      9  C   UNL A   1      34.319  33.414  33.634  1.00  0.00     0.013 C 
ATOM     10  C   UNL A   1      36.872  33.619  33.309  1.00  0.00     0.014 C 
ATOM     11  C   UNL A   1      37.046  34.164  30.983  1.00  0.00     0.021 C 
ATOM     12  C   UNL A   1      35.911  32.025  31.680  1.00  0.00     0.073 C 
ATOM     13  C   UNL A   1      37.843  34.242  32.294  1.00  0.00     0.014 C 
ATOM     14  C   UNL A   1      37.224  33.880  34.759  1.00  0.00     0.018 C 
ATOM     15  C   UNL A   1      36.803  32.131  32.886  1.00  0.00     0.046 C 
ATOM     16  N   UNL A   1      37.413  31.224  33.578  1.00  0.00    -0.181 NA
BRANCH  16  17
ATOM     17  N   UNL A   1      37.299  29.880  33.420  1.00  0.00    -0.243 N 
ATOM     18  C   UNL A   1      38.141  28.846  33.079  1.00  0.00     0.271 C 
ATOM     19  H   UNL A   1      36.384  29.565  33.594  1.00  0.00     0.194 HD
ATOM     20  O   UNL A   1      37.684  27.717  32.896  1.00  0.00    -0.267 OA
BRANCH  18  21
ATOM     21  C   UNL A   1      39.595  29.002  32.958  1.00  0.00     0.041 A 
ATOM     22  C   UNL A   1      40.190  30.089  33.624  1.00  0.00     0.015 A 
ATOM     23  C   UNL A   1      40.378  28.105  32.223  1.00  0.00     0.015 A 
ATOM     24  C   UNL A   1      41.577  30.226  33.628  1.00  0.00     0.021 A 
ATOM     25  C   UNL A   1      41.768  28.255  32.221  1.00  0.00     0.021 A 
ATOM     26  C   UNL A   1      42.360  29.300  32.937  1.00  0.00     0.041 A 
ATOM     27  Cl  UNL A   1      44.076  29.428  33.001  1.00  0.00    -0.084 Cl
ENDBRANCH  18  21
ENDBRANCH  16  17
ENDBRANCH   4   6
ENDBRANCH   3   4
ENDBRANCH   2   3
ENDBRANCH   1   2
BRANCH   1  28
ATOM     28  O   UNL A   1      33.821  31.068  27.259  1.00  0.00    -0.458 OA
BRANCH  28  29
ATOM     29  C   UNL A   1      34.182  29.842  27.695  1.00  0.00     0.338 C 
ATOM     30  O   UNL A   1      33.478  28.839  27.713  1.00  0.00    -0.246 OA
BRANCH  29  31
ATOM     31  C   UNL A   1      35.619  29.861  28.057  1.00  0.00     0.060 A 
ATOM     32  C   UNL A   1      36.564  30.280  27.122  1.00  0.00     0.016 A 
ATOM     33  C   UNL A   1      36.054  29.327  29.269  1.00  0.00     0.016 A 
ATOM     34  C   UNL A   1      37.917  30.031  27.326  1.00  0.00     0.010 A 
ATOM     35  C   UNL A   1      37.429  29.193  29.520  1.00  0.00     0.010 A 
ATOM     36  C   UNL A   1      38.383  29.483  28.525  1.00  0.00    -0.014 A 
BRANCH  36  37
ATOM     37  C   UNL A   1      39.825  29.112  28.687  1.00  0.00     0.031 A 
ATOM     38  C   UNL A   1      40.784  30.091  29.324  1.00  0.00     0.074 A 
ATOM     39  C   UNL A   1      40.301  27.894  28.343  1.00  0.00     0.049 A 
ATOM     40  N   UNL A   1      42.092  30.119  29.278  1.00  0.00    -0.248 NA
ATOM     41  C   UNL A   1      40.193  31.200  30.092  1.00  0.00     0.031 C 
ATOM     42  C   UNL A   1      39.515  26.783  27.802  1.00  0.00     0.029 A 
ATOM     43  N   UNL A   1      41.571  27.376  28.434  1.00  0.00    -0.354 N 
ATOM     44  C   UNL A   1      42.469  31.307  29.895  1.00  0.00     0.074 A 
ATOM     45  C   UNL A   1      41.256  31.950  30.349  1.00  0.00     0.031 C 
ATOM     46  C   UNL A   1      40.292  25.695  27.704  1.00  0.00     0.029 A 
ATOM     47  C   UNL A   1      41.662  26.061  28.038  1.00  0.00     0.049 A 
ATOM     48  H   UNL A   1      42.343  27.896  28.751  1.00  0.00     0.167 HD
ATOM     49  C   UNL A   1      43.715  31.820  30.044  1.00  0.00     0.037 A 
ATOM     50  C   UNL A   1      42.731  25.251  27.902  1.00  0.00     0.037 A 
ATOM     51  C   UNL A   1      44.922  31.113  29.703  1.00  0.00     0.049 A 
ATOM     52  C   UNL A   1      44.106  25.809  28.125  1.00  0.00     0.074 A 
ATOM     53  C   UNL A   1      46.234  31.551  29.768  1.00  0.00     0.029 A 
ATOM     54  N   UNL A   1      44.967  29.791  29.288  1.00  0.00    -0.354 N 
ATOM     55  N   UNL A   1      44.454  27.019  28.495  1.00  0.00    -0.248 NA
ATOM     56  C   UNL A   1      45.237  24.909  27.862  1.00  0.00     0.031 C 
ATOM     57  C   UNL A   1      47.071  30.491  29.398  1.00  0.00     0.029 A 
ATOM     58  C   UNL A   1      46.280  29.387  29.124  1.00  0.00     0.049 A 
ATOM     59  H   UNL A   1      44.178  29.221  29.134  1.00  0.00     0.167 HD
ATOM     60  C   UNL A   1      45.843  27.030  28.491  1.00  0.00     0.074 A 
ATOM     61  C   UNL A   1      46.272  25.697  28.120  1.00  0.00     0.031 C 
ATOM     62  C   UNL A   1      46.688  28.058  28.752  1.00  0.00     0.037 A 
BRANCH  49  63
ATOM     63  C   UNL A   1      43.828  33.234  30.538  1.00  0.00     0.058 A 
ATOM     64  C   UNL A   1      43.803  34.341  29.676  1.00  0.00     0.135 A 
ATOM     65  C   UNL A   1      43.957  33.481  31.916  1.00  0.00     0.135 A 
ATOM     66  F   UNL A   1      43.705  34.160  28.349  1.00  0.00    -0.206 F 
ATOM     67  C   UNL A   1      43.929  35.640  30.159  1.00  0.00     0.059 A 
ATOM     68  C   UNL A   1      44.061  34.772  32.423  1.00  0.00     0.059 A 
ATOM     69  F   UNL A   1      43.988  32.457  32.785  1.00  0.00    -0.206 F 
ATOM     70  C   UNL A   1      44.065  35.845  31.534  1.00  0.00     0.060 A 
BRANCH  70  71
ATOM     71  S   UNL A   1      44.239  37.531  32.157  1.00  0.00     0.124 S 
ATOM     72  O   UNL A   1      45.658  37.571  32.494  1.00  0.00    -0.237 OA
ATOM     73  O   UNL A   1      43.837  38.338  31.009  1.00  0.00    -0.237 OA
ATOM     74  O   UNL A   1      43.321  37.566  33.292  1.00  0.00    -0.744 OA
ENDBRANCH  70  71
ENDBRANCH  49  63
BRANCH  50  75
ATOM     75  C   UNL A   1      42.542  23.840  27.472  1.00  0.00     0.058 A 
ATOM     76  C   UNL A   1      42.480  23.506  26.113  1.00  0.00     0.135 A 
ATOM     77  C   UNL A   1      42.456  22.797  28.408  1.00  0.00     0.135 A 
ATOM     78  F   UNL A   1      42.540  24.471  25.182  1.00  0.00    -0.206 F 
ATOM     79  C   UNL A   1      42.352  22.186  25.692  1.00  0.00     0.059 A 
ATOM     80  C   UNL A   1      42.354  21.467  28.012  1.00  0.00     0.059 A 
ATOM     81  F   UNL A   1      42.516  23.065  29.722  1.00  0.00    -0.206 F 
ATOM     82  C   UNL A   1      42.298  21.172  26.650  1.00  0.00     0.060 A 
BRANCH  82  83
ATOM     83  S   UNL A   1      42.233  19.451  26.109  1.00  0.00     0.124 S 
ATOM     84  O   UNL A   1      43.176  19.457  24.997  1.00  0.00    -0.237 OA
ATOM     85  O   UNL A   1      42.659  18.728  27.303  1.00  0.00    -0.237 OA
ATOM     86  O   UNL A   1      40.829  19.272  25.749  1.00  0.00    -0.744 OA
ENDBRANCH  82  83
ENDBRANCH  50  75
BRANCH  62  87
ATOM     87  C   UNL A   1      48.155  27.765  28.656  1.00  0.00     0.058 A 
ATOM     88  C   UNL A   1      48.860  27.952  27.456  1.00  0.00     0.135 A 
ATOM     89  C   UNL A   1      48.862  27.292  29.772  1.00  0.00     0.135 A 
ATOM     90  F   UNL A   1      48.224  28.397  26.362  1.00  0.00    -0.206 F 
ATOM     91  C   UNL A   1      50.212  27.647  27.357  1.00  0.00     0.059 A 
ATOM     92  C   UNL A   1      50.218  26.995  29.699  1.00  0.00     0.059 A 
ATOM     93  F   UNL A   1      48.231  27.105  30.941  1.00  0.00    -0.206 F 
ATOM     94  C   UNL A   1      50.881  27.159  28.482  1.00  0.00     0.060 A 
BRANCH  94  95
ATOM     95  S   UNL A   1      52.635  26.754  28.347  1.00  0.00     0.124 S 
ATOM     96  O   UNL A   1      52.931  26.286  29.697  1.00  0.00    -0.237 OA
ATOM     97  O   UNL A   1      52.646  25.732  27.305  1.00  0.00    -0.237 OA
ATOM     98  O   UNL A   1      53.247  28.026  27.974  1.00  0.00    -0.744 OA
ENDBRANCH  94  95
ENDBRANCH  62  87
ENDBRANCH  36  37
ENDBRANCH  29  31
ENDBRANCH  28  29
ENDBRANCH   1  28
TORSDOF 16
ENDMDL
MODEL 3
REMARK VINA RESULT:     -12.7      6.420     11.940
REMARK SMILES CC1(C)[C@@]2(C(=O)OCCOC(=O)c3ccc(-c4c5nc(c(-c6c(F)cc(S(=O)(=O)[O-])cc6F)c6ccc([nH]6)c(-c6c(F)cc(S(=O)(=O)[O-])cc6F)c6nc(c(-c7c(F)cc(S(=O)(=O)[O-])cc7F)c7ccc4[nH]7)C=C6)C=C5)cc3)CC[C@]1(C)/C(=N/NC(=O)c1ccc(Cl)cc1)C2
REMARK SMILES IDX 9 1 8 2 7 3 5 4 6 5 4 6 1 7 2 8 3 9 81 10 79 11 95 12 80 13
REMARK SMILES IDX 82 14 83 15 84 16 85 17 86 18 87 20 88 21 89 22 94 23 90 24
REMARK SMILES IDX 93 25 91 26 92 27 10 28 11 29 12 30 13 31 14 32 78 33 15 34
REMARK SMILES IDX 77 35 16 36 17 37 18 38 71 39 19 40 76 41 70 42 72 43 20 44
REMARK SMILES IDX 75 45 69 46 68 47 21 49 55 50 34 51 54 52 35 53 38 54 53 55
REMARK SMILES IDX 73 56 36 57 37 58 52 60 74 61 39 62 22 63 23 64 32 65 24 66
REMARK SMILES IDX 25 67 31 68 33 69 26 70 27 71 28 72 29 73 30 74 56 75 57 76
REMARK SMILES IDX 66 77 58 78 59 79 65 80 67 81 60 82 61 83 62 84 63 85 64 86
REMARK SMILES IDX 40 87 41 88 50 89 42 90 43 91 49 92 51 93 44 94 45 95 46 96
REMARK SMILES IDX 47 97 48 98
REMARK H PARENT 85 19 72 48 38 59
REMARK Flexibility Score: inf
ROOT
ATOM      1  C   UNL A   1      39.150  22.001  26.066  1.00  0.00     0.275 C 
ENDROOT
BRANCH   1   2
ATOM      2  C   UNL A   1      38.086  21.753  24.999  1.00  0.00     0.274 C 
BRANCH   2   3
ATOM      3  O   UNL A   1      36.773  21.754  25.602  1.00  0.00    -0.462 OA
BRANCH   3   4
ATOM      4  C   UNL A   1      35.897  20.785  25.210  1.00  0.00     0.313 C 
ATOM      5  O   UNL A   1      36.208  19.632  24.947  1.00  0.00    -0.252 OA
BRANCH   4   6
ATOM      6  C   UNL A   1      34.508  21.357  24.983  1.00  0.00     0.079 C 
ATOM      7  C   UNL A   1      33.696  21.469  27.459  1.00  0.00     0.013 C 
ATOM      8  C   UNL A   1      33.797  22.181  26.097  1.00  0.00    -0.008 C 
ATOM      9  C   UNL A   1      34.384  23.591  26.342  1.00  0.00     0.013 C 
ATOM     10  C   UNL A   1      32.458  22.236  25.281  1.00  0.00     0.014 C 
ATOM     11  C   UNL A   1      33.530  20.161  24.749  1.00  0.00     0.021 C 
ATOM     12  C   UNL A   1      34.413  22.307  23.766  1.00  0.00     0.073 C 
ATOM     13  C   UNL A   1      32.136  20.765  24.976  1.00  0.00     0.014 C 
ATOM     14  C   UNL A   1      31.318  23.015  25.904  1.00  0.00     0.018 C 
ATOM     15  C   UNL A   1      32.995  22.781  23.935  1.00  0.00     0.046 C 
ATOM     16  N   UNL A   1      32.261  23.553  23.202  1.00  0.00    -0.181 NA
BRANCH  16  17
ATOM     17  N   UNL A   1      32.661  24.229  22.094  1.00  0.00    -0.243 N 
ATOM     18  C   UNL A   1      32.947  25.538  21.779  1.00  0.00     0.271 C 
ATOM     19  H   UNL A   1      32.778  23.632  21.321  1.00  0.00     0.194 HD
ATOM     20  O   UNL A   1      33.171  25.854  20.610  1.00  0.00    -0.267 OA
BRANCH  18  21
ATOM     21  C   UNL A   1      33.043  26.602  22.784  1.00  0.00     0.041 A 
ATOM     22  C   UNL A   1      32.350  27.799  22.532  1.00  0.00     0.015 A 
ATOM     23  C   UNL A   1      33.780  26.443  23.963  1.00  0.00     0.015 A 
ATOM     24  C   UNL A   1      32.322  28.803  23.499  1.00  0.00     0.021 A 
ATOM     25  C   UNL A   1      33.758  27.459  24.924  1.00  0.00     0.021 A 
ATOM     26  C   UNL A   1      33.015  28.622  24.697  1.00  0.00     0.041 A 
ATOM     27  Cl  UNL A   1      32.922  29.830  25.919  1.00  0.00    -0.084 Cl
ENDBRANCH  18  21
ENDBRANCH  16  17
ENDBRANCH   4   6
ENDBRANCH   3   4
ENDBRANCH   2   3
ENDBRANCH   1   2
BRANCH   1  28
ATOM     28  O   UNL A   1      39.141  23.405  26.362  1.00  0.00    -0.458 OA
BRANCH  28  29
ATOM     29  C   UNL A   1      40.297  23.950  26.797  1.00  0.00     0.338 C 
ATOM     30  O   UNL A   1      41.430  23.565  26.531  1.00  0.00    -0.246 OA
BRANCH  29  31
ATOM     31  C   UNL A   1      39.993  25.175  27.573  1.00  0.00     0.060 A 
ATOM     32  C   UNL A   1      40.637  26.371  27.262  1.00  0.00     0.016 A 
ATOM     33  C   UNL A   1      39.181  25.117  28.705  1.00  0.00     0.016 A 
ATOM     34  C   UNL A   1      40.597  27.446  28.144  1.00  0.00     0.010 A 
ATOM     35  C   UNL A   1      39.046  26.247  29.527  1.00  0.00     0.010 A 
ATOM     36  C   UNL A   1      39.804  27.412  29.295  1.00  0.00    -0.014 A 
BRANCH  36  37
ATOM     37  C   UNL A   1      39.860  28.526  30.295  1.00  0.00     0.031 A 
ATOM     38  C   UNL A   1      40.982  28.570  31.306  1.00  0.00     0.074 A 
ATOM     39  C   UNL A   1      38.973  29.546  30.289  1.00  0.00     0.049 A 
ATOM     40  N   UNL A   1      41.056  29.233  32.432  1.00  0.00    -0.248 NA
ATOM     41  C   UNL A   1      42.165  27.739  31.027  1.00  0.00     0.031 C 
ATOM     42  C   UNL A   1      37.879  29.731  29.334  1.00  0.00     0.029 A 
ATOM     43  N   UNL A   1      38.879  30.649  31.104  1.00  0.00    -0.354 N 
ATOM     44  C   UNL A   1      42.225  28.802  33.051  1.00  0.00     0.074 A 
ATOM     45  C   UNL A   1      42.852  27.856  32.155  1.00  0.00     0.031 C 
ATOM     46  C   UNL A   1      37.291  30.916  29.555  1.00  0.00     0.029 A 
ATOM     47  C   UNL A   1      37.869  31.515  30.751  1.00  0.00     0.049 A 
ATOM     48  H   UNL A   1      39.477  30.805  31.870  1.00  0.00     0.167 HD
ATOM     49  C   UNL A   1      42.711  29.150  34.268  1.00  0.00     0.037 A 
ATOM     50  C   UNL A   1      37.415  32.634  31.350  1.00  0.00     0.037 A 
ATOM     51  C   UNL A   1      42.146  30.185  35.094  1.00  0.00     0.049 A 
ATOM     52  C   UNL A   1      37.998  33.047  32.669  1.00  0.00     0.074 A 
ATOM     53  C   UNL A   1      42.528  30.590  36.362  1.00  0.00     0.029 A 
ATOM     54  N   UNL A   1      41.113  31.023  34.705  1.00  0.00    -0.354 N 
ATOM     55  N   UNL A   1      38.965  32.486  33.354  1.00  0.00    -0.248 NA
ATOM     56  C   UNL A   1      37.394  34.217  33.322  1.00  0.00     0.031 C 
ATOM     57  C   UNL A   1      41.727  31.677  36.736  1.00  0.00     0.029 A 
ATOM     58  C   UNL A   1      40.864  31.961  35.691  1.00  0.00     0.049 A 
ATOM     59  H   UNL A   1      40.627  30.960  33.850  1.00  0.00     0.167 HD
ATOM     60  C   UNL A   1      39.073  33.221  34.528  1.00  0.00     0.074 A 
ATOM     61  C   UNL A   1      38.100  34.291  34.443  1.00  0.00     0.031 C 
ATOM     62  C   UNL A   1      39.890  33.017  35.590  1.00  0.00     0.037 A 
BRANCH  49  63
ATOM     63  C   UNL A   1      43.872  28.359  34.802  1.00  0.00     0.058 A 
ATOM     64  C   UNL A   1      45.204  28.762  34.631  1.00  0.00     0.135 A 
ATOM     65  C   UNL A   1      43.634  27.170  35.512  1.00  0.00     0.135 A 
ATOM     66  F   UNL A   1      45.488  29.878  33.940  1.00  0.00    -0.206 F 
ATOM     67  C   UNL A   1      46.262  28.000  35.119  1.00  0.00     0.059 A 
ATOM     68  C   UNL A   1      44.674  26.404  36.029  1.00  0.00     0.059 A 
ATOM     69  F   UNL A   1      42.377  26.737  35.703  1.00  0.00    -0.206 F 
ATOM     70  C   UNL A   1      45.986  26.818  35.811  1.00  0.00     0.060 A 
BRANCH  70  71
ATOM     71  S   UNL A   1      47.360  25.826  36.435  1.00  0.00     0.124 S 
ATOM     72  O   UNL A   1      47.640  26.486  37.707  1.00  0.00    -0.237 OA
ATOM     73  O   UNL A   1      46.773  24.493  36.530  1.00  0.00    -0.237 OA
ATOM     74  O   UNL A   1      48.384  25.983  35.406  1.00  0.00    -0.744 OA
ENDBRANCH  70  71
ENDBRANCH  49  63
BRANCH  50  75
ATOM     75  C   UNL A   1      36.305  33.407  30.731  1.00  0.00     0.058 A 
ATOM     76  C   UNL A   1      35.018  33.382  31.284  1.00  0.00     0.135 A 
ATOM     77  C   UNL A   1      36.517  34.213  29.601  1.00  0.00     0.135 A 
ATOM     78  F   UNL A   1      34.763  32.613  32.354  1.00  0.00    -0.206 F 
ATOM     79  C   UNL A   1      33.980  34.136  30.747  1.00  0.00     0.059 A 
ATOM     80  C   UNL A   1      35.502  34.996  29.062  1.00  0.00     0.059 A 
ATOM     81  F   UNL A   1      37.734  34.275  29.038  1.00  0.00    -0.206 F 
ATOM     82  C   UNL A   1      34.234  34.947  29.640  1.00  0.00     0.060 A 
BRANCH  82  83
ATOM     83  S   UNL A   1      32.917  36.005  29.001  1.00  0.00     0.124 S 
ATOM     84  O   UNL A   1      32.221  35.094  28.101  1.00  0.00    -0.237 OA
ATOM     85  O   UNL A   1      32.196  36.378  30.215  1.00  0.00    -0.237 OA
ATOM     86  O   UNL A   1      33.650  37.093  28.361  1.00  0.00    -0.744 OA
ENDBRANCH  82  83
ENDBRANCH  50  75
BRANCH  62  87
ATOM     87  C   UNL A   1      39.768  33.983  36.730  1.00  0.00     0.058 A 
ATOM     88  C   UNL A   1      39.054  33.653  37.893  1.00  0.00     0.135 A 
ATOM     89  C   UNL A   1      40.369  35.249  36.658  1.00  0.00     0.135 A 
ATOM     90  F   UNL A   1      38.459  32.456  38.003  1.00  0.00    -0.206 F 
ATOM     91  C   UNL A   1      38.911  34.561  38.935  1.00  0.00     0.059 A 
ATOM     92  C   UNL A   1      40.251  36.167  37.696  1.00  0.00     0.059 A 
ATOM     93  F   UNL A   1      41.067  35.605  35.569  1.00  0.00    -0.206 F 
ATOM     94  C   UNL A   1      39.504  35.820  38.824  1.00  0.00     0.060 A 
BRANCH  94  95
ATOM     95  S   UNL A   1      39.307  37.001  40.175  1.00  0.00     0.124 S 
ATOM     96  O   UNL A   1      40.680  37.131  40.651  1.00  0.00    -0.237 OA
ATOM     97  O   UNL A   1      38.758  38.172  39.497  1.00  0.00    -0.237 OA
ATOM     98  O   UNL A   1      38.387  36.323  41.083  1.00  0.00    -0.744 OA
ENDBRANCH  94  95
ENDBRANCH  62  87
ENDBRANCH  36  37
ENDBRANCH  29  31
ENDBRANCH  28  29
ENDBRANCH   1  28
TORSDOF 16
ENDMDL
