MODEL 1
REMARK VINA RESULT:     -12.9      0.000      0.000
REMARK SMILES CCCCn1c(C[N@H+]2C[C@H]3C(=O)NC[C@@]3(C(=O)OCCOC(=O)c3ccc(-c4c5nc(c(-c6c(F)cc(S(=O)(=O)[O-])cc6F)c6ccc([nH]6)c(-c6c(F)cc(S(=O)(=O)[O-])cc6F)c6nc(c(-c7c(F)cc(S(=O)(=O)[O-])cc7F)c7ccc4[nH]7)C=C6)C=C5)cc3)C2)nc2ccccc21
REMARK SMILES IDX 19 1 18 2 16 3 17 4 15 5 8 6 9 7 90 8 10 10 11 11 14 12
REMARK SMILES IDX 12 13 13 14 7 16 6 17 5 18 97 19 91 20 92 21 96 22 93 23
REMARK SMILES IDX 95 24 94 25 4 26 3 27 2 28 1 29 20 30 21 31 22 32 23 33
REMARK SMILES IDX 24 34 25 35 89 36 26 37 88 38 27 39 28 40 29 41 82 42 30 43
REMARK SMILES IDX 87 44 81 45 83 46 31 47 86 48 80 49 79 50 32 52 66 53 45 54
REMARK SMILES IDX 65 55 46 56 49 57 64 58 84 59 47 60 48 61 63 63 85 64 50 65
REMARK SMILES IDX 33 66 34 67 43 68 35 69 36 70 42 71 44 72 37 73 38 74 39 75
REMARK SMILES IDX 40 76 41 77 67 78 68 79 77 80 69 81 70 82 76 83 78 84 71 85
REMARK SMILES IDX 72 86 73 87 74 88 75 89 51 90 52 91 61 92 53 93 54 94 60 95
REMARK SMILES IDX 62 96 55 97 56 98 57 99 58 100 59 101
REMARK H PARENT 8 9 13 15 83 51 49 62
REMARK Flexibility Score: inf
ROOT
ATOM      1  C   UNL A   1      37.168  21.615  24.253  1.00  0.00     0.274 C 
ENDROOT
BRANCH   1   2
ATOM      2  O   UNL A   1      35.830  21.879  24.728  1.00  0.00    -0.461 OA
BRANCH   2   3
ATOM      3  C   UNL A   1      35.451  23.187  24.695  1.00  0.00     0.320 C 
ATOM      4  O   UNL A   1      36.225  24.091  24.931  1.00  0.00    -0.251 OA
BRANCH   3   5
ATOM      5  C   UNL A   1      33.971  23.388  24.375  1.00  0.00     0.151 C 
ATOM      6  N   UNL A   1      31.867  23.574  25.588  1.00  0.00    -0.327 N 
ATOM      7  C   UNL A   1      31.943  22.199  25.094  1.00  0.00     0.277 C 
ATOM      8  C   UNL A   1      33.217  24.127  25.480  1.00  0.00     0.284 C 
ATOM      9  H   UNL A   1      31.554  23.530  26.558  1.00  0.00     0.348 HD
ATOM     10  C   UNL A   1      33.159  22.103  24.201  1.00  0.00     0.158 C 
ATOM     11  C   UNL A   1      32.622  22.130  22.808  1.00  0.00     0.230 C 
ATOM     12  C   UNL A   1      33.910  24.073  23.009  1.00  0.00     0.141 C 
ATOM     13  O   UNL A   1      31.881  21.285  22.312  1.00  0.00    -0.275 OA
ATOM     14  N   UNL A   1      33.022  23.286  22.229  1.00  0.00    -0.354 N 
ATOM     15  H   UNL A   1      32.720  23.560  21.333  1.00  0.00     0.163 HD
BRANCH   6  16
ATOM     16  C   UNL A   1      30.770  24.450  25.134  1.00  0.00     0.339 C 
BRANCH  16  17
ATOM     17  C   UNL A   1      30.802  25.888  25.532  1.00  0.00     0.165 A 
ATOM     18  N   UNL A   1      30.668  26.976  24.686  1.00  0.00    -0.323 N 
ATOM     19  C   UNL A   1      31.148  28.082  25.353  1.00  0.00     0.068 A 
ATOM     20  N   UNL A   1      31.001  26.301  26.768  1.00  0.00    -0.227 NA
ATOM     21  C   UNL A   1      31.346  27.618  26.644  1.00  0.00     0.089 A 
ATOM     22  C   UNL A   1      31.454  29.397  24.973  1.00  0.00     0.028 A 
ATOM     23  C   UNL A   1      31.937  28.456  27.583  1.00  0.00     0.030 A 
ATOM     24  C   UNL A   1      32.130  30.188  25.906  1.00  0.00     0.002 A 
ATOM     25  C   UNL A   1      32.412  29.704  27.174  1.00  0.00     0.002 A 
BRANCH  18  26
ATOM     26  C   UNL A   1      30.067  27.029  23.370  1.00  0.00     0.124 C 
BRANCH  26  27
ATOM     27  C   UNL A   1      28.720  27.748  23.238  1.00  0.00     0.022 C 
BRANCH  27  28
ATOM     28  C   UNL A   1      28.718  29.174  22.676  1.00  0.00    -0.002 C 
ATOM     29  C   UNL A   1      27.635  30.117  23.169  1.00  0.00     0.004 C 
ENDBRANCH  27  28
ENDBRANCH  26  27
ENDBRANCH  18  26
ENDBRANCH  16  17
ENDBRANCH   6  16
ENDBRANCH   3   5
ENDBRANCH   2   3
ENDBRANCH   1   2
BRANCH   1  30
ATOM     30  C   UNL A   1      38.025  21.062  25.393  1.00  0.00     0.275 C 
BRANCH  30  31
ATOM     31  O   UNL A   1      38.434  22.149  26.249  1.00  0.00    -0.458 OA
BRANCH  31  32
ATOM     32  C   UNL A   1      39.740  22.175  26.613  1.00  0.00     0.338 C 
ATOM     33  O   UNL A   1      40.529  21.248  26.473  1.00  0.00    -0.246 OA
BRANCH  32  34
ATOM     34  C   UNL A   1      40.170  23.574  26.927  1.00  0.00     0.060 A 
ATOM     35  C   UNL A   1      41.291  23.891  27.706  1.00  0.00     0.016 A 
ATOM     36  C   UNL A   1      39.250  24.578  26.657  1.00  0.00     0.016 A 
ATOM     37  C   UNL A   1      41.358  25.118  28.411  1.00  0.00     0.010 A 
ATOM     38  C   UNL A   1      39.322  25.778  27.371  1.00  0.00     0.010 A 
ATOM     39  C   UNL A   1      40.308  26.038  28.346  1.00  0.00    -0.014 A 
BRANCH  39  40
ATOM     40  C   UNL A   1      40.365  27.427  28.918  1.00  0.00     0.031 A 
ATOM     41  C   UNL A   1      41.421  28.143  28.180  1.00  0.00     0.074 A 
ATOM     42  C   UNL A   1      39.778  28.116  29.942  1.00  0.00     0.049 A 
ATOM     43  N   UNL A   1      42.660  28.057  28.536  1.00  0.00    -0.248 NA
ATOM     44  C   UNL A   1      41.209  28.706  26.845  1.00  0.00     0.031 C 
ATOM     45  C   UNL A   1      38.842  27.653  30.961  1.00  0.00     0.029 A 
ATOM     46  N   UNL A   1      39.905  29.462  30.296  1.00  0.00    -0.354 N 
ATOM     47  C   UNL A   1      43.353  28.790  27.605  1.00  0.00     0.074 A 
ATOM     48  C   UNL A   1      42.475  28.913  26.471  1.00  0.00     0.031 C 
ATOM     49  C   UNL A   1      38.339  28.694  31.674  1.00  0.00     0.029 A 
ATOM     50  C   UNL A   1      38.978  29.942  31.250  1.00  0.00     0.049 A 
ATOM     51  H   UNL A   1      40.598  30.041  29.904  1.00  0.00     0.167 HD
ATOM     52  C   UNL A   1      44.448  29.490  27.996  1.00  0.00     0.037 A 
ATOM     53  C   UNL A   1      39.005  31.063  32.047  1.00  0.00     0.037 A 
ATOM     54  C   UNL A   1      44.867  29.099  29.327  1.00  0.00     0.049 A 
ATOM     55  C   UNL A   1      40.437  31.361  32.241  1.00  0.00     0.074 A 
ATOM     56  C   UNL A   1      45.325  27.941  29.923  1.00  0.00     0.029 A 
ATOM     57  N   UNL A   1      44.424  29.913  30.342  1.00  0.00    -0.354 N 
ATOM     58  N   UNL A   1      41.203  30.681  33.041  1.00  0.00    -0.248 NA
ATOM     59  C   UNL A   1      41.122  32.234  31.297  1.00  0.00     0.031 C 
ATOM     60  C   UNL A   1      44.863  27.979  31.272  1.00  0.00     0.029 A 
ATOM     61  C   UNL A   1      44.179  29.176  31.473  1.00  0.00     0.049 A 
ATOM     62  H   UNL A   1      44.299  30.886  30.268  1.00  0.00     0.167 HD
ATOM     63  C   UNL A   1      42.424  30.671  32.399  1.00  0.00     0.074 A 
ATOM     64  C   UNL A   1      42.364  31.771  31.445  1.00  0.00     0.031 C 
ATOM     65  C   UNL A   1      43.243  29.588  32.499  1.00  0.00     0.037 A 
BRANCH  52  66
ATOM     66  C   UNL A   1      44.837  30.814  27.391  1.00  0.00     0.058 A 
ATOM     67  C   UNL A   1      46.089  30.925  26.758  1.00  0.00     0.135 A 
ATOM     68  C   UNL A   1      44.163  32.033  27.633  1.00  0.00     0.135 A 
ATOM     69  F   UNL A   1      46.828  29.832  26.507  1.00  0.00    -0.206 F 
ATOM     70  C   UNL A   1      46.650  32.158  26.434  1.00  0.00     0.059 A 
ATOM     71  C   UNL A   1      44.675  33.266  27.261  1.00  0.00     0.059 A 
ATOM     72  F   UNL A   1      43.026  32.110  28.330  1.00  0.00    -0.206 F 
ATOM     73  C   UNL A   1      45.934  33.322  26.693  1.00  0.00     0.060 A 
BRANCH  73  74
ATOM     74  S   UNL A   1      46.677  34.918  26.333  1.00  0.00     0.124 S 
ATOM     75  O   UNL A   1      47.418  34.624  25.112  1.00  0.00    -0.237 OA
ATOM     76  O   UNL A   1      45.500  35.767  26.182  1.00  0.00    -0.237 OA
ATOM     77  O   UNL A   1      47.489  35.187  27.517  1.00  0.00    -0.744 OA
ENDBRANCH  73  74
ENDBRANCH  52  66
BRANCH  53  78
ATOM     78  C   UNL A   1      37.984  32.171  32.227  1.00  0.00     0.058 A 
ATOM     79  C   UNL A   1      37.419  32.853  31.125  1.00  0.00     0.135 A 
ATOM     80  C   UNL A   1      37.399  32.497  33.451  1.00  0.00     0.135 A 
ATOM     81  F   UNL A   1      37.987  32.764  29.914  1.00  0.00    -0.206 F 
ATOM     82  C   UNL A   1      36.248  33.624  31.217  1.00  0.00     0.059 A 
ATOM     83  C   UNL A   1      36.189  33.197  33.576  1.00  0.00     0.059 A 
ATOM     84  F   UNL A   1      38.034  32.188  34.579  1.00  0.00    -0.206 F 
ATOM     85  C   UNL A   1      35.598  33.736  32.441  1.00  0.00     0.060 A 
BRANCH  85  86
ATOM     86  S   UNL A   1      33.975  34.533  32.538  1.00  0.00     0.124 S 
ATOM     87  O   UNL A   1      33.659  34.753  31.131  1.00  0.00    -0.237 OA
ATOM     88  O   UNL A   1      33.165  33.527  33.219  1.00  0.00    -0.237 OA
ATOM     89  O   UNL A   1      34.238  35.740  33.318  1.00  0.00    -0.744 OA
ENDBRANCH  85  86
ENDBRANCH  53  78
BRANCH  65  90
ATOM     90  C   UNL A   1      43.040  28.672  33.680  1.00  0.00     0.058 A 
ATOM     91  C   UNL A   1      43.679  28.793  34.926  1.00  0.00     0.135 A 
ATOM     92  C   UNL A   1      42.067  27.668  33.561  1.00  0.00     0.135 A 
ATOM     93  F   UNL A   1      44.577  29.761  35.152  1.00  0.00    -0.206 F 
ATOM     94  C   UNL A   1      43.376  27.949  35.997  1.00  0.00     0.059 A 
ATOM     95  C   UNL A   1      41.723  26.839  34.624  1.00  0.00     0.059 A 
ATOM     96  F   UNL A   1      41.401  27.514  32.405  1.00  0.00    -0.206 F 
ATOM     97  C   UNL A   1      42.386  26.982  35.840  1.00  0.00     0.060 A 
BRANCH  97  98
ATOM     98  S   UNL A   1      41.917  25.967  37.257  1.00  0.00     0.124 S 
ATOM     99  O   UNL A   1      42.865  26.401  38.278  1.00  0.00    -0.237 OA
ATOM    100  O   UNL A   1      40.527  26.355  37.478  1.00  0.00    -0.237 OA
ATOM    101  O   UNL A   1      42.104  24.600  36.775  1.00  0.00    -0.744 OA
ENDBRANCH  97  98
ENDBRANCH  65  90
ENDBRANCH  39  40
ENDBRANCH  32  34
ENDBRANCH  31  32
ENDBRANCH  30  31
ENDBRANCH   1  30
TORSDOF 19
ENDMDL
MODEL 2
REMARK VINA RESULT:     -12.7      2.984      9.550
REMARK SMILES CCCCn1c(C[N@H+]2C[C@H]3C(=O)NC[C@@]3(C(=O)OCCOC(=O)c3ccc(-c4c5nc(c(-c6c(F)cc(S(=O)(=O)[O-])cc6F)c6ccc([nH]6)c(-c6c(F)cc(S(=O)(=O)[O-])cc6F)c6nc(c(-c7c(F)cc(S(=O)(=O)[O-])cc7F)c7ccc4[nH]7)C=C6)C=C5)cc3)C2)nc2ccccc21
REMARK SMILES IDX 19 1 18 2 16 3 17 4 15 5 8 6 9 7 90 8 10 10 11 11 14 12
REMARK SMILES IDX 12 13 13 14 7 16 6 17 5 18 97 19 91 20 92 21 96 22 93 23
REMARK SMILES IDX 95 24 94 25 4 26 3 27 2 28 1 29 20 30 21 31 22 32 23 33
REMARK SMILES IDX 24 34 25 35 89 36 26 37 88 38 27 39 28 40 29 41 82 42 30 43
REMARK SMILES IDX 87 44 81 45 83 46 31 47 86 48 80 49 79 50 32 52 66 53 45 54
REMARK SMILES IDX 65 55 46 56 49 57 64 58 84 59 47 60 48 61 63 63 85 64 50 65
REMARK SMILES IDX 33 66 34 67 43 68 35 69 36 70 42 71 44 72 37 73 38 74 39 75
REMARK SMILES IDX 40 76 41 77 67 78 68 79 77 80 69 81 70 82 76 83 78 84 71 85
REMARK SMILES IDX 72 86 73 87 74 88 75 89 51 90 52 91 61 92 53 93 54 94 60 95
REMARK SMILES IDX 62 96 55 97 56 98 57 99 58 100 59 101
REMARK H PARENT 8 9 13 15 83 51 49 62
REMARK Flexibility Score: inf
ROOT
ATOM      1  C   UNL A   1      32.012  30.163  25.995  1.00  0.00     0.274 C 
ENDROOT
BRANCH   1   2
ATOM      2  O   UNL A   1      32.642  28.865  26.061  1.00  0.00    -0.461 OA
BRANCH   2   3
ATOM      3  C   UNL A   1      31.817  27.838  26.410  1.00  0.00     0.320 C 
ATOM      4  O   UNL A   1      31.383  27.711  27.535  1.00  0.00    -0.251 OA
BRANCH   3   5
ATOM      5  C   UNL A   1      31.536  26.864  25.269  1.00  0.00     0.151 C 
ATOM      6  N   UNL A   1      32.310  26.472  22.992  1.00  0.00    -0.327 N 
ATOM      7  C   UNL A   1      31.046  27.201  22.883  1.00  0.00     0.277 C 
ATOM      8  C   UNL A   1      32.754  26.621  24.378  1.00  0.00     0.284 C 
ATOM      9  H   UNL A   1      32.964  26.902  22.338  1.00  0.00     0.348 HD
ATOM     10  C   UNL A   1      30.463  27.312  24.273  1.00  0.00     0.158 C 
ATOM     11  C   UNL A   1      29.383  26.284  24.327  1.00  0.00     0.230 C 
ATOM     12  C   UNL A   1      30.965  25.597  25.907  1.00  0.00     0.141 C 
ATOM     13  O   UNL A   1      28.370  26.276  23.632  1.00  0.00    -0.275 OA
ATOM     14  N   UNL A   1      29.761  25.326  25.205  1.00  0.00    -0.354 N 
ATOM     15  H   UNL A   1      29.241  24.502  25.345  1.00  0.00     0.163 HD
BRANCH   6  16
ATOM     16  C   UNL A   1      32.419  25.117  22.419  1.00  0.00     0.339 C 
BRANCH  16  17
ATOM     17  C   UNL A   1      33.417  24.177  23.009  1.00  0.00     0.165 A 
ATOM     18  N   UNL A   1      33.137  22.994  23.672  1.00  0.00    -0.323 N 
ATOM     19  C   UNL A   1      34.260  22.648  24.393  1.00  0.00     0.068 A 
ATOM     20  N   UNL A   1      34.718  24.389  22.996  1.00  0.00    -0.227 NA
ATOM     21  C   UNL A   1      35.219  23.542  23.945  1.00  0.00     0.089 A 
ATOM     22  C   UNL A   1      34.528  21.695  25.386  1.00  0.00     0.028 A 
ATOM     23  C   UNL A   1      36.472  23.552  24.547  1.00  0.00     0.030 A 
ATOM     24  C   UNL A   1      35.761  21.785  26.038  1.00  0.00     0.002 A 
ATOM     25  C   UNL A   1      36.697  22.734  25.656  1.00  0.00     0.002 A 
BRANCH  18  26
ATOM     26  C   UNL A   1      31.945  22.178  23.600  1.00  0.00     0.124 C 
BRANCH  26  27
ATOM     27  C   UNL A   1      32.010  20.906  22.746  1.00  0.00     0.022 C 
BRANCH  27  28
ATOM     28  C   UNL A   1      32.410  19.597  23.436  1.00  0.00    -0.002 C 
ATOM     29  C   UNL A   1      32.305  18.320  22.623  1.00  0.00     0.004 C 
ENDBRANCH  27  28
ENDBRANCH  26  27
ENDBRANCH  18  26
ENDBRANCH  16  17
ENDBRANCH   6  16
ENDBRANCH   3   5
ENDBRANCH   2   3
ENDBRANCH   1   2
BRANCH   1  30
ATOM     30  C   UNL A   1      32.652  31.104  27.017  1.00  0.00     0.275 C 
BRANCH  30  31
ATOM     31  O   UNL A   1      34.045  30.760  27.173  1.00  0.00    -0.458 OA
BRANCH  31  32
ATOM     32  C   UNL A   1      34.828  31.673  27.799  1.00  0.00     0.338 C 
ATOM     33  O   UNL A   1      34.504  32.828  28.045  1.00  0.00    -0.246 OA
BRANCH  32  34
ATOM     34  C   UNL A   1      36.018  31.008  28.417  1.00  0.00     0.060 A 
ATOM     35  C   UNL A   1      37.122  31.701  28.931  1.00  0.00     0.016 A 
ATOM     36  C   UNL A   1      36.135  29.640  28.214  1.00  0.00     0.016 A 
ATOM     37  C   UNL A   1      38.395  31.084  28.998  1.00  0.00     0.010 A 
ATOM     38  C   UNL A   1      37.401  29.049  28.271  1.00  0.00     0.010 A 
ATOM     39  C   UNL A   1      38.580  29.773  28.553  1.00  0.00    -0.014 A 
BRANCH  39  40
ATOM     40  C   UNL A   1      39.846  28.987  28.742  1.00  0.00     0.031 A 
ATOM     41  C   UNL A   1      40.017  28.807  30.195  1.00  0.00     0.074 A 
ATOM     42  C   UNL A   1      40.855  28.503  27.955  1.00  0.00     0.049 A 
ATOM     43  N   UNL A   1      40.594  29.711  30.915  1.00  0.00    -0.248 NA
ATOM     44  C   UNL A   1      39.281  27.798  30.958  1.00  0.00     0.031 C 
ATOM     45  C   UNL A   1      41.079  28.665  26.523  1.00  0.00     0.029 A 
ATOM     46  N   UNL A   1      41.952  27.711  28.305  1.00  0.00    -0.354 N 
ATOM     47  C   UNL A   1      40.524  29.242  32.204  1.00  0.00     0.074 A 
ATOM     48  C   UNL A   1      39.488  28.243  32.202  1.00  0.00     0.031 C 
ATOM     49  C   UNL A   1      42.085  27.861  26.091  1.00  0.00     0.029 A 
ATOM     50  C   UNL A   1      42.685  27.161  27.229  1.00  0.00     0.049 A 
ATOM     51  H   UNL A   1      42.198  27.546  29.243  1.00  0.00     0.167 HD
ATOM     52  C   UNL A   1      41.549  29.497  33.056  1.00  0.00     0.037 A 
ATOM     53  C   UNL A   1      43.956  26.633  27.181  1.00  0.00     0.037 A 
ATOM     54  C   UNL A   1      42.444  30.498  32.509  1.00  0.00     0.049 A 
ATOM     55  C   UNL A   1      44.692  27.309  28.266  1.00  0.00     0.074 A 
ATOM     56  C   UNL A   1      42.343  31.826  32.145  1.00  0.00     0.029 A 
ATOM     57  N   UNL A   1      43.560  30.002  31.880  1.00  0.00    -0.354 N 
ATOM     58  N   UNL A   1      45.116  28.535  28.182  1.00  0.00    -0.248 NA
ATOM     59  C   UNL A   1      44.693  26.727  29.602  1.00  0.00     0.031 C 
ATOM     60  C   UNL A   1      43.248  32.008  31.058  1.00  0.00     0.029 A 
ATOM     61  C   UNL A   1      43.908  30.804  30.823  1.00  0.00     0.049 A 
ATOM     62  H   UNL A   1      44.042  29.188  32.150  1.00  0.00     0.167 HD
ATOM     63  C   UNL A   1      44.979  29.019  29.467  1.00  0.00     0.074 A 
ATOM     64  C   UNL A   1      44.891  27.836  30.315  1.00  0.00     0.031 C 
ATOM     65  C   UNL A   1      44.654  30.323  29.677  1.00  0.00     0.037 A 
BRANCH  52  66
ATOM     66  C   UNL A   1      41.986  28.533  34.128  1.00  0.00     0.058 A 
ATOM     67  C   UNL A   1      41.955  28.956  35.470  1.00  0.00     0.135 A 
ATOM     68  C   UNL A   1      42.676  27.323  33.884  1.00  0.00     0.135 A 
ATOM     69  F   UNL A   1      41.352  30.106  35.811  1.00  0.00    -0.206 F 
ATOM     70  C   UNL A   1      42.603  28.255  36.485  1.00  0.00     0.059 A 
ATOM     71  C   UNL A   1      43.273  26.577  34.888  1.00  0.00     0.059 A 
ATOM     72  F   UNL A   1      42.900  26.849  32.654  1.00  0.00    -0.206 F 
ATOM     73  C   UNL A   1      43.261  27.067  36.180  1.00  0.00     0.060 A 
BRANCH  73  74
ATOM     74  S   UNL A   1      44.149  26.190  37.473  1.00  0.00     0.124 S 
ATOM     75  O   UNL A   1      43.895  24.801  37.108  1.00  0.00    -0.237 OA
ATOM     76  O   UNL A   1      45.513  26.667  37.274  1.00  0.00    -0.237 OA
ATOM     77  O   UNL A   1      43.502  26.651  38.698  1.00  0.00    -0.744 OA
ENDBRANCH  73  74
ENDBRANCH  52  66
BRANCH  53  78
ATOM     78  C   UNL A   1      44.449  25.293  26.670  1.00  0.00     0.058 A 
ATOM     79  C   UNL A   1      43.960  24.071  27.185  1.00  0.00     0.135 A 
ATOM     80  C   UNL A   1      45.282  25.143  25.560  1.00  0.00     0.135 A 
ATOM     81  F   UNL A   1      43.285  24.048  28.344  1.00  0.00    -0.206 F 
ATOM     82  C   UNL A   1      44.122  22.839  26.528  1.00  0.00     0.059 A 
ATOM     83  C   UNL A   1      45.405  23.948  24.833  1.00  0.00     0.059 A 
ATOM     84  F   UNL A   1      46.057  26.157  25.187  1.00  0.00    -0.206 F 
ATOM     85  C   UNL A   1      44.793  22.798  25.310  1.00  0.00     0.060 A 
BRANCH  85  86
ATOM     86  S   UNL A   1      44.818  21.270  24.339  1.00  0.00     0.124 S 
ATOM     87  O   UNL A   1      44.409  21.741  23.020  1.00  0.00    -0.237 OA
ATOM     88  O   UNL A   1      46.208  20.841  24.454  1.00  0.00    -0.237 OA
ATOM     89  O   UNL A   1      43.853  20.417  25.027  1.00  0.00    -0.744 OA
ENDBRANCH  85  86
ENDBRANCH  53  78
BRANCH  65  90
ATOM     90  C   UNL A   1      44.945  31.299  28.564  1.00  0.00     0.058 A 
ATOM     91  C   UNL A   1      44.107  31.560  27.467  1.00  0.00     0.135 A 
ATOM     92  C   UNL A   1      46.104  32.082  28.677  1.00  0.00     0.135 A 
ATOM     93  F   UNL A   1      42.949  30.906  27.311  1.00  0.00    -0.206 F 
ATOM     94  C   UNL A   1      44.413  32.540  26.519  1.00  0.00     0.059 A 
ATOM     95  C   UNL A   1      46.412  33.087  27.765  1.00  0.00     0.059 A 
ATOM     96  F   UNL A   1      46.937  31.901  29.716  1.00  0.00    -0.206 F 
ATOM     97  C   UNL A   1      45.563  33.309  26.685  1.00  0.00     0.060 A 
BRANCH  97  98
ATOM     98  S   UNL A   1      45.899  34.647  25.522  1.00  0.00     0.124 S 
ATOM     99  O   UNL A   1      45.507  35.828  26.285  1.00  0.00    -0.237 OA
ATOM    100  O   UNL A   1      47.331  34.500  25.276  1.00  0.00    -0.237 OA
ATOM    101  O   UNL A   1      45.043  34.332  24.380  1.00  0.00    -0.744 OA
ENDBRANCH  97  98
ENDBRANCH  65  90
ENDBRANCH  39  40
ENDBRANCH  32  34
ENDBRANCH  31  32
ENDBRANCH  30  31
ENDBRANCH   1  30
TORSDOF 19
ENDMDL
MODEL 3
REMARK VINA RESULT:     -12.5      1.235      2.233
REMARK SMILES CCCCn1c(C[N@H+]2C[C@H]3C(=O)NC[C@@]3(C(=O)OCCOC(=O)c3ccc(-c4c5nc(c(-c6c(F)cc(S(=O)(=O)[O-])cc6F)c6ccc([nH]6)c(-c6c(F)cc(S(=O)(=O)[O-])cc6F)c6nc(c(-c7c(F)cc(S(=O)(=O)[O-])cc7F)c7ccc4[nH]7)C=C6)C=C5)cc3)C2)nc2ccccc21
REMARK SMILES IDX 19 1 18 2 16 3 17 4 15 5 8 6 9 7 90 8 10 10 11 11 14 12
REMARK SMILES IDX 12 13 13 14 7 16 6 17 5 18 97 19 91 20 92 21 96 22 93 23
REMARK SMILES IDX 95 24 94 25 4 26 3 27 2 28 1 29 20 30 21 31 22 32 23 33
REMARK SMILES IDX 24 34 25 35 89 36 26 37 88 38 27 39 28 40 29 41 82 42 30 43
REMARK SMILES IDX 87 44 81 45 83 46 31 47 86 48 80 49 79 50 32 52 66 53 45 54
REMARK SMILES IDX 65 55 46 56 49 57 64 58 84 59 47 60 48 61 63 63 85 64 50 65
REMARK SMILES IDX 33 66 34 67 43 68 35 69 36 70 42 71 44 72 37 73 38 74 39 75
REMARK SMILES IDX 40 76 41 77 67 78 68 79 77 80 69 81 70 82 76 83 78 84 71 85
REMARK SMILES IDX 72 86 73 87 74 88 75 89 51 90 52 91 61 92 53 93 54 94 60 95
REMARK SMILES IDX 62 96 55 97 56 98 57 99 58 100 59 101
REMARK H PARENT 8 9 13 15 83 51 49 62
REMARK Flexibility Score: inf
ROOT
ATOM      1  C   UNL A   1      37.778  22.411  25.254  1.00  0.00     0.274 C 
ENDROOT
BRANCH   1   2
ATOM      2  O   UNL A   1      36.708  21.720  24.575  1.00  0.00    -0.461 OA
BRANCH   2   3
ATOM      3  C   UNL A   1      35.902  22.507  23.808  1.00  0.00     0.320 C 
ATOM      4  O   UNL A   1      36.297  23.042  22.794  1.00  0.00    -0.251 OA
BRANCH   3   5
ATOM      5  C   UNL A   1      34.493  22.673  24.371  1.00  0.00     0.151 C 
ATOM      6  N   UNL A   1      33.432  23.643  26.338  1.00  0.00    -0.327 N 
ATOM      7  C   UNL A   1      33.524  22.203  26.581  1.00  0.00     0.277 C 
ATOM      8  C   UNL A   1      34.335  23.932  25.224  1.00  0.00     0.284 C 
ATOM      9  H   UNL A   1      33.727  24.113  27.194  1.00  0.00     0.348 HD
ATOM     10  C   UNL A   1      34.027  21.558  25.310  1.00  0.00     0.158 C 
ATOM     11  C   UNL A   1      32.820  20.951  24.677  1.00  0.00     0.230 C 
ATOM     12  C   UNL A   1      33.537  22.600  23.180  1.00  0.00     0.141 C 
ATOM     13  O   UNL A   1      32.137  20.051  25.159  1.00  0.00    -0.275 OA
ATOM     14  N   UNL A   1      32.566  21.625  23.531  1.00  0.00    -0.354 N 
ATOM     15  H   UNL A   1      31.767  21.452  22.982  1.00  0.00     0.163 HD
BRANCH   6  16
ATOM     16  C   UNL A   1      32.107  24.288  26.282  1.00  0.00     0.339 C 
BRANCH  16  17
ATOM     17  C   UNL A   1      31.920  25.441  25.353  1.00  0.00     0.165 A 
ATOM     18  N   UNL A   1      32.333  26.745  25.571  1.00  0.00    -0.323 N 
ATOM     19  C   UNL A   1      31.635  27.552  24.698  1.00  0.00     0.068 A 
ATOM     20  N   UNL A   1      31.291  25.355  24.198  1.00  0.00    -0.227 NA
ATOM     21  C   UNL A   1      30.998  26.649  23.864  1.00  0.00     0.089 A 
ATOM     22  C   UNL A   1      31.469  28.939  24.571  1.00  0.00     0.028 A 
ATOM     23  C   UNL A   1      30.104  27.120  22.910  1.00  0.00     0.030 A 
ATOM     24  C   UNL A   1      30.498  29.383  23.668  1.00  0.00     0.002 A 
ATOM     25  C   UNL A   1      29.790  28.481  22.888  1.00  0.00     0.002 A 
BRANCH  18  26
ATOM     26  C   UNL A   1      33.360  27.229  26.468  1.00  0.00     0.124 C 
BRANCH  26  27
ATOM     27  C   UNL A   1      33.013  28.429  27.357  1.00  0.00     0.022 C 
BRANCH  27  28
ATOM     28  C   UNL A   1      33.930  29.655  27.300  1.00  0.00    -0.002 C 
ATOM     29  C   UNL A   1      35.426  29.412  27.388  1.00  0.00     0.004 C 
ENDBRANCH  27  28
ENDBRANCH  26  27
ENDBRANCH  18  26
ENDBRANCH  16  17
ENDBRANCH   6  16
ENDBRANCH   3   5
ENDBRANCH   2   3
ENDBRANCH   1   2
BRANCH   1  30
ATOM     30  C   UNL A   1      38.846  21.410  25.696  1.00  0.00     0.275 C 
BRANCH  30  31
ATOM     31  O   UNL A   1      39.634  21.992  26.755  1.00  0.00    -0.458 OA
BRANCH  31  32
ATOM     32  C   UNL A   1      40.855  22.471  26.410  1.00  0.00     0.338 C 
ATOM     33  O   UNL A   1      41.646  21.910  25.662  1.00  0.00    -0.246 OA
BRANCH  32  34
ATOM     34  C   UNL A   1      40.990  23.906  26.815  1.00  0.00     0.060 A 
ATOM     35  C   UNL A   1      41.966  24.379  27.702  1.00  0.00     0.016 A 
ATOM     36  C   UNL A   1      39.925  24.739  26.502  1.00  0.00     0.016 A 
ATOM     37  C   UNL A   1      41.747  25.558  28.456  1.00  0.00     0.010 A 
ATOM     38  C   UNL A   1      39.714  25.891  27.265  1.00  0.00     0.010 A 
ATOM     39  C   UNL A   1      40.554  26.274  28.334  1.00  0.00    -0.014 A 
BRANCH  39  40
ATOM     40  C   UNL A   1      40.305  27.616  28.961  1.00  0.00     0.031 A 
ATOM     41  C   UNL A   1      41.248  28.557  28.329  1.00  0.00     0.074 A 
ATOM     42  C   UNL A   1      39.531  28.128  29.966  1.00  0.00     0.049 A 
ATOM     43  N   UNL A   1      42.455  28.689  28.771  1.00  0.00    -0.248 NA
ATOM     44  C   UNL A   1      41.017  29.138  27.005  1.00  0.00     0.031 C 
ATOM     45  C   UNL A   1      38.640  27.444  30.895  1.00  0.00     0.029 A 
ATOM     46  N   UNL A   1      39.374  29.454  30.379  1.00  0.00    -0.354 N 
ATOM     47  C   UNL A   1      43.052  29.588  27.921  1.00  0.00     0.074 A 
ATOM     48  C   UNL A   1      42.241  29.600  26.732  1.00  0.00     0.031 C 
ATOM     49  C   UNL A   1      37.901  28.332  31.610  1.00  0.00     0.029 A 
ATOM     50  C   UNL A   1      38.313  29.699  31.281  1.00  0.00     0.049 A 
ATOM     51  H   UNL A   1      39.966  30.173  30.061  1.00  0.00     0.167 HD
ATOM     52  C   UNL A   1      43.964  30.461  28.417  1.00  0.00     0.037 A 
ATOM     53  C   UNL A   1      38.072  30.763  32.121  1.00  0.00     0.037 A 
ATOM     54  C   UNL A   1      44.364  30.089  29.760  1.00  0.00     0.049 A 
ATOM     55  C   UNL A   1      39.405  31.316  32.429  1.00  0.00     0.074 A 
ATOM     56  C   UNL A   1      44.998  29.009  30.343  1.00  0.00     0.029 A 
ATOM     57  N   UNL A   1      43.709  30.750  30.770  1.00  0.00    -0.354 N 
ATOM     58  N   UNL A   1      40.235  30.753  33.256  1.00  0.00    -0.248 NA
ATOM     59  C   UNL A   1      39.967  32.351  31.571  1.00  0.00     0.031 C 
ATOM     60  C   UNL A   1      44.452  28.890  31.654  1.00  0.00     0.029 A 
ATOM     61  C   UNL A   1      43.539  29.923  31.851  1.00  0.00     0.049 A 
ATOM     62  H   UNL A   1      43.404  31.684  30.725  1.00  0.00     0.167 HD
ATOM     63  C   UNL A   1      41.473  31.008  32.704  1.00  0.00     0.074 A 
ATOM     64  C   UNL A   1      41.264  32.125  31.791  1.00  0.00     0.031 C 
ATOM     65  C   UNL A   1      42.477  30.097  32.822  1.00  0.00     0.037 A 
BRANCH  52  66
ATOM     66  C   UNL A   1      44.128  31.864  27.894  1.00  0.00     0.058 A 
ATOM     67  C   UNL A   1      45.209  32.143  27.037  1.00  0.00     0.135 A 
ATOM     68  C   UNL A   1      43.441  32.992  28.398  1.00  0.00     0.135 A 
ATOM     69  F   UNL A   1      45.949  31.147  26.524  1.00  0.00    -0.206 F 
ATOM     70  C   UNL A   1      45.607  33.445  26.741  1.00  0.00     0.059 A 
ATOM     71  C   UNL A   1      43.780  34.295  28.066  1.00  0.00     0.059 A 
ATOM     72  F   UNL A   1      42.473  32.905  29.315  1.00  0.00    -0.206 F 
ATOM     73  C   UNL A   1      44.885  34.513  27.265  1.00  0.00     0.060 A 
BRANCH  73  74
ATOM     74  S   UNL A   1      45.428  36.194  26.937  1.00  0.00     0.124 S 
ATOM     75  O   UNL A   1      46.113  36.526  28.181  1.00  0.00    -0.237 OA
ATOM     76  O   UNL A   1      46.277  36.009  25.765  1.00  0.00    -0.237 OA
ATOM     77  O   UNL A   1      44.179  36.910  26.692  1.00  0.00    -0.744 OA
ENDBRANCH  73  74
ENDBRANCH  52  66
BRANCH  53  78
ATOM     78  C   UNL A   1      36.848  31.646  32.268  1.00  0.00     0.058 A 
ATOM     79  C   UNL A   1      36.608  32.401  33.439  1.00  0.00     0.135 A 
ATOM     80  C   UNL A   1      35.957  31.919  31.230  1.00  0.00     0.135 A 
ATOM     81  F   UNL A   1      37.278  32.127  34.568  1.00  0.00    -0.206 F 
ATOM     82  C   UNL A   1      35.699  33.471  33.491  1.00  0.00     0.059 A 
ATOM     83  C   UNL A   1      35.092  33.024  31.214  1.00  0.00     0.059 A 
ATOM     84  F   UNL A   1      35.863  31.067  30.212  1.00  0.00    -0.206 F 
ATOM     85  C   UNL A   1      34.989  33.820  32.347  1.00  0.00     0.060 A 
BRANCH  85  86
ATOM     86  S   UNL A   1      33.985  35.327  32.326  1.00  0.00     0.124 S 
ATOM     87  O   UNL A   1      34.021  35.697  30.915  1.00  0.00    -0.237 OA
ATOM     88  O   UNL A   1      32.696  34.859  32.825  1.00  0.00    -0.237 OA
ATOM     89  O   UNL A   1      34.704  36.223  33.227  1.00  0.00    -0.744 OA
ENDBRANCH  85  86
ENDBRANCH  53  78
BRANCH  65  90
ATOM     90  C   UNL A   1      42.380  29.099  33.949  1.00  0.00     0.058 A 
ATOM     91  C   UNL A   1      42.684  29.358  35.297  1.00  0.00     0.135 A 
ATOM     92  C   UNL A   1      41.857  27.832  33.649  1.00  0.00     0.135 A 
ATOM     93  F   UNL A   1      43.130  30.559  35.687  1.00  0.00    -0.206 F 
ATOM     94  C   UNL A   1      42.491  28.400  36.295  1.00  0.00     0.059 A 
ATOM     95  C   UNL A   1      41.623  26.874  34.630  1.00  0.00     0.059 A 
ATOM     96  F   UNL A   1      41.523  27.528  32.384  1.00  0.00    -0.206 F 
ATOM     97  C   UNL A   1      41.946  27.164  35.953  1.00  0.00     0.060 A 
BRANCH  97  98
ATOM     98  S   UNL A   1      41.594  25.968  37.259  1.00  0.00     0.124 S 
ATOM     99  O   UNL A   1      42.696  26.190  38.189  1.00  0.00    -0.237 OA
ATOM    100  O   UNL A   1      40.276  26.391  37.726  1.00  0.00    -0.237 OA
ATOM    101  O   UNL A   1      41.616  24.684  36.562  1.00  0.00    -0.744 OA
ENDBRANCH  97  98
ENDBRANCH  65  90
ENDBRANCH  39  40
ENDBRANCH  32  34
ENDBRANCH  31  32
ENDBRANCH  30  31
ENDBRANCH   1  30
TORSDOF 19
ENDMDL
