MODEL 1
REMARK VINA RESULT:      -7.6      0.000      0.000
REMARK SMILES CC/C=C/C/C=C/C/C=C/C/C=C/CC/C=C/COCC(=O)OCCOC(=O)c1ccc(-c2c3nc(c(-c4c(F)cc(S(=O)(=O)[O-])cc4F)c4ccc([nH]4)c(-c4c(F)cc(S(=O)(=O)[O-])cc4F)c4nc(c(-c5c(F)cc(S(=O)(=O)[O-])cc5F)c5ccc2[nH]5)C=C4)C=C3)cc1
REMARK SMILES IDX 18 1 17 2 16 3 15 4 14 5 13 6 12 7 11 8 10 9 9 10 8 11 7 12
REMARK SMILES IDX 6 13 5 14 4 15 3 16 2 17 1 18 19 19 20 20 21 21 22 22 23 23
REMARK SMILES IDX 24 24 25 25 26 26 27 27 28 28 29 29 30 30 94 31 31 32 93 33
REMARK SMILES IDX 32 34 33 35 34 36 87 37 35 38 92 39 86 40 88 41 36 42 91 43
REMARK SMILES IDX 85 44 84 45 37 47 71 48 50 49 70 50 51 51 54 52 69 53 89 54
REMARK SMILES IDX 52 55 53 56 68 58 90 59 55 60 38 61 39 62 48 63 40 64 41 65
REMARK SMILES IDX 47 66 49 67 42 68 43 69 44 70 45 71 46 72 72 73 73 74 82 75
REMARK SMILES IDX 74 76 75 77 81 78 83 79 76 80 77 81 78 82 79 83 80 84 56 85
REMARK SMILES IDX 57 86 66 87 58 88 59 89 65 90 67 91 60 92 61 93 62 94 63 95
REMARK SMILES IDX 64 96
REMARK H PARENT 88 46 54 57
REMARK Flexibility Score: inf
ROOT
ATOM      1  C   UNL A   1      39.816  26.231  27.744  1.00  0.00     0.188 C 
ENDROOT
BRANCH   1   2
ATOM      2  C   UNL A   1      39.138  27.351  28.479  1.00  0.00    -0.003 C 
ATOM      3  C   UNL A   1      38.940  28.563  27.931  1.00  0.00    -0.029 C 
BRANCH   3   4
ATOM      4  C   UNL A   1      38.613  29.799  28.729  1.00  0.00     0.031 C 
BRANCH   4   5
ATOM      5  C   UNL A   1      36.902  30.130  28.770  1.00  0.00     0.031 C 
BRANCH   5   6
ATOM      6  C   UNL A   1      35.174  29.655  27.572  1.00  0.00    -0.031 C 
ATOM      7  C   UNL A   1      34.662  28.696  26.691  1.00  0.00    -0.027 C 
BRANCH   7   8
ATOM      8  C   UNL A   1      33.512  28.877  25.729  1.00  0.00     0.054 C 
BRANCH   8   9
ATOM      9  C   UNL A   1      32.943  30.250  25.991  1.00  0.00    -0.027 C 
ATOM     10  C   UNL A   1      31.836  30.503  26.706  1.00  0.00    -0.027 C 
BRANCH  10  11
ATOM     11  C   UNL A   1      31.186  31.858  26.779  1.00  0.00     0.054 C 
BRANCH  11  12
ATOM     12  C   UNL A   1      32.211  32.954  26.862  1.00  0.00    -0.027 C 
ATOM     13  C   UNL A   1      32.995  33.165  27.932  1.00  0.00    -0.027 C 
BRANCH  13  14
ATOM     14  C   UNL A   1      34.012  34.266  28.044  1.00  0.00     0.054 C 
BRANCH  14  15
ATOM     15  C   UNL A   1      35.403  33.701  28.095  1.00  0.00    -0.027 C 
ATOM     16  C   UNL A   1      36.311  33.996  29.040  1.00  0.00    -0.031 C 
BRANCH  16  17
ATOM     17  C   UNL A   1      37.694  33.413  29.076  1.00  0.00     0.023 C 
ATOM     18  C   UNL A   1      38.189  33.253  30.505  1.00  0.00     0.008 C 
ENDBRANCH  16  17
ENDBRANCH  14  15
ENDBRANCH  13  14
ENDBRANCH  11  12
ENDBRANCH  10  11
ENDBRANCH   8   9
ENDBRANCH   7   8
ENDBRANCH   5   6
ENDBRANCH   4   5
ENDBRANCH   3   4
ENDBRANCH   1   2
BRANCH   1  19
ATOM     19  O   UNL A   1      39.194  24.960  27.946  1.00  0.00    -0.366 OA
BRANCH  19  20
ATOM     20  C   UNL A   1      39.006  24.133  26.817  1.00  0.00     0.283 C 
BRANCH  20  21
ATOM     21  C   UNL A   1      39.605  22.733  26.641  1.00  0.00     0.332 C 
ATOM     22  O   UNL A   1      38.925  21.793  26.236  1.00  0.00    -0.250 OA
BRANCH  21  23
ATOM     23  O   UNL A   1      40.909  22.630  27.012  1.00  0.00    -0.460 OA
BRANCH  23  24
ATOM     24  C   UNL A   1      41.772  22.008  26.032  1.00  0.00     0.274 C 
BRANCH  24  25
ATOM     25  C   UNL A   1      42.859  22.980  25.583  1.00  0.00     0.275 C 
BRANCH  25  26
ATOM     26  O   UNL A   1      43.804  23.150  26.651  1.00  0.00    -0.458 OA
BRANCH  26  27
ATOM     27  C   UNL A   1      45.060  22.766  26.342  1.00  0.00     0.338 C 
ATOM     28  O   UNL A   1      45.469  21.635  26.157  1.00  0.00    -0.246 OA
BRANCH  27  29
ATOM     29  C   UNL A   1      45.919  23.944  26.281  1.00  0.00     0.060 A 
ATOM     30  C   UNL A   1      46.055  24.971  24.786  1.00  0.00     0.016 A 
ATOM     31  C   UNL A   1      46.748  24.444  27.812  1.00  0.00     0.016 A 
ATOM     32  C   UNL A   1      47.131  26.429  24.804  1.00  0.00     0.010 A 
ATOM     33  C   UNL A   1      47.826  25.913  27.829  1.00  0.00     0.010 A 
ATOM     34  C   UNL A   1      48.021  26.942  26.322  1.00  0.00    -0.014 A 
BRANCH  34  35
ATOM     35  C   UNL A   1      48.804  28.214  26.384  1.00  0.00     0.031 A 
ATOM     36  C   UNL A   1      48.107  29.495  26.768  1.00  0.00     0.074 A 
ATOM     37  C   UNL A   1      50.086  28.227  25.960  1.00  0.00     0.049 A 
ATOM     38  N   UNL A   1      48.462  30.733  26.542  1.00  0.00    -0.248 NA
ATOM     39  C   UNL A   1      46.795  29.374  27.421  1.00  0.00     0.031 C 
ATOM     40  C   UNL A   1      50.837  27.071  25.463  1.00  0.00     0.029 A 
ATOM     41  N   UNL A   1      50.991  29.251  25.840  1.00  0.00    -0.354 N 
ATOM     42  C   UNL A   1      47.383  31.518  26.942  1.00  0.00     0.074 A 
ATOM     43  C   UNL A   1      46.338  30.615  27.360  1.00  0.00     0.031 C 
ATOM     44  C   UNL A   1      52.099  27.417  25.195  1.00  0.00     0.029 A 
ATOM     45  C   UNL A   1      52.215  28.851  25.345  1.00  0.00     0.049 A 
ATOM     46  H   UNL A   1      50.786  30.183  26.084  1.00  0.00     0.167 HD
ATOM     47  C   UNL A   1      47.291  32.871  26.984  1.00  0.00     0.037 A 
ATOM     48  C   UNL A   1      53.296  29.560  24.978  1.00  0.00     0.037 A 
ATOM     49  C   UNL A   1      48.404  33.724  26.653  1.00  0.00     0.049 A 
ATOM     50  C   UNL A   1      53.197  31.049  25.079  1.00  0.00     0.074 A 
ATOM     51  C   UNL A   1      48.490  35.103  26.712  1.00  0.00     0.029 A 
ATOM     52  N   UNL A   1      49.646  33.261  26.227  1.00  0.00    -0.354 N 
ATOM     53  N   UNL A   1      52.163  31.774  25.438  1.00  0.00    -0.248 NA
ATOM     54  C   UNL A   1      54.387  31.819  24.712  1.00  0.00     0.031 C 
ATOM     55  C   UNL A   1      49.772  35.473  26.292  1.00  0.00     0.029 A 
ATOM     56  C   UNL A   1      50.503  34.325  26.018  1.00  0.00     0.049 A 
ATOM     57  H   UNL A   1      49.879  32.314  26.094  1.00  0.00     0.167 HD
ATOM     58  C   UNL A   1      52.579  33.091  25.356  1.00  0.00     0.074 A 
ATOM     59  C   UNL A   1      53.968  33.058  24.930  1.00  0.00     0.031 C 
ATOM     60  C   UNL A   1      51.882  34.228  25.601  1.00  0.00     0.037 A 
BRANCH  47  61
ATOM     61  C   UNL A   1      45.977  33.489  27.408  1.00  0.00     0.058 A 
ATOM     62  C   UNL A   1      44.998  33.882  26.477  1.00  0.00     0.135 A 
ATOM     63  C   UNL A   1      45.687  33.700  28.768  1.00  0.00     0.135 A 
ATOM     64  F   UNL A   1      45.211  33.717  25.161  1.00  0.00    -0.206 F 
ATOM     65  C   UNL A   1      43.817  34.509  26.871  1.00  0.00     0.059 A 
ATOM     66  C   UNL A   1      44.495  34.290  29.187  1.00  0.00     0.059 A 
ATOM     67  F   UNL A   1      46.572  33.342  29.711  1.00  0.00    -0.206 F 
ATOM     68  C   UNL A   1      43.575  34.714  28.229  1.00  0.00     0.060 A 
BRANCH  68  69
ATOM     69  S   UNL A   1      42.048  35.543  28.718  1.00  0.00     0.124 S 
ATOM     70  O   UNL A   1      42.563  36.719  29.413  1.00  0.00    -0.237 OA
ATOM     71  O   UNL A   1      41.407  35.801  27.432  1.00  0.00    -0.237 OA
ATOM     72  O   UNL A   1      41.378  34.559  29.562  1.00  0.00    -0.744 OA
ENDBRANCH  68  69
ENDBRANCH  47  61
BRANCH  48  73
ATOM     73  C   UNL A   1      54.521  28.860  24.499  1.00  0.00     0.058 A 
ATOM     74  C   UNL A   1      54.737  28.658  23.127  1.00  0.00     0.135 A 
ATOM     75  C   UNL A   1      55.550  28.477  25.378  1.00  0.00     0.135 A 
ATOM     76  F   UNL A   1      53.789  29.007  22.243  1.00  0.00    -0.206 F 
ATOM     77  C   UNL A   1      55.921  28.108  22.644  1.00  0.00     0.059 A 
ATOM     78  C   UNL A   1      56.757  27.955  24.916  1.00  0.00     0.059 A 
ATOM     79  F   UNL A   1      55.414  28.673  26.699  1.00  0.00    -0.206 F 
ATOM     80  C   UNL A   1      56.931  27.770  23.546  1.00  0.00     0.060 A 
BRANCH  80  81
ATOM     81  S   UNL A   1      58.492  27.130  22.899  1.00  0.00     0.124 S 
ATOM     82  O   UNL A   1      58.213  25.701  22.818  1.00  0.00    -0.237 OA
ATOM     83  O   UNL A   1      58.606  27.832  21.625  1.00  0.00    -0.237 OA
ATOM     84  O   UNL A   1      59.465  27.526  23.913  1.00  0.00    -0.744 OA
ENDBRANCH  80  81
ENDBRANCH  48  73
BRANCH  60  85
ATOM     85  C   UNL A   1      52.638  35.510  25.449  1.00  0.00     0.058 A 
ATOM     86  C   UNL A   1      52.612  36.237  24.251  1.00  0.00     0.135 A 
ATOM     87  C   UNL A   1      53.355  36.034  26.536  1.00  0.00     0.135 A 
ATOM     88  F   UNL A   1      51.953  35.761  23.183  1.00  0.00    -0.206 F 
ATOM     89  C   UNL A   1      53.292  37.440  24.128  1.00  0.00     0.059 A 
ATOM     90  C   UNL A   1      54.016  37.251  26.444  1.00  0.00     0.059 A 
ATOM     91  F   UNL A   1      53.400  35.370  27.702  1.00  0.00    -0.206 F 
ATOM     92  C   UNL A   1      53.985  37.941  25.233  1.00  0.00     0.060 A 
BRANCH  92  93
ATOM     93  S   UNL A   1      54.820  39.530  25.073  1.00  0.00     0.124 S 
ATOM     94  O   UNL A   1      54.342  39.982  23.771  1.00  0.00    -0.237 OA
ATOM     95  O   UNL A   1      54.311  40.266  26.227  1.00  0.00    -0.237 OA
ATOM     96  O   UNL A   1      56.235  39.178  25.137  1.00  0.00    -0.744 OA
ENDBRANCH  92  93
ENDBRANCH  60  85
ENDBRANCH  34  35
ENDBRANCH  27  29
ENDBRANCH  26  27
ENDBRANCH  25  26
ENDBRANCH  24  25
ENDBRANCH  23  24
ENDBRANCH  21  23
ENDBRANCH  20  21
ENDBRANCH  19  20
ENDBRANCH   1  19
TORSDOF 27
ENDMDL
MODEL 2
REMARK VINA RESULT:      -7.4      5.779     10.095
REMARK SMILES CC/C=C/C/C=C/C/C=C/C/C=C/CC/C=C/COCC(=O)OCCOC(=O)c1ccc(-c2c3nc(c(-c4c(F)cc(S(=O)(=O)[O-])cc4F)c4ccc([nH]4)c(-c4c(F)cc(S(=O)(=O)[O-])cc4F)c4nc(c(-c5c(F)cc(S(=O)(=O)[O-])cc5F)c5ccc2[nH]5)C=C4)C=C3)cc1
REMARK SMILES IDX 18 1 17 2 16 3 15 4 14 5 13 6 12 7 11 8 10 9 9 10 8 11 7 12
REMARK SMILES IDX 6 13 5 14 4 15 3 16 2 17 1 18 19 19 20 20 21 21 22 22 23 23
REMARK SMILES IDX 24 24 25 25 26 26 27 27 28 28 29 29 30 30 94 31 31 32 93 33
REMARK SMILES IDX 32 34 33 35 34 36 87 37 35 38 92 39 86 40 88 41 36 42 91 43
REMARK SMILES IDX 85 44 84 45 37 47 71 48 50 49 70 50 51 51 54 52 69 53 89 54
REMARK SMILES IDX 52 55 53 56 68 58 90 59 55 60 38 61 39 62 48 63 40 64 41 65
REMARK SMILES IDX 47 66 49 67 42 68 43 69 44 70 45 71 46 72 72 73 73 74 82 75
REMARK SMILES IDX 74 76 75 77 81 78 83 79 76 80 77 81 78 82 79 83 80 84 56 85
REMARK SMILES IDX 57 86 66 87 58 88 59 89 65 90 67 91 60 92 61 93 62 94 63 95
REMARK SMILES IDX 64 96
REMARK H PARENT 88 46 54 57
REMARK Flexibility Score: inf
ROOT
ATOM      1  C   UNL A   1      39.775  26.896  27.533  1.00  0.00     0.188 C 
ENDROOT
BRANCH   1   2
ATOM      2  C   UNL A   1      40.327  27.469  28.805  1.00  0.00    -0.003 C 
ATOM      3  C   UNL A   1      40.670  28.763  28.929  1.00  0.00    -0.029 C 
BRANCH   3   4
ATOM      4  C   UNL A   1      41.553  29.294  30.029  1.00  0.00     0.031 C 
BRANCH   4   5
ATOM      5  C   UNL A   1      42.916  28.255  30.346  1.00  0.00     0.031 C 
BRANCH   5   6
ATOM      6  C   UNL A   1      43.412  26.176  30.073  1.00  0.00    -0.031 C 
ATOM      7  C   UNL A   1      44.337  25.194  30.449  1.00  0.00    -0.027 C 
BRANCH   7   8
ATOM      8  C   UNL A   1      44.588  23.877  29.755  1.00  0.00     0.054 C 
BRANCH   8   9
ATOM      9  C   UNL A   1      45.228  24.206  28.428  1.00  0.00    -0.027 C 
ATOM     10  C   UNL A   1      45.424  23.331  27.428  1.00  0.00    -0.027 C 
BRANCH  10  11
ATOM     11  C   UNL A   1      46.241  23.639  26.204  1.00  0.00     0.054 C 
BRANCH  11  12
ATOM     12  C   UNL A   1      46.215  22.499  25.225  1.00  0.00    -0.027 C 
ATOM     13  C   UNL A   1      45.182  21.649  25.096  1.00  0.00    -0.027 C 
BRANCH  13  14
ATOM     14  C   UNL A   1      45.142  20.492  24.138  1.00  0.00     0.054 C 
BRANCH  14  15
ATOM     15  C   UNL A   1      44.359  19.349  24.719  1.00  0.00    -0.027 C 
ATOM     16  C   UNL A   1      43.342  19.485  25.586  1.00  0.00    -0.031 C 
BRANCH  16  17
ATOM     17  C   UNL A   1      42.567  18.328  26.148  1.00  0.00     0.023 C 
ATOM     18  C   UNL A   1      43.028  17.985  27.556  1.00  0.00     0.008 C 
ENDBRANCH  16  17
ENDBRANCH  14  15
ENDBRANCH  13  14
ENDBRANCH  11  12
ENDBRANCH  10  11
ENDBRANCH   8   9
ENDBRANCH   7   8
ENDBRANCH   5   6
ENDBRANCH   4   5
ENDBRANCH   3   4
ENDBRANCH   1   2
BRANCH   1  19
ATOM     19  O   UNL A   1      39.084  25.659  27.720  1.00  0.00    -0.366 OA
BRANCH  19  20
ATOM     20  C   UNL A   1      39.366  24.606  26.822  1.00  0.00     0.283 C 
BRANCH  20  21
ATOM     21  C   UNL A   1      40.415  23.511  27.049  1.00  0.00     0.332 C 
ATOM     22  O   UNL A   1      40.089  22.337  27.214  1.00  0.00    -0.250 OA
BRANCH  21  23
ATOM     23  O   UNL A   1      41.696  23.963  27.096  1.00  0.00    -0.460 OA
BRANCH  23  24
ATOM     24  C   UNL A   1      42.346  24.081  25.809  1.00  0.00     0.274 C 
BRANCH  24  25
ATOM     25  C   UNL A   1      42.550  25.549  25.446  1.00  0.00     0.275 C 
BRANCH  25  26
ATOM     26  O   UNL A   1      43.319  26.183  26.478  1.00  0.00    -0.458 OA
BRANCH  26  27
ATOM     27  C   UNL A   1      44.380  26.883  26.025  1.00  0.00     0.338 C 
ATOM     28  O   UNL A   1      45.084  26.631  25.064  1.00  0.00    -0.246 OA
BRANCH  27  29
ATOM     29  C   UNL A   1      44.604  28.031  26.897  1.00  0.00     0.060 A 
ATOM     30  C   UNL A   1      45.954  28.075  28.116  1.00  0.00     0.016 A 
ATOM     31  C   UNL A   1      43.570  29.493  26.625  1.00  0.00     0.016 A 
ATOM     32  C   UNL A   1      46.173  29.551  29.146  1.00  0.00     0.010 A 
ATOM     33  C   UNL A   1      43.795  30.976  27.660  1.00  0.00     0.010 A 
ATOM     34  C   UNL A   1      45.117  31.033  28.930  1.00  0.00    -0.014 A 
BRANCH  34  35
ATOM     35  C   UNL A   1      45.375  32.299  29.682  1.00  0.00     0.031 A 
ATOM     36  C   UNL A   1      44.488  32.665  30.845  1.00  0.00     0.074 A 
ATOM     37  C   UNL A   1      46.303  33.166  29.224  1.00  0.00     0.049 A 
ATOM     38  N   UNL A   1      44.280  33.833  31.396  1.00  0.00    -0.248 NA
ATOM     39  C   UNL A   1      43.659  31.593  31.418  1.00  0.00     0.031 C 
ATOM     40  C   UNL A   1      47.150  32.973  28.043  1.00  0.00     0.029 A 
ATOM     41  N   UNL A   1      46.680  34.409  29.667  1.00  0.00    -0.354 N 
ATOM     42  C   UNL A   1      43.241  33.645  32.306  1.00  0.00     0.074 A 
ATOM     43  C   UNL A   1      42.819  32.271  32.185  1.00  0.00     0.031 C 
ATOM     44  C   UNL A   1      48.008  33.988  27.915  1.00  0.00     0.029 A 
ATOM     45  C   UNL A   1      47.673  34.989  28.905  1.00  0.00     0.049 A 
ATOM     46  H   UNL A   1      46.280  34.845  30.454  1.00  0.00     0.167 HD
ATOM     47  C   UNL A   1      42.716  34.536  33.183  1.00  0.00     0.037 A 
ATOM     48  C   UNL A   1      48.214  36.219  28.943  1.00  0.00     0.037 A 
ATOM     49  C   UNL A   1      43.247  35.866  33.335  1.00  0.00     0.049 A 
ATOM     50  C   UNL A   1      47.657  37.174  29.951  1.00  0.00     0.074 A 
ATOM     51  C   UNL A   1      42.871  36.857  34.223  1.00  0.00     0.029 A 
ATOM     52  N   UNL A   1      44.304  36.377  32.586  1.00  0.00    -0.354 N 
ATOM     53  N   UNL A   1      46.662  36.986  30.788  1.00  0.00    -0.248 NA
ATOM     54  C   UNL A   1      48.269  38.502  30.014  1.00  0.00     0.031 C 
ATOM     55  C   UNL A   1      43.679  37.975  33.989  1.00  0.00     0.029 A 
ATOM     56  C   UNL A   1      44.592  37.667  32.989  1.00  0.00     0.049 A 
ATOM     57  H   UNL A   1      44.777  35.890  31.873  1.00  0.00     0.167 HD
ATOM     58  C   UNL A   1      46.535  38.170  31.493  1.00  0.00     0.074 A 
ATOM     59  C   UNL A   1      47.570  39.060  30.994  1.00  0.00     0.031 C 
ATOM     60  C   UNL A   1      45.643  38.502  32.459  1.00  0.00     0.037 A 
BRANCH  47  61
ATOM     61  C   UNL A   1      41.543  34.099  34.034  1.00  0.00     0.058 A 
ATOM     62  C   UNL A   1      41.713  33.484  35.287  1.00  0.00     0.135 A 
ATOM     63  C   UNL A   1      40.222  34.292  33.590  1.00  0.00     0.135 A 
ATOM     64  F   UNL A   1      42.946  33.261  35.770  1.00  0.00    -0.206 F 
ATOM     65  C   UNL A   1      40.630  33.026  36.036  1.00  0.00     0.059 A 
ATOM     66  C   UNL A   1      39.122  33.877  34.340  1.00  0.00     0.059 A 
ATOM     67  F   UNL A   1      39.986  34.880  32.407  1.00  0.00    -0.206 F 
ATOM     68  C   UNL A   1      39.336  33.223  35.552  1.00  0.00     0.060 A 
BRANCH  68  69
ATOM     69  S   UNL A   1      37.947  32.608  36.529  1.00  0.00     0.124 S 
ATOM     70  O   UNL A   1      37.402  31.580  35.647  1.00  0.00    -0.237 OA
ATOM     71  O   UNL A   1      38.606  32.120  37.736  1.00  0.00    -0.237 OA
ATOM     72  O   UNL A   1      37.107  33.787  36.710  1.00  0.00    -0.744 OA
ENDBRANCH  68  69
ENDBRANCH  47  61
BRANCH  48  73
ATOM     73  C   UNL A   1      49.316  36.579  28.008  1.00  0.00     0.058 A 
ATOM     74  C   UNL A   1      50.640  36.208  28.288  1.00  0.00     0.135 A 
ATOM     75  C   UNL A   1      49.068  37.199  26.770  1.00  0.00     0.135 A 
ATOM     76  F   UNL A   1      50.935  35.612  29.454  1.00  0.00    -0.206 F 
ATOM     77  C   UNL A   1      51.672  36.432  27.381  1.00  0.00     0.059 A 
ATOM     78  C   UNL A   1      50.078  37.404  25.833  1.00  0.00     0.059 A 
ATOM     79  F   UNL A   1      47.816  37.550  26.433  1.00  0.00    -0.206 F 
ATOM     80  C   UNL A   1      51.380  37.021  26.150  1.00  0.00     0.060 A 
BRANCH  80  81
ATOM     81  S   UNL A   1      52.716  37.234  24.952  1.00  0.00     0.124 S 
ATOM     82  O   UNL A   1      53.775  36.427  25.547  1.00  0.00    -0.237 OA
ATOM     83  O   UNL A   1      52.119  36.704  23.730  1.00  0.00    -0.237 OA
ATOM     84  O   UNL A   1      52.944  38.676  24.954  1.00  0.00    -0.744 OA
ENDBRANCH  80  81
ENDBRANCH  48  73
BRANCH  60  85
ATOM     85  C   UNL A   1      45.792  39.867  33.052  1.00  0.00     0.058 A 
ATOM     86  C   UNL A   1      45.021  40.947  32.604  1.00  0.00     0.135 A 
ATOM     87  C   UNL A   1      46.686  40.076  34.114  1.00  0.00     0.135 A 
ATOM     88  F   UNL A   1      44.168  40.792  31.580  1.00  0.00    -0.206 F 
ATOM     89  C   UNL A   1      45.144  42.204  33.180  1.00  0.00     0.059 A 
ATOM     90  C   UNL A   1      46.802  41.317  34.725  1.00  0.00     0.059 A 
ATOM     91  F   UNL A   1      47.440  39.066  34.575  1.00  0.00    -0.206 F 
ATOM     92  C   UNL A   1      46.032  42.376  34.244  1.00  0.00     0.060 A 
BRANCH  92  93
ATOM     93  S   UNL A   1      46.142  44.001  35.015  1.00  0.00     0.124 S 
ATOM     94  O   UNL A   1      47.570  44.278  34.911  1.00  0.00    -0.237 OA
ATOM     95  O   UNL A   1      45.275  44.808  34.162  1.00  0.00    -0.237 OA
ATOM     96  O   UNL A   1      45.642  43.770  36.366  1.00  0.00    -0.744 OA
ENDBRANCH  92  93
ENDBRANCH  60  85
ENDBRANCH  34  35
ENDBRANCH  27  29
ENDBRANCH  26  27
ENDBRANCH  25  26
ENDBRANCH  24  25
ENDBRANCH  23  24
ENDBRANCH  21  23
ENDBRANCH  20  21
ENDBRANCH  19  20
ENDBRANCH   1  19
TORSDOF 27
ENDMDL
MODEL 3
REMARK VINA RESULT:      -7.0      8.018     12.569
REMARK SMILES CC/C=C/C/C=C/C/C=C/C/C=C/CC/C=C/COCC(=O)OCCOC(=O)c1ccc(-c2c3nc(c(-c4c(F)cc(S(=O)(=O)[O-])cc4F)c4ccc([nH]4)c(-c4c(F)cc(S(=O)(=O)[O-])cc4F)c4nc(c(-c5c(F)cc(S(=O)(=O)[O-])cc5F)c5ccc2[nH]5)C=C4)C=C3)cc1
REMARK SMILES IDX 18 1 17 2 16 3 15 4 14 5 13 6 12 7 11 8 10 9 9 10 8 11 7 12
REMARK SMILES IDX 6 13 5 14 4 15 3 16 2 17 1 18 19 19 20 20 21 21 22 22 23 23
REMARK SMILES IDX 24 24 25 25 26 26 27 27 28 28 29 29 30 30 94 31 31 32 93 33
REMARK SMILES IDX 32 34 33 35 34 36 87 37 35 38 92 39 86 40 88 41 36 42 91 43
REMARK SMILES IDX 85 44 84 45 37 47 71 48 50 49 70 50 51 51 54 52 69 53 89 54
REMARK SMILES IDX 52 55 53 56 68 58 90 59 55 60 38 61 39 62 48 63 40 64 41 65
REMARK SMILES IDX 47 66 49 67 42 68 43 69 44 70 45 71 46 72 72 73 73 74 82 75
REMARK SMILES IDX 74 76 75 77 81 78 83 79 76 80 77 81 78 82 79 83 80 84 56 85
REMARK SMILES IDX 57 86 66 87 58 88 59 89 65 90 67 91 60 92 61 93 62 94 63 95
REMARK SMILES IDX 64 96
REMARK H PARENT 88 46 54 57
REMARK Flexibility Score: inf
ROOT
ATOM      1  C   UNL A   1      35.127  33.320  27.822  1.00  0.00     0.188 C 
ENDROOT
BRANCH   1   2
ATOM      2  C   UNL A   1      34.990  31.965  28.454  1.00  0.00    -0.003 C 
ATOM      3  C   UNL A   1      36.006  31.354  29.089  1.00  0.00    -0.029 C 
BRANCH   3   4
ATOM      4  C   UNL A   1      36.031  29.881  29.404  1.00  0.00     0.031 C 
BRANCH   4   5
ATOM      5  C   UNL A   1      37.444  29.421  30.316  1.00  0.00     0.031 C 
BRANCH   5   6
ATOM      6  C   UNL A   1      39.490  28.892  29.894  1.00  0.00    -0.031 C 
ATOM      7  C   UNL A   1      40.640  28.346  30.477  1.00  0.00    -0.027 C 
BRANCH   7   8
ATOM      8  C   UNL A   1      42.054  28.457  29.959  1.00  0.00     0.054 C 
BRANCH   8   9
ATOM      9  C   UNL A   1      42.632  27.062  29.983  1.00  0.00    -0.027 C 
ATOM     10  C   UNL A   1      43.401  26.530  29.019  1.00  0.00    -0.027 C 
BRANCH  10  11
ATOM     11  C   UNL A   1      43.792  25.078  28.978  1.00  0.00     0.054 C 
BRANCH  11  12
ATOM     12  C   UNL A   1      43.095  24.353  27.861  1.00  0.00    -0.027 C 
ATOM     13  C   UNL A   1      43.628  23.312  27.199  1.00  0.00    -0.027 C 
BRANCH  13  14
ATOM     14  C   UNL A   1      42.958  22.586  26.067  1.00  0.00     0.054 C 
BRANCH  14  15
ATOM     15  C   UNL A   1      43.675  21.301  25.763  1.00  0.00    -0.027 C 
ATOM     16  C   UNL A   1      43.084  20.096  25.693  1.00  0.00    -0.031 C 
BRANCH  16  17
ATOM     17  C   UNL A   1      43.819  18.826  25.379  1.00  0.00     0.023 C 
ATOM     18  C   UNL A   1      45.284  19.096  25.069  1.00  0.00     0.008 C 
ENDBRANCH  16  17
ENDBRANCH  14  15
ENDBRANCH  13  14
ENDBRANCH  11  12
ENDBRANCH  10  11
ENDBRANCH   8   9
ENDBRANCH   7   8
ENDBRANCH   5   6
ENDBRANCH   4   5
ENDBRANCH   3   4
ENDBRANCH   1   2
BRANCH   1  19
ATOM     19  O   UNL A   1      34.847  34.397  28.720  1.00  0.00    -0.366 OA
BRANCH  19  20
ATOM     20  C   UNL A   1      33.494  34.674  29.012  1.00  0.00     0.283 C 
BRANCH  20  21
ATOM     21  C   UNL A   1      32.926  36.064  29.322  1.00  0.00     0.332 C 
ATOM     22  O   UNL A   1      32.188  36.645  28.529  1.00  0.00    -0.250 OA
BRANCH  21  23
ATOM     23  O   UNL A   1      33.347  36.591  30.502  1.00  0.00    -0.460 OA
BRANCH  23  24
ATOM     24  C   UNL A   1      33.205  35.715  31.644  1.00  0.00     0.274 C 
BRANCH  24  25
ATOM     25  C   UNL A   1      34.549  35.524  32.341  1.00  0.00     0.275 C 
BRANCH  25  26
ATOM     26  O   UNL A   1      34.435  34.452  33.289  1.00  0.00    -0.458 OA
BRANCH  26  27
ATOM     27  C   UNL A   1      34.832  33.252  32.816  1.00  0.00     0.338 C 
ATOM     28  O   UNL A   1      34.153  32.409  32.260  1.00  0.00    -0.246 OA
BRANCH  27  29
ATOM     29  C   UNL A   1      36.253  33.074  33.095  1.00  0.00     0.060 A 
ATOM     30  C   UNL A   1      37.517  33.161  31.790  1.00  0.00     0.016 A 
ATOM     31  C   UNL A   1      36.741  32.905  34.832  1.00  0.00     0.016 A 
ATOM     32  C   UNL A   1      39.263  32.949  32.229  1.00  0.00     0.010 A 
ATOM     33  C   UNL A   1      38.498  32.695  35.270  1.00  0.00     0.010 A 
ATOM     34  C   UNL A   1      39.792  32.731  33.970  1.00  0.00    -0.014 A 
BRANCH  34  35
ATOM     35  C   UNL A   1      41.236  32.687  34.355  1.00  0.00     0.031 A 
ATOM     36  C   UNL A   1      42.015  33.975  34.459  1.00  0.00     0.074 A 
ATOM     37  C   UNL A   1      41.859  31.494  34.463  1.00  0.00     0.049 A 
ATOM     38  N   UNL A   1      43.307  34.170  34.411  1.00  0.00    -0.248 NA
ATOM     39  C   UNL A   1      41.239  35.221  34.547  1.00  0.00     0.031 C 
ATOM     40  C   UNL A   1      41.236  30.181  34.278  1.00  0.00     0.029 A 
ATOM     41  N   UNL A   1      43.168  31.175  34.724  1.00  0.00    -0.354 N 
ATOM     42  C   UNL A   1      43.482  35.551  34.373  1.00  0.00     0.074 A 
ATOM     43  C   UNL A   1      42.166  36.142  34.335  1.00  0.00     0.031 C 
ATOM     44  C   UNL A   1      42.117  29.209  34.530  1.00  0.00     0.029 A 
ATOM     45  C   UNL A   1      43.413  29.818  34.738  1.00  0.00     0.049 A 
ATOM     46  H   UNL A   1      43.866  31.851  34.885  1.00  0.00     0.167 HD
ATOM     47  C   UNL A   1      44.640  36.257  34.400  1.00  0.00     0.037 A 
ATOM     48  C   UNL A   1      44.562  29.126  34.834  1.00  0.00     0.037 A 
ATOM     49  C   UNL A   1      45.923  35.618  34.544  1.00  0.00     0.049 A 
ATOM     50  C   UNL A   1      45.827  29.921  34.914  1.00  0.00     0.074 A 
ATOM     51  C   UNL A   1      47.174  36.195  34.657  1.00  0.00     0.029 A 
ATOM     52  N   UNL A   1      46.107  34.240  34.627  1.00  0.00    -0.354 N 
ATOM     53  N   UNL A   1      45.975  31.224  34.855  1.00  0.00    -0.248 NA
ATOM     54  C   UNL A   1      47.074  29.167  35.054  1.00  0.00     0.031 C 
ATOM     55  C   UNL A   1      48.115  35.166  34.776  1.00  0.00     0.029 A 
ATOM     56  C   UNL A   1      47.448  33.948  34.788  1.00  0.00     0.049 A 
ATOM     57  H   UNL A   1      45.386  33.572  34.579  1.00  0.00     0.167 HD
ATOM     58  C   UNL A   1      47.336  31.454  34.965  1.00  0.00     0.074 A 
ATOM     59  C   UNL A   1      47.962  30.151  35.113  1.00  0.00     0.031 C 
ATOM     60  C   UNL A   1      48.012  32.628  34.939  1.00  0.00     0.037 A 
BRANCH  47  61
ATOM     61  C   UNL A   1      44.565  37.764  34.290  1.00  0.00     0.058 A 
ATOM     62  C   UNL A   1      44.418  38.419  33.053  1.00  0.00     0.135 A 
ATOM     63  C   UNL A   1      44.647  38.574  35.436  1.00  0.00     0.135 A 
ATOM     64  F   UNL A   1      44.340  37.709  31.917  1.00  0.00    -0.206 F 
ATOM     65  C   UNL A   1      44.414  39.809  32.952  1.00  0.00     0.059 A 
ATOM     66  C   UNL A   1      44.607  39.967  35.363  1.00  0.00     0.059 A 
ATOM     67  F   UNL A   1      44.781  38.017  36.650  1.00  0.00    -0.206 F 
ATOM     68  C   UNL A   1      44.514  40.577  34.113  1.00  0.00     0.060 A 
BRANCH  68  69
ATOM     69  S   UNL A   1      44.525  42.376  33.959  1.00  0.00     0.124 S 
ATOM     70  O   UNL A   1      43.245  42.729  34.567  1.00  0.00    -0.237 OA
ATOM     71  O   UNL A   1      45.711  42.748  34.724  1.00  0.00    -0.237 OA
ATOM     72  O   UNL A   1      44.616  42.596  32.520  1.00  0.00    -0.744 OA
ENDBRANCH  68  69
ENDBRANCH  47  61
BRANCH  48  73
ATOM     73  C   UNL A   1      44.537  27.637  34.857  1.00  0.00     0.058 A 
ATOM     74  C   UNL A   1      44.673  26.902  33.670  1.00  0.00     0.135 A 
ATOM     75  C   UNL A   1      44.490  26.913  36.062  1.00  0.00     0.135 A 
ATOM     76  F   UNL A   1      44.725  27.541  32.490  1.00  0.00    -0.206 F 
ATOM     77  C   UNL A   1      44.765  25.513  33.673  1.00  0.00     0.059 A 
ATOM     78  C   UNL A   1      44.614  25.525  36.094  1.00  0.00     0.059 A 
ATOM     79  F   UNL A   1      44.391  27.563  37.234  1.00  0.00    -0.206 F 
ATOM     80  C   UNL A   1      44.746  24.833  34.892  1.00  0.00     0.060 A 
BRANCH  80  81
ATOM     81  S   UNL A   1      44.946  23.037  34.886  1.00  0.00     0.124 S 
ATOM     82  O   UNL A   1      46.205  22.884  34.166  1.00  0.00    -0.237 OA
ATOM     83  O   UNL A   1      44.984  22.729  36.312  1.00  0.00    -0.237 OA
ATOM     84  O   UNL A   1      43.756  22.568  34.183  1.00  0.00    -0.744 OA
ENDBRANCH  80  81
ENDBRANCH  48  73
BRANCH  60  85
ATOM     85  C   UNL A   1      49.494  32.539  35.117  1.00  0.00     0.058 A 
ATOM     86  C   UNL A   1      50.081  32.557  36.390  1.00  0.00     0.135 A 
ATOM     87  C   UNL A   1      50.327  32.385  33.998  1.00  0.00     0.135 A 
ATOM     88  F   UNL A   1      49.321  32.719  37.484  1.00  0.00    -0.206 F 
ATOM     89  C   UNL A   1      51.455  32.443  36.548  1.00  0.00     0.059 A 
ATOM     90  C   UNL A   1      51.700  32.239  34.135  1.00  0.00     0.059 A 
ATOM     91  F   UNL A   1      49.804  32.359  32.762  1.00  0.00    -0.206 F 
ATOM     92  C   UNL A   1      52.254  32.277  35.414  1.00  0.00     0.060 A 
BRANCH  92  93
ATOM     93  S   UNL A   1      54.031  32.080  35.640  1.00  0.00     0.124 S 
ATOM     94  O   UNL A   1      54.558  33.040  34.677  1.00  0.00    -0.237 OA
ATOM     95  O   UNL A   1      54.206  32.429  37.047  1.00  0.00    -0.237 OA
ATOM     96  O   UNL A   1      54.260  30.675  35.317  1.00  0.00    -0.744 OA
ENDBRANCH  92  93
ENDBRANCH  60  85
ENDBRANCH  34  35
ENDBRANCH  27  29
ENDBRANCH  26  27
ENDBRANCH  25  26
ENDBRANCH  24  25
ENDBRANCH  23  24
ENDBRANCH  21  23
ENDBRANCH  20  21
ENDBRANCH  19  20
ENDBRANCH   1  19
TORSDOF 27
ENDMDL
