MODEL 1
REMARK VINA RESULT:     -13.1      0.000      0.000
REMARK SMILES O=C(OCCOC(=O)c1nnn(-c2cccc(C(F)(F)F)c2)c1[C@@H]1COc2ccccc2O1)c1ccc(-c2c3nc(c(-c4c(F)cc(S(=O)(=O)[O-])cc4F)c4ccc([nH]4)c(-c4c(F)cc(S(=O)(=O)[O-])cc4F)c4nc(c(-c5c(F)cc(S(=O)(=O)[O-])cc5F)c5ccc2[nH]5)C=C4)C=C3)cc1
REMARK SMILES IDX 4 1 3 2 2 3 1 4 34 5 35 6 99 7 36 8 98 9 37 10 38 11 39 12
REMARK SMILES IDX 92 13 40 14 97 15 91 16 93 17 41 18 96 19 90 20 89 21 42 23
REMARK SMILES IDX 76 24 55 25 75 26 56 27 59 28 74 29 94 30 57 31 58 32 73 34
REMARK SMILES IDX 95 35 60 36 43 37 44 38 53 39 45 40 46 41 52 42 54 43 47 44
REMARK SMILES IDX 48 45 49 46 50 47 51 48 77 49 78 50 87 51 79 52 80 53 86 54
REMARK SMILES IDX 88 55 81 56 82 57 83 58 84 59 85 60 61 61 62 62 71 63 63 64
REMARK SMILES IDX 64 65 70 66 72 67 65 68 66 69 67 70 68 71 69 72 5 73 6 74
REMARK SMILES IDX 7 75 8 76 9 77 10 78 23 79 11 80 12 81 24 82 25 83 33 84
REMARK SMILES IDX 26 85 32 86 27 87 31 88 28 89 30 90 29 91 13 92 14 93 22 94
REMARK SMILES IDX 15 95 17 96 16 97 18 98 19 99 20 100 21 101
REMARK H PARENT 93 22 59 33
REMARK Flexibility Score: inf
ROOT
ATOM      1  C   UNL A   1      37.533  21.024  25.154  1.00  0.00     0.275 C 
ENDROOT
BRANCH   1   2
ATOM      2  O   UNL A   1      38.351  22.174  25.449  1.00  0.00    -0.458 OA
BRANCH   2   3
ATOM      3  C   UNL A   1      39.352  22.030  26.348  1.00  0.00     0.338 C 
ATOM      4  O   UNL A   1      39.903  20.974  26.601  1.00  0.00    -0.246 OA
BRANCH   3   5
ATOM      5  C   UNL A   1      39.748  23.333  26.932  1.00  0.00     0.060 A 
ATOM      6  C   UNL A   1      40.934  23.470  27.662  1.00  0.00     0.016 A 
ATOM      7  C   UNL A   1      38.918  24.443  26.723  1.00  0.00     0.016 A 
ATOM      8  C   UNL A   1      41.267  24.698  28.210  1.00  0.00     0.010 A 
ATOM      9  C   UNL A   1      39.246  25.675  27.286  1.00  0.00     0.010 A 
ATOM     10  C   UNL A   1      40.414  25.795  28.042  1.00  0.00    -0.014 A 
BRANCH  10  11
ATOM     11  C   UNL A   1      40.849  27.059  28.626  1.00  0.00     0.031 A 
ATOM     12  C   UNL A   1      42.039  27.693  27.996  1.00  0.00     0.074 A 
ATOM     13  C   UNL A   1      40.220  27.684  29.639  1.00  0.00     0.049 A 
ATOM     14  N   UNL A   1      43.220  27.854  28.500  1.00  0.00    -0.248 NA
ATOM     15  C   UNL A   1      41.917  28.137  26.602  1.00  0.00     0.031 C 
ATOM     16  C   UNL A   1      38.895  27.406  30.190  1.00  0.00     0.029 A 
ATOM     17  N   UNL A   1      40.630  28.782  30.338  1.00  0.00    -0.354 N 
ATOM     18  C   UNL A   1      43.940  28.602  27.569  1.00  0.00     0.074 A 
ATOM     19  C   UNL A   1      43.135  28.632  26.373  1.00  0.00     0.031 C 
ATOM     20  C   UNL A   1      38.529  28.432  30.994  1.00  0.00     0.029 A 
ATOM     21  C   UNL A   1      39.641  29.362  31.118  1.00  0.00     0.049 A 
ATOM     22  H   UNL A   1      41.549  29.132  30.294  1.00  0.00     0.167 HD
ATOM     23  C   UNL A   1      45.061  29.299  27.911  1.00  0.00     0.037 A 
ATOM     24  C   UNL A   1      39.714  30.552  31.766  1.00  0.00     0.037 A 
ATOM     25  C   UNL A   1      45.606  28.851  29.166  1.00  0.00     0.049 A 
ATOM     26  C   UNL A   1      41.149  30.886  31.948  1.00  0.00     0.074 A 
ATOM     27  C   UNL A   1      46.053  27.640  29.660  1.00  0.00     0.029 A 
ATOM     28  N   UNL A   1      45.466  29.663  30.266  1.00  0.00    -0.354 N 
ATOM     29  N   UNL A   1      41.958  30.253  32.752  1.00  0.00    -0.248 NA
ATOM     30  C   UNL A   1      41.797  31.708  30.938  1.00  0.00     0.031 C 
ATOM     31  C   UNL A   1      45.673  27.635  31.034  1.00  0.00     0.029 A 
ATOM     32  C   UNL A   1      45.057  28.858  31.299  1.00  0.00     0.049 A 
ATOM     33  H   UNL A   1      45.628  30.632  30.306  1.00  0.00     0.167 HD
ATOM     34  C   UNL A   1      43.182  30.255  32.102  1.00  0.00     0.074 A 
ATOM     35  C   UNL A   1      43.049  31.258  31.050  1.00  0.00     0.031 C 
ATOM     36  C   UNL A   1      44.094  29.259  32.299  1.00  0.00     0.037 A 
BRANCH  23  37
ATOM     37  C   UNL A   1      45.491  30.603  27.274  1.00  0.00     0.058 A 
ATOM     38  C   UNL A   1      46.832  30.768  26.865  1.00  0.00     0.135 A 
ATOM     39  C   UNL A   1      44.721  31.785  27.317  1.00  0.00     0.135 A 
ATOM     40  F   UNL A   1      47.660  29.713  26.786  1.00  0.00    -0.206 F 
ATOM     41  C   UNL A   1      47.389  32.022  26.606  1.00  0.00     0.059 A 
ATOM     42  C   UNL A   1      45.240  33.038  27.011  1.00  0.00     0.059 A 
ATOM     43  F   UNL A   1      43.455  31.794  27.753  1.00  0.00    -0.206 F 
ATOM     44  C   UNL A   1      46.587  33.154  26.705  1.00  0.00     0.060 A 
BRANCH  44  45
ATOM     45  S   UNL A   1      47.328  34.784  26.504  1.00  0.00     0.124 S 
ATOM     46  O   UNL A   1      48.150  34.582  25.317  1.00  0.00    -0.237 OA
ATOM     47  O   UNL A   1      46.153  35.634  26.333  1.00  0.00    -0.237 OA
ATOM     48  O   UNL A   1      48.055  34.977  27.755  1.00  0.00    -0.744 OA
ENDBRANCH  44  45
ENDBRANCH  23  37
BRANCH  24  49
ATOM     49  C   UNL A   1      38.635  31.548  31.983  1.00  0.00     0.058 A 
ATOM     50  C   UNL A   1      38.233  32.419  30.954  1.00  0.00     0.135 A 
ATOM     51  C   UNL A   1      37.783  31.473  33.103  1.00  0.00     0.135 A 
ATOM     52  F   UNL A   1      38.972  32.538  29.841  1.00  0.00    -0.206 F 
ATOM     53  C   UNL A   1      37.031  33.132  31.010  1.00  0.00     0.059 A 
ATOM     54  C   UNL A   1      36.589  32.184  33.186  1.00  0.00     0.059 A 
ATOM     55  F   UNL A   1      38.039  30.627  34.112  1.00  0.00    -0.206 F 
ATOM     56  C   UNL A   1      36.204  32.989  32.122  1.00  0.00     0.060 A 
BRANCH  56  57
ATOM     57  S   UNL A   1      34.565  33.751  32.114  1.00  0.00     0.124 S 
ATOM     58  O   UNL A   1      34.881  35.148  32.391  1.00  0.00    -0.237 OA
ATOM     59  O   UNL A   1      34.095  33.459  30.764  1.00  0.00    -0.237 OA
ATOM     60  O   UNL A   1      33.859  33.048  33.181  1.00  0.00    -0.744 OA
ENDBRANCH  56  57
ENDBRANCH  24  49
BRANCH  36  61
ATOM     61  C   UNL A   1      43.934  28.358  33.494  1.00  0.00     0.058 A 
ATOM     62  C   UNL A   1      44.507  28.596  34.756  1.00  0.00     0.135 A 
ATOM     63  C   UNL A   1      43.049  27.273  33.388  1.00  0.00     0.135 A 
ATOM     64  F   UNL A   1      45.269  29.678  34.977  1.00  0.00    -0.206 F 
ATOM     65  C   UNL A   1      44.257  27.758  35.844  1.00  0.00     0.059 A 
ATOM     66  C   UNL A   1      42.756  26.446  34.468  1.00  0.00     0.059 A 
ATOM     67  F   UNL A   1      42.417  27.029  32.227  1.00  0.00    -0.206 F 
ATOM     68  C   UNL A   1      43.378  26.685  35.691  1.00  0.00     0.060 A 
BRANCH  68  69
ATOM     69  S   UNL A   1      42.997  25.649  37.120  1.00  0.00     0.124 S 
ATOM     70  O   UNL A   1      41.680  25.127  36.778  1.00  0.00    -0.237 OA
ATOM     71  O   UNL A   1      44.089  24.677  37.108  1.00  0.00    -0.237 OA
ATOM     72  O   UNL A   1      43.027  26.587  38.240  1.00  0.00    -0.744 OA
ENDBRANCH  68  69
ENDBRANCH  36  61
ENDBRANCH  10  11
ENDBRANCH   3   5
ENDBRANCH   2   3
ENDBRANCH   1   2
BRANCH   1  73
ATOM     73  C   UNL A   1      36.043  21.135  25.472  1.00  0.00     0.275 C 
BRANCH  73  74
ATOM     74  O   UNL A   1      35.333  21.601  24.311  1.00  0.00    -0.457 OA
BRANCH  74  75
ATOM     75  C   UNL A   1      33.973  21.412  24.334  1.00  0.00     0.361 C 
ATOM     76  O   UNL A   1      33.423  20.383  24.686  1.00  0.00    -0.244 OA
BRANCH  75  77
ATOM     77  C   UNL A   1      33.257  22.570  23.818  1.00  0.00     0.198 A 
ATOM     78  N   UNL A   1      32.619  22.552  22.607  1.00  0.00    -0.122 NA
ATOM     79  C   UNL A   1      33.092  23.820  24.405  1.00  0.00     0.123 A 
ATOM     80  N   UNL A   1      32.051  23.733  22.421  1.00  0.00    -0.061 NA
ATOM     81  N   UNL A   1      32.436  24.550  23.427  1.00  0.00    -0.213 N 
BRANCH  79  82
ATOM     82  C   UNL A   1      33.413  24.283  25.794  1.00  0.00     0.262 C 
ATOM     83  C   UNL A   1      32.208  24.203  26.739  1.00  0.00     0.281 C 
ATOM     84  O   UNL A   1      34.072  25.554  25.781  1.00  0.00    -0.477 OA
ATOM     85  O   UNL A   1      31.289  25.272  26.509  1.00  0.00    -0.485 OA
ATOM     86  C   UNL A   1      33.312  26.588  26.267  1.00  0.00     0.162 A 
ATOM     87  C   UNL A   1      31.955  26.467  26.577  1.00  0.00     0.161 A 
ATOM     88  C   UNL A   1      33.938  27.830  26.365  1.00  0.00     0.050 A 
ATOM     89  C   UNL A   1      31.207  27.592  26.913  1.00  0.00     0.050 A 
ATOM     90  C   UNL A   1      33.197  28.954  26.735  1.00  0.00     0.004 A 
ATOM     91  C   UNL A   1      31.830  28.837  26.993  1.00  0.00     0.004 A 
ENDBRANCH  79  82
BRANCH  81  92
ATOM     92  C   UNL A   1      32.490  25.931  23.169  1.00  0.00     0.067 A 
ATOM     93  C   UNL A   1      33.697  26.519  22.793  1.00  0.00     0.028 A 
ATOM     94  C   UNL A   1      31.327  26.697  23.330  1.00  0.00     0.041 A 
ATOM     95  C   UNL A   1      33.715  27.878  22.482  1.00  0.00     0.003 A 
ATOM     96  C   UNL A   1      31.356  28.073  23.066  1.00  0.00     0.058 A 
ATOM     97  C   UNL A   1      32.554  28.648  22.611  1.00  0.00     0.013 A 
BRANCH  96  98
ATOM     98  C   UNL A   1      30.111  28.906  23.226  1.00  0.00     0.416 C 
ATOM     99  F   UNL A   1      29.017  28.175  23.579  1.00  0.00    -0.166 F 
ATOM    100  F   UNL A   1      30.242  29.868  24.182  1.00  0.00    -0.166 F 
ATOM    101  F   UNL A   1      29.755  29.567  22.086  1.00  0.00    -0.166 F 
ENDBRANCH  96  98
ENDBRANCH  81  92
ENDBRANCH  75  77
ENDBRANCH  74  75
ENDBRANCH  73  74
ENDBRANCH   1  73
TORSDOF 17
ENDMDL
MODEL 2
REMARK VINA RESULT:     -13.1      3.210      9.137
REMARK SMILES O=C(OCCOC(=O)c1nnn(-c2cccc(C(F)(F)F)c2)c1[C@@H]1COc2ccccc2O1)c1ccc(-c2c3nc(c(-c4c(F)cc(S(=O)(=O)[O-])cc4F)c4ccc([nH]4)c(-c4c(F)cc(S(=O)(=O)[O-])cc4F)c4nc(c(-c5c(F)cc(S(=O)(=O)[O-])cc5F)c5ccc2[nH]5)C=C4)C=C3)cc1
REMARK SMILES IDX 4 1 3 2 2 3 1 4 34 5 35 6 99 7 36 8 98 9 37 10 38 11 39 12
REMARK SMILES IDX 92 13 40 14 97 15 91 16 93 17 41 18 96 19 90 20 89 21 42 23
REMARK SMILES IDX 76 24 55 25 75 26 56 27 59 28 74 29 94 30 57 31 58 32 73 34
REMARK SMILES IDX 95 35 60 36 43 37 44 38 53 39 45 40 46 41 52 42 54 43 47 44
REMARK SMILES IDX 48 45 49 46 50 47 51 48 77 49 78 50 87 51 79 52 80 53 86 54
REMARK SMILES IDX 88 55 81 56 82 57 83 58 84 59 85 60 61 61 62 62 71 63 63 64
REMARK SMILES IDX 64 65 70 66 72 67 65 68 66 69 67 70 68 71 69 72 5 73 6 74
REMARK SMILES IDX 7 75 8 76 9 77 10 78 23 79 11 80 12 81 24 82 25 83 33 84
REMARK SMILES IDX 26 85 32 86 27 87 31 88 28 89 30 90 29 91 13 92 14 93 22 94
REMARK SMILES IDX 15 95 17 96 16 97 18 98 19 99 20 100 21 101
REMARK H PARENT 93 22 59 33
REMARK Flexibility Score: inf
ROOT
ATOM      1  C   UNL A   1      32.751  30.803  26.782  1.00  0.00     0.275 C 
ENDROOT
BRANCH   1   2
ATOM      2  O   UNL A   1      33.623  30.814  27.929  1.00  0.00    -0.458 OA
BRANCH   2   3
ATOM      3  C   UNL A   1      34.608  31.740  27.973  1.00  0.00     0.338 C 
ATOM      4  O   UNL A   1      34.429  32.941  27.873  1.00  0.00    -0.246 OA
BRANCH   3   5
ATOM      5  C   UNL A   1      35.928  31.118  28.234  1.00  0.00     0.060 A 
ATOM      6  C   UNL A   1      36.151  29.759  27.986  1.00  0.00     0.016 A 
ATOM      7  C   UNL A   1      36.966  31.924  28.719  1.00  0.00     0.016 A 
ATOM      8  C   UNL A   1      37.392  29.205  28.256  1.00  0.00     0.010 A 
ATOM      9  C   UNL A   1      38.210  31.364  29.005  1.00  0.00     0.010 A 
ATOM     10  C   UNL A   1      38.414  30.000  28.786  1.00  0.00    -0.014 A 
BRANCH  10  11
ATOM     11  C   UNL A   1      39.698  29.347  29.018  1.00  0.00     0.031 A 
ATOM     12  C   UNL A   1      40.112  29.210  30.441  1.00  0.00     0.074 A 
ATOM     13  C   UNL A   1      40.476  28.834  28.047  1.00  0.00     0.049 A 
ATOM     14  N   UNL A   1      41.090  29.800  31.049  1.00  0.00    -0.248 NA
ATOM     15  C   UNL A   1      39.285  28.367  31.314  1.00  0.00     0.031 C 
ATOM     16  C   UNL A   1      40.132  28.589  26.647  1.00  0.00     0.029 A 
ATOM     17  N   UNL A   1      41.743  28.339  28.153  1.00  0.00    -0.354 N 
ATOM     18  C   UNL A   1      41.136  29.252  32.331  1.00  0.00     0.074 A 
ATOM     19  C   UNL A   1      39.928  28.479  32.478  1.00  0.00     0.031 C 
ATOM     20  C   UNL A   1      41.088  27.810  26.090  1.00  0.00     0.029 A 
ATOM     21  C   UNL A   1      42.167  27.619  27.047  1.00  0.00     0.049 A 
ATOM     22  H   UNL A   1      42.308  28.481  28.946  1.00  0.00     0.167 HD
ATOM     23  C   UNL A   1      42.253  29.323  33.109  1.00  0.00     0.037 A 
ATOM     24  C   UNL A   1      43.295  26.871  26.951  1.00  0.00     0.037 A 
ATOM     25  C   UNL A   1      43.168  30.332  32.640  1.00  0.00     0.049 A 
ATOM     26  C   UNL A   1      44.247  27.343  27.988  1.00  0.00     0.074 A 
ATOM     27  C   UNL A   1      43.085  31.692  32.410  1.00  0.00     0.029 A 
ATOM     28  N   UNL A   1      44.326  29.928  32.022  1.00  0.00    -0.354 N 
ATOM     29  N   UNL A   1      44.856  28.496  27.959  1.00  0.00    -0.248 NA
ATOM     30  C   UNL A   1      44.243  26.676  29.281  1.00  0.00     0.031 C 
ATOM     31  C   UNL A   1      43.904  31.927  31.267  1.00  0.00     0.029 A 
ATOM     32  C   UNL A   1      44.463  30.703  30.899  1.00  0.00     0.049 A 
ATOM     33  H   UNL A   1      44.939  29.220  32.326  1.00  0.00     0.167 HD
ATOM     34  C   UNL A   1      44.938  28.890  29.286  1.00  0.00     0.074 A 
ATOM     35  C   UNL A   1      44.648  27.684  30.056  1.00  0.00     0.031 C 
ATOM     36  C   UNL A   1      44.964  30.209  29.637  1.00  0.00     0.037 A 
BRANCH  23  37
ATOM     37  C   UNL A   1      42.674  28.266  34.108  1.00  0.00     0.058 A 
ATOM     38  C   UNL A   1      42.848  28.620  35.464  1.00  0.00     0.135 A 
ATOM     39  C   UNL A   1      43.192  27.006  33.740  1.00  0.00     0.135 A 
ATOM     40  F   UNL A   1      42.396  29.797  35.928  1.00  0.00    -0.206 F 
ATOM     41  C   UNL A   1      43.560  27.824  36.362  1.00  0.00     0.059 A 
ATOM     42  C   UNL A   1      43.857  26.171  34.632  1.00  0.00     0.059 A 
ATOM     43  F   UNL A   1      43.165  26.566  32.476  1.00  0.00    -0.206 F 
ATOM     44  C   UNL A   1      44.080  26.609  35.928  1.00  0.00     0.060 A 
BRANCH  44  45
ATOM     45  S   UNL A   1      45.111  25.639  37.042  1.00  0.00     0.124 S 
ATOM     46  O   UNL A   1      46.043  25.022  36.107  1.00  0.00    -0.237 OA
ATOM     47  O   UNL A   1      45.667  26.668  37.916  1.00  0.00    -0.237 OA
ATOM     48  O   UNL A   1      44.156  24.736  37.678  1.00  0.00    -0.744 OA
ENDBRANCH  44  45
ENDBRANCH  23  37
BRANCH  24  49
ATOM     49  C   UNL A   1      43.493  25.595  26.217  1.00  0.00     0.058 A 
ATOM     50  C   UNL A   1      44.602  25.407  25.373  1.00  0.00     0.135 A 
ATOM     51  C   UNL A   1      42.761  24.438  26.551  1.00  0.00     0.135 A 
ATOM     52  F   UNL A   1      45.369  26.449  25.021  1.00  0.00    -0.206 F 
ATOM     53  C   UNL A   1      44.993  24.139  24.931  1.00  0.00     0.059 A 
ATOM     54  C   UNL A   1      43.123  23.168  26.110  1.00  0.00     0.059 A 
ATOM     55  F   UNL A   1      41.724  24.495  27.400  1.00  0.00    -0.206 F 
ATOM     56  C   UNL A   1      44.259  23.022  25.324  1.00  0.00     0.060 A 
BRANCH  56  57
ATOM     57  S   UNL A   1      44.869  21.370  24.919  1.00  0.00     0.124 S 
ATOM     58  O   UNL A   1      46.254  21.442  25.369  1.00  0.00    -0.237 OA
ATOM     59  O   UNL A   1      43.987  20.513  25.705  1.00  0.00    -0.237 OA
ATOM     60  O   UNL A   1      44.686  21.286  23.472  1.00  0.00    -0.744 OA
ENDBRANCH  56  57
ENDBRANCH  24  49
BRANCH  36  61
ATOM     61  C   UNL A   1      45.279  31.233  28.578  1.00  0.00     0.058 A 
ATOM     62  C   UNL A   1      44.384  31.647  27.577  1.00  0.00     0.135 A 
ATOM     63  C   UNL A   1      46.501  31.918  28.667  1.00  0.00     0.135 A 
ATOM     64  F   UNL A   1      43.148  31.129  27.496  1.00  0.00    -0.206 F 
ATOM     65  C   UNL A   1      44.714  32.656  26.671  1.00  0.00     0.059 A 
ATOM     66  C   UNL A   1      46.836  32.953  27.799  1.00  0.00     0.059 A 
ATOM     67  F   UNL A   1      47.375  31.616  29.643  1.00  0.00    -0.206 F 
ATOM     68  C   UNL A   1      45.943  33.305  26.790  1.00  0.00     0.060 A 
BRANCH  68  69
ATOM     69  S   UNL A   1      46.336  34.661  25.665  1.00  0.00     0.124 S 
ATOM     70  O   UNL A   1      47.746  34.427  25.381  1.00  0.00    -0.237 OA
ATOM     71  O   UNL A   1      45.416  34.428  24.553  1.00  0.00    -0.237 OA
ATOM     72  O   UNL A   1      46.047  35.856  26.456  1.00  0.00    -0.744 OA
ENDBRANCH  68  69
ENDBRANCH  36  61
ENDBRANCH  10  11
ENDBRANCH   3   5
ENDBRANCH   2   3
ENDBRANCH   1   2
BRANCH   1  73
ATOM     73  C   UNL A   1      32.860  29.605  25.840  1.00  0.00     0.275 C 
BRANCH  73  74
ATOM     74  O   UNL A   1      31.810  28.665  26.129  1.00  0.00    -0.457 OA
BRANCH  74  75
ATOM     75  C   UNL A   1      31.209  28.096  25.034  1.00  0.00     0.361 C 
ATOM     76  O   UNL A   1      30.662  28.721  24.141  1.00  0.00    -0.244 OA
BRANCH  75  77
ATOM     77  C   UNL A   1      31.238  26.641  25.095  1.00  0.00     0.198 A 
ATOM     78  N   UNL A   1      30.104  25.898  25.286  1.00  0.00    -0.122 NA
ATOM     79  C   UNL A   1      32.331  25.789  24.981  1.00  0.00     0.123 A 
ATOM     80  N   UNL A   1      30.443  24.618  25.281  1.00  0.00    -0.061 NA
ATOM     81  N   UNL A   1      31.792  24.539  25.233  1.00  0.00    -0.213 N 
BRANCH  79  82
ATOM     82  C   UNL A   1      33.742  26.083  24.566  1.00  0.00     0.262 C 
ATOM     83  C   UNL A   1      33.996  25.795  23.082  1.00  0.00     0.281 C 
ATOM     84  O   UNL A   1      34.683  25.475  25.457  1.00  0.00    -0.477 OA
ATOM     85  O   UNL A   1      34.129  24.394  22.835  1.00  0.00    -0.485 OA
ATOM     86  C   UNL A   1      35.384  24.430  24.909  1.00  0.00     0.162 A 
ATOM     87  C   UNL A   1      35.090  23.875  23.661  1.00  0.00     0.161 A 
ATOM     88  C   UNL A   1      36.381  23.863  25.703  1.00  0.00     0.050 A 
ATOM     89  C   UNL A   1      35.735  22.718  23.236  1.00  0.00     0.050 A 
ATOM     90  C   UNL A   1      37.053  22.721  25.263  1.00  0.00     0.004 A 
ATOM     91  C   UNL A   1      36.719  22.141  24.038  1.00  0.00     0.004 A 
ENDBRANCH  79  82
BRANCH  81  92
ATOM     92  C   UNL A   1      32.405  23.411  25.805  1.00  0.00     0.067 A 
ATOM     93  C   UNL A   1      32.886  23.472  27.112  1.00  0.00     0.028 A 
ATOM     94  C   UNL A   1      32.550  22.252  25.030  1.00  0.00     0.041 A 
ATOM     95  C   UNL A   1      33.435  22.324  27.681  1.00  0.00     0.003 A 
ATOM     96  C   UNL A   1      33.147  21.112  25.586  1.00  0.00     0.058 A 
ATOM     97  C   UNL A   1      33.559  21.152  26.928  1.00  0.00     0.013 A 
BRANCH  96  98
ATOM     98  C   UNL A   1      33.302  19.856  24.768  1.00  0.00     0.416 C 
ATOM     99  F   UNL A   1      32.672  18.778  25.315  1.00  0.00    -0.166 F 
ATOM    100  F   UNL A   1      32.798  19.983  23.509  1.00  0.00    -0.166 F 
ATOM    101  F   UNL A   1      34.602  19.475  24.607  1.00  0.00    -0.166 F 
ENDBRANCH  96  98
ENDBRANCH  81  92
ENDBRANCH  75  77
ENDBRANCH  74  75
ENDBRANCH  73  74
ENDBRANCH   1  73
TORSDOF 17
ENDMDL
MODEL 3
REMARK VINA RESULT:     -12.8      1.271      2.293
REMARK SMILES O=C(OCCOC(=O)c1nnn(-c2cccc(C(F)(F)F)c2)c1[C@@H]1COc2ccccc2O1)c1ccc(-c2c3nc(c(-c4c(F)cc(S(=O)(=O)[O-])cc4F)c4ccc([nH]4)c(-c4c(F)cc(S(=O)(=O)[O-])cc4F)c4nc(c(-c5c(F)cc(S(=O)(=O)[O-])cc5F)c5ccc2[nH]5)C=C4)C=C3)cc1
REMARK SMILES IDX 4 1 3 2 2 3 1 4 34 5 35 6 99 7 36 8 98 9 37 10 38 11 39 12
REMARK SMILES IDX 92 13 40 14 97 15 91 16 93 17 41 18 96 19 90 20 89 21 42 23
REMARK SMILES IDX 76 24 55 25 75 26 56 27 59 28 74 29 94 30 57 31 58 32 73 34
REMARK SMILES IDX 95 35 60 36 43 37 44 38 53 39 45 40 46 41 52 42 54 43 47 44
REMARK SMILES IDX 48 45 49 46 50 47 51 48 77 49 78 50 87 51 79 52 80 53 86 54
REMARK SMILES IDX 88 55 81 56 82 57 83 58 84 59 85 60 61 61 62 62 71 63 63 64
REMARK SMILES IDX 64 65 70 66 72 67 65 68 66 69 67 70 68 71 69 72 5 73 6 74
REMARK SMILES IDX 7 75 8 76 9 77 10 78 23 79 11 80 12 81 24 82 25 83 33 84
REMARK SMILES IDX 26 85 32 86 27 87 31 88 28 89 30 90 29 91 13 92 14 93 22 94
REMARK SMILES IDX 15 95 17 96 16 97 18 98 19 99 20 100 21 101
REMARK H PARENT 93 22 59 33
REMARK Flexibility Score: inf
ROOT
ATOM      1  C   UNL A   1      37.915  20.787  25.354  1.00  0.00     0.275 C 
ENDROOT
BRANCH   1   2
ATOM      2  O   UNL A   1      38.353  21.985  26.026  1.00  0.00    -0.458 OA
BRANCH   2   3
ATOM      3  C   UNL A   1      39.577  21.982  26.601  1.00  0.00     0.338 C 
ATOM      4  O   UNL A   1      40.327  21.022  26.620  1.00  0.00    -0.246 OA
BRANCH   3   5
ATOM      5  C   UNL A   1      39.926  23.317  27.141  1.00  0.00     0.060 A 
ATOM      6  C   UNL A   1      41.094  23.515  27.885  1.00  0.00     0.016 A 
ATOM      7  C   UNL A   1      39.070  24.395  26.874  1.00  0.00     0.016 A 
ATOM      8  C   UNL A   1      41.383  24.773  28.391  1.00  0.00     0.010 A 
ATOM      9  C   UNL A   1      39.353  25.656  27.395  1.00  0.00     0.010 A 
ATOM     10  C   UNL A   1      40.503  25.838  28.165  1.00  0.00    -0.014 A 
BRANCH  10  11
ATOM     11  C   UNL A   1      40.893  27.135  28.708  1.00  0.00     0.031 A 
ATOM     12  C   UNL A   1      42.091  27.767  28.090  1.00  0.00     0.074 A 
ATOM     13  C   UNL A   1      40.217  27.790  29.670  1.00  0.00     0.049 A 
ATOM     14  N   UNL A   1      43.251  27.975  28.625  1.00  0.00    -0.248 NA
ATOM     15  C   UNL A   1      42.008  28.147  26.674  1.00  0.00     0.031 C 
ATOM     16  C   UNL A   1      38.880  27.507  30.189  1.00  0.00     0.029 A 
ATOM     17  N   UNL A   1      40.581  28.926  30.333  1.00  0.00    -0.354 N 
ATOM     18  C   UNL A   1      43.987  28.696  27.686  1.00  0.00     0.074 A 
ATOM     19  C   UNL A   1      43.223  28.657  26.465  1.00  0.00     0.031 C 
ATOM     20  C   UNL A   1      38.466  28.559  30.933  1.00  0.00     0.029 A 
ATOM     21  C   UNL A   1      39.554  29.518  31.053  1.00  0.00     0.049 A 
ATOM     22  H   UNL A   1      41.494  29.293  30.304  1.00  0.00     0.167 HD
ATOM     23  C   UNL A   1      45.081  29.432  28.035  1.00  0.00     0.037 A 
ATOM     24  C   UNL A   1      39.581  30.736  31.650  1.00  0.00     0.037 A 
ATOM     25  C   UNL A   1      45.591  29.051  29.326  1.00  0.00     0.049 A 
ATOM     26  C   UNL A   1      41.002  31.109  31.865  1.00  0.00     0.074 A 
ATOM     27  C   UNL A   1      46.045  27.872  29.887  1.00  0.00     0.029 A 
ATOM     28  N   UNL A   1      45.398  29.906  30.384  1.00  0.00    -0.354 N 
ATOM     29  N   UNL A   1      41.795  30.529  32.723  1.00  0.00    -0.248 NA
ATOM     30  C   UNL A   1      41.668  31.900  30.842  1.00  0.00     0.031 C 
ATOM     31  C   UNL A   1      45.619  27.919  31.247  1.00  0.00     0.029 A 
ATOM     32  C   UNL A   1      44.970  29.139  31.437  1.00  0.00     0.049 A 
ATOM     33  H   UNL A   1      45.539  30.880  30.386  1.00  0.00     0.167 HD
ATOM     34  C   UNL A   1      43.041  30.529  32.114  1.00  0.00     0.074 A 
ATOM     35  C   UNL A   1      42.924  31.482  31.015  1.00  0.00     0.031 C 
ATOM     36  C   UNL A   1      43.966  29.562  32.385  1.00  0.00     0.037 A 
BRANCH  23  37
ATOM     37  C   UNL A   1      45.507  30.716  27.355  1.00  0.00     0.058 A 
ATOM     38  C   UNL A   1      46.847  30.873  26.942  1.00  0.00     0.135 A 
ATOM     39  C   UNL A   1      44.732  31.895  27.359  1.00  0.00     0.135 A 
ATOM     40  F   UNL A   1      47.679  29.819  26.898  1.00  0.00    -0.206 F 
ATOM     41  C   UNL A   1      47.399  32.120  26.643  1.00  0.00     0.059 A 
ATOM     42  C   UNL A   1      45.246  33.140  27.012  1.00  0.00     0.059 A 
ATOM     43  F   UNL A   1      43.465  31.914  27.794  1.00  0.00    -0.206 F 
ATOM     44  C   UNL A   1      46.593  33.251  26.704  1.00  0.00     0.060 A 
BRANCH  44  45
ATOM     45  S   UNL A   1      47.328  34.876  26.449  1.00  0.00     0.124 S 
ATOM     46  O   UNL A   1      48.260  34.949  27.567  1.00  0.00    -0.237 OA
ATOM     47  O   UNL A   1      47.925  34.737  25.124  1.00  0.00    -0.237 OA
ATOM     48  O   UNL A   1      46.180  35.776  26.520  1.00  0.00    -0.744 OA
ENDBRANCH  44  45
ENDBRANCH  23  37
BRANCH  24  49
ATOM     49  C   UNL A   1      38.476  31.718  31.786  1.00  0.00     0.058 A 
ATOM     50  C   UNL A   1      38.009  32.445  30.677  1.00  0.00     0.135 A 
ATOM     51  C   UNL A   1      37.665  31.752  32.939  1.00  0.00     0.135 A 
ATOM     52  F   UNL A   1      38.705  32.451  29.530  1.00  0.00    -0.206 F 
ATOM     53  C   UNL A   1      36.785  33.121  30.692  1.00  0.00     0.059 A 
ATOM     54  C   UNL A   1      36.450  32.431  32.981  1.00  0.00     0.059 A 
ATOM     55  F   UNL A   1      37.984  31.042  34.031  1.00  0.00    -0.206 F 
ATOM     56  C   UNL A   1      36.002  33.089  31.844  1.00  0.00     0.060 A 
BRANCH  56  57
ATOM     57  S   UNL A   1      34.337  33.793  31.806  1.00  0.00     0.124 S 
ATOM     58  O   UNL A   1      33.986  33.662  30.397  1.00  0.00    -0.237 OA
ATOM     59  O   UNL A   1      33.613  32.924  32.728  1.00  0.00    -0.237 OA
ATOM     60  O   UNL A   1      34.538  35.162  32.275  1.00  0.00    -0.744 OA
ENDBRANCH  56  57
ENDBRANCH  24  49
BRANCH  36  61
ATOM     61  C   UNL A   1      43.783  28.710  33.614  1.00  0.00     0.058 A 
ATOM     62  C   UNL A   1      44.314  29.011  34.880  1.00  0.00     0.135 A 
ATOM     63  C   UNL A   1      42.917  27.608  33.528  1.00  0.00     0.135 A 
ATOM     64  F   UNL A   1      45.054  30.114  35.076  1.00  0.00    -0.206 F 
ATOM     65  C   UNL A   1      44.043  28.217  35.995  1.00  0.00     0.059 A 
ATOM     66  C   UNL A   1      42.603  26.825  34.635  1.00  0.00     0.059 A 
ATOM     67  F   UNL A   1      42.323  27.306  32.361  1.00  0.00    -0.206 F 
ATOM     68  C   UNL A   1      43.185  27.125  35.864  1.00  0.00     0.060 A 
BRANCH  68  69
ATOM     69  S   UNL A   1      42.776  26.145  37.324  1.00  0.00     0.124 S 
ATOM     70  O   UNL A   1      41.383  26.506  37.556  1.00  0.00    -0.237 OA
ATOM     71  O   UNL A   1      43.011  24.778  36.865  1.00  0.00    -0.237 OA
ATOM     72  O   UNL A   1      43.721  26.622  38.332  1.00  0.00    -0.744 OA
ENDBRANCH  68  69
ENDBRANCH  36  61
ENDBRANCH  10  11
ENDBRANCH   3   5
ENDBRANCH   2   3
ENDBRANCH   1   2
BRANCH   1  73
ATOM     73  C   UNL A   1      36.605  20.870  24.573  1.00  0.00     0.275 C 
BRANCH  73  74
ATOM     74  O   UNL A   1      35.768  19.750  24.909  1.00  0.00    -0.457 OA
BRANCH  74  75
ATOM     75  C   UNL A   1      34.417  19.994  24.886  1.00  0.00     0.361 C 
ATOM     76  O   UNL A   1      33.590  19.261  24.371  1.00  0.00    -0.244 OA
BRANCH  75  77
ATOM     77  C   UNL A   1      34.087  21.276  25.492  1.00  0.00     0.198 A 
ATOM     78  N   UNL A   1      34.235  21.507  26.834  1.00  0.00    -0.122 NA
ATOM     79  C   UNL A   1      33.597  22.424  24.880  1.00  0.00     0.123 A 
ATOM     80  N   UNL A   1      33.873  22.756  27.080  1.00  0.00    -0.061 NA
ATOM     81  N   UNL A   1      33.360  23.279  25.944  1.00  0.00    -0.213 N 
BRANCH  79  82
ATOM     82  C   UNL A   1      33.456  22.756  23.424  1.00  0.00     0.262 C 
ATOM     83  C   UNL A   1      34.700  23.443  22.849  1.00  0.00     0.281 C 
ATOM     84  O   UNL A   1      32.227  23.441  23.162  1.00  0.00    -0.477 OA
ATOM     85  O   UNL A   1      34.768  24.815  23.238  1.00  0.00    -0.485 OA
ATOM     86  C   UNL A   1      32.379  24.762  22.823  1.00  0.00     0.162 A 
ATOM     87  C   UNL A   1      33.597  25.442  22.903  1.00  0.00     0.161 A 
ATOM     88  C   UNL A   1      31.221  25.452  22.466  1.00  0.00     0.050 A 
ATOM     89  C   UNL A   1      33.650  26.817  22.697  1.00  0.00     0.050 A 
ATOM     90  C   UNL A   1      31.278  26.826  22.227  1.00  0.00     0.004 A 
ATOM     91  C   UNL A   1      32.488  27.510  22.357  1.00  0.00     0.004 A 
ENDBRANCH  79  82
BRANCH  81  92
ATOM     92  C   UNL A   1      32.396  24.295  26.063  1.00  0.00     0.067 A 
ATOM     93  C   UNL A   1      31.042  23.981  25.957  1.00  0.00     0.028 A 
ATOM     94  C   UNL A   1      32.823  25.616  26.255  1.00  0.00     0.041 A 
ATOM     95  C   UNL A   1      30.100  24.993  26.140  1.00  0.00     0.003 A 
ATOM     96  C   UNL A   1      31.878  26.642  26.390  1.00  0.00     0.058 A 
ATOM     97  C   UNL A   1      30.513  26.311  26.362  1.00  0.00     0.013 A 
BRANCH  96  98
ATOM     98  C   UNL A   1      32.323  28.065  26.605  1.00  0.00     0.416 C 
ATOM     99  F   UNL A   1      31.419  28.810  27.303  1.00  0.00    -0.166 F 
ATOM    100  F   UNL A   1      33.492  28.152  27.298  1.00  0.00    -0.166 F 
ATOM    101  F   UNL A   1      32.534  28.746  25.441  1.00  0.00    -0.166 F 
ENDBRANCH  96  98
ENDBRANCH  81  92
ENDBRANCH  75  77
ENDBRANCH  74  75
ENDBRANCH  73  74
ENDBRANCH   1  73
TORSDOF 17
ENDMDL
