MODEL 1
REMARK VINA RESULT:     -12.2      0.000      0.000
REMARK SMILES O=C(N/N=C/c1ccc(C(=O)OCCOC(=O)c2ccc(-c3c4nc(c(-c5c(F)cc(S(=O)(=O)[O-])cc5F)c5ccc([nH]5)c(-c5c(F)cc(S(=O)(=O)[O-])cc5F)c5nc(c(-c6c(F)cc(S(=O)(=O)[O-])cc6F)c6ccc3[nH]6)C=C5)C=C4)cc2)cc1)C(=O)Nc1cccc(Br)c1
REMARK SMILES IDX 13 1 12 2 10 3 11 4 9 5 6 6 7 7 85 8 8 9 84 10 5 11 4 12
REMARK SMILES IDX 3 13 1 14 2 15 86 17 87 18 88 19 89 21 90 22 95 23 91 24
REMARK SMILES IDX 93 25 92 26 94 27 14 28 15 29 16 30 17 31 18 32 19 33 83 34
REMARK SMILES IDX 20 35 82 36 21 37 22 38 23 39 76 40 24 41 81 42 75 43 77 44
REMARK SMILES IDX 25 45 80 46 74 47 73 48 26 50 60 51 39 52 59 53 40 54 43 55
REMARK SMILES IDX 58 56 78 57 41 58 42 59 57 61 79 62 44 63 27 64 28 65 37 66
REMARK SMILES IDX 29 67 30 68 36 69 38 70 31 71 32 72 33 73 34 74 35 75 61 76
REMARK SMILES IDX 62 77 71 78 63 79 64 80 70 81 72 82 65 83 66 84 67 85 68 86
REMARK SMILES IDX 69 87 45 88 46 89 55 90 47 91 48 92 54 93 56 94 49 95 50 96
REMARK SMILES IDX 51 97 52 98 53 99
REMARK H PARENT 3 16 88 20 77 49 43 60
REMARK Flexibility Score: inf
ROOT
ATOM      1  C   UNL A   1      42.478  22.667  26.495  1.00  0.00     0.275 C 
ENDROOT
BRANCH   1   2
ATOM      2  O   UNL A   1      41.304  22.804  27.320  1.00  0.00    -0.458 OA
BRANCH   2   3
ATOM      3  C   UNL A   1      40.395  21.821  27.142  1.00  0.00     0.338 C 
ATOM      4  O   UNL A   1      40.457  20.684  27.582  1.00  0.00    -0.246 OA
BRANCH   3   5
ATOM      5  C   UNL A   1      39.265  22.251  26.307  1.00  0.00     0.060 A 
ATOM      6  C   UNL A   1      36.325  22.748  25.603  1.00  0.00    -0.005 A 
ATOM      7  C   UNL A   1      37.338  23.724  26.130  1.00  0.00     0.010 A 
ATOM      8  C   UNL A   1      37.251  21.615  25.160  1.00  0.00     0.010 A 
ATOM      9  C   UNL A   1      38.684  23.482  26.500  1.00  0.00     0.016 A 
ATOM     10  C   UNL A   1      38.604  21.359  25.508  1.00  0.00     0.016 A 
BRANCH   6  11
ATOM     11  C   UNL A   1      34.198  22.860  25.648  1.00  0.00     0.141 C 
ATOM     12  N   UNL A   1      33.190  22.364  26.434  1.00  0.00    -0.180 NA
BRANCH  12  13
ATOM     13  N   UNL A   1      32.034  22.088  25.761  1.00  0.00    -0.239 N 
ATOM     14  O   UNL A   1      30.936  23.294  24.198  1.00  0.00    -0.262 OA
ATOM     15  C   UNL A   1      31.225  23.166  25.391  1.00  0.00     0.329 C 
ATOM     16  H   UNL A   1      31.780  21.161  25.544  1.00  0.00     0.194 HD
BRANCH  15  17
ATOM     17  C   UNL A   1      30.535  24.099  26.424  1.00  0.00     0.315 C 
ATOM     18  O   UNL A   1      29.863  23.543  27.300  1.00  0.00    -0.263 OA
ATOM     19  N   UNL A   1      30.648  25.482  26.517  1.00  0.00    -0.318 N 
ATOM     20  H   UNL A   1      30.088  25.924  27.196  1.00  0.00     0.170 HD
BRANCH  19  21
ATOM     21  C   UNL A   1      31.468  26.314  25.755  1.00  0.00     0.042 A 
ATOM     22  C   UNL A   1      30.569  27.334  24.518  1.00  0.00     0.026 A 
ATOM     23  C   UNL A   1      33.038  26.885  26.471  1.00  0.00     0.041 A 
ATOM     24  C   UNL A   1      31.201  29.000  24.110  1.00  0.00     0.003 A 
ATOM     25  C   UNL A   1      33.592  28.593  26.149  1.00  0.00     0.020 A 
ATOM     26  C   UNL A   1      32.647  29.665  24.995  1.00  0.00     0.016 A 
ATOM     27  Br  UNL A   1      35.031  29.316  27.152  1.00  0.00    -0.051 Br
ENDBRANCH  19  21
ENDBRANCH  15  17
ENDBRANCH  12  13
ENDBRANCH   6  11
ENDBRANCH   3   5
ENDBRANCH   2   3
ENDBRANCH   1   2
BRANCH   1  28
ATOM     28  C   UNL A   1      42.690  23.903  25.617  1.00  0.00     0.275 C 
BRANCH  28  29
ATOM     29  O   UNL A   1      41.628  24.869  25.767  1.00  0.00    -0.458 OA
BRANCH  29  30
ATOM     30  C   UNL A   1      42.019  26.162  25.704  1.00  0.00     0.338 C 
ATOM     31  O   UNL A   1      42.707  26.682  24.840  1.00  0.00    -0.246 OA
BRANCH  30  32
ATOM     32  C   UNL A   1      41.461  26.945  26.817  1.00  0.00     0.060 A 
ATOM     33  C   UNL A   1      41.880  28.261  26.993  1.00  0.00     0.016 A 
ATOM     34  C   UNL A   1      40.717  26.311  27.811  1.00  0.00     0.016 A 
ATOM     35  C   UNL A   1      41.675  28.902  28.211  1.00  0.00     0.010 A 
ATOM     36  C   UNL A   1      40.400  27.009  28.985  1.00  0.00     0.010 A 
ATOM     37  C   UNL A   1      40.910  28.300  29.218  1.00  0.00    -0.014 A 
BRANCH  37  38
ATOM     38  C   UNL A   1      40.650  29.017  30.502  1.00  0.00     0.031 A 
ATOM     39  C   UNL A   1      39.519  30.011  30.613  1.00  0.00     0.074 A 
ATOM     40  C   UNL A   1      41.432  28.780  31.577  1.00  0.00     0.049 A 
ATOM     41  N   UNL A   1      39.263  30.868  31.569  1.00  0.00    -0.248 NA
ATOM     42  C   UNL A   1      38.559  30.059  29.498  1.00  0.00     0.031 C 
ATOM     43  C   UNL A   1      42.538  27.821  31.629  1.00  0.00     0.029 A 
ATOM     44  N   UNL A   1      41.418  29.328  32.837  1.00  0.00    -0.354 N 
ATOM     45  C   UNL A   1      38.157  31.598  31.144  1.00  0.00     0.074 A 
ATOM     46  C   UNL A   1      37.788  31.081  29.844  1.00  0.00     0.031 C 
ATOM     47  C   UNL A   1      43.067  27.818  32.860  1.00  0.00     0.029 A 
ATOM     48  C   UNL A   1      42.415  28.849  33.656  1.00  0.00     0.049 A 
ATOM     49  H   UNL A   1      40.758  29.999  33.126  1.00  0.00     0.167 HD
ATOM     50  C   UNL A   1      37.513  32.607  31.781  1.00  0.00     0.037 A 
ATOM     51  C   UNL A   1      42.806  29.228  34.887  1.00  0.00     0.037 A 
ATOM     52  C   UNL A   1      37.853  33.078  33.101  1.00  0.00     0.049 A 
ATOM     53  C   UNL A   1      42.097  30.366  35.561  1.00  0.00     0.074 A 
ATOM     54  C   UNL A   1      37.247  34.078  33.843  1.00  0.00     0.029 A 
ATOM     55  N   UNL A   1      38.882  32.572  33.884  1.00  0.00    -0.354 N 
ATOM     56  N   UNL A   1      41.086  31.079  35.123  1.00  0.00    -0.248 NA
ATOM     57  C   UNL A   1      42.591  30.765  36.885  1.00  0.00     0.031 C 
ATOM     58  C   UNL A   1      37.933  34.205  35.055  1.00  0.00     0.029 A 
ATOM     59  C   UNL A   1      38.936  33.250  35.092  1.00  0.00     0.049 A 
ATOM     60  H   UNL A   1      39.485  31.840  33.619  1.00  0.00     0.167 HD
ATOM     61  C   UNL A   1      40.815  32.003  36.125  1.00  0.00     0.074 A 
ATOM     62  C   UNL A   1      41.756  31.746  37.197  1.00  0.00     0.031 C 
ATOM     63  C   UNL A   1      39.876  32.979  36.151  1.00  0.00     0.037 A 
BRANCH  50  64
ATOM     64  C   UNL A   1      36.394  33.303  31.051  1.00  0.00     0.058 A 
ATOM     65  C   UNL A   1      35.050  33.162  31.429  1.00  0.00     0.135 A 
ATOM     66  C   UNL A   1      36.681  34.164  29.976  1.00  0.00     0.135 A 
ATOM     67  F   UNL A   1      34.715  32.342  32.439  1.00  0.00    -0.206 F 
ATOM     68  C   UNL A   1      34.029  33.826  30.754  1.00  0.00     0.059 A 
ATOM     69  C   UNL A   1      35.680  34.859  29.305  1.00  0.00     0.059 A 
ATOM     70  F   UNL A   1      37.949  34.340  29.572  1.00  0.00    -0.206 F 
ATOM     71  C   UNL A   1      34.354  34.672  29.691  1.00  0.00     0.060 A 
BRANCH  71  72
ATOM     72  S   UNL A   1      33.020  35.525  28.823  1.00  0.00     0.124 S 
ATOM     73  O   UNL A   1      32.219  36.021  29.937  1.00  0.00    -0.237 OA
ATOM     74  O   UNL A   1      33.741  36.538  28.060  1.00  0.00    -0.237 OA
ATOM     75  O   UNL A   1      32.401  34.468  28.028  1.00  0.00    -0.744 OA
ENDBRANCH  71  72
ENDBRANCH  50  64
BRANCH  51  76
ATOM     76  C   UNL A   1      43.962  28.551  35.534  1.00  0.00     0.058 A 
ATOM     77  C   UNL A   1      45.270  29.025  35.355  1.00  0.00     0.135 A 
ATOM     78  C   UNL A   1      43.779  27.437  36.371  1.00  0.00     0.135 A 
ATOM     79  F   UNL A   1      45.498  30.080  34.558  1.00  0.00    -0.206 F 
ATOM     80  C   UNL A   1      46.355  28.418  35.979  1.00  0.00     0.059 A 
ATOM     81  C   UNL A   1      44.843  26.834  37.030  1.00  0.00     0.059 A 
ATOM     82  F   UNL A   1      42.545  26.954  36.585  1.00  0.00    -0.206 F 
ATOM     83  C   UNL A   1      46.130  27.328  36.822  1.00  0.00     0.060 A 
BRANCH  83  84
ATOM     84  S   UNL A   1      47.535  26.589  37.682  1.00  0.00     0.124 S 
ATOM     85  O   UNL A   1      48.418  26.257  36.571  1.00  0.00    -0.237 OA
ATOM     86  O   UNL A   1      47.976  27.683  38.544  1.00  0.00    -0.237 OA
ATOM     87  O   UNL A   1      46.940  25.454  38.381  1.00  0.00    -0.744 OA
ENDBRANCH  83  84
ENDBRANCH  51  76
BRANCH  63  88
ATOM     88  C   UNL A   1      39.795  33.820  37.395  1.00  0.00     0.058 A 
ATOM     89  C   UNL A   1      40.554  34.990  37.544  1.00  0.00     0.135 A 
ATOM     90  C   UNL A   1      38.919  33.465  38.434  1.00  0.00     0.135 A 
ATOM     91  F   UNL A   1      41.413  35.367  36.583  1.00  0.00    -0.206 F 
ATOM     92  C   UNL A   1      40.466  35.770  38.693  1.00  0.00     0.059 A 
ATOM     93  C   UNL A   1      38.796  34.244  39.580  1.00  0.00     0.059 A 
ATOM     94  F   UNL A   1      38.167  32.358  38.336  1.00  0.00    -0.206 F 
ATOM     95  C   UNL A   1      39.583  35.387  39.705  1.00  0.00     0.060 A 
BRANCH  95  96
ATOM     96  S   UNL A   1      39.457  36.422  41.180  1.00  0.00     0.124 S 
ATOM     97  O   UNL A   1      38.491  35.675  41.980  1.00  0.00    -0.237 OA
ATOM     98  O   UNL A   1      40.828  36.424  41.680  1.00  0.00    -0.237 OA
ATOM     99  O   UNL A   1      38.984  37.700  40.658  1.00  0.00    -0.744 OA
ENDBRANCH  95  96
ENDBRANCH  63  88
ENDBRANCH  37  38
ENDBRANCH  30  32
ENDBRANCH  29  30
ENDBRANCH  28  29
ENDBRANCH   1  28
TORSDOF 18
ENDMDL
MODEL 2
REMARK VINA RESULT:     -11.8      1.209      1.738
REMARK SMILES O=C(N/N=C/c1ccc(C(=O)OCCOC(=O)c2ccc(-c3c4nc(c(-c5c(F)cc(S(=O)(=O)[O-])cc5F)c5ccc([nH]5)c(-c5c(F)cc(S(=O)(=O)[O-])cc5F)c5nc(c(-c6c(F)cc(S(=O)(=O)[O-])cc6F)c6ccc3[nH]6)C=C5)C=C4)cc2)cc1)C(=O)Nc1cccc(Br)c1
REMARK SMILES IDX 13 1 12 2 10 3 11 4 9 5 6 6 7 7 85 8 8 9 84 10 5 11 4 12
REMARK SMILES IDX 3 13 1 14 2 15 86 17 87 18 88 19 89 21 90 22 95 23 91 24
REMARK SMILES IDX 93 25 92 26 94 27 14 28 15 29 16 30 17 31 18 32 19 33 83 34
REMARK SMILES IDX 20 35 82 36 21 37 22 38 23 39 76 40 24 41 81 42 75 43 77 44
REMARK SMILES IDX 25 45 80 46 74 47 73 48 26 50 60 51 39 52 59 53 40 54 43 55
REMARK SMILES IDX 58 56 78 57 41 58 42 59 57 61 79 62 44 63 27 64 28 65 37 66
REMARK SMILES IDX 29 67 30 68 36 69 38 70 31 71 32 72 33 73 34 74 35 75 61 76
REMARK SMILES IDX 62 77 71 78 63 79 64 80 70 81 72 82 65 83 66 84 67 85 68 86
REMARK SMILES IDX 69 87 45 88 46 89 55 90 47 91 48 92 54 93 56 94 49 95 50 96
REMARK SMILES IDX 51 97 52 98 53 99
REMARK H PARENT 3 16 88 20 77 49 43 60
REMARK Flexibility Score: inf
ROOT
ATOM      1  C   UNL A   1      42.643  22.168  25.904  1.00  0.00     0.275 C 
ENDROOT
BRANCH   1   2
ATOM      2  O   UNL A   1      41.967  22.364  27.163  1.00  0.00    -0.458 OA
BRANCH   2   3
ATOM      3  C   UNL A   1      40.802  21.690  27.267  1.00  0.00     0.338 C 
ATOM      4  O   UNL A   1      40.605  20.672  27.912  1.00  0.00    -0.246 OA
BRANCH   3   5
ATOM      5  C   UNL A   1      39.727  22.307  26.476  1.00  0.00     0.060 A 
ATOM      6  C   UNL A   1      36.877  23.249  25.868  1.00  0.00    -0.005 A 
ATOM      7  C   UNL A   1      38.033  24.050  26.397  1.00  0.00     0.010 A 
ATOM      8  C   UNL A   1      37.618  22.010  25.365  1.00  0.00     0.010 A 
ATOM      9  C   UNL A   1      39.337  23.603  26.723  1.00  0.00     0.016 A 
ATOM     10  C   UNL A   1      38.926  21.549  25.669  1.00  0.00     0.016 A 
BRANCH   6  11
ATOM     11  C   UNL A   1      34.791  23.667  25.973  1.00  0.00     0.141 C 
ATOM     12  N   UNL A   1      33.637  23.115  25.478  1.00  0.00    -0.180 NA
BRANCH  12  13
ATOM     13  N   UNL A   1      32.655  24.021  25.195  1.00  0.00    -0.239 N 
ATOM     14  O   UNL A   1      30.835  23.829  23.871  1.00  0.00    -0.262 OA
ATOM     15  C   UNL A   1      32.060  23.959  23.931  1.00  0.00     0.329 C 
ATOM     16  H   UNL A   1      32.377  24.696  25.857  1.00  0.00     0.194 HD
BRANCH  15  17
ATOM     17  C   UNL A   1      32.842  24.221  22.614  1.00  0.00     0.315 C 
ATOM     18  O   UNL A   1      33.094  23.229  21.921  1.00  0.00    -0.263 OA
ATOM     19  N   UNL A   1      33.223  25.453  22.092  1.00  0.00    -0.318 N 
ATOM     20  H   UNL A   1      33.772  25.432  21.275  1.00  0.00     0.170 HD
BRANCH  19  21
ATOM     21  C   UNL A   1      32.915  26.715  22.599  1.00  0.00     0.042 A 
ATOM     22  C   UNL A   1      31.169  27.228  22.343  1.00  0.00     0.026 A 
ATOM     23  C   UNL A   1      33.876  27.346  24.007  1.00  0.00     0.041 A 
ATOM     24  C   UNL A   1      30.357  28.280  23.597  1.00  0.00     0.003 A 
ATOM     25  C   UNL A   1      33.022  28.294  25.311  1.00  0.00     0.020 A 
ATOM     26  C   UNL A   1      31.246  28.727  25.121  1.00  0.00     0.016 A 
ATOM     27  Br  UNL A   1      33.919  28.663  26.942  1.00  0.00    -0.051 Br
ENDBRANCH  19  21
ENDBRANCH  15  17
ENDBRANCH  12  13
ENDBRANCH   6  11
ENDBRANCH   3   5
ENDBRANCH   2   3
ENDBRANCH   1   2
BRANCH   1  28
ATOM     28  C   UNL A   1      43.279  23.467  25.404  1.00  0.00     0.275 C 
BRANCH  28  29
ATOM     29  O   UNL A   1      42.561  24.636  25.854  1.00  0.00    -0.458 OA
BRANCH  29  30
ATOM     30  C   UNL A   1      43.340  25.668  26.248  1.00  0.00     0.338 C 
ATOM     31  O   UNL A   1      44.446  25.960  25.821  1.00  0.00    -0.246 OA
BRANCH  30  32
ATOM     32  C   UNL A   1      42.668  26.488  27.267  1.00  0.00     0.060 A 
ATOM     33  C   UNL A   1      43.089  27.801  27.462  1.00  0.00     0.016 A 
ATOM     34  C   UNL A   1      41.796  25.894  28.177  1.00  0.00     0.016 A 
ATOM     35  C   UNL A   1      42.752  28.477  28.631  1.00  0.00     0.010 A 
ATOM     36  C   UNL A   1      41.355  26.626  29.288  1.00  0.00     0.010 A 
ATOM     37  C   UNL A   1      41.859  27.913  29.552  1.00  0.00    -0.014 A 
BRANCH  37  38
ATOM     38  C   UNL A   1      41.461  28.667  30.777  1.00  0.00     0.031 A 
ATOM     39  C   UNL A   1      40.257  29.578  30.764  1.00  0.00     0.074 A 
ATOM     40  C   UNL A   1      42.181  28.538  31.912  1.00  0.00     0.049 A 
ATOM     41  N   UNL A   1      39.875  30.456  31.657  1.00  0.00    -0.248 NA
ATOM     42  C   UNL A   1      39.375  29.503  29.588  1.00  0.00     0.031 C 
ATOM     43  C   UNL A   1      43.347  27.668  32.085  1.00  0.00     0.029 A 
ATOM     44  N   UNL A   1      42.042  29.140  33.139  1.00  0.00    -0.354 N 
ATOM     45  C   UNL A   1      38.751  31.081  31.124  1.00  0.00     0.074 A 
ATOM     46  C   UNL A   1      38.512  30.479  29.830  1.00  0.00     0.031 C 
ATOM     47  C   UNL A   1      43.789  27.760  33.346  1.00  0.00     0.029 A 
ATOM     48  C   UNL A   1      43.011  28.774  34.045  1.00  0.00     0.049 A 
ATOM     49  H   UNL A   1      41.317  29.773  33.351  1.00  0.00     0.167 HD
ATOM     50  C   UNL A   1      37.995  32.067  31.666  1.00  0.00     0.037 A 
ATOM     51  C   UNL A   1      43.289  29.237  35.278  1.00  0.00     0.037 A 
ATOM     52  C   UNL A   1      38.209  32.622  32.979  1.00  0.00     0.049 A 
ATOM     53  C   UNL A   1      42.455  30.349  35.846  1.00  0.00     0.074 A 
ATOM     54  C   UNL A   1      37.483  33.607  33.628  1.00  0.00     0.029 A 
ATOM     55  N   UNL A   1      39.215  32.231  33.853  1.00  0.00    -0.354 N 
ATOM     56  N   UNL A   1      41.429  30.964  35.308  1.00  0.00    -0.248 NA
ATOM     57  C   UNL A   1      42.827  30.843  37.178  1.00  0.00     0.031 C 
ATOM     58  C   UNL A   1      38.073  33.840  34.875  1.00  0.00     0.029 A 
ATOM     59  C   UNL A   1      39.137  32.965  35.026  1.00  0.00     0.049 A 
ATOM     60  H   UNL A   1      39.885  31.535  33.665  1.00  0.00     0.167 HD
ATOM     61  C   UNL A   1      41.025  31.910  36.242  1.00  0.00     0.074 A 
ATOM     62  C   UNL A   1      41.905  31.773  37.384  1.00  0.00     0.031 C 
ATOM     63  C   UNL A   1      40.018  32.814  36.157  1.00  0.00     0.037 A 
BRANCH  50  64
ATOM     64  C   UNL A   1      36.883  32.644  30.829  1.00  0.00     0.058 A 
ATOM     65  C   UNL A   1      35.544  32.257  30.993  1.00  0.00     0.135 A 
ATOM     66  C   UNL A   1      37.161  33.638  29.874  1.00  0.00     0.135 A 
ATOM     67  F   UNL A   1      35.221  31.301  31.880  1.00  0.00    -0.206 F 
ATOM     68  C   UNL A   1      34.525  32.813  30.224  1.00  0.00     0.059 A 
ATOM     69  C   UNL A   1      36.155  34.227  29.114  1.00  0.00     0.059 A 
ATOM     70  F   UNL A   1      38.423  34.050  29.676  1.00  0.00    -0.206 F 
ATOM     71  C   UNL A   1      34.841  33.797  29.284  1.00  0.00     0.060 A 
BRANCH  71  72
ATOM     72  S   UNL A   1      33.510  34.507  28.291  1.00  0.00     0.124 S 
ATOM     73  O   UNL A   1      34.253  35.401  27.408  1.00  0.00    -0.237 OA
ATOM     74  O   UNL A   1      32.930  33.328  27.657  1.00  0.00    -0.237 OA
ATOM     75  O   UNL A   1      32.661  35.165  29.280  1.00  0.00    -0.744 OA
ENDBRANCH  71  72
ENDBRANCH  50  64
BRANCH  51  76
ATOM     76  C   UNL A   1      44.443  28.679  36.032  1.00  0.00     0.058 A 
ATOM     77  C   UNL A   1      44.275  27.606  36.920  1.00  0.00     0.135 A 
ATOM     78  C   UNL A   1      45.742  29.184  35.855  1.00  0.00     0.135 A 
ATOM     79  F   UNL A   1      43.053  27.095  37.131  1.00  0.00    -0.206 F 
ATOM     80  C   UNL A   1      45.352  27.056  37.609  1.00  0.00     0.059 A 
ATOM     81  C   UNL A   1      46.838  28.631  36.507  1.00  0.00     0.059 A 
ATOM     82  F   UNL A   1      45.958  30.200  35.005  1.00  0.00    -0.206 F 
ATOM     83  C   UNL A   1      46.631  27.571  37.388  1.00  0.00     0.060 A 
BRANCH  83  84
ATOM     84  S   UNL A   1      48.033  26.807  38.232  1.00  0.00     0.124 S 
ATOM     85  O   UNL A   1      48.645  27.957  38.886  1.00  0.00    -0.237 OA
ATOM     86  O   UNL A   1      47.373  25.846  39.114  1.00  0.00    -0.237 OA
ATOM     87  O   UNL A   1      48.799  26.216  37.140  1.00  0.00    -0.744 OA
ENDBRANCH  83  84
ENDBRANCH  51  76
BRANCH  63  88
ATOM     88  C   UNL A   1      39.792  33.701  37.348  1.00  0.00     0.058 A 
ATOM     89  C   UNL A   1      40.419  34.951  37.466  1.00  0.00     0.135 A 
ATOM     90  C   UNL A   1      38.909  33.309  38.367  1.00  0.00     0.135 A 
ATOM     91  F   UNL A   1      41.281  35.367  36.524  1.00  0.00    -0.206 F 
ATOM     92  C   UNL A   1      40.197  35.773  38.566  1.00  0.00     0.059 A 
ATOM     93  C   UNL A   1      38.652  34.127  39.463  1.00  0.00     0.059 A 
ATOM     94  F   UNL A   1      38.279  32.126  38.297  1.00  0.00    -0.206 F 
ATOM     95  C   UNL A   1      39.311  35.351  39.559  1.00  0.00     0.060 A 
BRANCH  95  96
ATOM     96  S   UNL A   1      39.008  36.439  40.969  1.00  0.00     0.124 S 
ATOM     97  O   UNL A   1      37.954  35.717  41.675  1.00  0.00    -0.237 OA
ATOM     98  O   UNL A   1      40.310  36.466  41.629  1.00  0.00    -0.237 OA
ATOM     99  O   UNL A   1      38.601  37.694  40.347  1.00  0.00    -0.744 OA
ENDBRANCH  95  96
ENDBRANCH  63  88
ENDBRANCH  37  38
ENDBRANCH  30  32
ENDBRANCH  29  30
ENDBRANCH  28  29
ENDBRANCH   1  28
TORSDOF 18
ENDMDL
MODEL 3
REMARK VINA RESULT:     -11.8      6.446     11.671
REMARK SMILES O=C(N/N=C/c1ccc(C(=O)OCCOC(=O)c2ccc(-c3c4nc(c(-c5c(F)cc(S(=O)(=O)[O-])cc5F)c5ccc([nH]5)c(-c5c(F)cc(S(=O)(=O)[O-])cc5F)c5nc(c(-c6c(F)cc(S(=O)(=O)[O-])cc6F)c6ccc3[nH]6)C=C5)C=C4)cc2)cc1)C(=O)Nc1cccc(Br)c1
REMARK SMILES IDX 13 1 12 2 10 3 11 4 9 5 6 6 7 7 85 8 8 9 84 10 5 11 4 12
REMARK SMILES IDX 3 13 1 14 2 15 86 17 87 18 88 19 89 21 90 22 95 23 91 24
REMARK SMILES IDX 93 25 92 26 94 27 14 28 15 29 16 30 17 31 18 32 19 33 83 34
REMARK SMILES IDX 20 35 82 36 21 37 22 38 23 39 76 40 24 41 81 42 75 43 77 44
REMARK SMILES IDX 25 45 80 46 74 47 73 48 26 50 60 51 39 52 59 53 40 54 43 55
REMARK SMILES IDX 58 56 78 57 41 58 42 59 57 61 79 62 44 63 27 64 28 65 37 66
REMARK SMILES IDX 29 67 30 68 36 69 38 70 31 71 32 72 33 73 34 74 35 75 61 76
REMARK SMILES IDX 62 77 71 78 63 79 64 80 70 81 72 82 65 83 66 84 67 85 68 86
REMARK SMILES IDX 69 87 45 88 46 89 55 90 47 91 48 92 54 93 56 94 49 95 50 96
REMARK SMILES IDX 51 97 52 98 53 99
REMARK H PARENT 3 16 88 20 77 49 43 60
REMARK Flexibility Score: inf
ROOT
ATOM      1  C   UNL A   1      33.662  32.717  28.003  1.00  0.00     0.275 C 
ENDROOT
BRANCH   1   2
ATOM      2  O   UNL A   1      33.422  31.356  27.592  1.00  0.00    -0.458 OA
BRANCH   2   3
ATOM      3  C   UNL A   1      32.273  31.190  26.900  1.00  0.00     0.338 C 
ATOM      4  O   UNL A   1      31.410  32.032  26.710  1.00  0.00    -0.246 OA
BRANCH   3   5
ATOM      5  C   UNL A   1      32.128  29.823  26.379  1.00  0.00     0.060 A 
ATOM      6  C   UNL A   1      33.061  27.038  25.507  1.00  0.00    -0.005 A 
ATOM      7  C   UNL A   1      32.461  27.455  26.820  1.00  0.00     0.010 A 
ATOM      8  C   UNL A   1      32.702  28.254  24.652  1.00  0.00     0.010 A 
ATOM      9  C   UNL A   1      32.074  28.752  27.240  1.00  0.00     0.016 A 
ATOM     10  C   UNL A   1      32.301  29.558  25.049  1.00  0.00     0.016 A 
BRANCH   6  11
ATOM     11  C   UNL A   1      34.235  25.322  25.048  1.00  0.00     0.141 C 
ATOM     12  N   UNL A   1      34.948  24.384  25.751  1.00  0.00    -0.180 NA
BRANCH  12  13
ATOM     13  N   UNL A   1      36.059  23.921  25.106  1.00  0.00    -0.239 N 
ATOM     14  O   UNL A   1      36.277  23.023  23.044  1.00  0.00    -0.262 OA
ATOM     15  C   UNL A   1      35.893  22.864  24.206  1.00  0.00     0.329 C 
ATOM     16  H   UNL A   1      36.945  24.317  25.269  1.00  0.00     0.194 HD
BRANCH  15  17
ATOM     17  C   UNL A   1      35.415  21.450  24.640  1.00  0.00     0.315 C 
ATOM     18  O   UNL A   1      36.257  20.735  25.195  1.00  0.00    -0.263 OA
ATOM     19  N   UNL A   1      34.129  20.929  24.542  1.00  0.00    -0.318 N 
ATOM     20  H   UNL A   1      34.016  19.988  24.807  1.00  0.00     0.170 HD
BRANCH  19  21
ATOM     21  C   UNL A   1      32.982  21.592  24.108  1.00  0.00     0.042 A 
ATOM     22  C   UNL A   1      31.772  21.963  25.441  1.00  0.00     0.026 A 
ATOM     23  C   UNL A   1      33.089  22.641  22.627  1.00  0.00     0.041 A 
ATOM     24  C   UNL A   1      30.763  23.483  25.330  1.00  0.00     0.003 A 
ATOM     25  C   UNL A   1      32.166  24.215  22.584  1.00  0.00     0.020 A 
ATOM     26  C   UNL A   1      31.031  24.653  23.960  1.00  0.00     0.016 A 
ATOM     27  Br  UNL A   1      32.528  25.476  21.215  1.00  0.00    -0.051 Br
ENDBRANCH  19  21
ENDBRANCH  15  17
ENDBRANCH  12  13
ENDBRANCH   6  11
ENDBRANCH   3   5
ENDBRANCH   2   3
ENDBRANCH   1   2
BRANCH   1  28
ATOM     28  C   UNL A   1      34.536  32.773  29.259  1.00  0.00     0.275 C 
BRANCH  28  29
ATOM     29  O   UNL A   1      35.804  32.110  29.072  1.00  0.00    -0.458 OA
BRANCH  29  30
ATOM     30  C   UNL A   1      36.199  31.330  30.104  1.00  0.00     0.338 C 
ATOM     31  O   UNL A   1      35.630  31.184  31.175  1.00  0.00    -0.246 OA
BRANCH  30  32
ATOM     32  C   UNL A   1      37.426  30.589  29.777  1.00  0.00     0.060 A 
ATOM     33  C   UNL A   1      38.300  30.244  30.805  1.00  0.00     0.016 A 
ATOM     34  C   UNL A   1      37.823  30.448  28.448  1.00  0.00     0.016 A 
ATOM     35  C   UNL A   1      39.613  29.887  30.515  1.00  0.00     0.010 A 
ATOM     36  C   UNL A   1      39.105  29.961  28.160  1.00  0.00     0.010 A 
ATOM     37  C   UNL A   1      40.032  29.713  29.189  1.00  0.00    -0.014 A 
BRANCH  37  38
ATOM     38  C   UNL A   1      41.428  29.277  28.889  1.00  0.00     0.031 A 
ATOM     39  C   UNL A   1      42.571  30.263  28.945  1.00  0.00     0.074 A 
ATOM     40  C   UNL A   1      41.679  27.991  28.563  1.00  0.00     0.049 A 
ATOM     41  N   UNL A   1      43.805  30.122  28.530  1.00  0.00    -0.248 NA
ATOM     42  C   UNL A   1      42.287  31.584  29.530  1.00  0.00     0.031 C 
ATOM     43  C   UNL A   1      40.681  26.920  28.504  1.00  0.00     0.029 A 
ATOM     44  N   UNL A   1      42.850  27.363  28.217  1.00  0.00    -0.354 N 
ATOM     45  C   UNL A   1      44.424  31.350  28.742  1.00  0.00     0.074 A 
ATOM     46  C   UNL A   1      43.429  32.225  29.326  1.00  0.00     0.031 C 
ATOM     47  C   UNL A   1      41.284  25.766  28.187  1.00  0.00     0.029 A 
ATOM     48  C   UNL A   1      42.690  26.031  27.912  1.00  0.00     0.049 A 
ATOM     49  H   UNL A   1      43.721  27.821  28.191  1.00  0.00     0.167 HD
ATOM     50  C   UNL A   1      45.702  31.712  28.471  1.00  0.00     0.037 A 
ATOM     51  C   UNL A   1      43.554  25.128  27.410  1.00  0.00     0.037 A 
ATOM     52  C   UNL A   1      46.700  30.817  27.941  1.00  0.00     0.049 A 
ATOM     53  C   UNL A   1      44.957  25.559  27.091  1.00  0.00     0.074 A 
ATOM     54  C   UNL A   1      48.030  31.081  27.654  1.00  0.00     0.029 A 
ATOM     55  N   UNL A   1      46.486  29.481  27.631  1.00  0.00    -0.354 N 
ATOM     56  N   UNL A   1      45.510  26.738  27.250  1.00  0.00    -0.248 NA
ATOM     57  C   UNL A   1      45.846  24.546  26.508  1.00  0.00     0.031 C 
ATOM     58  C   UNL A   1      48.607  29.918  27.134  1.00  0.00     0.029 A 
ATOM     59  C   UNL A   1      47.653  28.914  27.142  1.00  0.00     0.049 A 
ATOM     60  H   UNL A   1      45.630  29.007  27.741  1.00  0.00     0.167 HD
ATOM     61  C   UNL A   1      46.818  26.604  26.797  1.00  0.00     0.074 A 
ATOM     62  C   UNL A   1      46.976  25.226  26.376  1.00  0.00     0.031 C 
ATOM     63  C   UNL A   1      47.796  27.540  26.732  1.00  0.00     0.037 A 
BRANCH  50  64
ATOM     64  C   UNL A   1      46.094  33.148  28.706  1.00  0.00     0.058 A 
ATOM     65  C   UNL A   1      45.921  34.141  27.730  1.00  0.00     0.135 A 
ATOM     66  C   UNL A   1      46.614  33.542  29.951  1.00  0.00     0.135 A 
ATOM     67  F   UNL A   1      45.443  33.820  26.516  1.00  0.00    -0.206 F 
ATOM     68  C   UNL A   1      46.273  35.467  27.969  1.00  0.00     0.059 A 
ATOM     69  C   UNL A   1      46.947  34.866  30.222  1.00  0.00     0.059 A 
ATOM     70  F   UNL A   1      46.798  32.635  30.924  1.00  0.00    -0.206 F 
ATOM     71  C   UNL A   1      46.787  35.820  29.219  1.00  0.00     0.060 A 
BRANCH  71  72
ATOM     72  S   UNL A   1      47.243  37.542  29.514  1.00  0.00     0.124 S 
ATOM     73  O   UNL A   1      46.064  38.244  29.015  1.00  0.00    -0.237 OA
ATOM     74  O   UNL A   1      47.433  37.572  30.961  1.00  0.00    -0.237 OA
ATOM     75  O   UNL A   1      48.457  37.714  28.721  1.00  0.00    -0.744 OA
ENDBRANCH  71  72
ENDBRANCH  50  64
BRANCH  51  76
ATOM     76  C   UNL A   1      43.094  23.742  27.132  1.00  0.00     0.058 A 
ATOM     77  C   UNL A   1      42.755  23.339  25.833  1.00  0.00     0.135 A 
ATOM     78  C   UNL A   1      43.017  22.782  28.156  1.00  0.00     0.135 A 
ATOM     79  F   UNL A   1      42.804  24.220  24.823  1.00  0.00    -0.206 F 
ATOM     80  C   UNL A   1      42.352  22.036  25.557  1.00  0.00     0.059 A 
ATOM     81  C   UNL A   1      42.648  21.467  27.900  1.00  0.00     0.059 A 
ATOM     82  F   UNL A   1      43.345  23.114  29.415  1.00  0.00    -0.206 F 
ATOM     83  C   UNL A   1      42.309  21.105  26.597  1.00  0.00     0.060 A 
BRANCH  83  84
ATOM     84  S   UNL A   1      41.853  19.399  26.218  1.00  0.00     0.124 S 
ATOM     85  O   UNL A   1      42.619  19.153  25.003  1.00  0.00    -0.237 OA
ATOM     86  O   UNL A   1      42.303  18.689  27.413  1.00  0.00    -0.237 OA
ATOM     87  O   UNL A   1      40.404  19.470  26.052  1.00  0.00    -0.744 OA
ENDBRANCH  83  84
ENDBRANCH  51  76
BRANCH  63  88
ATOM     88  C   UNL A   1      49.137  27.095  26.219  1.00  0.00     0.058 A 
ATOM     89  C   UNL A   1      50.088  26.502  27.062  1.00  0.00     0.135 A 
ATOM     90  C   UNL A   1      49.456  27.232  24.858  1.00  0.00     0.135 A 
ATOM     91  F   UNL A   1      49.835  26.358  28.373  1.00  0.00    -0.206 F 
ATOM     92  C   UNL A   1      51.323  26.082  26.579  1.00  0.00     0.059 A 
ATOM     93  C   UNL A   1      50.675  26.795  24.349  1.00  0.00     0.059 A 
ATOM     94  F   UNL A   1      48.576  27.786  24.010  1.00  0.00    -0.206 F 
ATOM     95  C   UNL A   1      51.607  26.233  25.220  1.00  0.00     0.060 A 
BRANCH  95  96
ATOM     96  S   UNL A   1      53.202  25.658  24.599  1.00  0.00     0.124 S 
ATOM     97  O   UNL A   1      54.119  26.605  25.226  1.00  0.00    -0.237 OA
ATOM     98  O   UNL A   1      53.260  24.290  25.104  1.00  0.00    -0.237 OA
ATOM     99  O   UNL A   1      53.067  25.781  23.152  1.00  0.00    -0.744 OA
ENDBRANCH  95  96
ENDBRANCH  63  88
ENDBRANCH  37  38
ENDBRANCH  30  32
ENDBRANCH  29  30
ENDBRANCH  28  29
ENDBRANCH   1  28
TORSDOF 18
ENDMDL
