MODEL 1
REMARK VINA RESULT:     -10.5      0.000      0.000
REMARK SMILES CO[C@H]1C[C@H](C(=O)OCCOC(=O)c2ccc(-c3c4nc(c(-c5c(F)cc(S(=O)(=O)[O-])cc5F)c5ccc([nH]5)c(-c5c(F)cc(S(=O)(=O)[O-])cc5F)c5nc(c(-c6c(F)cc(S(=O)(=O)[O-])cc6F)c6ccc3[nH]6)C=C5)C=C4)cc2)N(C(=O)[C@H]2C=C[C@@H]([NH3+])C2)C1
REMARK SMILES IDX 9 1 8 2 6 3 7 4 5 5 3 6 4 7 89 8 80 9 2 10 1 11 81 12 82 13
REMARK SMILES IDX 83 14 84 15 88 16 85 17 86 18 87 19 10 23 11 24 12 25 13 26
REMARK SMILES IDX 14 27 15 28 79 29 16 30 78 31 17 32 18 33 19 34 72 35 20 36
REMARK SMILES IDX 77 37 71 38 73 39 21 40 76 41 70 42 69 43 22 45 56 46 35 47
REMARK SMILES IDX 55 48 36 49 39 50 54 51 74 52 37 53 38 54 53 56 75 57 40 58
REMARK SMILES IDX 23 59 24 60 33 61 25 62 26 63 32 64 34 65 27 66 28 67 29 68
REMARK SMILES IDX 30 69 31 70 57 71 58 72 67 73 59 74 60 75 66 76 68 77 61 78
REMARK SMILES IDX 62 79 63 80 64 81 65 82 41 83 42 84 51 85 43 86 44 87 50 88
REMARK SMILES IDX 52 89 45 90 46 91 47 92 48 93 49 94
REMARK H PARENT 87 20 87 21 87 22 73 44 39 55
REMARK Flexibility Score: inf
ROOT
ATOM      1  C   UNL A   1      34.960  32.619  28.060  1.00  0.00     0.274 C 
ENDROOT
BRANCH   1   2
ATOM      2  O   UNL A   1      34.886  33.445  29.241  1.00  0.00    -0.461 OA
BRANCH   2   3
ATOM      3  C   UNL A   1      36.081  33.675  29.856  1.00  0.00     0.329 C 
ATOM      4  O   UNL A   1      37.005  34.266  29.312  1.00  0.00    -0.250 OA
BRANCH   3   5
ATOM      5  C   UNL A   1      36.181  33.051  31.265  1.00  0.00     0.197 C 
ATOM      6  C   UNL A   1      37.995  34.125  32.458  1.00  0.00     0.140 C 
ATOM      7  C   UNL A   1      37.595  32.811  31.779  1.00  0.00     0.071 C 
ATOM      8  C   UNL A   1      36.655  34.768  32.852  1.00  0.00     0.152 C 
ATOM      9  N   UNL A   1      35.608  33.925  32.285  1.00  0.00    -0.326 N 
BRANCH   6  10
ATOM     10  O   UNL A   1      38.794  33.938  33.629  1.00  0.00    -0.380 OA
ATOM     11  C   UNL A   1      38.751  32.623  34.165  1.00  0.00     0.195 C 
ENDBRANCH   6  10
BRANCH   9  12
ATOM     12  C   UNL A   1      34.321  34.031  32.759  1.00  0.00     0.230 C 
ATOM     13  O   UNL A   1      33.791  33.053  33.304  1.00  0.00    -0.274 OA
BRANCH  12  14
ATOM     14  C   UNL A   1      33.475  35.302  32.570  1.00  0.00     0.107 C 
ATOM     15  C   UNL A   1      34.023  36.573  33.129  1.00  0.00    -0.012 C 
ATOM     16  C   UNL A   1      33.197  35.661  31.105  1.00  0.00     0.087 C 
ATOM     17  C   UNL A   1      33.820  37.605  32.301  1.00  0.00     0.033 C 
ATOM     18  C   UNL A   1      33.055  37.191  31.090  1.00  0.00     0.205 C 
BRANCH  18  19
ATOM     19  N   UNL A   1      33.581  37.756  29.867  1.00  0.00    -0.352 N 
ATOM     20  H   UNL A   1      33.834  37.004  29.226  1.00  0.00     0.345 HD
ATOM     21  H   UNL A   1      34.407  38.314  30.078  1.00  0.00     0.345 HD
ATOM     22  H   UNL A   1      32.872  38.348  29.432  1.00  0.00     0.345 HD
ENDBRANCH  18  19
ENDBRANCH  12  14
ENDBRANCH   9  12
ENDBRANCH   3   5
ENDBRANCH   2   3
ENDBRANCH   1   2
BRANCH   1  23
ATOM     23  C   UNL A   1      34.505  31.180  28.330  1.00  0.00     0.275 C 
BRANCH  23  24
ATOM     24  O   UNL A   1      35.584  30.231  28.225  1.00  0.00    -0.458 OA
BRANCH  24  25
ATOM     25  C   UNL A   1      36.230  29.979  29.387  1.00  0.00     0.338 C 
ATOM     26  O   UNL A   1      35.706  29.819  30.483  1.00  0.00    -0.246 OA
BRANCH  25  27
ATOM     27  C   UNL A   1      37.671  29.752  29.166  1.00  0.00     0.060 A 
ATOM     28  C   UNL A   1      38.109  29.672  27.839  1.00  0.00     0.016 A 
ATOM     29  C   UNL A   1      38.572  29.546  30.216  1.00  0.00     0.016 A 
ATOM     30  C   UNL A   1      39.441  29.385  27.558  1.00  0.00     0.010 A 
ATOM     31  C   UNL A   1      39.911  29.243  29.929  1.00  0.00     0.010 A 
ATOM     32  C   UNL A   1      40.348  29.156  28.598  1.00  0.00    -0.014 A 
BRANCH  32  33
ATOM     33  C   UNL A   1      41.722  28.726  28.249  1.00  0.00     0.031 A 
ATOM     34  C   UNL A   1      42.837  29.730  28.303  1.00  0.00     0.074 A 
ATOM     35  C   UNL A   1      41.985  27.432  27.990  1.00  0.00     0.049 A 
ATOM     36  N   UNL A   1      44.117  29.555  28.105  1.00  0.00    -0.248 NA
ATOM     37  C   UNL A   1      42.460  31.110  28.648  1.00  0.00     0.031 C 
ATOM     38  C   UNL A   1      40.998  26.354  27.987  1.00  0.00     0.029 A 
ATOM     39  N   UNL A   1      43.169  26.805  27.694  1.00  0.00    -0.354 N 
ATOM     40  C   UNL A   1      44.703  30.796  28.316  1.00  0.00     0.074 A 
ATOM     41  C   UNL A   1      43.637  31.719  28.644  1.00  0.00     0.031 C 
ATOM     42  C   UNL A   1      41.618  25.196  27.700  1.00  0.00     0.029 A 
ATOM     43  C   UNL A   1      43.038  25.456  27.469  1.00  0.00     0.049 A 
ATOM     44  H   UNL A   1      44.031  27.278  27.646  1.00  0.00     0.167 HD
ATOM     45  C   UNL A   1      46.011  31.138  28.238  1.00  0.00     0.037 A 
ATOM     46  C   UNL A   1      43.958  24.542  27.098  1.00  0.00     0.037 A 
ATOM     47  C   UNL A   1      47.064  30.232  27.863  1.00  0.00     0.049 A 
ATOM     48  C   UNL A   1      45.391  24.972  26.908  1.00  0.00     0.074 A 
ATOM     49  C   UNL A   1      48.412  30.498  27.700  1.00  0.00     0.029 A 
ATOM     50  N   UNL A   1      46.884  28.887  27.575  1.00  0.00    -0.354 N 
ATOM     51  N   UNL A   1      45.933  26.152  27.102  1.00  0.00    -0.248 NA
ATOM     52  C   UNL A   1      46.338  23.949  26.440  1.00  0.00     0.031 C 
ATOM     53  C   UNL A   1      49.040  29.324  27.269  1.00  0.00     0.029 A 
ATOM     54  C   UNL A   1      48.092  28.315  27.212  1.00  0.00     0.049 A 
ATOM     55  H   UNL A   1      46.024  28.409  27.621  1.00  0.00     0.167 HD
ATOM     56  C   UNL A   1      47.285  26.005  26.808  1.00  0.00     0.074 A 
ATOM     57  C   UNL A   1      47.482  24.620  26.431  1.00  0.00     0.031 C 
ATOM     58  C   UNL A   1      48.275  26.931  26.850  1.00  0.00     0.037 A 
BRANCH  45  59
ATOM     59  C   UNL A   1      46.360  32.572  28.511  1.00  0.00     0.058 A 
ATOM     60  C   UNL A   1      46.272  33.554  27.513  1.00  0.00     0.135 A 
ATOM     61  C   UNL A   1      46.790  32.966  29.787  1.00  0.00     0.135 A 
ATOM     62  F   UNL A   1      45.888  33.223  26.269  1.00  0.00    -0.206 F 
ATOM     63  C   UNL A   1      46.626  34.876  27.764  1.00  0.00     0.059 A 
ATOM     64  C   UNL A   1      47.130  34.286  30.067  1.00  0.00     0.059 A 
ATOM     65  F   UNL A   1      46.897  32.063  30.773  1.00  0.00    -0.206 F 
ATOM     66  C   UNL A   1      47.061  35.230  29.043  1.00  0.00     0.060 A 
BRANCH  66  67
ATOM     67  S   UNL A   1      47.545  36.941  29.349  1.00  0.00     0.124 S 
ATOM     68  O   UNL A   1      48.578  37.136  28.335  1.00  0.00    -0.237 OA
ATOM     69  O   UNL A   1      46.297  37.665  29.129  1.00  0.00    -0.237 OA
ATOM     70  O   UNL A   1      48.019  36.920  30.729  1.00  0.00    -0.744 OA
ENDBRANCH  66  67
ENDBRANCH  45  59
BRANCH  46  71
ATOM     71  C   UNL A   1      43.555  23.131  26.848  1.00  0.00     0.058 A 
ATOM     72  C   UNL A   1      43.250  22.260  27.904  1.00  0.00     0.135 A 
ATOM     73  C   UNL A   1      43.497  22.619  25.542  1.00  0.00     0.135 A 
ATOM     74  F   UNL A   1      43.304  22.698  29.170  1.00  0.00    -0.206 F 
ATOM     75  C   UNL A   1      42.921  20.927  27.677  1.00  0.00     0.059 A 
ATOM     76  C   UNL A   1      43.146  21.297  25.288  1.00  0.00     0.059 A 
ATOM     77  F   UNL A   1      43.774  23.413  24.494  1.00  0.00    -0.206 F 
ATOM     78  C   UNL A   1      42.874  20.454  26.364  1.00  0.00     0.060 A 
BRANCH  78  79
ATOM     79  S   UNL A   1      42.424  18.730  26.074  1.00  0.00     0.124 S 
ATOM     80  O   UNL A   1      41.023  18.854  25.687  1.00  0.00    -0.237 OA
ATOM     81  O   UNL A   1      43.348  18.343  25.012  1.00  0.00    -0.237 OA
ATOM     82  O   UNL A   1      42.669  18.099  27.368  1.00  0.00    -0.744 OA
ENDBRANCH  78  79
ENDBRANCH  46  71
BRANCH  58  83
ATOM     83  C   UNL A   1      49.670  26.478  26.515  1.00  0.00     0.058 A 
ATOM     84  C   UNL A   1      50.198  26.607  25.221  1.00  0.00     0.135 A 
ATOM     85  C   UNL A   1      50.510  25.970  27.519  1.00  0.00     0.135 A 
ATOM     86  F   UNL A   1      49.436  27.083  24.225  1.00  0.00    -0.206 F 
ATOM     87  C   UNL A   1      51.506  26.230  24.930  1.00  0.00     0.059 A 
ATOM     88  C   UNL A   1      51.828  25.610  27.255  1.00  0.00     0.059 A 
ATOM     89  F   UNL A   1      50.058  25.837  28.776  1.00  0.00    -0.206 F 
ATOM     90  C   UNL A   1      52.315  25.735  25.955  1.00  0.00     0.060 A 
BRANCH  90  91
ATOM     91  S   UNL A   1      54.024  25.291  25.576  1.00  0.00     0.124 S 
ATOM     92  O   UNL A   1      54.565  25.041  26.908  1.00  0.00    -0.237 OA
ATOM     93  O   UNL A   1      53.863  24.115  24.727  1.00  0.00    -0.237 OA
ATOM     94  O   UNL A   1      54.540  26.477  24.900  1.00  0.00    -0.744 OA
ENDBRANCH  90  91
ENDBRANCH  58  83
ENDBRANCH  32  33
ENDBRANCH  25  27
ENDBRANCH  24  25
ENDBRANCH  23  24
ENDBRANCH   1  23
TORSDOF 18
ENDMDL
MODEL 2
REMARK VINA RESULT:     -10.3      4.539     10.768
REMARK SMILES CO[C@H]1C[C@H](C(=O)OCCOC(=O)c2ccc(-c3c4nc(c(-c5c(F)cc(S(=O)(=O)[O-])cc5F)c5ccc([nH]5)c(-c5c(F)cc(S(=O)(=O)[O-])cc5F)c5nc(c(-c6c(F)cc(S(=O)(=O)[O-])cc6F)c6ccc3[nH]6)C=C5)C=C4)cc2)N(C(=O)[C@H]2C=C[C@@H]([NH3+])C2)C1
REMARK SMILES IDX 9 1 8 2 6 3 7 4 5 5 3 6 4 7 89 8 80 9 2 10 1 11 81 12 82 13
REMARK SMILES IDX 83 14 84 15 88 16 85 17 86 18 87 19 10 23 11 24 12 25 13 26
REMARK SMILES IDX 14 27 15 28 79 29 16 30 78 31 17 32 18 33 19 34 72 35 20 36
REMARK SMILES IDX 77 37 71 38 73 39 21 40 76 41 70 42 69 43 22 45 56 46 35 47
REMARK SMILES IDX 55 48 36 49 39 50 54 51 74 52 37 53 38 54 53 56 75 57 40 58
REMARK SMILES IDX 23 59 24 60 33 61 25 62 26 63 32 64 34 65 27 66 28 67 29 68
REMARK SMILES IDX 30 69 31 70 57 71 58 72 67 73 59 74 60 75 66 76 68 77 61 78
REMARK SMILES IDX 62 79 63 80 64 81 65 82 41 83 42 84 51 85 43 86 44 87 50 88
REMARK SMILES IDX 52 89 45 90 46 91 47 92 48 93 49 94
REMARK H PARENT 87 20 87 21 87 22 73 44 39 55
REMARK Flexibility Score: inf
ROOT
ATOM      1  C   UNL A   1      35.754  21.286  25.691  1.00  0.00     0.274 C 
ENDROOT
BRANCH   1   2
ATOM      2  O   UNL A   1      34.697  21.652  24.780  1.00  0.00    -0.461 OA
BRANCH   2   3
ATOM      3  C   UNL A   1      33.764  22.501  25.296  1.00  0.00     0.329 C 
ATOM      4  O   UNL A   1      32.732  22.112  25.827  1.00  0.00    -0.250 OA
BRANCH   3   5
ATOM      5  C   UNL A   1      34.095  23.993  25.072  1.00  0.00     0.197 C 
ATOM      6  C   UNL A   1      33.532  24.575  22.789  1.00  0.00     0.140 C 
ATOM      7  C   UNL A   1      34.721  24.333  23.725  1.00  0.00     0.071 C 
ATOM      8  C   UNL A   1      32.388  24.984  23.732  1.00  0.00     0.152 C 
ATOM      9  N   UNL A   1      32.893  24.823  25.091  1.00  0.00    -0.326 N 
BRANCH   6  10
ATOM     10  O   UNL A   1      33.760  25.620  21.840  1.00  0.00    -0.380 OA
ATOM     11  C   UNL A   1      33.462  26.924  22.319  1.00  0.00     0.195 C 
ENDBRANCH   6  10
BRANCH   9  12
ATOM     12  C   UNL A   1      32.243  25.440  26.134  1.00  0.00     0.230 C 
ATOM     13  O   UNL A   1      31.414  24.802  26.796  1.00  0.00    -0.274 OA
BRANCH  12  14
ATOM     14  C   UNL A   1      32.448  26.927  26.469  1.00  0.00     0.107 C 
ATOM     15  C   UNL A   1      33.771  27.527  26.122  1.00  0.00    -0.012 C 
ATOM     16  C   UNL A   1      31.452  27.870  25.784  1.00  0.00     0.087 C 
ATOM     17  C   UNL A   1      33.638  28.761  25.621  1.00  0.00     0.033 C 
ATOM     18  C   UNL A   1      32.211  29.195  25.610  1.00  0.00     0.205 C 
BRANCH  18  19
ATOM     19  N   UNL A   1      31.831  29.862  24.384  1.00  0.00    -0.352 N 
ATOM     20  H   UNL A   1      32.532  30.564  24.148  1.00  0.00     0.345 HD
ATOM     21  H   UNL A   1      30.926  30.315  24.511  1.00  0.00     0.345 HD
ATOM     22  H   UNL A   1      31.767  29.178  23.630  1.00  0.00     0.345 HD
ENDBRANCH  18  19
ENDBRANCH  12  14
ENDBRANCH   9  12
ENDBRANCH   3   5
ENDBRANCH   2   3
ENDBRANCH   1   2
BRANCH   1  23
ATOM     23  C   UNL A   1      37.145  21.511  25.085  1.00  0.00     0.275 C 
BRANCH  23  24
ATOM     24  O   UNL A   1      37.728  22.765  25.491  1.00  0.00    -0.458 OA
BRANCH  24  25
ATOM     25  C   UNL A   1      38.903  22.653  26.152  1.00  0.00     0.338 C 
ATOM     26  O   UNL A   1      39.630  21.666  26.169  1.00  0.00    -0.246 OA
BRANCH  25  27
ATOM     27  C   UNL A   1      39.314  23.939  26.746  1.00  0.00     0.060 A 
ATOM     28  C   UNL A   1      39.957  24.855  25.904  1.00  0.00     0.016 A 
ATOM     29  C   UNL A   1      39.150  24.230  28.104  1.00  0.00     0.016 A 
ATOM     30  C   UNL A   1      40.439  26.056  26.414  1.00  0.00     0.010 A 
ATOM     31  C   UNL A   1      39.649  25.437  28.618  1.00  0.00     0.010 A 
ATOM     32  C   UNL A   1      40.300  26.350  27.775  1.00  0.00    -0.014 A 
BRANCH  32  33
ATOM     33  C   UNL A   1      40.943  27.579  28.295  1.00  0.00     0.031 A 
ATOM     34  C   UNL A   1      42.436  27.719  28.199  1.00  0.00     0.074 A 
ATOM     35  C   UNL A   1      40.193  28.599  28.750  1.00  0.00     0.049 A 
ATOM     36  N   UNL A   1      43.193  28.732  28.527  1.00  0.00    -0.248 NA
ATOM     37  C   UNL A   1      43.166  26.571  27.639  1.00  0.00     0.031 C 
ATOM     38  C   UNL A   1      38.733  28.610  28.816  1.00  0.00     0.029 A 
ATOM     39  N   UNL A   1      40.561  29.832  29.228  1.00  0.00    -0.354 N 
ATOM     40  C   UNL A   1      44.489  28.354  28.199  1.00  0.00     0.074 A 
ATOM     41  C   UNL A   1      44.415  27.013  27.659  1.00  0.00     0.031 C 
ATOM     42  C   UNL A   1      38.328  29.793  29.310  1.00  0.00     0.029 A 
ATOM     43  C   UNL A   1      39.499  30.610  29.623  1.00  0.00     0.049 A 
ATOM     44  H   UNL A   1      41.497  30.131  29.283  1.00  0.00     0.167 HD
ATOM     45  C   UNL A   1      45.636  29.059  28.340  1.00  0.00     0.037 A 
ATOM     46  C   UNL A   1      39.480  31.833  30.191  1.00  0.00     0.037 A 
ATOM     47  C   UNL A   1      45.715  30.371  28.923  1.00  0.00     0.049 A 
ATOM     48  C   UNL A   1      40.783  32.551  30.442  1.00  0.00     0.074 A 
ATOM     49  C   UNL A   1      46.838  31.143  29.162  1.00  0.00     0.029 A 
ATOM     50  N   UNL A   1      44.625  31.101  29.375  1.00  0.00    -0.354 N 
ATOM     51  N   UNL A   1      42.004  32.179  30.135  1.00  0.00    -0.248 NA
ATOM     52  C   UNL A   1      40.707  33.852  31.123  1.00  0.00     0.031 C 
ATOM     53  C   UNL A   1      46.432  32.320  29.800  1.00  0.00     0.029 A 
ATOM     54  C   UNL A   1      45.052  32.304  29.914  1.00  0.00     0.049 A 
ATOM     55  H   UNL A   1      43.687  30.808  29.322  1.00  0.00     0.167 HD
ATOM     56  C   UNL A   1      42.836  33.212  30.559  1.00  0.00     0.074 A 
ATOM     57  C   UNL A   1      41.980  34.227  31.137  1.00  0.00     0.031 C 
ATOM     58  C   UNL A   1      44.186  33.311  30.476  1.00  0.00     0.037 A 
BRANCH  45  59
ATOM     59  C   UNL A   1      46.907  28.389  27.904  1.00  0.00     0.058 A 
ATOM     60  C   UNL A   1      47.387  28.504  26.591  1.00  0.00     0.135 A 
ATOM     61  C   UNL A   1      47.649  27.619  28.812  1.00  0.00     0.135 A 
ATOM     62  F   UNL A   1      46.700  29.211  25.678  1.00  0.00    -0.206 F 
ATOM     63  C   UNL A   1      48.549  27.856  26.184  1.00  0.00     0.059 A 
ATOM     64  C   UNL A   1      48.825  26.978  28.433  1.00  0.00     0.059 A 
ATOM     65  F   UNL A   1      47.228  27.472  30.076  1.00  0.00    -0.206 F 
ATOM     66  C   UNL A   1      49.256  27.089  27.112  1.00  0.00     0.060 A 
BRANCH  66  67
ATOM     67  S   UNL A   1      50.746  26.228  26.566  1.00  0.00     0.124 S 
ATOM     68  O   UNL A   1      50.569  24.919  27.190  1.00  0.00    -0.237 OA
ATOM     69  O   UNL A   1      50.614  26.261  25.113  1.00  0.00    -0.237 OA
ATOM     70  O   UNL A   1      51.828  27.041  27.112  1.00  0.00    -0.744 OA
ENDBRANCH  66  67
ENDBRANCH  45  59
BRANCH  46  71
ATOM     71  C   UNL A   1      38.189  32.451  30.596  1.00  0.00     0.058 A 
ATOM     72  C   UNL A   1      37.478  33.294  29.730  1.00  0.00     0.135 A 
ATOM     73  C   UNL A   1      37.655  32.232  31.876  1.00  0.00     0.135 A 
ATOM     74  F   UNL A   1      37.953  33.545  28.501  1.00  0.00    -0.206 F 
ATOM     75  C   UNL A   1      36.296  33.914  30.122  1.00  0.00     0.059 A 
ATOM     76  C   UNL A   1      36.462  32.821  32.284  1.00  0.00     0.059 A 
ATOM     77  F   UNL A   1      38.293  31.429  32.743  1.00  0.00    -0.206 F 
ATOM     78  C   UNL A   1      35.797  33.672  31.404  1.00  0.00     0.060 A 
BRANCH  78  79
ATOM     79  S   UNL A   1      34.249  34.460  31.900  1.00  0.00     0.124 S 
ATOM     80  O   UNL A   1      34.731  35.697  32.503  1.00  0.00    -0.237 OA
ATOM     81  O   UNL A   1      33.551  34.599  30.626  1.00  0.00    -0.237 OA
ATOM     82  O   UNL A   1      33.664  33.492  32.824  1.00  0.00    -0.744 OA
ENDBRANCH  78  79
ENDBRANCH  46  71
BRANCH  58  83
ATOM     83  C   UNL A   1      44.826  34.573  30.986  1.00  0.00     0.058 A 
ATOM     84  C   UNL A   1      45.016  35.692  30.161  1.00  0.00     0.135 A 
ATOM     85  C   UNL A   1      45.194  34.685  32.337  1.00  0.00     0.135 A 
ATOM     86  F   UNL A   1      44.686  35.636  28.861  1.00  0.00    -0.206 F 
ATOM     87  C   UNL A   1      45.566  36.872  30.652  1.00  0.00     0.059 A 
ATOM     88  C   UNL A   1      45.721  35.863  32.855  1.00  0.00     0.059 A 
ATOM     89  F   UNL A   1      45.022  33.648  33.172  1.00  0.00    -0.206 F 
ATOM     90  C   UNL A   1      45.913  36.949  32.003  1.00  0.00     0.060 A 
BRANCH  90  91
ATOM     91  S   UNL A   1      46.583  38.500  32.641  1.00  0.00     0.124 S 
ATOM     92  O   UNL A   1      46.971  39.182  31.411  1.00  0.00    -0.237 OA
ATOM     93  O   UNL A   1      45.439  39.070  33.347  1.00  0.00    -0.237 OA
ATOM     94  O   UNL A   1      47.685  38.068  33.494  1.00  0.00    -0.744 OA
ENDBRANCH  90  91
ENDBRANCH  58  83
ENDBRANCH  32  33
ENDBRANCH  25  27
ENDBRANCH  24  25
ENDBRANCH  23  24
ENDBRANCH   1  23
TORSDOF 18
ENDMDL
MODEL 3
REMARK VINA RESULT:     -10.3      5.611     11.480
REMARK SMILES CO[C@H]1C[C@H](C(=O)OCCOC(=O)c2ccc(-c3c4nc(c(-c5c(F)cc(S(=O)(=O)[O-])cc5F)c5ccc([nH]5)c(-c5c(F)cc(S(=O)(=O)[O-])cc5F)c5nc(c(-c6c(F)cc(S(=O)(=O)[O-])cc6F)c6ccc3[nH]6)C=C5)C=C4)cc2)N(C(=O)[C@H]2C=C[C@@H]([NH3+])C2)C1
REMARK SMILES IDX 9 1 8 2 6 3 7 4 5 5 3 6 4 7 89 8 80 9 2 10 1 11 81 12 82 13
REMARK SMILES IDX 83 14 84 15 88 16 85 17 86 18 87 19 10 23 11 24 12 25 13 26
REMARK SMILES IDX 14 27 15 28 79 29 16 30 78 31 17 32 18 33 19 34 72 35 20 36
REMARK SMILES IDX 77 37 71 38 73 39 21 40 76 41 70 42 69 43 22 45 56 46 35 47
REMARK SMILES IDX 55 48 36 49 39 50 54 51 74 52 37 53 38 54 53 56 75 57 40 58
REMARK SMILES IDX 23 59 24 60 33 61 25 62 26 63 32 64 34 65 27 66 28 67 29 68
REMARK SMILES IDX 30 69 31 70 57 71 58 72 67 73 59 74 60 75 66 76 68 77 61 78
REMARK SMILES IDX 62 79 63 80 64 81 65 82 41 83 42 84 51 85 43 86 44 87 50 88
REMARK SMILES IDX 52 89 45 90 46 91 47 92 48 93 49 94
REMARK H PARENT 87 20 87 21 87 22 73 44 39 55
REMARK Flexibility Score: inf
ROOT
ATOM      1  C   UNL A   1      35.708  21.982  24.475  1.00  0.00     0.274 C 
ENDROOT
BRANCH   1   2
ATOM      2  O   UNL A   1      34.336  22.123  24.051  1.00  0.00    -0.461 OA
BRANCH   2   3
ATOM      3  C   UNL A   1      34.020  23.340  23.525  1.00  0.00     0.329 C 
ATOM      4  O   UNL A   1      34.786  23.974  22.809  1.00  0.00    -0.250 OA
BRANCH   3   5
ATOM      5  C   UNL A   1      32.644  23.873  23.982  1.00  0.00     0.197 C 
ATOM      6  C   UNL A   1      32.449  23.554  26.374  1.00  0.00     0.140 C 
ATOM      7  C   UNL A   1      31.929  23.032  25.031  1.00  0.00     0.071 C 
ATOM      8  C   UNL A   1      32.893  24.995  26.072  1.00  0.00     0.152 C 
ATOM      9  N   UNL A   1      32.758  25.176  24.631  1.00  0.00    -0.326 N 
BRANCH   6  10
ATOM     10  O   UNL A   1      31.454  23.570  27.401  1.00  0.00    -0.380 OA
ATOM     11  C   UNL A   1      30.123  23.403  26.932  1.00  0.00     0.195 C 
ENDBRANCH   6  10
BRANCH   9  12
ATOM     12  C   UNL A   1      32.734  26.447  24.106  1.00  0.00     0.230 C 
ATOM     13  O   UNL A   1      33.801  27.025  23.862  1.00  0.00    -0.274 OA
BRANCH  12  14
ATOM     14  C   UNL A   1      31.423  27.220  23.879  1.00  0.00     0.107 C 
ATOM     15  C   UNL A   1      31.188  28.424  24.731  1.00  0.00    -0.012 C 
ATOM     16  C   UNL A   1      31.252  27.766  22.457  1.00  0.00     0.087 C 
ATOM     17  C   UNL A   1      30.650  29.429  24.028  1.00  0.00     0.033 C 
ATOM     18  C   UNL A   1      30.393  29.030  22.614  1.00  0.00     0.205 C 
BRANCH  18  19
ATOM     19  N   UNL A   1      30.774  30.048  21.660  1.00  0.00    -0.352 N 
ATOM     20  H   UNL A   1      31.385  29.639  20.953  1.00  0.00     0.345 HD
ATOM     21  H   UNL A   1      31.267  30.798  22.142  1.00  0.00     0.345 HD
ATOM     22  H   UNL A   1      29.939  30.423  21.210  1.00  0.00     0.345 HD
ENDBRANCH  18  19
ENDBRANCH  12  14
ENDBRANCH   9  12
ENDBRANCH   3   5
ENDBRANCH   2   3
ENDBRANCH   1   2
BRANCH   1  23
ATOM     23  C   UNL A   1      36.081  22.989  25.571  1.00  0.00     0.275 C 
BRANCH  23  24
ATOM     24  O   UNL A   1      37.301  23.698  25.276  1.00  0.00    -0.458 OA
BRANCH  24  25
ATOM     25  C   UNL A   1      38.390  23.247  25.941  1.00  0.00     0.338 C 
ATOM     26  O   UNL A   1      38.884  22.129  25.843  1.00  0.00    -0.246 OA
BRANCH  25  27
ATOM     27  C   UNL A   1      39.041  24.328  26.706  1.00  0.00     0.060 A 
ATOM     28  C   UNL A   1      38.695  24.452  28.057  1.00  0.00     0.016 A 
ATOM     29  C   UNL A   1      39.913  25.249  26.117  1.00  0.00     0.016 A 
ATOM     30  C   UNL A   1      39.214  25.494  28.819  1.00  0.00     0.010 A 
ATOM     31  C   UNL A   1      40.424  26.307  26.885  1.00  0.00     0.010 A 
ATOM     32  C   UNL A   1      40.070  26.435  28.237  1.00  0.00    -0.014 A 
BRANCH  32  33
ATOM     33  C   UNL A   1      40.491  27.598  29.052  1.00  0.00     0.031 A 
ATOM     34  C   UNL A   1      41.865  27.604  29.660  1.00  0.00     0.074 A 
ATOM     35  C   UNL A   1      39.697  28.678  29.158  1.00  0.00     0.049 A 
ATOM     36  N   UNL A   1      42.460  28.542  30.348  1.00  0.00    -0.248 NA
ATOM     37  C   UNL A   1      42.682  26.399  29.445  1.00  0.00     0.031 C 
ATOM     38  C   UNL A   1      38.377  28.820  28.546  1.00  0.00     0.029 A 
ATOM     39  N   UNL A   1      39.895  29.870  29.810  1.00  0.00    -0.354 N 
ATOM     40  C   UNL A   1      43.727  28.052  30.635  1.00  0.00     0.074 A 
ATOM     41  C   UNL A   1      43.810  26.726  30.058  1.00  0.00     0.031 C 
ATOM     42  C   UNL A   1      37.882  30.031  28.853  1.00  0.00     0.029 A 
ATOM     43  C   UNL A   1      38.834  30.738  29.708  1.00  0.00     0.049 A 
ATOM     44  H   UNL A   1      40.720  30.083  30.304  1.00  0.00     0.167 HD
ATOM     45  C   UNL A   1      44.730  28.649  31.321  1.00  0.00     0.037 A 
ATOM     46  C   UNL A   1      38.648  31.954  30.262  1.00  0.00     0.037 A 
ATOM     47  C   UNL A   1      44.629  29.946  31.937  1.00  0.00     0.049 A 
ATOM     48  C   UNL A   1      39.738  32.550  31.118  1.00  0.00     0.074 A 
ATOM     49  C   UNL A   1      45.570  30.611  32.702  1.00  0.00     0.029 A 
ATOM     50  N   UNL A   1      43.514  30.768  31.871  1.00  0.00    -0.354 N 
ATOM     51  N   UNL A   1      40.930  32.072  31.390  1.00  0.00    -0.248 NA
ATOM     52  C   UNL A   1      39.456  33.848  31.748  1.00  0.00     0.031 C 
ATOM     53  C   UNL A   1      45.007  31.816  33.138  1.00  0.00     0.029 A 
ATOM     54  C   UNL A   1      43.733  31.924  32.603  1.00  0.00     0.049 A 
ATOM     55  H   UNL A   1      42.687  30.560  31.378  1.00  0.00     0.167 HD
ATOM     56  C   UNL A   1      41.547  33.022  32.198  1.00  0.00     0.074 A 
ATOM     57  C   UNL A   1      40.601  34.106  32.364  1.00  0.00     0.031 C 
ATOM     58  C   UNL A   1      42.786  33.001  32.750  1.00  0.00     0.037 A 
BRANCH  45  59
ATOM     59  C   UNL A   1      46.002  27.871  31.488  1.00  0.00     0.058 A 
ATOM     60  C   UNL A   1      46.183  26.974  32.552  1.00  0.00     0.135 A 
ATOM     61  C   UNL A   1      47.054  28.028  30.573  1.00  0.00     0.135 A 
ATOM     62  F   UNL A   1      45.214  26.806  33.467  1.00  0.00    -0.206 F 
ATOM     63  C   UNL A   1      47.376  26.278  32.718  1.00  0.00     0.059 A 
ATOM     64  C   UNL A   1      48.248  27.328  30.708  1.00  0.00     0.059 A 
ATOM     65  F   UNL A   1      46.933  28.879  29.543  1.00  0.00    -0.206 F 
ATOM     66  C   UNL A   1      48.405  26.468  31.795  1.00  0.00     0.060 A 
BRANCH  66  67
ATOM     67  S   UNL A   1      49.959  25.582  32.037  1.00  0.00     0.124 S 
ATOM     68  O   UNL A   1      49.590  24.630  33.081  1.00  0.00    -0.237 OA
ATOM     69  O   UNL A   1      50.204  25.010  30.717  1.00  0.00    -0.237 OA
ATOM     70  O   UNL A   1      50.889  26.630  32.445  1.00  0.00    -0.744 OA
ENDBRANCH  66  67
ENDBRANCH  45  59
BRANCH  46  71
ATOM     71  C   UNL A   1      37.368  32.682  30.056  1.00  0.00     0.058 A 
ATOM     72  C   UNL A   1      36.237  32.409  30.840  1.00  0.00     0.135 A 
ATOM     73  C   UNL A   1      37.242  33.649  29.046  1.00  0.00     0.135 A 
ATOM     74  F   UNL A   1      36.302  31.484  31.809  1.00  0.00    -0.206 F 
ATOM     75  C   UNL A   1      35.023  33.052  30.618  1.00  0.00     0.059 A 
ATOM     76  C   UNL A   1      36.046  34.324  28.821  1.00  0.00     0.059 A 
ATOM     77  F   UNL A   1      38.296  33.954  28.271  1.00  0.00    -0.206 F 
ATOM     78  C   UNL A   1      34.938  34.008  29.604  1.00  0.00     0.060 A 
BRANCH  78  79
ATOM     79  S   UNL A   1      33.367  34.857  29.336  1.00  0.00     0.124 S 
ATOM     80  O   UNL A   1      33.815  36.163  28.869  1.00  0.00    -0.237 OA
ATOM     81  O   UNL A   1      32.723  34.008  28.338  1.00  0.00    -0.237 OA
ATOM     82  O   UNL A   1      32.747  34.836  30.658  1.00  0.00    -0.744 OA
ENDBRANCH  78  79
ENDBRANCH  46  71
BRANCH  58  83
ATOM     83  C   UNL A   1      43.212  34.196  33.557  1.00  0.00     0.058 A 
ATOM     84  C   UNL A   1      43.866  35.290  32.970  1.00  0.00     0.135 A 
ATOM     85  C   UNL A   1      42.902  34.275  34.925  1.00  0.00     0.135 A 
ATOM     86  F   UNL A   1      44.189  35.263  31.667  1.00  0.00    -0.206 F 
ATOM     87  C   UNL A   1      44.215  36.413  33.713  1.00  0.00     0.059 A 
ATOM     88  C   UNL A   1      43.219  35.398  35.682  1.00  0.00     0.059 A 
ATOM     89  F   UNL A   1      42.266  33.261  35.533  1.00  0.00    -0.206 F 
ATOM     90  C   UNL A   1      43.884  36.459  35.070  1.00  0.00     0.060 A 
BRANCH  90  91
ATOM     91  S   UNL A   1      44.300  37.940  36.016  1.00  0.00     0.124 S 
ATOM     92  O   UNL A   1      43.487  37.763  37.213  1.00  0.00    -0.237 OA
ATOM     93  O   UNL A   1      45.741  37.800  36.202  1.00  0.00    -0.237 OA
ATOM     94  O   UNL A   1      43.893  39.031  35.135  1.00  0.00    -0.744 OA
ENDBRANCH  90  91
ENDBRANCH  58  83
ENDBRANCH  32  33
ENDBRANCH  25  27
ENDBRANCH  24  25
ENDBRANCH  23  24
ENDBRANCH   1  23
TORSDOF 18
ENDMDL
