MODEL 1
REMARK VINA RESULT:     -11.0      0.000      0.000
REMARK SMILES CN(C)S(=O)(=O)c1ccc(N(CC(=O)OCCOC(=O)c2ccc(-c3c4nc(c(-c5c(F)cc(S(=O)(=O)[O-])cc5F)c5ccc([nH]5)c(-c5c(F)cc(S(=O)(=O)[O-])cc5F)c5nc(c(-c6c(F)cc(S(=O)(=O)[O-])cc6F)c6ccc3[nH]6)C=C5)C=C4)cc2)C(C)(C)C)cc1
REMARK SMILES IDX 16 1 15 2 13 3 14 4 12 5 11 6 10 7 7 8 8 9 92 10 9 11 91 12
REMARK SMILES IDX 4 13 5 14 6 15 2 16 1 17 3 18 87 19 88 20 89 21 90 22 17 23
REMARK SMILES IDX 18 24 19 25 20 26 21 27 22 28 86 29 23 30 85 31 24 32 25 33
REMARK SMILES IDX 26 34 79 35 27 36 84 37 78 38 80 39 28 40 83 41 77 42 76 43
REMARK SMILES IDX 29 45 63 46 42 47 62 48 43 49 46 50 61 51 81 52 44 53 45 54
REMARK SMILES IDX 60 56 82 57 47 58 30 59 31 60 40 61 32 62 33 63 39 64 41 65
REMARK SMILES IDX 34 66 35 67 36 68 37 69 38 70 64 71 65 72 74 73 66 74 67 75
REMARK SMILES IDX 73 76 75 77 68 78 69 79 70 80 71 81 72 82 48 83 49 84 58 85
REMARK SMILES IDX 50 86 51 87 57 88 59 89 52 90 53 91 54 92 55 93 56 94
REMARK H PARENT 80 44 46 55
REMARK Flexibility Score: inf
ROOT
ATOM      1  C   UNL A   1      38.487  21.769  25.600  1.00  0.00     0.274 C 
ENDROOT
BRANCH   1   2
ATOM      2  O   UNL A   1      37.300  22.584  25.515  1.00  0.00    -0.461 OA
BRANCH   2   3
ATOM      3  C   UNL A   1      36.653  22.564  24.317  1.00  0.00     0.325 C 
ATOM      4  O   UNL A   1      37.072  23.103  23.294  1.00  0.00    -0.250 OA
BRANCH   3   5
ATOM      5  C   UNL A   1      35.427  21.654  24.301  1.00  0.00     0.239 C 
BRANCH   5   6
ATOM      6  N   UNL A   1      34.114  22.310  24.538  1.00  0.00    -0.356 N 
BRANCH   6   7
ATOM      7  C   UNL A   1      34.096  23.719  24.540  1.00  0.00     0.038 A 
ATOM      8  C   UNL A   1      33.721  26.551  24.598  1.00  0.00     0.082 A 
ATOM      9  C   UNL A   1      33.708  25.876  23.385  1.00  0.00     0.024 A 
ATOM     10  C   UNL A   1      34.010  25.862  25.765  1.00  0.00     0.024 A 
ATOM     11  C   UNL A   1      33.912  24.485  23.366  1.00  0.00     0.027 A 
ATOM     12  C   UNL A   1      34.211  24.479  25.717  1.00  0.00     0.027 A 
BRANCH   8  13
ATOM     13  S   UNL A   1      33.333  28.272  24.683  1.00  0.00     0.242 S 
ATOM     14  O   UNL A   1      33.281  28.796  23.332  1.00  0.00    -0.207 OA
ATOM     15  O   UNL A   1      34.200  28.867  25.678  1.00  0.00    -0.207 OA
BRANCH  13  16
ATOM     16  N   UNL A   1      31.728  28.317  25.283  1.00  0.00    -0.204 NA
ATOM     17  C   UNL A   1      30.833  27.426  24.506  1.00  0.00     0.124 C 
ATOM     18  C   UNL A   1      31.600  28.073  26.736  1.00  0.00     0.124 C 
ENDBRANCH  13  16
ENDBRANCH   8  13
ENDBRANCH   6   7
BRANCH   6  19
ATOM     19  C   UNL A   1      32.856  21.459  24.508  1.00  0.00     0.032 C 
ATOM     20  C   UNL A   1      32.168  21.568  23.130  1.00  0.00     0.034 C 
ATOM     21  C   UNL A   1      33.144  20.004  24.946  1.00  0.00     0.034 C 
ATOM     22  C   UNL A   1      31.763  21.913  25.512  1.00  0.00     0.034 C 
ENDBRANCH   6  19
ENDBRANCH   5   6
ENDBRANCH   3   5
ENDBRANCH   2   3
ENDBRANCH   1   2
BRANCH   1  23
ATOM     23  C   UNL A   1      39.434  22.350  26.646  1.00  0.00     0.275 C 
BRANCH  23  24
ATOM     24  O   UNL A   1      39.482  23.783  26.512  1.00  0.00    -0.458 OA
BRANCH  24  25
ATOM     25  C   UNL A   1      40.710  24.328  26.682  1.00  0.00     0.338 C 
ATOM     26  O   UNL A   1      41.709  24.103  26.016  1.00  0.00    -0.246 OA
BRANCH  25  27
ATOM     27  C   UNL A   1      40.720  25.294  27.800  1.00  0.00     0.060 A 
ATOM     28  C   UNL A   1      39.582  25.524  28.577  1.00  0.00     0.016 A 
ATOM     29  C   UNL A   1      41.846  26.102  27.960  1.00  0.00     0.016 A 
ATOM     30  C   UNL A   1      39.540  26.628  29.435  1.00  0.00     0.010 A 
ATOM     31  C   UNL A   1      41.840  27.131  28.904  1.00  0.00     0.010 A 
ATOM     32  C   UNL A   1      40.679  27.428  29.634  1.00  0.00    -0.014 A 
BRANCH  32  33
ATOM     33  C   UNL A   1      40.695  28.530  30.640  1.00  0.00     0.031 A 
ATOM     34  C   UNL A   1      41.636  28.500  31.821  1.00  0.00     0.074 A 
ATOM     35  C   UNL A   1      39.801  29.534  30.535  1.00  0.00     0.049 A 
ATOM     36  N   UNL A   1      41.647  29.258  32.890  1.00  0.00    -0.248 NA
ATOM     37  C   UNL A   1      42.693  27.476  31.806  1.00  0.00     0.031 C 
ATOM     38  C   UNL A   1      38.829  29.691  29.450  1.00  0.00     0.029 A 
ATOM     39  N   UNL A   1      39.548  30.603  31.360  1.00  0.00    -0.354 N 
ATOM     40  C   UNL A   1      42.681  28.783  33.691  1.00  0.00     0.074 A 
ATOM     41  C   UNL A   1      43.270  27.662  32.987  1.00  0.00     0.031 C 
ATOM     42  C   UNL A   1      38.100  30.794  29.667  1.00  0.00     0.029 A 
ATOM     43  C   UNL A   1      38.491  31.378  30.944  1.00  0.00     0.049 A 
ATOM     44  H   UNL A   1      40.073  30.795  32.171  1.00  0.00     0.167 HD
ATOM     45  C   UNL A   1      43.099  29.239  34.898  1.00  0.00     0.037 A 
ATOM     46  C   UNL A   1      37.865  32.412  31.536  1.00  0.00     0.037 A 
ATOM     47  C   UNL A   1      42.527  30.374  35.583  1.00  0.00     0.049 A 
ATOM     48  C   UNL A   1      38.328  32.884  32.882  1.00  0.00     0.074 A 
ATOM     49  C   UNL A   1      42.903  30.925  36.797  1.00  0.00     0.029 A 
ATOM     50  N   UNL A   1      41.462  31.133  35.118  1.00  0.00    -0.354 N 
ATOM     51  N   UNL A   1      39.295  32.412  33.629  1.00  0.00    -0.248 NA
ATOM     52  C   UNL A   1      37.609  34.022  33.468  1.00  0.00     0.031 C 
ATOM     53  C   UNL A   1      42.044  31.993  37.082  1.00  0.00     0.029 A 
ATOM     54  C   UNL A   1      41.160  32.135  36.026  1.00  0.00     0.049 A 
ATOM     55  H   UNL A   1      40.991  30.980  34.268  1.00  0.00     0.167 HD
ATOM     56  C   UNL A   1      39.310  33.204  34.771  1.00  0.00     0.074 A 
ATOM     57  C   UNL A   1      38.265  34.194  34.607  1.00  0.00     0.031 C 
ATOM     58  C   UNL A   1      40.116  33.115  35.858  1.00  0.00     0.037 A 
BRANCH  45  59
ATOM     59  C   UNL A   1      44.224  28.503  35.579  1.00  0.00     0.058 A 
ATOM     60  C   UNL A   1      45.570  28.819  35.338  1.00  0.00     0.135 A 
ATOM     61  C   UNL A   1      43.948  27.507  36.531  1.00  0.00     0.135 A 
ATOM     62  F   UNL A   1      45.893  29.756  34.433  1.00  0.00    -0.206 F 
ATOM     63  C   UNL A   1      46.602  28.157  35.997  1.00  0.00     0.059 A 
ATOM     64  C   UNL A   1      44.963  26.848  37.219  1.00  0.00     0.059 A 
ATOM     65  F   UNL A   1      42.678  27.169  36.806  1.00  0.00    -0.206 F 
ATOM     66  C   UNL A   1      46.289  27.170  36.934  1.00  0.00     0.060 A 
BRANCH  66  67
ATOM     67  S   UNL A   1      47.638  26.317  37.779  1.00  0.00     0.124 S 
ATOM     68  O   UNL A   1      48.318  27.429  38.436  1.00  0.00    -0.237 OA
ATOM     69  O   UNL A   1      46.927  25.399  38.662  1.00  0.00    -0.237 OA
ATOM     70  O   UNL A   1      48.377  25.687  36.690  1.00  0.00    -0.744 OA
ENDBRANCH  66  67
ENDBRANCH  45  59
BRANCH  46  71
ATOM     71  C   UNL A   1      36.705  33.043  30.856  1.00  0.00     0.058 A 
ATOM     72  C   UNL A   1      35.398  32.839  31.322  1.00  0.00     0.135 A 
ATOM     73  C   UNL A   1      36.887  33.907  29.764  1.00  0.00     0.135 A 
ATOM     74  F   UNL A   1      35.176  32.017  32.358  1.00  0.00    -0.206 F 
ATOM     75  C   UNL A   1      34.310  33.469  30.728  1.00  0.00     0.059 A 
ATOM     76  C   UNL A   1      35.818  34.569  29.172  1.00  0.00     0.059 A 
ATOM     77  F   UNL A   1      38.121  34.149  29.296  1.00  0.00    -0.206 F 
ATOM     78  C   UNL A   1      34.531  34.338  29.657  1.00  0.00     0.060 A 
BRANCH  78  79
ATOM     79  S   UNL A   1      33.123  35.212  28.942  1.00  0.00     0.124 S 
ATOM     80  O   UNL A   1      32.306  35.466  30.122  1.00  0.00    -0.237 OA
ATOM     81  O   UNL A   1      33.758  36.380  28.340  1.00  0.00    -0.237 OA
ATOM     82  O   UNL A   1      32.579  34.247  27.991  1.00  0.00    -0.744 OA
ENDBRANCH  78  79
ENDBRANCH  46  71
BRANCH  58  83
ATOM     83  C   UNL A   1      39.916  34.135  36.943  1.00  0.00     0.058 A 
ATOM     84  C   UNL A   1      39.202  33.835  38.114  1.00  0.00     0.135 A 
ATOM     85  C   UNL A   1      40.462  35.422  36.819  1.00  0.00     0.135 A 
ATOM     86  F   UNL A   1      38.650  32.622  38.276  1.00  0.00    -0.206 F 
ATOM     87  C   UNL A   1      39.013  34.785  39.113  1.00  0.00     0.059 A 
ATOM     88  C   UNL A   1      40.306  36.380  37.817  1.00  0.00     0.059 A 
ATOM     89  F   UNL A   1      41.159  35.759  35.722  1.00  0.00    -0.206 F 
ATOM     90  C   UNL A   1      39.568  36.056  38.954  1.00  0.00     0.060 A 
BRANCH  90  91
ATOM     91  S   UNL A   1      39.332  37.276  40.264  1.00  0.00     0.124 S 
ATOM     92  O   UNL A   1      38.629  38.338  39.552  1.00  0.00    -0.237 OA
ATOM     93  O   UNL A   1      38.540  36.536  41.243  1.00  0.00    -0.237 OA
ATOM     94  O   UNL A   1      40.695  37.593  40.681  1.00  0.00    -0.744 OA
ENDBRANCH  90  91
ENDBRANCH  58  83
ENDBRANCH  32  33
ENDBRANCH  25  27
ENDBRANCH  24  25
ENDBRANCH  23  24
ENDBRANCH   1  23
TORSDOF 19
ENDMDL
MODEL 2
REMARK VINA RESULT:     -10.4      0.845      8.283
REMARK SMILES CN(C)S(=O)(=O)c1ccc(N(CC(=O)OCCOC(=O)c2ccc(-c3c4nc(c(-c5c(F)cc(S(=O)(=O)[O-])cc5F)c5ccc([nH]5)c(-c5c(F)cc(S(=O)(=O)[O-])cc5F)c5nc(c(-c6c(F)cc(S(=O)(=O)[O-])cc6F)c6ccc3[nH]6)C=C5)C=C4)cc2)C(C)(C)C)cc1
REMARK SMILES IDX 16 1 15 2 13 3 14 4 12 5 11 6 10 7 7 8 8 9 92 10 9 11 91 12
REMARK SMILES IDX 4 13 5 14 6 15 2 16 1 17 3 18 87 19 88 20 89 21 90 22 17 23
REMARK SMILES IDX 18 24 19 25 20 26 21 27 22 28 86 29 23 30 85 31 24 32 25 33
REMARK SMILES IDX 26 34 79 35 27 36 84 37 78 38 80 39 28 40 83 41 77 42 76 43
REMARK SMILES IDX 29 45 63 46 42 47 62 48 43 49 46 50 61 51 81 52 44 53 45 54
REMARK SMILES IDX 60 56 82 57 47 58 30 59 31 60 40 61 32 62 33 63 39 64 41 65
REMARK SMILES IDX 34 66 35 67 36 68 37 69 38 70 64 71 65 72 74 73 66 74 67 75
REMARK SMILES IDX 73 76 75 77 68 78 69 79 70 80 71 81 72 82 48 83 49 84 58 85
REMARK SMILES IDX 50 86 51 87 57 88 59 89 52 90 53 91 54 92 55 93 56 94
REMARK H PARENT 80 44 46 55
REMARK Flexibility Score: inf
ROOT
ATOM      1  C   UNL A   1      38.111  23.472  26.171  1.00  0.00     0.274 C 
ENDROOT
BRANCH   1   2
ATOM      2  O   UNL A   1      37.398  22.894  25.059  1.00  0.00    -0.461 OA
BRANCH   2   3
ATOM      3  C   UNL A   1      36.207  22.305  25.361  1.00  0.00     0.325 C 
ATOM      4  O   UNL A   1      35.845  22.021  26.501  1.00  0.00    -0.250 OA
BRANCH   3   5
ATOM      5  C   UNL A   1      35.267  22.182  24.165  1.00  0.00     0.239 C 
BRANCH   5   6
ATOM      6  N   UNL A   1      33.923  22.801  24.313  1.00  0.00    -0.356 N 
BRANCH   6   7
ATOM      7  C   UNL A   1      33.857  24.206  24.241  1.00  0.00     0.038 A 
ATOM      8  C   UNL A   1      33.384  27.022  24.145  1.00  0.00     0.082 A 
ATOM      9  C   UNL A   1      33.414  26.285  22.969  1.00  0.00     0.024 A 
ATOM     10  C   UNL A   1      33.677  26.405  25.350  1.00  0.00     0.024 A 
ATOM     11  C   UNL A   1      33.666  24.903  23.025  1.00  0.00     0.027 A 
ATOM     12  C   UNL A   1      33.925  25.029  25.378  1.00  0.00     0.027 A 
BRANCH   8  13
ATOM     13  S   UNL A   1      32.935  28.731  24.133  1.00  0.00     0.242 S 
ATOM     14  O   UNL A   1      33.440  29.328  22.913  1.00  0.00    -0.207 OA
ATOM     15  O   UNL A   1      33.279  29.281  25.428  1.00  0.00    -0.207 OA
BRANCH  13  16
ATOM     16  N   UNL A   1      31.227  28.721  23.999  1.00  0.00    -0.204 NA
ATOM     17  C   UNL A   1      30.792  28.946  22.599  1.00  0.00     0.124 C 
ATOM     18  C   UNL A   1      30.562  27.536  24.584  1.00  0.00     0.124 C 
ENDBRANCH  13  16
ENDBRANCH   8  13
ENDBRANCH   6   7
BRANCH   6  19
ATOM     19  C   UNL A   1      32.698  21.904  24.275  1.00  0.00     0.032 C 
ATOM     20  C   UNL A   1      31.539  22.545  25.067  1.00  0.00     0.034 C 
ATOM     21  C   UNL A   1      32.322  21.517  22.826  1.00  0.00     0.034 C 
ATOM     22  C   UNL A   1      32.905  20.525  24.958  1.00  0.00     0.034 C 
ENDBRANCH   6  19
ENDBRANCH   5   6
ENDBRANCH   3   5
ENDBRANCH   2   3
ENDBRANCH   1   2
BRANCH   1  23
ATOM     23  C   UNL A   1      39.574  23.039  26.123  1.00  0.00     0.275 C 
BRANCH  23  24
ATOM     24  O   UNL A   1      40.357  23.885  26.987  1.00  0.00    -0.458 OA
BRANCH  24  25
ATOM     25  C   UNL A   1      40.558  25.140  26.522  1.00  0.00     0.338 C 
ATOM     26  O   UNL A   1      40.845  25.459  25.378  1.00  0.00    -0.246 OA
BRANCH  25  27
ATOM     27  C   UNL A   1      40.364  26.146  27.586  1.00  0.00     0.060 A 
ATOM     28  C   UNL A   1      41.199  27.261  27.701  1.00  0.00     0.016 A 
ATOM     29  C   UNL A   1      39.430  25.871  28.587  1.00  0.00     0.016 A 
ATOM     30  C   UNL A   1      41.165  28.035  28.865  1.00  0.00     0.010 A 
ATOM     31  C   UNL A   1      39.321  26.716  29.692  1.00  0.00     0.010 A 
ATOM     32  C   UNL A   1      40.205  27.792  29.863  1.00  0.00    -0.014 A 
BRANCH  32  33
ATOM     33  C   UNL A   1      40.069  28.686  31.051  1.00  0.00     0.031 A 
ATOM     34  C   UNL A   1      39.098  29.842  31.056  1.00  0.00     0.074 A 
ATOM     35  C   UNL A   1      40.882  28.503  32.111  1.00  0.00     0.049 A 
ATOM     36  N   UNL A   1      38.993  30.831  31.908  1.00  0.00    -0.248 NA
ATOM     37  C   UNL A   1      38.128  29.903  29.950  1.00  0.00     0.031 C 
ATOM     38  C   UNL A   1      41.871  27.431  32.245  1.00  0.00     0.029 A 
ATOM     39  N   UNL A   1      41.022  29.225  33.271  1.00  0.00    -0.354 N 
ATOM     40  C   UNL A   1      37.976  31.651  31.428  1.00  0.00     0.074 A 
ATOM     41  C   UNL A   1      37.502  31.047  30.199  1.00  0.00     0.031 C 
ATOM     42  C   UNL A   1      42.501  27.555  33.421  1.00  0.00     0.029 A 
ATOM     43  C   UNL A   1      42.025  28.760  34.088  1.00  0.00     0.049 A 
ATOM     44  H   UNL A   1      40.459  30.002  33.496  1.00  0.00     0.167 HD
ATOM     45  C   UNL A   1      37.486  32.798  31.961  1.00  0.00     0.037 A 
ATOM     46  C   UNL A   1      42.547  29.262  35.223  1.00  0.00     0.037 A 
ATOM     47  C   UNL A   1      37.943  33.382  33.199  1.00  0.00     0.049 A 
ATOM     48  C   UNL A   1      42.006  30.544  35.781  1.00  0.00     0.074 A 
ATOM     49  C   UNL A   1      37.486  34.527  33.831  1.00  0.00     0.029 A 
ATOM     50  N   UNL A   1      38.956  32.869  33.997  1.00  0.00    -0.354 N 
ATOM     51  N   UNL A   1      41.058  31.312  35.304  1.00  0.00    -0.248 NA
ATOM     52  C   UNL A   1      42.613  31.032  37.026  1.00  0.00     0.031 C 
ATOM     53  C   UNL A   1      38.247  34.726  34.989  1.00  0.00     0.029 A 
ATOM     54  C   UNL A   1      39.148  33.681  35.103  1.00  0.00     0.049 A 
ATOM     55  H   UNL A   1      39.464  32.049  33.803  1.00  0.00     0.167 HD
ATOM     56  C   UNL A   1      40.944  32.370  36.198  1.00  0.00     0.074 A 
ATOM     57  C   UNL A   1      41.909  32.134  37.251  1.00  0.00     0.031 C 
ATOM     58  C   UNL A   1      40.115  33.442  36.146  1.00  0.00     0.037 A 
BRANCH  45  59
ATOM     59  C   UNL A   1      36.404  33.522  31.202  1.00  0.00     0.058 A 
ATOM     60  C   UNL A   1      36.666  34.197  29.999  1.00  0.00     0.135 A 
ATOM     61  C   UNL A   1      35.074  33.489  31.655  1.00  0.00     0.135 A 
ATOM     62  F   UNL A   1      37.919  34.268  29.523  1.00  0.00    -0.206 F 
ATOM     63  C   UNL A   1      35.654  34.834  29.286  1.00  0.00     0.059 A 
ATOM     64  C   UNL A   1      34.042  34.099  30.946  1.00  0.00     0.059 A 
ATOM     65  F   UNL A   1      34.765  32.852  32.795  1.00  0.00    -0.206 F 
ATOM     66  C   UNL A   1      34.345  34.782  29.770  1.00  0.00     0.060 A 
BRANCH  66  67
ATOM     67  S   UNL A   1      33.043  35.616  28.837  1.00  0.00     0.124 S 
ATOM     68  O   UNL A   1      32.528  34.524  28.016  1.00  0.00    -0.237 OA
ATOM     69  O   UNL A   1      32.153  36.090  29.892  1.00  0.00    -0.237 OA
ATOM     70  O   UNL A   1      33.760  36.660  28.111  1.00  0.00    -0.744 OA
ENDBRANCH  66  67
ENDBRANCH  45  59
BRANCH  46  71
ATOM     71  C   UNL A   1      43.673  28.551  35.881  1.00  0.00     0.058 A 
ATOM     72  C   UNL A   1      43.438  27.459  36.728  1.00  0.00     0.135 A 
ATOM     73  C   UNL A   1      45.006  28.914  35.631  1.00  0.00     0.135 A 
ATOM     74  F   UNL A   1      42.180  27.080  37.002  1.00  0.00    -0.206 F 
ATOM     75  C   UNL A   1      44.486  26.750  37.307  1.00  0.00     0.059 A 
ATOM     76  C   UNL A   1      46.070  28.205  36.174  1.00  0.00     0.059 A 
ATOM     77  F   UNL A   1      45.280  29.940  34.811  1.00  0.00    -0.206 F 
ATOM     78  C   UNL A   1      45.799  27.128  37.018  1.00  0.00     0.060 A 
BRANCH  78  79
ATOM     79  S   UNL A   1      47.154  26.155  37.709  1.00  0.00     0.124 S 
ATOM     80  O   UNL A   1      46.461  25.361  38.716  1.00  0.00    -0.237 OA
ATOM     81  O   UNL A   1      47.638  25.426  36.540  1.00  0.00    -0.237 OA
ATOM     82  O   UNL A   1      48.067  27.172  38.223  1.00  0.00    -0.744 OA
ENDBRANCH  78  79
ENDBRANCH  46  71
BRANCH  58  83
ATOM     83  C   UNL A   1      40.198  34.426  37.278  1.00  0.00     0.058 A 
ATOM     84  C   UNL A   1      41.082  35.516  37.243  1.00  0.00     0.135 A 
ATOM     85  C   UNL A   1      39.369  34.289  38.403  1.00  0.00     0.135 A 
ATOM     86  F   UNL A   1      41.903  35.686  36.195  1.00  0.00    -0.206 F 
ATOM     87  C   UNL A   1      41.161  36.422  38.297  1.00  0.00     0.059 A 
ATOM     88  C   UNL A   1      39.414  35.197  39.457  1.00  0.00     0.059 A 
ATOM     89  F   UNL A   1      38.501  33.268  38.483  1.00  0.00    -0.206 F 
ATOM     90  C   UNL A   1      40.324  36.252  39.402  1.00  0.00     0.060 A 
BRANCH  90  91
ATOM     91  S   UNL A   1      40.421  37.442  40.755  1.00  0.00     0.124 S 
ATOM     92  O   UNL A   1      41.648  37.023  41.426  1.00  0.00    -0.237 OA
ATOM     93  O   UNL A   1      40.488  38.717  40.048  1.00  0.00    -0.237 OA
ATOM     94  O   UNL A   1      39.187  37.210  41.500  1.00  0.00    -0.744 OA
ENDBRANCH  90  91
ENDBRANCH  58  83
ENDBRANCH  32  33
ENDBRANCH  25  27
ENDBRANCH  24  25
ENDBRANCH  23  24
ENDBRANCH   1  23
TORSDOF 19
ENDMDL
MODEL 3
REMARK VINA RESULT:     -10.3      1.896      8.860
REMARK SMILES CN(C)S(=O)(=O)c1ccc(N(CC(=O)OCCOC(=O)c2ccc(-c3c4nc(c(-c5c(F)cc(S(=O)(=O)[O-])cc5F)c5ccc([nH]5)c(-c5c(F)cc(S(=O)(=O)[O-])cc5F)c5nc(c(-c6c(F)cc(S(=O)(=O)[O-])cc6F)c6ccc3[nH]6)C=C5)C=C4)cc2)C(C)(C)C)cc1
REMARK SMILES IDX 16 1 15 2 13 3 14 4 12 5 11 6 10 7 7 8 8 9 92 10 9 11 91 12
REMARK SMILES IDX 4 13 5 14 6 15 2 16 1 17 3 18 87 19 88 20 89 21 90 22 17 23
REMARK SMILES IDX 18 24 19 25 20 26 21 27 22 28 86 29 23 30 85 31 24 32 25 33
REMARK SMILES IDX 26 34 79 35 27 36 84 37 78 38 80 39 28 40 83 41 77 42 76 43
REMARK SMILES IDX 29 45 63 46 42 47 62 48 43 49 46 50 61 51 81 52 44 53 45 54
REMARK SMILES IDX 60 56 82 57 47 58 30 59 31 60 40 61 32 62 33 63 39 64 41 65
REMARK SMILES IDX 34 66 35 67 36 68 37 69 38 70 64 71 65 72 74 73 66 74 67 75
REMARK SMILES IDX 73 76 75 77 68 78 69 79 70 80 71 81 72 82 48 83 49 84 58 85
REMARK SMILES IDX 50 86 51 87 57 88 59 89 52 90 53 91 54 92 55 93 56 94
REMARK H PARENT 80 44 46 55
REMARK Flexibility Score: inf
ROOT
ATOM      1  C   UNL A   1      38.456  22.357  25.771  1.00  0.00     0.274 C 
ENDROOT
BRANCH   1   2
ATOM      2  O   UNL A   1      37.231  23.037  26.115  1.00  0.00    -0.461 OA
BRANCH   2   3
ATOM      3  C   UNL A   1      36.485  23.479  25.065  1.00  0.00     0.325 C 
ATOM      4  O   UNL A   1      36.729  23.226  23.887  1.00  0.00    -0.250 OA
BRANCH   3   5
ATOM      5  C   UNL A   1      35.198  24.183  25.486  1.00  0.00     0.239 C 
BRANCH   5   6
ATOM      6  N   UNL A   1      33.994  23.913  24.656  1.00  0.00    -0.356 N 
BRANCH   6   7
ATOM      7  C   UNL A   1      33.505  22.592  24.654  1.00  0.00     0.038 A 
ATOM      8  C   UNL A   1      32.837  19.814  24.590  1.00  0.00     0.082 A 
ATOM      9  C   UNL A   1      32.717  20.582  23.439  1.00  0.00     0.024 A 
ATOM     10  C   UNL A   1      33.190  20.419  25.785  1.00  0.00     0.024 A 
ATOM     11  C   UNL A   1      33.030  21.952  23.486  1.00  0.00     0.027 A 
ATOM     12  C   UNL A   1      33.495  21.783  25.804  1.00  0.00     0.027 A 
BRANCH   8  13
ATOM     13  S   UNL A   1      32.588  18.066  24.544  1.00  0.00     0.242 S 
ATOM     14  O   UNL A   1      31.833  17.742  23.349  1.00  0.00    -0.207 OA
ATOM     15  O   UNL A   1      32.122  17.657  25.852  1.00  0.00    -0.207 OA
BRANCH  13  16
ATOM     16  N   UNL A   1      34.158  17.418  24.316  1.00  0.00    -0.204 NA
ATOM     17  C   UNL A   1      34.481  16.403  25.347  1.00  0.00     0.124 C 
ATOM     18  C   UNL A   1      34.431  16.907  22.955  1.00  0.00     0.124 C 
ENDBRANCH  13  16
ENDBRANCH   8  13
ENDBRANCH   6   7
BRANCH   6  19
ATOM     19  C   UNL A   1      33.225  25.089  24.080  1.00  0.00     0.032 C 
ATOM     20  C   UNL A   1      33.600  25.300  22.597  1.00  0.00     0.034 C 
ATOM     21  C   UNL A   1      31.704  24.948  24.323  1.00  0.00     0.034 C 
ATOM     22  C   UNL A   1      33.558  26.449  24.750  1.00  0.00     0.034 C 
ENDBRANCH   6  19
ENDBRANCH   5   6
ENDBRANCH   3   5
ENDBRANCH   2   3
ENDBRANCH   1   2
BRANCH   1  23
ATOM     23  C   UNL A   1      39.635  23.049  26.449  1.00  0.00     0.275 C 
BRANCH  23  24
ATOM     24  O   UNL A   1      39.478  24.478  26.352  1.00  0.00    -0.458 OA
BRANCH  24  25
ATOM     25  C   UNL A   1      40.613  25.188  26.555  1.00  0.00     0.338 C 
ATOM     26  O   UNL A   1      41.584  25.243  25.816  1.00  0.00    -0.246 OA
BRANCH  25  27
ATOM     27  C   UNL A   1      40.550  25.951  27.819  1.00  0.00     0.060 A 
ATOM     28  C   UNL A   1      39.557  25.710  28.771  1.00  0.00     0.016 A 
ATOM     29  C   UNL A   1      41.407  27.043  27.969  1.00  0.00     0.016 A 
ATOM     30  C   UNL A   1      39.359  26.622  29.813  1.00  0.00     0.010 A 
ATOM     31  C   UNL A   1      41.281  27.884  29.076  1.00  0.00     0.010 A 
ATOM     32  C   UNL A   1      40.237  27.704  29.998  1.00  0.00    -0.014 A 
BRANCH  32  33
ATOM     33  C   UNL A   1      40.122  28.613  31.176  1.00  0.00     0.031 A 
ATOM     34  C   UNL A   1      39.157  29.775  31.179  1.00  0.00     0.074 A 
ATOM     35  C   UNL A   1      40.949  28.441  32.227  1.00  0.00     0.049 A 
ATOM     36  N   UNL A   1      39.068  30.775  32.020  1.00  0.00    -0.248 NA
ATOM     37  C   UNL A   1      38.171  29.826  30.087  1.00  0.00     0.031 C 
ATOM     38  C   UNL A   1      41.935  27.366  32.361  1.00  0.00     0.029 A 
ATOM     39  N   UNL A   1      41.109  29.177  33.375  1.00  0.00    -0.354 N 
ATOM     40  C   UNL A   1      38.049  31.594  31.544  1.00  0.00     0.074 A 
ATOM     41  C   UNL A   1      37.555  30.977  30.329  1.00  0.00     0.031 C 
ATOM     42  C   UNL A   1      42.582  27.502  33.525  1.00  0.00     0.029 A 
ATOM     43  C   UNL A   1      42.121  28.717  34.184  1.00  0.00     0.049 A 
ATOM     44  H   UNL A   1      40.553  29.959  33.598  1.00  0.00     0.167 HD
ATOM     45  C   UNL A   1      37.572  32.750  32.069  1.00  0.00     0.037 A 
ATOM     46  C   UNL A   1      42.661  29.231  35.305  1.00  0.00     0.037 A 
ATOM     47  C   UNL A   1      38.049  33.348  33.292  1.00  0.00     0.049 A 
ATOM     48  C   UNL A   1      42.135  30.523  35.854  1.00  0.00     0.074 A 
ATOM     49  C   UNL A   1      37.606  34.503  33.916  1.00  0.00     0.029 A 
ATOM     50  N   UNL A   1      39.071  32.840  34.082  1.00  0.00    -0.354 N 
ATOM     51  N   UNL A   1      41.183  31.290  35.381  1.00  0.00    -0.248 NA
ATOM     52  C   UNL A   1      42.761  31.024  37.084  1.00  0.00     0.031 C 
ATOM     53  C   UNL A   1      38.385  34.713  35.060  1.00  0.00     0.029 A 
ATOM     54  C   UNL A   1      39.282  33.665  35.175  1.00  0.00     0.049 A 
ATOM     55  H   UNL A   1      39.572  32.015  33.892  1.00  0.00     0.167 HD
ATOM     56  C   UNL A   1      41.087  32.360  36.262  1.00  0.00     0.074 A 
ATOM     57  C   UNL A   1      42.066  32.132  37.305  1.00  0.00     0.031 C 
ATOM     58  C   UNL A   1      40.262  33.435  36.208  1.00  0.00     0.037 A 
BRANCH  45  59
ATOM     59  C   UNL A   1      36.483  33.469  31.315  1.00  0.00     0.058 A 
ATOM     60  C   UNL A   1      36.724  34.100  30.084  1.00  0.00     0.135 A 
ATOM     61  C   UNL A   1      35.166  33.477  31.805  1.00  0.00     0.135 A 
ATOM     62  F   UNL A   1      37.964  34.131  29.573  1.00  0.00    -0.206 F 
ATOM     63  C   UNL A   1      35.705  34.733  29.378  1.00  0.00     0.059 A 
ATOM     64  C   UNL A   1      34.126  34.083  31.104  1.00  0.00     0.059 A 
ATOM     65  F   UNL A   1      34.876  32.884  32.974  1.00  0.00    -0.206 F 
ATOM     66  C   UNL A   1      34.409  34.722  29.898  1.00  0.00     0.060 A 
BRANCH  66  67
ATOM     67  S   UNL A   1      33.097  35.550  28.973  1.00  0.00     0.124 S 
ATOM     68  O   UNL A   1      33.853  36.560  28.238  1.00  0.00    -0.237 OA
ATOM     69  O   UNL A   1      32.543  34.464  28.171  1.00  0.00    -0.237 OA
ATOM     70  O   UNL A   1      32.216  36.065  30.018  1.00  0.00    -0.744 OA
ENDBRANCH  66  67
ENDBRANCH  45  59
BRANCH  46  71
ATOM     71  C   UNL A   1      43.793  28.523  35.957  1.00  0.00     0.058 A 
ATOM     72  C   UNL A   1      43.567  27.420  36.793  1.00  0.00     0.135 A 
ATOM     73  C   UNL A   1      45.123  28.900  35.710  1.00  0.00     0.135 A 
ATOM     74  F   UNL A   1      42.312  27.029  37.062  1.00  0.00    -0.206 F 
ATOM     75  C   UNL A   1      44.620  26.715  37.365  1.00  0.00     0.059 A 
ATOM     76  C   UNL A   1      46.193  28.194  36.247  1.00  0.00     0.059 A 
ATOM     77  F   UNL A   1      45.389  29.936  34.900  1.00  0.00    -0.206 F 
ATOM     78  C   UNL A   1      45.931  27.106  37.080  1.00  0.00     0.060 A 
BRANCH  78  79
ATOM     79  S   UNL A   1      47.294  26.139  37.762  1.00  0.00     0.124 S 
ATOM     80  O   UNL A   1      47.267  24.956  36.911  1.00  0.00    -0.237 OA
ATOM     81  O   UNL A   1      48.431  27.035  37.576  1.00  0.00    -0.237 OA
ATOM     82  O   UNL A   1      46.893  25.930  39.150  1.00  0.00    -0.744 OA
ENDBRANCH  78  79
ENDBRANCH  46  71
BRANCH  58  83
ATOM     83  C   UNL A   1      40.367  34.433  37.325  1.00  0.00     0.058 A 
ATOM     84  C   UNL A   1      41.285  35.494  37.283  1.00  0.00     0.135 A 
ATOM     85  C   UNL A   1      39.523  34.340  38.444  1.00  0.00     0.135 A 
ATOM     86  F   UNL A   1      42.121  35.622  36.240  1.00  0.00    -0.206 F 
ATOM     87  C   UNL A   1      41.382  36.413  38.324  1.00  0.00     0.059 A 
ATOM     88  C   UNL A   1      39.587  35.261  39.485  1.00  0.00     0.059 A 
ATOM     89  F   UNL A   1      38.623  33.348  38.531  1.00  0.00    -0.206 F 
ATOM     90  C   UNL A   1      40.530  36.286  39.422  1.00  0.00     0.060 A 
BRANCH  90  91
ATOM     91  S   UNL A   1      40.652  37.493  40.759  1.00  0.00     0.124 S 
ATOM     92  O   UNL A   1      41.660  36.878  41.618  1.00  0.00    -0.237 OA
ATOM     93  O   UNL A   1      41.073  38.701  40.055  1.00  0.00    -0.237 OA
ATOM     94  O   UNL A   1      39.299  37.533  41.305  1.00  0.00    -0.744 OA
ENDBRANCH  90  91
ENDBRANCH  58  83
ENDBRANCH  32  33
ENDBRANCH  25  27
ENDBRANCH  24  25
ENDBRANCH  23  24
ENDBRANCH   1  23
TORSDOF 19
ENDMDL
