MODEL 1
REMARK VINA RESULT:     -15.1      0.000      0.000
REMARK SMILES Cc1ccc(NC(=O)[C@H]2CC(Cl)=CC[C@@H]2C(=O)OCCOC(=O)c2ccc(-c3c4nc(c(-c5c(F)cc(S(=O)(=O)[O-])cc5F)c5ccc([nH]5)c(-c5c(F)cc(S(=O)(=O)[O-])cc5F)c5nc(c(-c6c(F)cc(S(=O)(=O)[O-])cc6F)c6ccc3[nH]6)C=C5)C=C4)cc2)cc1[N+](=O)[O-]
REMARK SMILES IDX 19 1 18 2 16 3 17 4 15 5 9 6 10 7 11 8 14 9 12 10 13 11 7 12
REMARK SMILES IDX 6 13 8 15 5 16 1 17 2 18 3 19 91 20 4 21 90 22 92 23 93 24
REMARK SMILES IDX 94 25 20 26 21 27 22 28 23 29 24 30 25 31 89 32 26 33 88 34
REMARK SMILES IDX 27 35 28 36 29 37 82 38 30 39 87 40 81 41 83 42 31 43 86 44
REMARK SMILES IDX 80 45 79 46 32 48 66 49 45 50 65 51 46 52 49 53 64 54 84 55
REMARK SMILES IDX 47 56 48 57 63 59 85 60 50 61 33 62 34 63 43 64 35 65 36 66
REMARK SMILES IDX 42 67 44 68 37 69 38 70 39 71 40 72 41 73 67 74 68 75 77 76
REMARK SMILES IDX 69 77 70 78 76 79 78 80 71 81 72 82 73 83 74 84 75 85 51 86
REMARK SMILES IDX 52 87 61 88 53 89 54 90 60 91 62 92 55 93 56 94 57 95 58 96
REMARK SMILES IDX 59 97
REMARK H PARENT 6 14 83 47 49 58
REMARK Flexibility Score: inf
ROOT
ATOM      1  C   UNL A   1      32.251  29.673  27.384  1.00  0.00     0.274 C 
ENDROOT
BRANCH   1   2
ATOM      2  O   UNL A   1      32.478  28.104  26.535  1.00  0.00    -0.462 OA
BRANCH   2   3
ATOM      3  C   UNL A   1      32.942  27.239  25.581  1.00  0.00     0.310 C 
ATOM      4  O   UNL A   1      34.015  26.676  25.848  1.00  0.00    -0.252 OA
BRANCH   3   5
ATOM      5  C   UNL A   1      32.375  26.860  24.143  1.00  0.00     0.116 C 
ATOM      6  C   UNL A   1      31.931  25.457  23.666  1.00  0.00     0.098 C 
ATOM      7  C   UNL A   1      31.467  25.373  22.203  1.00  0.00     0.062 C 
ATOM      8  C   UNL A   1      32.496  25.947  21.292  1.00  0.00     0.015 C 
ATOM      9  C   UNL A   1      33.076  27.672  22.997  1.00  0.00     0.044 C 
ATOM     10  Cl  UNL A   1      32.703  25.186  19.761  1.00  0.00    -0.089 Cl
ATOM     11  C   UNL A   1      33.231  27.002  21.654  1.00  0.00    -0.010 C 
BRANCH   6  12
ATOM     12  C   UNL A   1      30.815  25.051  24.572  1.00  0.00     0.228 C 
ATOM     13  N   UNL A   1      30.988  23.920  25.293  1.00  0.00    -0.326 N 
ATOM     14  H   UNL A   1      30.255  23.696  25.910  1.00  0.00     0.169 HD
ATOM     15  O   UNL A   1      29.796  25.720  24.736  1.00  0.00    -0.274 OA
BRANCH  13  16
ATOM     16  C   UNL A   1      32.053  23.030  25.286  1.00  0.00     0.048 A 
ATOM     17  C   UNL A   1      35.599  19.387  24.907  1.00  0.00     0.052 C 
ATOM     18  C   UNL A   1      34.401  20.258  25.232  1.00  0.00     0.027 A 
ATOM     19  C   UNL A   1      34.828  21.750  26.040  1.00  0.00     0.012 A 
ATOM     20  C   UNL A   1      32.864  20.159  24.478  1.00  0.00     0.274 A 
ATOM     21  C   UNL A   1      33.672  23.207  26.118  1.00  0.00     0.027 A 
ATOM     22  C   UNL A   1      31.712  21.492  24.462  1.00  0.00     0.112 A 
BRANCH  20  23
ATOM     23  N   UNL A   1      32.406  18.851  24.028  1.00  0.00     0.063 N 
ATOM     24  O   UNL A   1      32.054  18.058  24.908  1.00  0.00    -0.258 OA
ATOM     25  O   UNL A   1      32.423  18.613  22.817  1.00  0.00    -0.258 OA
ENDBRANCH  20  23
ENDBRANCH  13  16
ENDBRANCH   6  12
ENDBRANCH   3   5
ENDBRANCH   2   3
ENDBRANCH   1   2
BRANCH   1  26
ATOM     26  C   UNL A   1      33.851  31.172  27.615  1.00  0.00     0.275 C 
BRANCH  26  27
ATOM     27  O   UNL A   1      35.524  30.729  28.224  1.00  0.00    -0.458 OA
BRANCH  27  28
ATOM     28  C   UNL A   1      36.744  31.319  28.794  1.00  0.00     0.338 C 
ATOM     29  O   UNL A   1      36.847  32.542  28.747  1.00  0.00    -0.246 OA
BRANCH  28  30
ATOM     30  C   UNL A   1      37.789  30.491  29.681  1.00  0.00     0.060 A 
ATOM     31  C   UNL A   1      37.653  29.142  30.078  1.00  0.00     0.016 A 
ATOM     32  C   UNL A   1      39.067  30.941  29.785  1.00  0.00     0.016 A 
ATOM     33  C   UNL A   1      38.764  28.208  30.038  1.00  0.00     0.010 A 
ATOM     34  C   UNL A   1      40.049  30.014  29.423  1.00  0.00     0.010 A 
ATOM     35  C   UNL A   1      39.976  28.618  29.506  1.00  0.00    -0.014 A 
BRANCH  35  36
ATOM     36  C   UNL A   1      41.255  27.880  29.165  1.00  0.00     0.031 A 
ATOM     37  C   UNL A   1      41.406  26.485  28.599  1.00  0.00     0.074 A 
ATOM     38  C   UNL A   1      42.387  28.587  29.457  1.00  0.00     0.049 A 
ATOM     39  N   UNL A   1      42.046  25.501  29.158  1.00  0.00    -0.248 NA
ATOM     40  C   UNL A   1      40.936  26.108  27.259  1.00  0.00     0.031 C 
ATOM     41  C   UNL A   1      43.802  28.272  29.411  1.00  0.00     0.029 A 
ATOM     42  N   UNL A   1      42.409  29.834  30.119  1.00  0.00    -0.354 N 
ATOM     43  C   UNL A   1      42.265  24.522  28.176  1.00  0.00     0.074 A 
ATOM     44  C   UNL A   1      41.366  24.844  27.105  1.00  0.00     0.031 C 
ATOM     45  C   UNL A   1      44.409  29.016  30.374  1.00  0.00     0.029 A 
ATOM     46  C   UNL A   1      43.372  29.765  31.097  1.00  0.00     0.049 A 
ATOM     47  H   UNL A   1      41.839  30.611  29.919  1.00  0.00     0.167 HD
ATOM     48  C   UNL A   1      43.394  23.741  28.162  1.00  0.00     0.037 A 
ATOM     49  C   UNL A   1      42.911  29.656  32.379  1.00  0.00     0.037 A 
ATOM     50  C   UNL A   1      44.332  24.283  29.127  1.00  0.00     0.049 A 
ATOM     51  C   UNL A   1      43.315  28.338  32.970  1.00  0.00     0.074 A 
ATOM     52  C   UNL A   1      45.391  25.162  28.991  1.00  0.00     0.029 A 
ATOM     53  N   UNL A   1      44.040  24.220  30.464  1.00  0.00    -0.354 N 
ATOM     54  N   UNL A   1      43.763  27.343  32.259  1.00  0.00    -0.248 NA
ATOM     55  C   UNL A   1      43.209  28.017  34.387  1.00  0.00     0.031 C 
ATOM     56  C   UNL A   1      45.719  25.646  30.284  1.00  0.00     0.029 A 
ATOM     57  C   UNL A   1      44.857  25.055  31.189  1.00  0.00     0.049 A 
ATOM     58  H   UNL A   1      43.335  23.652  30.854  1.00  0.00     0.167 HD
ATOM     59  C   UNL A   1      44.051  26.296  33.078  1.00  0.00     0.074 A 
ATOM     60  C   UNL A   1      43.635  26.743  34.395  1.00  0.00     0.031 C 
ATOM     61  C   UNL A   1      44.624  25.152  32.613  1.00  0.00     0.037 A 
BRANCH  48  62
ATOM     62  C   UNL A   1      43.858  22.718  27.114  1.00  0.00     0.058 A 
ATOM     63  C   UNL A   1      43.096  21.545  26.867  1.00  0.00     0.135 A 
ATOM     64  C   UNL A   1      44.978  22.859  26.267  1.00  0.00     0.135 A 
ATOM     65  F   UNL A   1      41.955  21.291  27.520  1.00  0.00    -0.206 F 
ATOM     66  C   UNL A   1      43.447  20.565  25.936  1.00  0.00     0.059 A 
ATOM     67  C   UNL A   1      45.358  21.878  25.323  1.00  0.00     0.059 A 
ATOM     68  F   UNL A   1      45.729  23.971  26.305  1.00  0.00    -0.206 F 
ATOM     69  C   UNL A   1      44.591  20.726  25.175  1.00  0.00     0.060 A 
BRANCH  69  70
ATOM     70  S   UNL A   1      45.016  19.410  24.010  1.00  0.00     0.124 S 
ATOM     71  O   UNL A   1      44.283  18.271  24.555  1.00  0.00    -0.237 OA
ATOM     72  O   UNL A   1      44.511  19.936  22.746  1.00  0.00    -0.237 OA
ATOM     73  O   UNL A   1      46.469  19.317  24.111  1.00  0.00    -0.744 OA
ENDBRANCH  69  70
ENDBRANCH  48  62
BRANCH  49  74
ATOM     74  C   UNL A   1      41.609  30.378  32.694  1.00  0.00     0.058 A 
ATOM     75  C   UNL A   1      40.433  29.633  32.956  1.00  0.00     0.135 A 
ATOM     76  C   UNL A   1      41.527  31.755  32.971  1.00  0.00     0.135 A 
ATOM     77  F   UNL A   1      40.424  28.302  32.765  1.00  0.00    -0.206 F 
ATOM     78  C   UNL A   1      39.277  30.200  33.508  1.00  0.00     0.059 A 
ATOM     79  C   UNL A   1      40.375  32.349  33.518  1.00  0.00     0.059 A 
ATOM     80  F   UNL A   1      42.596  32.546  32.793  1.00  0.00    -0.206 F 
ATOM     81  C   UNL A   1      39.259  31.561  33.803  1.00  0.00     0.060 A 
BRANCH  81  82
ATOM     82  S   UNL A   1      37.875  32.213  34.797  1.00  0.00     0.124 S 
ATOM     83  O   UNL A   1      36.761  32.122  33.863  1.00  0.00    -0.237 OA
ATOM     84  O   UNL A   1      37.829  31.273  35.917  1.00  0.00    -0.237 OA
ATOM     85  O   UNL A   1      38.321  33.563  35.129  1.00  0.00    -0.744 OA
ENDBRANCH  81  82
ENDBRANCH  49  74
BRANCH  61  86
ATOM     86  C   UNL A   1      45.003  24.015  33.500  1.00  0.00     0.058 A 
ATOM     87  C   UNL A   1      46.289  23.910  34.044  1.00  0.00     0.135 A 
ATOM     88  C   UNL A   1      44.119  22.944  33.760  1.00  0.00     0.135 A 
ATOM     89  F   UNL A   1      47.243  24.804  33.742  1.00  0.00    -0.206 F 
ATOM     90  C   UNL A   1      46.637  22.878  34.903  1.00  0.00     0.059 A 
ATOM     91  C   UNL A   1      44.470  21.867  34.557  1.00  0.00     0.059 A 
ATOM     92  F   UNL A   1      42.870  22.913  33.279  1.00  0.00    -0.206 F 
ATOM     93  C   UNL A   1      45.714  21.868  35.163  1.00  0.00     0.060 A 
BRANCH  93  94
ATOM     94  S   UNL A   1      46.159  20.551  36.295  1.00  0.00     0.124 S 
ATOM     95  O   UNL A   1      47.608  20.477  36.133  1.00  0.00    -0.237 OA
ATOM     96  O   UNL A   1      45.691  21.096  37.566  1.00  0.00    -0.237 OA
ATOM     97  O   UNL A   1      45.416  19.400  35.790  1.00  0.00    -0.744 OA
ENDBRANCH  93  94
ENDBRANCH  61  86
ENDBRANCH  35  36
ENDBRANCH  28  30
ENDBRANCH  27  28
ENDBRANCH  26  27
ENDBRANCH   1  26
TORSDOF 17
ENDMDL
MODEL 2
REMARK VINA RESULT:     -15.1      4.718     11.096
REMARK SMILES Cc1ccc(NC(=O)[C@H]2CC(Cl)=CC[C@@H]2C(=O)OCCOC(=O)c2ccc(-c3c4nc(c(-c5c(F)cc(S(=O)(=O)[O-])cc5F)c5ccc([nH]5)c(-c5c(F)cc(S(=O)(=O)[O-])cc5F)c5nc(c(-c6c(F)cc(S(=O)(=O)[O-])cc6F)c6ccc3[nH]6)C=C5)C=C4)cc2)cc1[N+](=O)[O-]
REMARK SMILES IDX 19 1 18 2 16 3 17 4 15 5 9 6 10 7 11 8 14 9 12 10 13 11 7 12
REMARK SMILES IDX 6 13 8 15 5 16 1 17 2 18 3 19 91 20 4 21 90 22 92 23 93 24
REMARK SMILES IDX 94 25 20 26 21 27 22 28 23 29 24 30 25 31 89 32 26 33 88 34
REMARK SMILES IDX 27 35 28 36 29 37 82 38 30 39 87 40 81 41 83 42 31 43 86 44
REMARK SMILES IDX 80 45 79 46 32 48 66 49 45 50 65 51 46 52 49 53 64 54 84 55
REMARK SMILES IDX 47 56 48 57 63 59 85 60 50 61 33 62 34 63 43 64 35 65 36 66
REMARK SMILES IDX 42 67 44 68 37 69 38 70 39 71 40 72 41 73 67 74 68 75 77 76
REMARK SMILES IDX 69 77 70 78 76 79 78 80 71 81 72 82 73 83 74 84 75 85 51 86
REMARK SMILES IDX 52 87 61 88 53 89 54 90 60 91 62 92 55 93 56 94 57 95 58 96
REMARK SMILES IDX 59 97
REMARK H PARENT 6 14 83 47 49 58
REMARK Flexibility Score: inf
ROOT
ATOM      1  C   UNL A   1      35.585  23.758  25.789  1.00  0.00     0.274 C 
ENDROOT
BRANCH   1   2
ATOM      2  O   UNL A   1      34.758  24.500  24.375  1.00  0.00    -0.462 OA
BRANCH   2   3
ATOM      3  C   UNL A   1      33.805  25.213  23.700  1.00  0.00     0.310 C 
ATOM      4  O   UNL A   1      34.083  25.497  22.524  1.00  0.00    -0.252 OA
BRANCH   3   5
ATOM      5  C   UNL A   1      32.406  25.806  24.174  1.00  0.00     0.116 C 
ATOM      6  C   UNL A   1      31.261  25.030  24.866  1.00  0.00     0.098 C 
ATOM      7  C   UNL A   1      29.997  25.850  25.171  1.00  0.00     0.062 C 
ATOM      8  C   UNL A   1      29.511  26.542  23.945  1.00  0.00     0.015 C 
ATOM      9  C   UNL A   1      31.859  26.898  23.186  1.00  0.00     0.044 C 
ATOM     10  Cl  UNL A   1      27.806  26.682  23.745  1.00  0.00    -0.089 Cl
ATOM     11  C   UNL A   1      30.363  27.024  23.037  1.00  0.00    -0.010 C 
BRANCH   6  12
ATOM     12  C   UNL A   1      31.836  24.499  26.138  1.00  0.00     0.228 C 
ATOM     13  N   UNL A   1      32.245  23.210  26.137  1.00  0.00    -0.326 N 
ATOM     14  H   UNL A   1      32.655  22.897  26.975  1.00  0.00     0.169 HD
ATOM     15  O   UNL A   1      32.010  25.185  27.143  1.00  0.00    -0.274 OA
BRANCH  13  16
ATOM     16  C   UNL A   1      32.170  22.266  25.123  1.00  0.00     0.048 A 
ATOM     17  C   UNL A   1      32.088  18.378  21.826  1.00  0.00     0.052 C 
ATOM     18  C   UNL A   1      32.442  19.514  22.767  1.00  0.00     0.027 A 
ATOM     19  C   UNL A   1      31.846  21.069  22.230  1.00  0.00     0.012 A 
ATOM     20  C   UNL A   1      32.880  19.342  24.416  1.00  0.00     0.274 A 
ATOM     21  C   UNL A   1      31.690  22.526  23.377  1.00  0.00     0.027 A 
ATOM     22  C   UNL A   1      32.734  20.647  25.591  1.00  0.00     0.112 A 
BRANCH  20  23
ATOM     23  N   UNL A   1      33.605  18.142  24.810  1.00  0.00     0.063 N 
ATOM     24  O   UNL A   1      34.805  18.103  24.517  1.00  0.00    -0.258 OA
ATOM     25  O   UNL A   1      32.979  17.242  25.377  1.00  0.00    -0.258 OA
ENDBRANCH  20  23
ENDBRANCH  13  16
ENDBRANCH   6  12
ENDBRANCH   3   5
ENDBRANCH   2   3
ENDBRANCH   1   2
BRANCH   1  26
ATOM     26  C   UNL A   1      37.719  23.205  25.796  1.00  0.00     0.275 C 
BRANCH  26  27
ATOM     27  O   UNL A   1      38.945  24.058  26.863  1.00  0.00    -0.458 OA
BRANCH  27  28
ATOM     28  C   UNL A   1      40.390  24.275  27.022  1.00  0.00     0.338 C 
ATOM     29  O   UNL A   1      41.128  23.321  26.785  1.00  0.00    -0.246 OA
BRANCH  28  30
ATOM     30  C   UNL A   1      41.045  25.721  27.227  1.00  0.00     0.060 A 
ATOM     31  C   UNL A   1      40.769  26.872  26.455  1.00  0.00     0.016 A 
ATOM     32  C   UNL A   1      41.633  26.017  28.416  1.00  0.00     0.016 A 
ATOM     33  C   UNL A   1      40.588  28.182  27.056  1.00  0.00     0.010 A 
ATOM     34  C   UNL A   1      41.145  27.167  29.043  1.00  0.00     0.010 A 
ATOM     35  C   UNL A   1      40.590  28.300  28.436  1.00  0.00    -0.014 A 
BRANCH  35  36
ATOM     36  C   UNL A   1      40.273  29.449  29.374  1.00  0.00     0.031 A 
ATOM     37  C   UNL A   1      39.085  30.386  29.333  1.00  0.00     0.074 A 
ATOM     38  C   UNL A   1      41.224  29.648  30.333  1.00  0.00     0.049 A 
ATOM     39  N   UNL A   1      39.139  31.678  29.212  1.00  0.00    -0.248 NA
ATOM     40  C   UNL A   1      37.704  29.938  29.557  1.00  0.00     0.031 C 
ATOM     41  C   UNL A   1      41.414  30.657  31.358  1.00  0.00     0.029 A 
ATOM     42  N   UNL A   1      42.451  28.953  30.408  1.00  0.00    -0.354 N 
ATOM     43  C   UNL A   1      37.887  32.194  29.584  1.00  0.00     0.074 A 
ATOM     44  C   UNL A   1      36.988  31.076  29.559  1.00  0.00     0.031 C 
ATOM     45  C   UNL A   1      42.753  30.771  31.563  1.00  0.00     0.029 A 
ATOM     46  C   UNL A   1      43.440  29.883  30.616  1.00  0.00     0.049 A 
ATOM     47  H   UNL A   1      42.576  27.980  30.325  1.00  0.00     0.167 HD
ATOM     48  C   UNL A   1      37.754  33.406  30.216  1.00  0.00     0.037 A 
ATOM     49  C   UNL A   1      44.234  30.158  29.538  1.00  0.00     0.037 A 
ATOM     50  C   UNL A   1      39.075  33.858  30.613  1.00  0.00     0.049 A 
ATOM     51  C   UNL A   1      44.055  31.583  29.106  1.00  0.00     0.074 A 
ATOM     52  C   UNL A   1      39.773  33.737  31.800  1.00  0.00     0.029 A 
ATOM     53  N   UNL A   1      39.985  34.211  29.652  1.00  0.00    -0.354 N 
ATOM     54  N   UNL A   1      43.069  32.333  29.506  1.00  0.00    -0.248 NA
ATOM     55  C   UNL A   1      44.934  32.262  28.163  1.00  0.00     0.031 C 
ATOM     56  C   UNL A   1      41.140  34.007  31.526  1.00  0.00     0.029 A 
ATOM     57  C   UNL A   1      41.254  34.290  30.178  1.00  0.00     0.049 A 
ATOM     58  H   UNL A   1      39.761  34.383  28.708  1.00  0.00     0.167 HD
ATOM     59  C   UNL A   1      43.185  33.569  28.951  1.00  0.00     0.074 A 
ATOM     60  C   UNL A   1      44.337  33.462  28.073  1.00  0.00     0.031 C 
ATOM     61  C   UNL A   1      42.340  34.587  29.269  1.00  0.00     0.037 A 
BRANCH  48  62
ATOM     62  C   UNL A   1      36.497  34.068  30.800  1.00  0.00     0.058 A 
ATOM     63  C   UNL A   1      35.361  34.303  29.980  1.00  0.00     0.135 A 
ATOM     64  C   UNL A   1      36.305  34.417  32.154  1.00  0.00     0.135 A 
ATOM     65  F   UNL A   1      35.337  33.955  28.687  1.00  0.00    -0.206 F 
ATOM     66  C   UNL A   1      34.182  34.901  30.429  1.00  0.00     0.059 A 
ATOM     67  C   UNL A   1      35.123  35.029  32.631  1.00  0.00     0.059 A 
ATOM     68  F   UNL A   1      37.248  34.148  33.070  1.00  0.00    -0.206 F 
ATOM     69  C   UNL A   1      34.071  35.279  31.755  1.00  0.00     0.060 A 
BRANCH  69  70
ATOM     70  S   UNL A   1      32.535  36.079  32.274  1.00  0.00     0.124 S 
ATOM     71  O   UNL A   1      32.148  36.808  31.069  1.00  0.00    -0.237 OA
ATOM     72  O   UNL A   1      31.690  34.940  32.618  1.00  0.00    -0.237 OA
ATOM     73  O   UNL A   1      32.945  36.915  33.399  1.00  0.00    -0.744 OA
ENDBRANCH  69  70
ENDBRANCH  48  62
BRANCH  49  74
ATOM     74  C   UNL A   1      44.516  29.000  28.592  1.00  0.00     0.058 A 
ATOM     75  C   UNL A   1      43.981  29.012  27.280  1.00  0.00     0.135 A 
ATOM     76  C   UNL A   1      45.472  27.999  28.846  1.00  0.00     0.135 A 
ATOM     77  F   UNL A   1      43.093  29.957  26.926  1.00  0.00    -0.206 F 
ATOM     78  C   UNL A   1      44.404  28.133  26.274  1.00  0.00     0.059 A 
ATOM     79  C   UNL A   1      45.907  27.100  27.854  1.00  0.00     0.059 A 
ATOM     80  F   UNL A   1      46.069  27.922  30.044  1.00  0.00    -0.206 F 
ATOM     81  C   UNL A   1      45.382  27.186  26.564  1.00  0.00     0.060 A 
BRANCH  81  82
ATOM     82  S   UNL A   1      46.135  26.268  25.179  1.00  0.00     0.124 S 
ATOM     83  O   UNL A   1      46.372  27.325  24.206  1.00  0.00    -0.237 OA
ATOM     84  O   UNL A   1      47.337  25.708  25.797  1.00  0.00    -0.237 OA
ATOM     85  O   UNL A   1      45.101  25.299  24.830  1.00  0.00    -0.744 OA
ENDBRANCH  81  82
ENDBRANCH  49  74
BRANCH  61  86
ATOM     86  C   UNL A   1      42.484  35.965  28.719  1.00  0.00     0.058 A 
ATOM     87  C   UNL A   1      42.132  36.264  27.397  1.00  0.00     0.135 A 
ATOM     88  C   UNL A   1      43.066  37.011  29.469  1.00  0.00     0.135 A 
ATOM     89  F   UNL A   1      41.701  35.306  26.561  1.00  0.00    -0.206 F 
ATOM     90  C   UNL A   1      42.223  37.552  26.891  1.00  0.00     0.059 A 
ATOM     91  C   UNL A   1      43.234  38.288  28.959  1.00  0.00     0.059 A 
ATOM     92  F   UNL A   1      43.466  36.847  30.736  1.00  0.00    -0.206 F 
ATOM     93  C   UNL A   1      42.765  38.559  27.685  1.00  0.00     0.060 A 
BRANCH  93  94
ATOM     94  S   UNL A   1      42.856  40.228  27.035  1.00  0.00     0.124 S 
ATOM     95  O   UNL A   1      43.376  40.978  28.176  1.00  0.00    -0.237 OA
ATOM     96  O   UNL A   1      43.781  40.050  25.920  1.00  0.00    -0.237 OA
ATOM     97  O   UNL A   1      41.476  40.529  26.670  1.00  0.00    -0.744 OA
ENDBRANCH  93  94
ENDBRANCH  61  86
ENDBRANCH  35  36
ENDBRANCH  28  30
ENDBRANCH  27  28
ENDBRANCH  26  27
ENDBRANCH   1  26
TORSDOF 17
ENDMDL
MODEL 3
REMARK VINA RESULT:     -15.0      1.747      3.635
REMARK SMILES Cc1ccc(NC(=O)[C@H]2CC(Cl)=CC[C@@H]2C(=O)OCCOC(=O)c2ccc(-c3c4nc(c(-c5c(F)cc(S(=O)(=O)[O-])cc5F)c5ccc([nH]5)c(-c5c(F)cc(S(=O)(=O)[O-])cc5F)c5nc(c(-c6c(F)cc(S(=O)(=O)[O-])cc6F)c6ccc3[nH]6)C=C5)C=C4)cc2)cc1[N+](=O)[O-]
REMARK SMILES IDX 19 1 18 2 16 3 17 4 15 5 9 6 10 7 11 8 14 9 12 10 13 11 7 12
REMARK SMILES IDX 6 13 8 15 5 16 1 17 2 18 3 19 91 20 4 21 90 22 92 23 93 24
REMARK SMILES IDX 94 25 20 26 21 27 22 28 23 29 24 30 25 31 89 32 26 33 88 34
REMARK SMILES IDX 27 35 28 36 29 37 82 38 30 39 87 40 81 41 83 42 31 43 86 44
REMARK SMILES IDX 80 45 79 46 32 48 66 49 45 50 65 51 46 52 49 53 64 54 84 55
REMARK SMILES IDX 47 56 48 57 63 59 85 60 50 61 33 62 34 63 43 64 35 65 36 66
REMARK SMILES IDX 42 67 44 68 37 69 38 70 39 71 40 72 41 73 67 74 68 75 77 76
REMARK SMILES IDX 69 77 70 78 76 79 78 80 71 81 72 82 73 83 74 84 75 85 51 86
REMARK SMILES IDX 52 87 61 88 53 89 54 90 60 91 62 92 55 93 56 94 57 95 58 96
REMARK SMILES IDX 59 97
REMARK H PARENT 6 14 83 47 49 58
REMARK Flexibility Score: inf
ROOT
ATOM      1  C   UNL A   1      32.010  27.646  26.762  1.00  0.00     0.274 C 
ENDROOT
BRANCH   1   2
ATOM      2  O   UNL A   1      32.892  26.194  26.172  1.00  0.00    -0.462 OA
BRANCH   2   3
ATOM      3  C   UNL A   1      33.787  25.476  25.426  1.00  0.00     0.310 C 
ATOM      4  O   UNL A   1      34.529  26.146  24.691  1.00  0.00    -0.252 OA
BRANCH   3   5
ATOM      5  C   UNL A   1      34.013  23.907  25.284  1.00  0.00     0.116 C 
ATOM      6  C   UNL A   1      33.460  22.991  24.167  1.00  0.00     0.098 C 
ATOM      7  C   UNL A   1      33.799  21.499  24.308  1.00  0.00     0.062 C 
ATOM      8  C   UNL A   1      33.410  20.996  25.654  1.00  0.00     0.015 C 
ATOM      9  C   UNL A   1      34.035  23.183  26.677  1.00  0.00     0.044 C 
ATOM     10  Cl  UNL A   1      32.802  19.387  25.749  1.00  0.00    -0.089 Cl
ATOM     11  C   UNL A   1      33.521  21.766  26.740  1.00  0.00    -0.010 C 
BRANCH   6  12
ATOM     12  C   UNL A   1      34.024  23.517  22.888  1.00  0.00     0.228 C 
ATOM     13  N   UNL A   1      33.316  24.479  22.254  1.00  0.00    -0.326 N 
ATOM     14  H   UNL A   1      33.729  24.835  21.434  1.00  0.00     0.169 HD
ATOM     15  O   UNL A   1      35.111  23.169  22.432  1.00  0.00    -0.274 OA
BRANCH  13  16
ATOM     16  C   UNL A   1      32.091  25.035  22.592  1.00  0.00     0.048 A 
ATOM     17  C   UNL A   1      27.804  27.612  23.579  1.00  0.00     0.052 C 
ATOM     18  C   UNL A   1      29.201  27.023  23.539  1.00  0.00     0.027 A 
ATOM     19  C   UNL A   1      29.241  25.312  23.901  1.00  0.00     0.012 A 
ATOM     20  C   UNL A   1      30.549  27.711  22.732  1.00  0.00     0.274 A 
ATOM     21  C   UNL A   1      30.692  24.234  23.456  1.00  0.00     0.027 A 
ATOM     22  C   UNL A   1      31.954  26.771  22.234  1.00  0.00     0.112 A 
BRANCH  20  23
ATOM     23  N   UNL A   1      30.632  29.163  22.655  1.00  0.00     0.063 N 
ATOM     24  O   UNL A   1      31.086  29.742  23.647  1.00  0.00    -0.258 OA
ATOM     25  O   UNL A   1      30.225  29.715  21.629  1.00  0.00    -0.258 OA
ENDBRANCH  20  23
ENDBRANCH  13  16
ENDBRANCH   6  12
ENDBRANCH   3   5
ENDBRANCH   2   3
ENDBRANCH   1   2
BRANCH   1  26
ATOM     26  C   UNL A   1      33.006  29.535  27.309  1.00  0.00     0.275 C 
BRANCH  26  27
ATOM     27  O   UNL A   1      34.728  29.584  27.941  1.00  0.00    -0.458 OA
BRANCH  27  28
ATOM     28  C   UNL A   1      35.843  30.507  28.196  1.00  0.00     0.338 C 
ATOM     29  O   UNL A   1      35.675  31.685  27.889  1.00  0.00    -0.246 OA
BRANCH  28  30
ATOM     30  C   UNL A   1      37.127  30.115  29.068  1.00  0.00     0.060 A 
ATOM     31  C   UNL A   1      37.263  28.959  29.870  1.00  0.00     0.016 A 
ATOM     32  C   UNL A   1      38.321  30.697  28.782  1.00  0.00     0.016 A 
ATOM     33  C   UNL A   1      38.485  28.175  29.896  1.00  0.00     0.010 A 
ATOM     34  C   UNL A   1      39.366  29.803  28.531  1.00  0.00     0.010 A 
ATOM     35  C   UNL A   1      39.522  28.508  29.041  1.00  0.00    -0.014 A 
BRANCH  35  36
ATOM     36  C   UNL A   1      40.832  27.828  28.693  1.00  0.00     0.031 A 
ATOM     37  C   UNL A   1      41.049  26.410  28.210  1.00  0.00     0.074 A 
ATOM     38  C   UNL A   1      41.927  28.619  28.893  1.00  0.00     0.049 A 
ATOM     39  N   UNL A   1      41.770  25.506  28.803  1.00  0.00    -0.248 NA
ATOM     40  C   UNL A   1      40.554  25.920  26.917  1.00  0.00     0.031 C 
ATOM     41  C   UNL A   1      43.357  28.388  28.809  1.00  0.00     0.029 A 
ATOM     42  N   UNL A   1      41.896  29.906  29.475  1.00  0.00    -0.354 N 
ATOM     43  C   UNL A   1      42.013  24.480  27.876  1.00  0.00     0.074 A 
ATOM     44  C   UNL A   1      41.057  24.677  26.825  1.00  0.00     0.031 C 
ATOM     45  C   UNL A   1      43.951  29.228  29.698  1.00  0.00     0.029 A 
ATOM     46  C   UNL A   1      42.897  29.959  30.414  1.00  0.00     0.049 A 
ATOM     47  H   UNL A   1      41.271  30.632  29.250  1.00  0.00     0.167 HD
ATOM     48  C   UNL A   1      43.188  23.769  27.864  1.00  0.00     0.037 A 
ATOM     49  C   UNL A   1      42.492  29.906  31.718  1.00  0.00     0.037 A 
ATOM     50  C   UNL A   1      44.126  24.428  28.753  1.00  0.00     0.049 A 
ATOM     51  C   UNL A   1      43.000  28.656  32.374  1.00  0.00     0.074 A 
ATOM     52  C   UNL A   1      45.121  25.359  28.519  1.00  0.00     0.029 A 
ATOM     53  N   UNL A   1      43.887  24.435  30.103  1.00  0.00    -0.354 N 
ATOM     54  N   UNL A   1      43.482  27.645  31.709  1.00  0.00    -0.248 NA
ATOM     55  C   UNL A   1      42.967  28.422  33.812  1.00  0.00     0.031 C 
ATOM     56  C   UNL A   1      45.466  25.945  29.765  1.00  0.00     0.029 A 
ATOM     57  C   UNL A   1      44.678  25.363  30.740  1.00  0.00     0.049 A 
ATOM     58  H   UNL A   1      43.236  23.852  30.556  1.00  0.00     0.167 HD
ATOM     59  C   UNL A   1      43.866  26.673  32.579  1.00  0.00     0.074 A 
ATOM     60  C   UNL A   1      43.473  27.180  33.881  1.00  0.00     0.031 C 
ATOM     61  C   UNL A   1      44.492  25.538  32.163  1.00  0.00     0.037 A 
BRANCH  48  62
ATOM     62  C   UNL A   1      43.676  22.710  26.864  1.00  0.00     0.058 A 
ATOM     63  C   UNL A   1      43.038  21.443  26.790  1.00  0.00     0.135 A 
ATOM     64  C   UNL A   1      44.694  22.893  25.904  1.00  0.00     0.135 A 
ATOM     65  F   UNL A   1      41.996  21.127  27.569  1.00  0.00    -0.206 F 
ATOM     66  C   UNL A   1      43.419  20.425  25.913  1.00  0.00     0.059 A 
ATOM     67  C   UNL A   1      45.103  21.876  25.011  1.00  0.00     0.059 A 
ATOM     68  F   UNL A   1      45.309  24.079  25.777  1.00  0.00    -0.206 F 
ATOM     69  C   UNL A   1      44.466  20.638  25.034  1.00  0.00     0.060 A 
BRANCH  69  70
ATOM     70  S   UNL A   1      44.939  19.274  23.945  1.00  0.00     0.124 S 
ATOM     71  O   UNL A   1      46.395  19.289  24.054  1.00  0.00    -0.237 OA
ATOM     72  O   UNL A   1      44.274  18.133  24.566  1.00  0.00    -0.237 OA
ATOM     73  O   UNL A   1      44.412  19.673  22.644  1.00  0.00    -0.744 OA
ENDBRANCH  69  70
ENDBRANCH  48  62
BRANCH  49  74
ATOM     74  C   UNL A   1      41.160  30.567  32.041  1.00  0.00     0.058 A 
ATOM     75  C   UNL A   1      40.047  29.772  32.408  1.00  0.00     0.135 A 
ATOM     76  C   UNL A   1      41.000  31.953  32.225  1.00  0.00     0.135 A 
ATOM     77  F   UNL A   1      40.116  28.433  32.311  1.00  0.00    -0.206 F 
ATOM     78  C   UNL A   1      38.879  30.305  32.972  1.00  0.00     0.059 A 
ATOM     79  C   UNL A   1      39.836  32.513  32.781  1.00  0.00     0.059 A 
ATOM     80  F   UNL A   1      42.007  32.793  31.944  1.00  0.00    -0.206 F 
ATOM     81  C   UNL A   1      38.786  31.680  33.171  1.00  0.00     0.060 A 
BRANCH  81  82
ATOM     82  S   UNL A   1      37.404  32.316  34.178  1.00  0.00     0.124 S 
ATOM     83  O   UNL A   1      36.245  31.776  33.481  1.00  0.00    -0.237 OA
ATOM     84  O   UNL A   1      37.677  31.722  35.487  1.00  0.00    -0.237 OA
ATOM     85  O   UNL A   1      37.581  33.762  34.097  1.00  0.00    -0.744 OA
ENDBRANCH  81  82
ENDBRANCH  49  74
BRANCH  61  86
ATOM     86  C   UNL A   1      44.975  24.486  33.104  1.00  0.00     0.058 A 
ATOM     87  C   UNL A   1      44.183  23.376  33.427  1.00  0.00     0.135 A 
ATOM     88  C   UNL A   1      46.207  24.601  33.784  1.00  0.00     0.135 A 
ATOM     89  F   UNL A   1      42.939  23.249  32.940  1.00  0.00    -0.206 F 
ATOM     90  C   UNL A   1      44.641  22.372  34.267  1.00  0.00     0.059 A 
ATOM     91  C   UNL A   1      46.653  23.646  34.683  1.00  0.00     0.059 A 
ATOM     92  F   UNL A   1      47.044  25.626  33.581  1.00  0.00    -0.206 F 
ATOM     93  C   UNL A   1      45.884  22.512  34.880  1.00  0.00     0.060 A 
BRANCH  93  94
ATOM     94  S   UNL A   1      46.483  21.199  35.945  1.00  0.00     0.124 S 
ATOM     95  O   UNL A   1      45.824  21.501  37.212  1.00  0.00    -0.237 OA
ATOM     96  O   UNL A   1      45.994  20.017  35.243  1.00  0.00    -0.237 OA
ATOM     97  O   UNL A   1      47.931  21.386  35.935  1.00  0.00    -0.744 OA
ENDBRANCH  93  94
ENDBRANCH  61  86
ENDBRANCH  35  36
ENDBRANCH  28  30
ENDBRANCH  27  28
ENDBRANCH  26  27
ENDBRANCH   1  26
TORSDOF 17
ENDMDL
