MODEL 1
REMARK VINA RESULT:     -13.0      0.000      0.000
REMARK SMILES Cc1nn([C@H]2CCS(=O)(=O)C2)c(C)c1/C=C(\CC(=O)OCCOC(=O)c1ccc(-c2c3nc(c(-c4c(F)cc(S(=O)(=O)[O-])cc4F)c4ccc([nH]4)c(-c4c(F)cc(S(=O)(=O)[O-])cc4F)c4nc(c(-c5c(F)cc(S(=O)(=O)[O-])cc5F)c5ccc2[nH]5)C=C4)C=C3)cc1)c1nc2ccccc2s1
REMARK SMILES IDX 21 1 20 2 18 3 19 4 17 5 16 6 15 7 14 8 1 9 2 10 3 11 4 12
REMARK SMILES IDX 12 13 13 14 5 15 6 16 11 17 7 18 8 19 9 20 10 21 92 22 93 23
REMARK SMILES IDX 100 24 94 25 99 26 95 27 98 28 96 29 97 30 22 31 23 32 24 33
REMARK SMILES IDX 25 34 26 35 27 36 91 37 28 38 90 39 29 40 30 41 31 42 84 43
REMARK SMILES IDX 32 44 89 45 83 46 85 47 33 48 88 49 82 50 81 51 34 53 68 54
REMARK SMILES IDX 47 55 67 56 48 57 51 58 66 59 86 60 49 61 50 62 65 64 87 65
REMARK SMILES IDX 52 66 35 67 36 68 45 69 37 70 38 71 44 72 46 73 39 74 40 75
REMARK SMILES IDX 41 76 42 77 43 78 69 79 70 80 79 81 71 82 72 83 78 84 80 85
REMARK SMILES IDX 73 86 74 87 75 88 76 89 77 90 53 91 54 92 63 93 55 94 56 95
REMARK SMILES IDX 62 96 64 97 57 98 58 99 59 100 60 101 61 102
REMARK H PARENT 85 52 51 63
REMARK Flexibility Score: inf
ROOT
ATOM      1  C   UNL A   1      36.788  23.085  24.174  1.00  0.00     0.274 C 
ENDROOT
BRANCH   1   2
ATOM      2  O   UNL A   1      36.036  24.046  24.944  1.00  0.00    -0.462 OA
BRANCH   2   3
ATOM      3  C   UNL A   1      34.767  23.658  25.197  1.00  0.00     0.310 C 
ATOM      4  O   UNL A   1      34.374  23.257  26.296  1.00  0.00    -0.252 OA
BRANCH   3   5
ATOM      5  C   UNL A   1      33.802  23.697  24.033  1.00  0.00     0.161 C 
BRANCH   5   6
ATOM      6  C   UNL A   1      32.406  23.095  23.921  1.00  0.00    -0.000 C 
ATOM      7  C   UNL A   1      31.338  23.845  23.538  1.00  0.00     0.019 C 
BRANCH   7   8
ATOM      8  C   UNL A   1      31.331  25.264  23.326  1.00  0.00     0.019 A 
ATOM      9  C   UNL A   1      32.584  25.498  21.035  1.00  0.00     0.069 C 
ATOM     10  C   UNL A   1      31.778  25.976  22.185  1.00  0.00     0.067 A 
ATOM     11  N   UNL A   1      31.371  27.253  22.231  1.00  0.00    -0.177 NA
ATOM     12  N   UNL A   1      30.681  27.331  23.389  1.00  0.00    -0.265 N 
ATOM     13  C   UNL A   1      30.972  26.271  24.216  1.00  0.00     0.043 A 
ATOM     14  C   UNL A   1      30.821  26.288  25.700  1.00  0.00     0.067 C 
BRANCH  12  15
ATOM     15  C   UNL A   1      29.760  28.443  23.575  1.00  0.00     0.123 C 
ATOM     16  C   UNL A   1      30.501  29.783  23.814  1.00  0.00     0.044 C 
ATOM     17  C   UNL A   1      28.841  28.756  22.390  1.00  0.00     0.164 C 
ATOM     18  C   UNL A   1      29.443  30.874  23.880  1.00  0.00     0.139 C 
ATOM     19  S   UNL A   1      28.149  30.347  22.779  1.00  0.00     0.152 S 
ATOM     20  O   UNL A   1      26.948  30.138  23.561  1.00  0.00    -0.229 OA
ATOM     21  O   UNL A   1      28.166  31.181  21.596  1.00  0.00    -0.229 OA
ENDBRANCH  12  15
ENDBRANCH   7   8
BRANCH   6  22
ATOM     22  C   UNL A   1      32.208  21.664  23.973  1.00  0.00     0.121 A 
ATOM     23  N   UNL A   1      32.220  20.894  25.044  1.00  0.00    -0.236 NA
ATOM     24  S   UNL A   1      32.074  20.775  22.482  1.00  0.00    -0.114 S 
ATOM     25  C   UNL A   1      32.493  19.576  24.680  1.00  0.00     0.082 A 
ATOM     26  C   UNL A   1      32.448  19.314  23.309  1.00  0.00     0.055 A 
ATOM     27  C   UNL A   1      32.871  18.527  25.548  1.00  0.00     0.030 A 
ATOM     28  C   UNL A   1      32.730  18.041  22.780  1.00  0.00     0.021 A 
ATOM     29  C   UNL A   1      33.221  17.276  25.026  1.00  0.00     0.002 A 
ATOM     30  C   UNL A   1      33.141  17.035  23.658  1.00  0.00     0.002 A 
ENDBRANCH   6  22
ENDBRANCH   5   6
ENDBRANCH   3   5
ENDBRANCH   2   3
ENDBRANCH   1   2
BRANCH   1  31
ATOM     31  C   UNL A   1      37.477  22.046  25.064  1.00  0.00     0.275 C 
BRANCH  31  32
ATOM     32  O   UNL A   1      37.943  22.545  26.329  1.00  0.00    -0.458 OA
BRANCH  32  33
ATOM     33  C   UNL A   1      39.280  22.508  26.468  1.00  0.00     0.338 C 
ATOM     34  O   UNL A   1      39.971  21.501  26.566  1.00  0.00    -0.246 OA
BRANCH  33  35
ATOM     35  C   UNL A   1      39.893  23.794  26.751  1.00  0.00     0.060 A 
ATOM     36  C   UNL A   1      41.060  23.753  27.529  1.00  0.00     0.016 A 
ATOM     37  C   UNL A   1      39.178  24.974  26.548  1.00  0.00     0.016 A 
ATOM     38  C   UNL A   1      41.414  24.862  28.255  1.00  0.00     0.010 A 
ATOM     39  C   UNL A   1      39.552  26.093  27.260  1.00  0.00     0.010 A 
ATOM     40  C   UNL A   1      40.615  26.002  28.165  1.00  0.00    -0.014 A 
BRANCH  40  41
ATOM     41  C   UNL A   1      40.994  27.128  28.996  1.00  0.00     0.031 A 
ATOM     42  C   UNL A   1      42.208  27.844  28.536  1.00  0.00     0.074 A 
ATOM     43  C   UNL A   1      40.230  27.566  30.013  1.00  0.00     0.049 A 
ATOM     44  N   UNL A   1      43.293  28.095  29.192  1.00  0.00    -0.248 NA
ATOM     45  C   UNL A   1      42.256  28.226  27.114  1.00  0.00     0.031 C 
ATOM     46  C   UNL A   1      38.889  27.108  30.386  1.00  0.00     0.029 A 
ATOM     47  N   UNL A   1      40.438  28.629  30.837  1.00  0.00    -0.354 N 
ATOM     48  C   UNL A   1      44.074  28.860  28.331  1.00  0.00     0.074 A 
ATOM     49  C   UNL A   1      43.465  28.776  27.028  1.00  0.00     0.031 C 
ATOM     50  C   UNL A   1      38.315  28.042  31.173  1.00  0.00     0.029 A 
ATOM     51  C   UNL A   1      39.279  29.095  31.440  1.00  0.00     0.049 A 
ATOM     52  H   UNL A   1      41.326  29.028  30.990  1.00  0.00     0.167 HD
ATOM     53  C   UNL A   1      45.026  29.716  28.787  1.00  0.00     0.037 A 
ATOM     54  C   UNL A   1      39.104  30.313  32.009  1.00  0.00     0.037 A 
ATOM     55  C   UNL A   1      45.462  29.393  30.117  1.00  0.00     0.049 A 
ATOM     56  C   UNL A   1      40.451  30.861  32.323  1.00  0.00     0.074 A 
ATOM     57  C   UNL A   1      45.994  28.265  30.713  1.00  0.00     0.029 A 
ATOM     58  N   UNL A   1      45.066  30.206  31.152  1.00  0.00    -0.354 N 
ATOM     59  N   UNL A   1      41.250  30.378  33.235  1.00  0.00    -0.248 NA
ATOM     60  C   UNL A   1      41.089  31.727  31.340  1.00  0.00     0.031 C 
ATOM     61  C   UNL A   1      45.456  28.249  32.033  1.00  0.00     0.029 A 
ATOM     62  C   UNL A   1      44.653  29.381  32.169  1.00  0.00     0.049 A 
ATOM     63  H   UNL A   1      45.079  31.190  31.163  1.00  0.00     0.167 HD
ATOM     64  C   UNL A   1      42.524  30.527  32.708  1.00  0.00     0.074 A 
ATOM     65  C   UNL A   1      42.371  31.464  31.602  1.00  0.00     0.031 C 
ATOM     66  C   UNL A   1      43.534  29.667  33.038  1.00  0.00     0.037 A 
BRANCH  53  67
ATOM     67  C   UNL A   1      45.280  31.045  28.130  1.00  0.00     0.058 A 
ATOM     68  C   UNL A   1      44.237  31.975  27.990  1.00  0.00     0.135 A 
ATOM     69  C   UNL A   1      46.459  31.322  27.397  1.00  0.00     0.135 A 
ATOM     70  F   UNL A   1      43.065  31.784  28.616  1.00  0.00    -0.206 F 
ATOM     71  C   UNL A   1      44.342  33.082  27.147  1.00  0.00     0.059 A 
ATOM     72  C   UNL A   1      46.607  32.447  26.602  1.00  0.00     0.059 A 
ATOM     73  F   UNL A   1      47.481  30.457  27.344  1.00  0.00    -0.206 F 
ATOM     74  C   UNL A   1      45.527  33.300  26.447  1.00  0.00     0.060 A 
BRANCH  74  75
ATOM     75  S   UNL A   1      45.630  34.655  25.266  1.00  0.00     0.124 S 
ATOM     76  O   UNL A   1      47.064  34.696  25.005  1.00  0.00    -0.237 OA
ATOM     77  O   UNL A   1      44.792  34.173  24.173  1.00  0.00    -0.237 OA
ATOM     78  O   UNL A   1      45.087  35.787  26.012  1.00  0.00    -0.744 OA
ENDBRANCH  74  75
ENDBRANCH  53  67
BRANCH  54  79
ATOM     79  C   UNL A   1      37.879  31.154  32.001  1.00  0.00     0.058 A 
ATOM     80  C   UNL A   1      37.221  31.479  33.201  1.00  0.00     0.135 A 
ATOM     81  C   UNL A   1      37.472  31.875  30.858  1.00  0.00     0.135 A 
ATOM     82  F   UNL A   1      37.560  30.863  34.344  1.00  0.00    -0.206 F 
ATOM     83  C   UNL A   1      36.257  32.489  33.273  1.00  0.00     0.059 A 
ATOM     84  C   UNL A   1      36.497  32.868  30.902  1.00  0.00     0.059 A 
ATOM     85  F   UNL A   1      38.076  31.710  29.673  1.00  0.00    -0.206 F 
ATOM     86  C   UNL A   1      35.915  33.191  32.119  1.00  0.00     0.060 A 
BRANCH  86  87
ATOM     87  S   UNL A   1      34.811  34.617  32.238  1.00  0.00     0.124 S 
ATOM     88  O   UNL A   1      35.634  35.576  32.966  1.00  0.00    -0.237 OA
ATOM     89  O   UNL A   1      34.556  34.926  30.836  1.00  0.00    -0.237 OA
ATOM     90  O   UNL A   1      33.663  34.093  32.975  1.00  0.00    -0.744 OA
ENDBRANCH  86  87
ENDBRANCH  54  79
BRANCH  66  91
ATOM     91  C   UNL A   1      43.343  28.770  34.234  1.00  0.00     0.058 A 
ATOM     92  C   UNL A   1      42.591  27.582  34.221  1.00  0.00     0.135 A 
ATOM     93  C   UNL A   1      44.052  29.065  35.409  1.00  0.00     0.135 A 
ATOM     94  F   UNL A   1      41.985  27.160  33.103  1.00  0.00    -0.206 F 
ATOM     95  C   UNL A   1      42.494  26.761  35.344  1.00  0.00     0.059 A 
ATOM     96  C   UNL A   1      43.999  28.241  36.531  1.00  0.00     0.059 A 
ATOM     97  F   UNL A   1      44.846  30.147  35.464  1.00  0.00    -0.206 F 
ATOM     98  C   UNL A   1      43.199  27.101  36.498  1.00  0.00     0.060 A 
BRANCH  98  99
ATOM     99  S   UNL A   1      43.125  26.000  37.928  1.00  0.00     0.124 S 
ATOM    100  O   UNL A   1      43.867  26.752  38.932  1.00  0.00    -0.237 OA
ATOM    101  O   UNL A   1      41.688  25.877  38.160  1.00  0.00    -0.237 OA
ATOM    102  O   UNL A   1      43.775  24.781  37.452  1.00  0.00    -0.744 OA
ENDBRANCH  98  99
ENDBRANCH  66  91
ENDBRANCH  40  41
ENDBRANCH  33  35
ENDBRANCH  32  33
ENDBRANCH  31  32
ENDBRANCH   1  31
TORSDOF 18
ENDMDL
MODEL 2
REMARK VINA RESULT:     -12.8      1.869      5.211
REMARK SMILES Cc1nn([C@H]2CCS(=O)(=O)C2)c(C)c1/C=C(\CC(=O)OCCOC(=O)c1ccc(-c2c3nc(c(-c4c(F)cc(S(=O)(=O)[O-])cc4F)c4ccc([nH]4)c(-c4c(F)cc(S(=O)(=O)[O-])cc4F)c4nc(c(-c5c(F)cc(S(=O)(=O)[O-])cc5F)c5ccc2[nH]5)C=C4)C=C3)cc1)c1nc2ccccc2s1
REMARK SMILES IDX 21 1 20 2 18 3 19 4 17 5 16 6 15 7 14 8 1 9 2 10 3 11 4 12
REMARK SMILES IDX 12 13 13 14 5 15 6 16 11 17 7 18 8 19 9 20 10 21 92 22 93 23
REMARK SMILES IDX 100 24 94 25 99 26 95 27 98 28 96 29 97 30 22 31 23 32 24 33
REMARK SMILES IDX 25 34 26 35 27 36 91 37 28 38 90 39 29 40 30 41 31 42 84 43
REMARK SMILES IDX 32 44 89 45 83 46 85 47 33 48 88 49 82 50 81 51 34 53 68 54
REMARK SMILES IDX 47 55 67 56 48 57 51 58 66 59 86 60 49 61 50 62 65 64 87 65
REMARK SMILES IDX 52 66 35 67 36 68 45 69 37 70 38 71 44 72 46 73 39 74 40 75
REMARK SMILES IDX 41 76 42 77 43 78 69 79 70 80 79 81 71 82 72 83 78 84 80 85
REMARK SMILES IDX 73 86 74 87 75 88 76 89 77 90 53 91 54 92 63 93 55 94 56 95
REMARK SMILES IDX 62 96 64 97 57 98 58 99 59 100 60 101 61 102
REMARK H PARENT 85 52 51 63
REMARK Flexibility Score: inf
ROOT
ATOM      1  C   UNL A   1      36.221  22.205  24.211  1.00  0.00     0.274 C 
ENDROOT
BRANCH   1   2
ATOM      2  O   UNL A   1      36.036  23.626  24.050  1.00  0.00    -0.462 OA
BRANCH   2   3
ATOM      3  C   UNL A   1      34.808  23.962  23.599  1.00  0.00     0.310 C 
ATOM      4  O   UNL A   1      34.443  23.831  22.427  1.00  0.00    -0.252 OA
BRANCH   3   5
ATOM      5  C   UNL A   1      33.856  24.567  24.608  1.00  0.00     0.161 C 
BRANCH   5   6
ATOM      6  C   UNL A   1      32.349  24.386  24.737  1.00  0.00    -0.000 C 
ATOM      7  C   UNL A   1      31.804  23.189  25.087  1.00  0.00     0.019 C 
BRANCH   7   8
ATOM      8  C   UNL A   1      32.512  21.951  25.245  1.00  0.00     0.019 A 
ATOM      9  C   UNL A   1      33.738  22.291  27.537  1.00  0.00     0.069 C 
ATOM     10  C   UNL A   1      33.267  21.517  26.362  1.00  0.00     0.067 A 
ATOM     11  N   UNL A   1      33.554  20.210  26.264  1.00  0.00    -0.177 NA
ATOM     12  N   UNL A   1      32.982  19.840  25.098  1.00  0.00    -0.265 N 
ATOM     13  C   UNL A   1      32.695  20.933  24.314  1.00  0.00     0.043 A 
ATOM     14  C   UNL A   1      32.556  20.898  22.830  1.00  0.00     0.067 C 
BRANCH  12  15
ATOM     15  C   UNL A   1      32.740  18.424  24.862  1.00  0.00     0.123 C 
ATOM     16  C   UNL A   1      33.424  17.922  23.566  1.00  0.00     0.044 C 
ATOM     17  C   UNL A   1      33.271  17.467  25.933  1.00  0.00     0.164 C 
ATOM     18  C   UNL A   1      33.193  16.420  23.490  1.00  0.00     0.139 C 
ATOM     19  S   UNL A   1      33.163  15.860  25.179  1.00  0.00     0.152 S 
ATOM     20  O   UNL A   1      31.848  15.320  25.452  1.00  0.00    -0.229 OA
ATOM     21  O   UNL A   1      34.376  15.118  25.452  1.00  0.00    -0.229 OA
ENDBRANCH  12  15
ENDBRANCH   7   8
BRANCH   6  22
ATOM     22  C   UNL A   1      31.461  25.527  24.738  1.00  0.00     0.121 A 
ATOM     23  N   UNL A   1      30.148  25.518  24.605  1.00  0.00    -0.236 NA
ATOM     24  S   UNL A   1      32.144  27.128  24.773  1.00  0.00    -0.114 S 
ATOM     25  C   UNL A   1      29.707  26.764  24.160  1.00  0.00     0.082 A 
ATOM     26  C   UNL A   1      30.662  27.781  24.191  1.00  0.00     0.055 A 
ATOM     27  C   UNL A   1      28.431  27.061  23.630  1.00  0.00     0.030 A 
ATOM     28  C   UNL A   1      30.381  29.086  23.747  1.00  0.00     0.021 A 
ATOM     29  C   UNL A   1      28.164  28.338  23.121  1.00  0.00     0.002 A 
ATOM     30  C   UNL A   1      29.125  29.340  23.188  1.00  0.00     0.002 A 
ENDBRANCH   6  22
ENDBRANCH   5   6
ENDBRANCH   3   5
ENDBRANCH   2   3
ENDBRANCH   1   2
BRANCH   1  31
ATOM     31  C   UNL A   1      37.602  21.865  24.779  1.00  0.00     0.275 C 
BRANCH  31  32
ATOM     32  O   UNL A   1      37.861  22.382  26.095  1.00  0.00    -0.458 OA
BRANCH  32  33
ATOM     33  C   UNL A   1      39.145  22.268  26.481  1.00  0.00     0.338 C 
ATOM     34  O   UNL A   1      39.706  21.237  26.831  1.00  0.00    -0.246 OA
BRANCH  33  35
ATOM     35  C   UNL A   1      39.822  23.533  26.706  1.00  0.00     0.060 A 
ATOM     36  C   UNL A   1      40.959  23.476  27.525  1.00  0.00     0.016 A 
ATOM     37  C   UNL A   1      39.182  24.735  26.407  1.00  0.00     0.016 A 
ATOM     38  C   UNL A   1      41.354  24.607  28.194  1.00  0.00     0.010 A 
ATOM     39  C   UNL A   1      39.598  25.875  27.062  1.00  0.00     0.010 A 
ATOM     40  C   UNL A   1      40.625  25.781  28.007  1.00  0.00    -0.014 A 
BRANCH  40  41
ATOM     41  C   UNL A   1      41.043  26.935  28.781  1.00  0.00     0.031 A 
ATOM     42  C   UNL A   1      42.235  27.632  28.240  1.00  0.00     0.074 A 
ATOM     43  C   UNL A   1      40.327  27.409  29.816  1.00  0.00     0.049 A 
ATOM     44  N   UNL A   1      43.349  27.904  28.836  1.00  0.00    -0.248 NA
ATOM     45  C   UNL A   1      42.218  27.965  26.806  1.00  0.00     0.031 C 
ATOM     46  C   UNL A   1      39.005  26.967  30.265  1.00  0.00     0.029 A 
ATOM     47  N   UNL A   1      40.574  28.499  30.593  1.00  0.00    -0.354 N 
ATOM     48  C   UNL A   1      44.089  28.637  27.914  1.00  0.00     0.074 A 
ATOM     49  C   UNL A   1      43.421  28.509  26.644  1.00  0.00     0.031 C 
ATOM     50  C   UNL A   1      38.468  27.928  31.046  1.00  0.00     0.029 A 
ATOM     51  C   UNL A   1      39.444  28.988  31.232  1.00  0.00     0.049 A 
ATOM     52  H   UNL A   1      41.468  28.901  30.690  1.00  0.00     0.167 HD
ATOM     53  C   UNL A   1      45.062  29.506  28.296  1.00  0.00     0.037 A 
ATOM     54  C   UNL A   1      39.296  30.226  31.766  1.00  0.00     0.037 A 
ATOM     55  C   UNL A   1      45.559  29.229  29.615  1.00  0.00     0.049 A 
ATOM     56  C   UNL A   1      40.656  30.781  31.998  1.00  0.00     0.074 A 
ATOM     57  C   UNL A   1      46.118  28.120  30.224  1.00  0.00     0.029 A 
ATOM     58  N   UNL A   1      45.212  30.076  30.639  1.00  0.00    -0.354 N 
ATOM     59  N   UNL A   1      41.496  30.328  32.888  1.00  0.00    -0.248 NA
ATOM     60  C   UNL A   1      41.248  31.611  30.958  1.00  0.00     0.031 C 
ATOM     61  C   UNL A   1      45.642  28.150  31.567  1.00  0.00     0.029 A 
ATOM     62  C   UNL A   1      44.846  29.288  31.702  1.00  0.00     0.049 A 
ATOM     63  H   UNL A   1      45.225  31.061  30.615  1.00  0.00     0.167 HD
ATOM     64  C   UNL A   1      42.745  30.456  32.299  1.00  0.00     0.074 A 
ATOM     65  C   UNL A   1      42.541  31.355  31.169  1.00  0.00     0.031 C 
ATOM     66  C   UNL A   1      43.769  29.606  32.611  1.00  0.00     0.037 A 
BRANCH  53  67
ATOM     67  C   UNL A   1      45.286  30.812  27.583  1.00  0.00     0.058 A 
ATOM     68  C   UNL A   1      46.547  31.114  27.043  1.00  0.00     0.135 A 
ATOM     69  C   UNL A   1      44.366  31.886  27.649  1.00  0.00     0.135 A 
ATOM     70  F   UNL A   1      47.500  30.173  26.970  1.00  0.00    -0.206 F 
ATOM     71  C   UNL A   1      46.886  32.405  26.635  1.00  0.00     0.059 A 
ATOM     72  C   UNL A   1      44.661  33.161  27.193  1.00  0.00     0.059 A 
ATOM     73  F   UNL A   1      43.176  31.765  28.252  1.00  0.00    -0.206 F 
ATOM     74  C   UNL A   1      45.938  33.424  26.729  1.00  0.00     0.060 A 
BRANCH  74  75
ATOM     75  S   UNL A   1      46.403  35.114  26.319  1.00  0.00     0.124 S 
ATOM     76  O   UNL A   1      47.064  34.924  25.033  1.00  0.00    -0.237 OA
ATOM     77  O   UNL A   1      45.108  35.787  26.282  1.00  0.00    -0.237 OA
ATOM     78  O   UNL A   1      47.270  35.498  27.429  1.00  0.00    -0.744 OA
ENDBRANCH  74  75
ENDBRANCH  53  67
BRANCH  54  79
ATOM     79  C   UNL A   1      38.072  31.068  31.786  1.00  0.00     0.058 A 
ATOM     80  C   UNL A   1      37.276  31.155  32.942  1.00  0.00     0.135 A 
ATOM     81  C   UNL A   1      37.794  32.010  30.772  1.00  0.00     0.135 A 
ATOM     82  F   UNL A   1      37.486  30.318  33.970  1.00  0.00    -0.206 F 
ATOM     83  C   UNL A   1      36.302  32.143  33.104  1.00  0.00     0.059 A 
ATOM     84  C   UNL A   1      36.811  32.987  30.901  1.00  0.00     0.059 A 
ATOM     85  F   UNL A   1      38.533  32.077  29.656  1.00  0.00    -0.206 F 
ATOM     86  C   UNL A   1      36.088  33.068  32.083  1.00  0.00     0.060 A 
BRANCH  86  87
ATOM     87  S   UNL A   1      34.965  34.456  32.358  1.00  0.00     0.124 S 
ATOM     88  O   UNL A   1      35.873  35.489  32.840  1.00  0.00    -0.237 OA
ATOM     89  O   UNL A   1      34.405  34.666  31.027  1.00  0.00    -0.237 OA
ATOM     90  O   UNL A   1      34.025  33.938  33.349  1.00  0.00    -0.744 OA
ENDBRANCH  86  87
ENDBRANCH  54  79
BRANCH  66  91
ATOM     91  C   UNL A   1      43.633  28.751  33.844  1.00  0.00     0.058 A 
ATOM     92  C   UNL A   1      43.910  29.194  35.149  1.00  0.00     0.135 A 
ATOM     93  C   UNL A   1      43.081  27.467  33.709  1.00  0.00     0.135 A 
ATOM     94  F   UNL A   1      44.320  30.448  35.381  1.00  0.00    -0.206 F 
ATOM     95  C   UNL A   1      43.712  28.375  36.261  1.00  0.00     0.059 A 
ATOM     96  C   UNL A   1      42.841  26.646  34.807  1.00  0.00     0.059 A 
ATOM     97  F   UNL A   1      42.726  27.010  32.496  1.00  0.00    -0.206 F 
ATOM     98  C   UNL A   1      43.180  27.098  36.080  1.00  0.00     0.060 A 
BRANCH  98  99
ATOM     99  S   UNL A   1      42.863  26.067  37.528  1.00  0.00     0.124 S 
ATOM    100  O   UNL A   1      43.804  26.610  38.502  1.00  0.00    -0.237 OA
ATOM    101  O   UNL A   1      41.451  26.325  37.799  1.00  0.00    -0.237 OA
ATOM    102  O   UNL A   1      43.160  24.717  37.057  1.00  0.00    -0.744 OA
ENDBRANCH  98  99
ENDBRANCH  66  91
ENDBRANCH  40  41
ENDBRANCH  33  35
ENDBRANCH  32  33
ENDBRANCH  31  32
ENDBRANCH   1  31
TORSDOF 18
ENDMDL
MODEL 3
REMARK VINA RESULT:     -12.4      1.529      2.485
REMARK SMILES Cc1nn([C@H]2CCS(=O)(=O)C2)c(C)c1/C=C(\CC(=O)OCCOC(=O)c1ccc(-c2c3nc(c(-c4c(F)cc(S(=O)(=O)[O-])cc4F)c4ccc([nH]4)c(-c4c(F)cc(S(=O)(=O)[O-])cc4F)c4nc(c(-c5c(F)cc(S(=O)(=O)[O-])cc5F)c5ccc2[nH]5)C=C4)C=C3)cc1)c1nc2ccccc2s1
REMARK SMILES IDX 21 1 20 2 18 3 19 4 17 5 16 6 15 7 14 8 1 9 2 10 3 11 4 12
REMARK SMILES IDX 12 13 13 14 5 15 6 16 11 17 7 18 8 19 9 20 10 21 92 22 93 23
REMARK SMILES IDX 100 24 94 25 99 26 95 27 98 28 96 29 97 30 22 31 23 32 24 33
REMARK SMILES IDX 25 34 26 35 27 36 91 37 28 38 90 39 29 40 30 41 31 42 84 43
REMARK SMILES IDX 32 44 89 45 83 46 85 47 33 48 88 49 82 50 81 51 34 53 68 54
REMARK SMILES IDX 47 55 67 56 48 57 51 58 66 59 86 60 49 61 50 62 65 64 87 65
REMARK SMILES IDX 52 66 35 67 36 68 45 69 37 70 38 71 44 72 46 73 39 74 40 75
REMARK SMILES IDX 41 76 42 77 43 78 69 79 70 80 79 81 71 82 72 83 78 84 80 85
REMARK SMILES IDX 73 86 74 87 75 88 76 89 77 90 53 91 54 92 63 93 55 94 56 95
REMARK SMILES IDX 62 96 64 97 57 98 58 99 59 100 60 101 61 102
REMARK H PARENT 85 52 51 63
REMARK Flexibility Score: inf
ROOT
ATOM      1  C   UNL A   1      36.516  22.850  25.816  1.00  0.00     0.274 C 
ENDROOT
BRANCH   1   2
ATOM      2  O   UNL A   1      36.176  23.294  24.486  1.00  0.00    -0.462 OA
BRANCH   2   3
ATOM      3  C   UNL A   1      34.940  22.920  24.092  1.00  0.00     0.310 C 
ATOM      4  O   UNL A   1      34.536  22.986  22.928  1.00  0.00    -0.252 OA
BRANCH   3   5
ATOM      5  C   UNL A   1      34.004  22.427  25.175  1.00  0.00     0.161 C 
BRANCH   5   6
ATOM      6  C   UNL A   1      32.843  21.445  25.070  1.00  0.00    -0.000 C 
ATOM      7  C   UNL A   1      31.551  21.871  25.057  1.00  0.00     0.019 C 
BRANCH   7   8
ATOM      8  C   UNL A   1      31.101  23.218  25.265  1.00  0.00     0.019 A 
ATOM      9  C   UNL A   1      29.566  22.980  27.376  1.00  0.00     0.069 C 
ATOM     10  C   UNL A   1      30.323  23.720  26.337  1.00  0.00     0.067 A 
ATOM     11  N   UNL A   1      30.326  25.061  26.340  1.00  0.00    -0.177 NA
ATOM     12  N   UNL A   1      31.097  25.385  25.280  1.00  0.00    -0.265 N 
ATOM     13  C   UNL A   1      31.244  24.317  24.425  1.00  0.00     0.043 A 
ATOM     14  C   UNL A   1      31.563  24.433  22.973  1.00  0.00     0.067 C 
BRANCH  12  15
ATOM     15  C   UNL A   1      31.653  26.729  25.210  1.00  0.00     0.123 C 
ATOM     16  C   UNL A   1      30.665  27.739  24.576  1.00  0.00     0.044 C 
ATOM     17  C   UNL A   1      32.005  27.377  26.552  1.00  0.00     0.164 C 
ATOM     18  C   UNL A   1      31.312  29.114  24.661  1.00  0.00     0.139 C 
ATOM     19  S   UNL A   1      32.279  29.089  26.155  1.00  0.00     0.152 S 
ATOM     20  O   UNL A   1      33.671  29.252  25.793  1.00  0.00    -0.229 OA
ATOM     21  O   UNL A   1      31.635  29.922  27.148  1.00  0.00    -0.229 OA
ENDBRANCH  12  15
ENDBRANCH   7   8
BRANCH   6  22
ATOM     22  C   UNL A   1      33.072  20.058  24.733  1.00  0.00     0.121 A 
ATOM     23  N   UNL A   1      32.171  19.099  24.642  1.00  0.00    -0.236 NA
ATOM     24  S   UNL A   1      34.708  19.493  24.551  1.00  0.00    -0.114 S 
ATOM     25  C   UNL A   1      32.784  17.855  24.796  1.00  0.00     0.082 A 
ATOM     26  C   UNL A   1      34.179  17.869  24.760  1.00  0.00     0.055 A 
ATOM     27  C   UNL A   1      32.133  16.626  25.048  1.00  0.00     0.030 A 
ATOM     28  C   UNL A   1      34.944  16.701  24.931  1.00  0.00     0.021 A 
ATOM     29  C   UNL A   1      32.888  15.470  25.288  1.00  0.00     0.002 A 
ATOM     30  C   UNL A   1      34.276  15.508  25.220  1.00  0.00     0.002 A 
ENDBRANCH   6  22
ENDBRANCH   5   6
ENDBRANCH   3   5
ENDBRANCH   2   3
ENDBRANCH   1   2
BRANCH   1  31
ATOM     31  C   UNL A   1      37.527  21.699  25.798  1.00  0.00     0.275 C 
BRANCH  31  32
ATOM     32  O   UNL A   1      38.860  22.070  25.408  1.00  0.00    -0.458 OA
BRANCH  32  33
ATOM     33  C   UNL A   1      39.718  22.174  26.438  1.00  0.00     0.338 C 
ATOM     34  O   UNL A   1      39.943  21.316  27.283  1.00  0.00    -0.246 OA
BRANCH  33  35
ATOM     35  C   UNL A   1      40.230  23.515  26.665  1.00  0.00     0.060 A 
ATOM     36  C   UNL A   1      41.458  23.591  27.338  1.00  0.00     0.016 A 
ATOM     37  C   UNL A   1      39.391  24.620  26.523  1.00  0.00     0.016 A 
ATOM     38  C   UNL A   1      41.768  24.736  28.028  1.00  0.00     0.010 A 
ATOM     39  C   UNL A   1      39.719  25.776  27.197  1.00  0.00     0.010 A 
ATOM     40  C   UNL A   1      40.860  25.795  28.006  1.00  0.00    -0.014 A 
BRANCH  40  41
ATOM     41  C   UNL A   1      41.201  26.960  28.799  1.00  0.00     0.031 A 
ATOM     42  C   UNL A   1      42.369  27.721  28.292  1.00  0.00     0.074 A 
ATOM     43  C   UNL A   1      40.439  27.388  29.821  1.00  0.00     0.049 A 
ATOM     44  N   UNL A   1      43.455  28.042  28.916  1.00  0.00    -0.248 NA
ATOM     45  C   UNL A   1      42.367  28.066  26.860  1.00  0.00     0.031 C 
ATOM     46  C   UNL A   1      39.131  26.876  30.237  1.00  0.00     0.029 A 
ATOM     47  N   UNL A   1      40.614  28.481  30.613  1.00  0.00    -0.354 N 
ATOM     48  C   UNL A   1      44.178  28.820  28.018  1.00  0.00     0.074 A 
ATOM     49  C   UNL A   1      43.546  28.671  26.731  1.00  0.00     0.031 C 
ATOM     50  C   UNL A   1      38.529  27.802  31.013  1.00  0.00     0.029 A 
ATOM     51  C   UNL A   1      39.447  28.907  31.230  1.00  0.00     0.049 A 
ATOM     52  H   UNL A   1      41.484  28.926  30.735  1.00  0.00     0.167 HD
ATOM     53  C   UNL A   1      45.097  29.732  28.429  1.00  0.00     0.037 A 
ATOM     54  C   UNL A   1      39.225  30.130  31.771  1.00  0.00     0.037 A 
ATOM     55  C   UNL A   1      45.578  29.467  29.757  1.00  0.00     0.049 A 
ATOM     56  C   UNL A   1      40.551  30.750  32.039  1.00  0.00     0.074 A 
ATOM     57  C   UNL A   1      46.177  28.382  30.369  1.00  0.00     0.029 A 
ATOM     58  N   UNL A   1      45.166  30.287  30.779  1.00  0.00    -0.354 N 
ATOM     59  N   UNL A   1      41.392  30.331  32.945  1.00  0.00    -0.248 NA
ATOM     60  C   UNL A   1      41.123  31.619  31.020  1.00  0.00     0.031 C 
ATOM     61  C   UNL A   1      45.670  28.375  31.701  1.00  0.00     0.029 A 
ATOM     62  C   UNL A   1      44.815  29.470  31.827  1.00  0.00     0.049 A 
ATOM     63  H   UNL A   1      45.130  31.270  30.765  1.00  0.00     0.167 HD
ATOM     64  C   UNL A   1      42.645  30.527  32.385  1.00  0.00     0.074 A 
ATOM     65  C   UNL A   1      42.422  31.426  31.259  1.00  0.00     0.031 C 
ATOM     66  C   UNL A   1      43.703  29.726  32.714  1.00  0.00     0.037 A 
BRANCH  53  67
ATOM     67  C   UNL A   1      45.272  31.054  27.732  1.00  0.00     0.058 A 
ATOM     68  C   UNL A   1      46.541  31.454  27.284  1.00  0.00     0.135 A 
ATOM     69  C   UNL A   1      44.270  32.055  27.732  1.00  0.00     0.135 A 
ATOM     70  F   UNL A   1      47.566  30.588  27.280  1.00  0.00    -0.206 F 
ATOM     71  C   UNL A   1      46.809  32.769  26.900  1.00  0.00     0.059 A 
ATOM     72  C   UNL A   1      44.500  33.351  27.297  1.00  0.00     0.059 A 
ATOM     73  F   UNL A   1      43.053  31.841  28.248  1.00  0.00    -0.206 F 
ATOM     74  C   UNL A   1      45.783  33.712  26.925  1.00  0.00     0.060 A 
BRANCH  74  75
ATOM     75  S   UNL A   1      46.146  35.434  26.548  1.00  0.00     0.124 S 
ATOM     76  O   UNL A   1      44.882  36.073  26.894  1.00  0.00    -0.237 OA
ATOM     77  O   UNL A   1      47.270  35.712  27.436  1.00  0.00    -0.237 OA
ATOM     78  O   UNL A   1      46.472  35.402  25.125  1.00  0.00    -0.744 OA
ENDBRANCH  74  75
ENDBRANCH  53  67
BRANCH  54  79
ATOM     79  C   UNL A   1      37.961  30.911  31.770  1.00  0.00     0.058 A 
ATOM     80  C   UNL A   1      37.340  31.277  32.977  1.00  0.00     0.135 A 
ATOM     81  C   UNL A   1      37.470  31.541  30.606  1.00  0.00     0.135 A 
ATOM     82  F   UNL A   1      37.758  30.750  34.138  1.00  0.00    -0.206 F 
ATOM     83  C   UNL A   1      36.332  32.244  33.035  1.00  0.00     0.059 A 
ATOM     84  C   UNL A   1      36.450  32.487  30.636  1.00  0.00     0.059 A 
ATOM     85  F   UNL A   1      38.029  31.331  29.407  1.00  0.00    -0.206 F 
ATOM     86  C   UNL A   1      35.905  32.857  31.858  1.00  0.00     0.060 A 
BRANCH  86  87
ATOM     87  S   UNL A   1      34.738  34.234  31.943  1.00  0.00     0.124 S 
ATOM     88  O   UNL A   1      33.597  33.622  32.614  1.00  0.00    -0.237 OA
ATOM     89  O   UNL A   1      35.483  35.220  32.717  1.00  0.00    -0.237 OA
ATOM     90  O   UNL A   1      34.524  34.581  30.540  1.00  0.00    -0.744 OA
ENDBRANCH  86  87
ENDBRANCH  54  79
BRANCH  66  91
ATOM     91  C   UNL A   1      43.582  28.854  33.936  1.00  0.00     0.058 A 
ATOM     92  C   UNL A   1      43.861  29.282  35.246  1.00  0.00     0.135 A 
ATOM     93  C   UNL A   1      43.044  27.565  33.786  1.00  0.00     0.135 A 
ATOM     94  F   UNL A   1      44.258  30.538  35.493  1.00  0.00    -0.206 F 
ATOM     95  C   UNL A   1      43.677  28.446  36.348  1.00  0.00     0.059 A 
ATOM     96  C   UNL A   1      42.819  26.727  34.875  1.00  0.00     0.059 A 
ATOM     97  F   UNL A   1      42.689  27.121  32.569  1.00  0.00    -0.206 F 
ATOM     98  C   UNL A   1      43.158  27.166  36.152  1.00  0.00     0.060 A 
BRANCH  98  99
ATOM     99  S   UNL A   1      42.859  26.113  37.588  1.00  0.00     0.124 S 
ATOM    100  O   UNL A   1      43.250  24.799  37.090  1.00  0.00    -0.237 OA
ATOM    101  O   UNL A   1      43.737  26.695  38.599  1.00  0.00    -0.237 OA
ATOM    102  O   UNL A   1      41.431  26.285  37.844  1.00  0.00    -0.744 OA
ENDBRANCH  98  99
ENDBRANCH  66  91
ENDBRANCH  40  41
ENDBRANCH  33  35
ENDBRANCH  32  33
ENDBRANCH  31  32
ENDBRANCH   1  31
TORSDOF 18
ENDMDL
