MODEL 1
REMARK VINA RESULT:     -12.4      0.000      0.000
REMARK SMILES O=C(OCCOC(=O)[C@@H]1C[N@@H+](C2CCN(C(=O)c3ccccc3)CC2)C[C@H]1C1CC1)c1ccc(-c2c3nc(c(-c4c(F)cc(S(=O)(=O)[O-])cc4F)c4ccc([nH]4)c(-c4c(F)cc(S(=O)(=O)[O-])cc4F)c4nc(c(-c5c(F)cc(S(=O)(=O)[O-])cc5F)c5ccc2[nH]5)C=C4)C=C3)cc1
REMARK SMILES IDX 4 1 3 2 2 3 1 4 31 5 32 6 96 7 33 8 95 9 34 10 35 11 36 12
REMARK SMILES IDX 89 13 37 14 94 15 88 16 90 17 38 18 93 19 87 20 86 21 39 23
REMARK SMILES IDX 73 24 52 25 72 26 53 27 56 28 71 29 91 30 54 31 55 32 70 34
REMARK SMILES IDX 92 35 57 36 40 37 41 38 50 39 42 40 43 41 49 42 51 43 44 44
REMARK SMILES IDX 45 45 46 46 47 47 48 48 74 49 75 50 84 51 76 52 77 53 83 54
REMARK SMILES IDX 85 55 78 56 79 57 80 58 81 59 82 60 58 61 59 62 68 63 60 64
REMARK SMILES IDX 61 65 67 66 69 67 62 68 63 69 64 70 65 71 66 72 5 73 6 74
REMARK SMILES IDX 7 75 8 76 9 77 10 78 27 79 11 80 26 81 28 83 29 84 30 85
REMARK SMILES IDX 12 86 13 87 25 88 14 89 24 90 15 91 16 92 17 93 18 94 19 95
REMARK SMILES IDX 23 96 20 97 22 98 21 99
REMARK H PARENT 90 22 56 33 11 82
REMARK Flexibility Score: inf
ROOT
ATOM      1  C   UNL A   1      38.080  23.669  26.108  1.00  0.00     0.275 C 
ENDROOT
BRANCH   1   2
ATOM      2  O   UNL A   1      39.407  23.876  26.603  1.00  0.00    -0.458 OA
BRANCH   2   3
ATOM      3  C   UNL A   1      40.173  24.978  26.467  1.00  0.00     0.338 C 
ATOM      4  O   UNL A   1      40.612  25.226  25.342  1.00  0.00    -0.246 OA
BRANCH   3   5
ATOM      5  C   UNL A   1      40.532  25.933  27.580  1.00  0.00     0.060 A 
ATOM      6  C   UNL A   1      41.535  26.916  27.625  1.00  0.00     0.016 A 
ATOM      7  C   UNL A   1      39.660  25.888  28.668  1.00  0.00     0.016 A 
ATOM      8  C   UNL A   1      41.575  27.899  28.640  1.00  0.00     0.010 A 
ATOM      9  C   UNL A   1      39.721  26.843  29.679  1.00  0.00     0.010 A 
ATOM     10  C   UNL A   1      40.629  27.907  29.661  1.00  0.00    -0.014 A 
BRANCH  10  11
ATOM     11  C   UNL A   1      40.534  28.972  30.712  1.00  0.00     0.031 A 
ATOM     12  C   UNL A   1      41.428  28.893  31.921  1.00  0.00     0.074 A 
ATOM     13  C   UNL A   1      39.525  29.873  30.731  1.00  0.00     0.049 A 
ATOM     14  N   UNL A   1      41.356  29.549  33.047  1.00  0.00    -0.248 NA
ATOM     15  C   UNL A   1      42.465  27.852  31.892  1.00  0.00     0.031 C 
ATOM     16  C   UNL A   1      38.426  29.917  29.775  1.00  0.00     0.029 A 
ATOM     17  N   UNL A   1      39.219  30.891  31.604  1.00  0.00    -0.354 N 
ATOM     18  C   UNL A   1      42.208  28.877  33.916  1.00  0.00     0.074 A 
ATOM     19  C   UNL A   1      42.782  27.776  33.174  1.00  0.00     0.031 C 
ATOM     20  C   UNL A   1      37.619  30.955  30.051  1.00  0.00     0.029 A 
ATOM     21  C   UNL A   1      38.115  31.635  31.242  1.00  0.00     0.049 A 
ATOM     22  H   UNL A   1      39.743  31.074  32.418  1.00  0.00     0.167 HD
ATOM     23  C   UNL A   1      42.489  29.156  35.211  1.00  0.00     0.037 A 
ATOM     24  C   UNL A   1      37.572  32.740  31.798  1.00  0.00     0.037 A 
ATOM     25  C   UNL A   1      42.012  30.332  35.889  1.00  0.00     0.049 A 
ATOM     26  C   UNL A   1      38.165  33.262  33.081  1.00  0.00     0.074 A 
ATOM     27  C   UNL A   1      42.396  30.831  37.120  1.00  0.00     0.029 A 
ATOM     28  N   UNL A   1      41.070  31.212  35.376  1.00  0.00    -0.354 N 
ATOM     29  N   UNL A   1      39.064  32.700  33.851  1.00  0.00    -0.248 NA
ATOM     30  C   UNL A   1      37.680  34.559  33.578  1.00  0.00     0.031 C 
ATOM     31  C   UNL A   1      41.701  32.024  37.344  1.00  0.00     0.029 A 
ATOM     32  C   UNL A   1      40.911  32.285  36.237  1.00  0.00     0.049 A 
ATOM     33  H   UNL A   1      40.585  31.091  34.528  1.00  0.00     0.167 HD
ATOM     34  C   UNL A   1      39.271  33.580  34.906  1.00  0.00     0.074 A 
ATOM     35  C   UNL A   1      38.418  34.725  34.669  1.00  0.00     0.031 C 
ATOM     36  C   UNL A   1      40.090  33.441  35.976  1.00  0.00     0.037 A 
BRANCH  23  37
ATOM     37  C   UNL A   1      43.390  28.205  35.954  1.00  0.00     0.058 A 
ATOM     38  C   UNL A   1      44.789  28.333  35.923  1.00  0.00     0.135 A 
ATOM     39  C   UNL A   1      42.851  27.157  36.718  1.00  0.00     0.135 A 
ATOM     40  F   UNL A   1      45.367  29.320  35.219  1.00  0.00    -0.206 F 
ATOM     41  C   UNL A   1      45.620  27.416  36.555  1.00  0.00     0.059 A 
ATOM     42  C   UNL A   1      43.664  26.258  37.404  1.00  0.00     0.059 A 
ATOM     43  F   UNL A   1      41.522  26.990  36.806  1.00  0.00    -0.206 F 
ATOM     44  C   UNL A   1      45.048  26.380  37.290  1.00  0.00     0.060 A 
BRANCH  44  45
ATOM     45  S   UNL A   1      46.141  25.204  38.112  1.00  0.00     0.124 S 
ATOM     46  O   UNL A   1      46.786  26.058  39.106  1.00  0.00    -0.237 OA
ATOM     47  O   UNL A   1      45.206  24.216  38.641  1.00  0.00    -0.237 OA
ATOM     48  O   UNL A   1      47.003  24.732  37.034  1.00  0.00    -0.744 OA
ENDBRANCH  44  45
ENDBRANCH  23  37
BRANCH  24  49
ATOM     49  C   UNL A   1      36.483  33.495  31.112  1.00  0.00     0.058 A 
ATOM     50  C   UNL A   1      35.197  33.540  31.679  1.00  0.00     0.135 A 
ATOM     51  C   UNL A   1      36.674  34.165  29.896  1.00  0.00     0.135 A 
ATOM     52  F   UNL A   1      34.955  32.911  32.840  1.00  0.00    -0.206 F 
ATOM     53  C   UNL A   1      34.137  34.194  31.057  1.00  0.00     0.059 A 
ATOM     54  C   UNL A   1      35.633  34.849  29.264  1.00  0.00     0.059 A 
ATOM     55  F   UNL A   1      37.884  34.177  29.316  1.00  0.00    -0.206 F 
ATOM     56  C   UNL A   1      34.366  34.848  29.847  1.00  0.00     0.060 A 
BRANCH  56  57
ATOM     57  S   UNL A   1      32.990  35.733  29.076  1.00  0.00     0.124 S 
ATOM     58  O   UNL A   1      33.686  36.786  28.345  1.00  0.00    -0.237 OA
ATOM     59  O   UNL A   1      32.377  34.688  28.260  1.00  0.00    -0.237 OA
ATOM     60  O   UNL A   1      32.194  36.174  30.217  1.00  0.00    -0.744 OA
ENDBRANCH  56  57
ENDBRANCH  24  49
BRANCH  36  61
ATOM     61  C   UNL A   1      40.182  34.587  36.943  1.00  0.00     0.058 A 
ATOM     62  C   UNL A   1      39.295  34.732  38.020  1.00  0.00     0.135 A 
ATOM     63  C   UNL A   1      41.230  35.516  36.826  1.00  0.00     0.135 A 
ATOM     64  F   UNL A   1      38.273  33.875  38.174  1.00  0.00    -0.206 F 
ATOM     65  C   UNL A   1      39.434  35.766  38.940  1.00  0.00     0.059 A 
ATOM     66  C   UNL A   1      41.403  36.543  37.747  1.00  0.00     0.059 A 
ATOM     67  F   UNL A   1      42.109  35.419  35.816  1.00  0.00    -0.206 F 
ATOM     68  C   UNL A   1      40.495  36.664  38.797  1.00  0.00     0.060 A 
BRANCH  68  69
ATOM     69  S   UNL A   1      40.692  37.973  40.024  1.00  0.00     0.124 S 
ATOM     70  O   UNL A   1      39.455  38.726  39.854  1.00  0.00    -0.237 OA
ATOM     71  O   UNL A   1      40.811  37.220  41.269  1.00  0.00    -0.237 OA
ATOM     72  O   UNL A   1      41.908  38.661  39.597  1.00  0.00    -0.744 OA
ENDBRANCH  68  69
ENDBRANCH  36  61
ENDBRANCH  10  11
ENDBRANCH   3   5
ENDBRANCH   2   3
ENDBRANCH   1   2
BRANCH   1  73
ATOM     73  C   UNL A   1      37.880  22.280  25.493  1.00  0.00     0.274 C 
BRANCH  73  74
ATOM     74  O   UNL A   1      36.625  21.687  25.876  1.00  0.00    -0.462 OA
BRANCH  74  75
ATOM     75  C   UNL A   1      36.150  20.630  25.147  1.00  0.00     0.315 C 
ATOM     76  O   UNL A   1      36.806  19.647  24.855  1.00  0.00    -0.252 OA
BRANCH  75  77
ATOM     77  C   UNL A   1      34.711  20.892  24.723  1.00  0.00     0.163 C 
ATOM     78  C   UNL A   1      34.088  22.092  25.446  1.00  0.00     0.278 C 
ATOM     79  C   UNL A   1      33.822  19.706  25.077  1.00  0.00     0.067 C 
ATOM     80  N   UNL A   1      32.674  21.787  25.570  1.00  0.00    -0.331 N 
ATOM     81  C   UNL A   1      32.452  20.356  25.370  1.00  0.00     0.267 C 
ATOM     82  H   UNL A   1      32.525  22.110  26.526  1.00  0.00     0.348 HD
BRANCH  79  83
ATOM     83  C   UNL A   1      33.722  18.607  24.030  1.00  0.00    -0.001 C 
ATOM     84  C   UNL A   1      34.362  17.234  24.118  1.00  0.00     0.004 C 
ATOM     85  C   UNL A   1      32.891  17.375  24.322  1.00  0.00     0.004 C 
ENDBRANCH  79  83
BRANCH  80  86
ATOM     86  C   UNL A   1      31.566  22.700  25.246  1.00  0.00     0.187 C 
ATOM     87  C   UNL A   1      31.610  23.364  23.862  1.00  0.00     0.086 C 
ATOM     88  C   UNL A   1      31.199  23.803  26.272  1.00  0.00     0.086 C 
ATOM     89  C   UNL A   1      32.553  24.538  23.851  1.00  0.00     0.126 C 
ATOM     90  C   UNL A   1      32.013  25.107  26.207  1.00  0.00     0.126 C 
ATOM     91  N   UNL A   1      32.242  25.571  24.844  1.00  0.00    -0.338 N 
ATOM     92  C   UNL A   1      32.312  26.901  24.398  1.00  0.00     0.253 C 
ATOM     93  O   UNL A   1      32.250  27.153  23.193  1.00  0.00    -0.269 OA
BRANCH  92  94
ATOM     94  C   UNL A   1      32.617  28.079  25.272  1.00  0.00     0.040 A 
ATOM     95  C   UNL A   1      33.810  28.010  26.020  1.00  0.00     0.014 A 
ATOM     96  C   UNL A   1      31.698  29.086  25.590  1.00  0.00     0.014 A 
ATOM     97  C   UNL A   1      34.082  28.914  27.050  1.00  0.00     0.001 A 
ATOM     98  C   UNL A   1      31.972  29.997  26.623  1.00  0.00     0.001 A 
ATOM     99  C   UNL A   1      33.158  29.907  27.355  1.00  0.00     0.000 A 
ENDBRANCH  92  94
ENDBRANCH  80  86
ENDBRANCH  75  77
ENDBRANCH  74  75
ENDBRANCH  73  74
ENDBRANCH   1  73
TORSDOF 17
ENDMDL
MODEL 2
REMARK VINA RESULT:     -12.3      5.284     10.768
REMARK SMILES O=C(OCCOC(=O)[C@@H]1C[N@@H+](C2CCN(C(=O)c3ccccc3)CC2)C[C@H]1C1CC1)c1ccc(-c2c3nc(c(-c4c(F)cc(S(=O)(=O)[O-])cc4F)c4ccc([nH]4)c(-c4c(F)cc(S(=O)(=O)[O-])cc4F)c4nc(c(-c5c(F)cc(S(=O)(=O)[O-])cc5F)c5ccc2[nH]5)C=C4)C=C3)cc1
REMARK SMILES IDX 4 1 3 2 2 3 1 4 31 5 32 6 96 7 33 8 95 9 34 10 35 11 36 12
REMARK SMILES IDX 89 13 37 14 94 15 88 16 90 17 38 18 93 19 87 20 86 21 39 23
REMARK SMILES IDX 73 24 52 25 72 26 53 27 56 28 71 29 91 30 54 31 55 32 70 34
REMARK SMILES IDX 92 35 57 36 40 37 41 38 50 39 42 40 43 41 49 42 51 43 44 44
REMARK SMILES IDX 45 45 46 46 47 47 48 48 74 49 75 50 84 51 76 52 77 53 83 54
REMARK SMILES IDX 85 55 78 56 79 57 80 58 81 59 82 60 58 61 59 62 68 63 60 64
REMARK SMILES IDX 61 65 67 66 69 67 62 68 63 69 64 70 65 71 66 72 5 73 6 74
REMARK SMILES IDX 7 75 8 76 9 77 10 78 27 79 11 80 26 81 28 83 29 84 30 85
REMARK SMILES IDX 12 86 13 87 25 88 14 89 24 90 15 91 16 92 17 93 18 94 19 95
REMARK SMILES IDX 23 96 20 97 22 98 21 99
REMARK H PARENT 90 22 56 33 11 82
REMARK Flexibility Score: inf
ROOT
ATOM      1  C   UNL A   1      33.367  28.350  26.031  1.00  0.00     0.275 C 
ENDROOT
BRANCH   1   2
ATOM      2  O   UNL A   1      33.686  28.755  27.366  1.00  0.00    -0.458 OA
BRANCH   2   3
ATOM      3  C   UNL A   1      34.439  29.807  27.750  1.00  0.00     0.338 C 
ATOM      4  O   UNL A   1      33.941  30.929  27.639  1.00  0.00    -0.246 OA
BRANCH   3   5
ATOM      5  C   UNL A   1      35.839  29.719  28.309  1.00  0.00     0.060 A 
ATOM      6  C   UNL A   1      36.266  29.329  29.589  1.00  0.00     0.016 A 
ATOM      7  C   UNL A   1      36.840  29.961  27.369  1.00  0.00     0.016 A 
ATOM      8  C   UNL A   1      37.624  29.055  29.874  1.00  0.00     0.010 A 
ATOM      9  C   UNL A   1      38.178  29.715  27.663  1.00  0.00     0.010 A 
ATOM     10  C   UNL A   1      38.599  29.195  28.892  1.00  0.00    -0.014 A 
BRANCH  10  11
ATOM     11  C   UNL A   1      40.040  28.824  29.078  1.00  0.00     0.031 A 
ATOM     12  C   UNL A   1      41.010  29.866  29.568  1.00  0.00     0.074 A 
ATOM     13  C   UNL A   1      40.547  27.660  28.608  1.00  0.00     0.049 A 
ATOM     14  N   UNL A   1      42.315  29.843  29.573  1.00  0.00    -0.248 NA
ATOM     15  C   UNL A   1      40.425  31.143  30.000  1.00  0.00     0.031 C 
ATOM     16  C   UNL A   1      39.791  26.656  27.873  1.00  0.00     0.029 A 
ATOM     17  N   UNL A   1      41.820  27.140  28.627  1.00  0.00    -0.354 N 
ATOM     18  C   UNL A   1      42.701  31.155  29.827  1.00  0.00     0.074 A 
ATOM     19  C   UNL A   1      41.489  31.928  29.977  1.00  0.00     0.031 C 
ATOM     20  C   UNL A   1      40.579  25.605  27.588  1.00  0.00     0.029 A 
ATOM     21  C   UNL A   1      41.923  25.876  28.082  1.00  0.00     0.049 A 
ATOM     22  H   UNL A   1      42.592  27.627  28.997  1.00  0.00     0.167 HD
ATOM     23  C   UNL A   1      43.952  31.663  29.932  1.00  0.00     0.037 A 
ATOM     24  C   UNL A   1      42.974  25.032  28.000  1.00  0.00     0.037 A 
ATOM     25  C   UNL A   1      45.141  30.853  29.914  1.00  0.00     0.049 A 
ATOM     26  C   UNL A   1      44.318  25.510  28.487  1.00  0.00     0.074 A 
ATOM     27  C   UNL A   1      46.438  31.222  30.221  1.00  0.00     0.029 A 
ATOM     28  N   UNL A   1      45.171  29.502  29.602  1.00  0.00    -0.354 N 
ATOM     29  N   UNL A   1      44.669  26.718  28.853  1.00  0.00    -0.248 NA
ATOM     30  C   UNL A   1      45.409  24.525  28.554  1.00  0.00     0.031 C 
ATOM     31  C   UNL A   1      47.251  30.088  30.114  1.00  0.00     0.029 A 
ATOM     32  C   UNL A   1      46.453  29.008  29.775  1.00  0.00     0.049 A 
ATOM     33  H   UNL A   1      44.397  28.973  29.302  1.00  0.00     0.167 HD
ATOM     34  C   UNL A   1      46.008  26.636  29.215  1.00  0.00     0.074 A 
ATOM     35  C   UNL A   1      46.403  25.254  29.045  1.00  0.00     0.031 C 
ATOM     36  C   UNL A   1      46.831  27.623  29.643  1.00  0.00     0.037 A 
BRANCH  23  37
ATOM     37  C   UNL A   1      44.090  33.150  30.128  1.00  0.00     0.058 A 
ATOM     38  C   UNL A   1      44.230  34.032  29.044  1.00  0.00     0.135 A 
ATOM     39  C   UNL A   1      44.071  33.707  31.418  1.00  0.00     0.135 A 
ATOM     40  F   UNL A   1      44.246  33.564  27.784  1.00  0.00    -0.206 F 
ATOM     41  C   UNL A   1      44.423  35.395  29.231  1.00  0.00     0.059 A 
ATOM     42  C   UNL A   1      44.208  35.077  31.626  1.00  0.00     0.059 A 
ATOM     43  F   UNL A   1      43.921  32.922  32.497  1.00  0.00    -0.206 F 
ATOM     44  C   UNL A   1      44.414  35.908  30.526  1.00  0.00     0.060 A 
BRANCH  44  45
ATOM     45  S   UNL A   1      44.655  37.681  30.751  1.00  0.00     0.124 S 
ATOM     46  O   UNL A   1      43.786  38.224  29.711  1.00  0.00    -0.237 OA
ATOM     47  O   UNL A   1      44.207  37.892  32.123  1.00  0.00    -0.237 OA
ATOM     48  O   UNL A   1      46.087  37.858  30.529  1.00  0.00    -0.744 OA
ENDBRANCH  44  45
ENDBRANCH  23  37
BRANCH  24  49
ATOM     49  C   UNL A   1      42.800  23.623  27.540  1.00  0.00     0.058 A 
ATOM     50  C   UNL A   1      42.973  23.303  26.181  1.00  0.00     0.135 A 
ATOM     51  C   UNL A   1      42.449  22.580  28.407  1.00  0.00     0.135 A 
ATOM     52  F   UNL A   1      43.303  24.264  25.304  1.00  0.00    -0.206 F 
ATOM     53  C   UNL A   1      42.779  22.013  25.695  1.00  0.00     0.059 A 
ATOM     54  C   UNL A   1      42.273  21.272  27.949  1.00  0.00     0.059 A 
ATOM     55  F   UNL A   1      42.292  22.818  29.718  1.00  0.00    -0.206 F 
ATOM     56  C   UNL A   1      42.429  21.001  26.589  1.00  0.00     0.060 A 
BRANCH  56  57
ATOM     57  S   UNL A   1      42.228  19.322  25.950  1.00  0.00     0.124 S 
ATOM     58  O   UNL A   1      43.088  19.347  24.772  1.00  0.00    -0.237 OA
ATOM     59  O   UNL A   1      42.702  18.512  27.069  1.00  0.00    -0.237 OA
ATOM     60  O   UNL A   1      40.795  19.234  25.686  1.00  0.00    -0.744 OA
ENDBRANCH  56  57
ENDBRANCH  24  49
BRANCH  36  61
ATOM     61  C   UNL A   1      48.229  27.246  30.044  1.00  0.00     0.058 A 
ATOM     62  C   UNL A   1      49.278  27.162  29.117  1.00  0.00     0.135 A 
ATOM     63  C   UNL A   1      48.533  27.039  31.401  1.00  0.00     0.135 A 
ATOM     64  F   UNL A   1      49.040  27.345  27.808  1.00  0.00    -0.206 F 
ATOM     65  C   UNL A   1      50.578  26.872  29.518  1.00  0.00     0.059 A 
ATOM     66  C   UNL A   1      49.829  26.772  31.827  1.00  0.00     0.059 A 
ATOM     67  F   UNL A   1      47.566  27.115  32.329  1.00  0.00    -0.206 F 
ATOM     68  C   UNL A   1      50.844  26.683  30.876  1.00  0.00     0.060 A 
BRANCH  68  69
ATOM     69  S   UNL A   1      52.543  26.353  31.389  1.00  0.00     0.124 S 
ATOM     70  O   UNL A   1      52.799  27.466  32.297  1.00  0.00    -0.237 OA
ATOM     71  O   UNL A   1      52.432  25.038  32.013  1.00  0.00    -0.237 OA
ATOM     72  O   UNL A   1      53.291  26.383  30.135  1.00  0.00    -0.744 OA
ENDBRANCH  68  69
ENDBRANCH  36  61
ENDBRANCH  10  11
ENDBRANCH   3   5
ENDBRANCH   2   3
ENDBRANCH   1   2
BRANCH   1  73
ATOM     73  C   UNL A   1      31.935  28.711  25.621  1.00  0.00     0.274 C 
BRANCH  73  74
ATOM     74  O   UNL A   1      31.753  28.692  24.194  1.00  0.00    -0.462 OA
BRANCH  74  75
ATOM     75  C   UNL A   1      30.852  27.810  23.660  1.00  0.00     0.315 C 
ATOM     76  O   UNL A   1      29.759  28.123  23.224  1.00  0.00    -0.252 OA
BRANCH  75  77
ATOM     77  C   UNL A   1      31.399  26.391  23.740  1.00  0.00     0.163 C 
ATOM     78  C   UNL A   1      31.780  25.823  22.368  1.00  0.00     0.278 C 
ATOM     79  C   UNL A   1      30.343  25.438  24.288  1.00  0.00     0.067 C 
ATOM     80  N   UNL A   1      31.538  24.394  22.451  1.00  0.00    -0.331 N 
ATOM     81  C   UNL A   1      30.665  24.101  23.586  1.00  0.00     0.267 C 
ATOM     82  H   UNL A   1      31.109  24.251  21.537  1.00  0.00     0.348 HD
BRANCH  79  83
ATOM     83  C   UNL A   1      30.293  25.293  25.801  1.00  0.00    -0.001 C 
ATOM     84  C   UNL A   1      30.364  23.988  26.573  1.00  0.00     0.004 C 
ATOM     85  C   UNL A   1      31.547  24.896  26.552  1.00  0.00     0.004 C 
ENDBRANCH  79  83
BRANCH  80  86
ATOM     86  C   UNL A   1      32.466  23.338  22.016  1.00  0.00     0.187 C 
ATOM     87  C   UNL A   1      32.287  21.959  22.667  1.00  0.00     0.086 C 
ATOM     88  C   UNL A   1      33.985  23.650  22.014  1.00  0.00     0.086 C 
ATOM     89  C   UNL A   1      32.914  21.918  24.036  1.00  0.00     0.126 C 
ATOM     90  C   UNL A   1      34.731  23.463  23.347  1.00  0.00     0.126 C 
ATOM     91  N   UNL A   1      34.342  22.250  24.055  1.00  0.00    -0.338 N 
ATOM     92  C   UNL A   1      35.159  21.429  24.849  1.00  0.00     0.253 C 
ATOM     93  O   UNL A   1      34.775  20.304  25.175  1.00  0.00    -0.269 OA
BRANCH  92  94
ATOM     94  C   UNL A   1      36.443  21.865  25.488  1.00  0.00     0.040 A 
ATOM     95  C   UNL A   1      36.488  23.194  25.957  1.00  0.00     0.014 A 
ATOM     96  C   UNL A   1      37.646  21.152  25.410  1.00  0.00     0.014 A 
ATOM     97  C   UNL A   1      37.691  23.794  26.338  1.00  0.00     0.001 A 
ATOM     98  C   UNL A   1      38.854  21.755  25.796  1.00  0.00     0.001 A 
ATOM     99  C   UNL A   1      38.876  23.074  26.253  1.00  0.00     0.000 A 
ENDBRANCH  92  94
ENDBRANCH  80  86
ENDBRANCH  75  77
ENDBRANCH  74  75
ENDBRANCH  73  74
ENDBRANCH   1  73
TORSDOF 17
ENDMDL
MODEL 3
REMARK VINA RESULT:     -12.1      2.591      9.468
REMARK SMILES O=C(OCCOC(=O)[C@@H]1C[N@@H+](C2CCN(C(=O)c3ccccc3)CC2)C[C@H]1C1CC1)c1ccc(-c2c3nc(c(-c4c(F)cc(S(=O)(=O)[O-])cc4F)c4ccc([nH]4)c(-c4c(F)cc(S(=O)(=O)[O-])cc4F)c4nc(c(-c5c(F)cc(S(=O)(=O)[O-])cc5F)c5ccc2[nH]5)C=C4)C=C3)cc1
REMARK SMILES IDX 4 1 3 2 2 3 1 4 31 5 32 6 96 7 33 8 95 9 34 10 35 11 36 12
REMARK SMILES IDX 89 13 37 14 94 15 88 16 90 17 38 18 93 19 87 20 86 21 39 23
REMARK SMILES IDX 73 24 52 25 72 26 53 27 56 28 71 29 91 30 54 31 55 32 70 34
REMARK SMILES IDX 92 35 57 36 40 37 41 38 50 39 42 40 43 41 49 42 51 43 44 44
REMARK SMILES IDX 45 45 46 46 47 47 48 48 74 49 75 50 84 51 76 52 77 53 83 54
REMARK SMILES IDX 85 55 78 56 79 57 80 58 81 59 82 60 58 61 59 62 68 63 60 64
REMARK SMILES IDX 61 65 67 66 69 67 62 68 63 69 64 70 65 71 66 72 5 73 6 74
REMARK SMILES IDX 7 75 8 76 9 77 10 78 27 79 11 80 26 81 28 83 29 84 30 85
REMARK SMILES IDX 12 86 13 87 25 88 14 89 24 90 15 91 16 92 17 93 18 94 19 95
REMARK SMILES IDX 23 96 20 97 22 98 21 99
REMARK H PARENT 90 22 56 33 11 82
REMARK Flexibility Score: inf
ROOT
ATOM      1  C   UNL A   1      33.158  35.719  29.127  1.00  0.00     0.275 C 
ENDROOT
BRANCH   1   2
ATOM      2  O   UNL A   1      32.529  35.411  30.375  1.00  0.00    -0.458 OA
BRANCH   2   3
ATOM      3  C   UNL A   1      32.952  35.739  31.614  1.00  0.00     0.338 C 
ATOM      4  O   UNL A   1      32.511  36.782  32.104  1.00  0.00    -0.246 OA
BRANCH   3   5
ATOM      5  C   UNL A   1      33.914  34.930  32.450  1.00  0.00     0.060 A 
ATOM      6  C   UNL A   1      33.712  33.708  33.112  1.00  0.00     0.016 A 
ATOM      7  C   UNL A   1      35.214  35.435  32.462  1.00  0.00     0.016 A 
ATOM      8  C   UNL A   1      34.788  32.955  33.638  1.00  0.00     0.010 A 
ATOM      9  C   UNL A   1      36.265  34.701  33.005  1.00  0.00     0.010 A 
ATOM     10  C   UNL A   1      36.095  33.422  33.545  1.00  0.00    -0.014 A 
BRANCH  10  11
ATOM     11  C   UNL A   1      37.300  32.640  33.978  1.00  0.00     0.031 A 
ATOM     12  C   UNL A   1      37.920  32.930  35.319  1.00  0.00     0.074 A 
ATOM     13  C   UNL A   1      37.987  31.848  33.122  1.00  0.00     0.049 A 
ATOM     14  N   UNL A   1      39.080  32.560  35.790  1.00  0.00    -0.248 NA
ATOM     15  C   UNL A   1      37.179  33.853  36.189  1.00  0.00     0.031 C 
ATOM     16  C   UNL A   1      37.667  31.667  31.712  1.00  0.00     0.029 A 
ATOM     17  N   UNL A   1      39.121  31.087  33.285  1.00  0.00    -0.354 N 
ATOM     18  C   UNL A   1      39.284  33.350  36.917  1.00  0.00     0.074 A 
ATOM     19  C   UNL A   1      38.122  34.200  37.050  1.00  0.00     0.031 C 
ATOM     20  C   UNL A   1      38.518  30.786  31.158  1.00  0.00     0.029 A 
ATOM     21  C   UNL A   1      39.484  30.366  32.166  1.00  0.00     0.049 A 
ATOM     22  H   UNL A   1      39.630  31.059  34.128  1.00  0.00     0.167 HD
ATOM     23  C   UNL A   1      40.340  33.358  37.765  1.00  0.00     0.037 A 
ATOM     24  C   UNL A   1      40.473  29.466  31.977  1.00  0.00     0.037 A 
ATOM     25  C   UNL A   1      41.421  32.412  37.693  1.00  0.00     0.049 A 
ATOM     26  C   UNL A   1      41.438  29.212  33.107  1.00  0.00     0.074 A 
ATOM     27  C   UNL A   1      42.429  32.185  38.612  1.00  0.00     0.029 A 
ATOM     28  N   UNL A   1      41.614  31.512  36.655  1.00  0.00    -0.354 N 
ATOM     29  N   UNL A   1      41.561  29.868  34.235  1.00  0.00    -0.248 NA
ATOM     30  C   UNL A   1      42.396  28.108  32.950  1.00  0.00     0.031 C 
ATOM     31  C   UNL A   1      43.222  31.133  38.140  1.00  0.00     0.029 A 
ATOM     32  C   UNL A   1      42.686  30.683  36.945  1.00  0.00     0.049 A 
ATOM     33  H   UNL A   1      41.072  31.469  35.834  1.00  0.00     0.167 HD
ATOM     34  C   UNL A   1      42.589  29.244  34.931  1.00  0.00     0.074 A 
ATOM     35  C   UNL A   1      43.044  28.144  34.108  1.00  0.00     0.031 C 
ATOM     36  C   UNL A   1      43.109  29.565  36.140  1.00  0.00     0.037 A 
BRANCH  23  37
ATOM     37  C   UNL A   1      40.345  34.384  38.868  1.00  0.00     0.058 A 
ATOM     38  C   UNL A   1      39.746  34.136  40.114  1.00  0.00     0.135 A 
ATOM     39  C   UNL A   1      40.967  35.631  38.684  1.00  0.00     0.135 A 
ATOM     40  F   UNL A   1      39.143  32.960  40.357  1.00  0.00    -0.206 F 
ATOM     41  C   UNL A   1      39.694  35.107  41.105  1.00  0.00     0.059 A 
ATOM     42  C   UNL A   1      40.975  36.599  39.684  1.00  0.00     0.059 A 
ATOM     43  F   UNL A   1      41.575  35.924  37.523  1.00  0.00    -0.206 F 
ATOM     44  C   UNL A   1      40.308  36.337  40.880  1.00  0.00     0.060 A 
BRANCH  44  45
ATOM     45  S   UNL A   1      40.242  37.583  42.182  1.00  0.00     0.124 S 
ATOM     46  O   UNL A   1      41.658  37.890  42.360  1.00  0.00    -0.237 OA
ATOM     47  O   UNL A   1      39.439  38.639  41.572  1.00  0.00    -0.237 OA
ATOM     48  O   UNL A   1      39.606  36.880  43.291  1.00  0.00    -0.744 OA
ENDBRANCH  44  45
ENDBRANCH  23  37
BRANCH  24  49
ATOM     49  C   UNL A   1      40.554  28.657  30.726  1.00  0.00     0.058 A 
ATOM     50  C   UNL A   1      41.526  28.961  29.756  1.00  0.00     0.135 A 
ATOM     51  C   UNL A   1      39.681  27.595  30.451  1.00  0.00     0.135 A 
ATOM     52  F   UNL A   1      42.384  29.972  29.964  1.00  0.00    -0.206 F 
ATOM     53  C   UNL A   1      41.614  28.266  28.554  1.00  0.00     0.059 A 
ATOM     54  C   UNL A   1      39.765  26.866  29.263  1.00  0.00     0.059 A 
ATOM     55  F   UNL A   1      38.746  27.243  31.346  1.00  0.00    -0.206 F 
ATOM     56  C   UNL A   1      40.727  27.216  28.316  1.00  0.00     0.060 A 
BRANCH  56  57
ATOM     57  S   UNL A   1      40.886  26.292  26.770  1.00  0.00     0.124 S 
ATOM     58  O   UNL A   1      39.606  25.597  26.706  1.00  0.00    -0.237 OA
ATOM     59  O   UNL A   1      41.081  27.362  25.795  1.00  0.00    -0.237 OA
ATOM     60  O   UNL A   1      42.054  25.448  27.002  1.00  0.00    -0.744 OA
ENDBRANCH  56  57
ENDBRANCH  24  49
BRANCH  36  61
ATOM     61  C   UNL A   1      44.177  28.671  36.704  1.00  0.00     0.058 A 
ATOM     62  C   UNL A   1      45.528  29.045  36.734  1.00  0.00     0.135 A 
ATOM     63  C   UNL A   1      43.821  27.447  37.294  1.00  0.00     0.135 A 
ATOM     64  F   UNL A   1      45.922  30.203  36.179  1.00  0.00    -0.206 F 
ATOM     65  C   UNL A   1      46.493  28.230  37.316  1.00  0.00     0.059 A 
ATOM     66  C   UNL A   1      44.765  26.627  37.903  1.00  0.00     0.059 A 
ATOM     67  F   UNL A   1      42.540  27.045  37.297  1.00  0.00    -0.206 F 
ATOM     68  C   UNL A   1      46.101  27.025  37.903  1.00  0.00     0.060 A 
BRANCH  68  69
ATOM     69  S   UNL A   1      47.355  25.998  38.696  1.00  0.00     0.124 S 
ATOM     70  O   UNL A   1      48.308  27.001  39.159  1.00  0.00    -0.237 OA
ATOM     71  O   UNL A   1      46.591  25.320  39.739  1.00  0.00    -0.237 OA
ATOM     72  O   UNL A   1      47.827  25.137  37.615  1.00  0.00    -0.744 OA
ENDBRANCH  68  69
ENDBRANCH  36  61
ENDBRANCH  10  11
ENDBRANCH   3   5
ENDBRANCH   2   3
ENDBRANCH   1   2
BRANCH   1  73
ATOM     73  C   UNL A   1      33.345  34.490  28.231  1.00  0.00     0.274 C 
BRANCH  73  74
ATOM     74  O   UNL A   1      34.632  33.872  28.411  1.00  0.00    -0.462 OA
BRANCH  74  75
ATOM     75  C   UNL A   1      34.683  32.600  28.916  1.00  0.00     0.315 C 
ATOM     76  O   UNL A   1      34.768  32.333  30.100  1.00  0.00    -0.252 OA
BRANCH  75  77
ATOM     77  C   UNL A   1      34.665  31.587  27.779  1.00  0.00     0.163 C 
ATOM     78  C   UNL A   1      33.298  30.915  27.602  1.00  0.00     0.278 C 
ATOM     79  C   UNL A   1      35.637  30.447  28.060  1.00  0.00     0.067 C 
ATOM     80  N   UNL A   1      33.576  29.575  27.120  1.00  0.00    -0.331 N 
ATOM     81  C   UNL A   1      34.974  29.230  27.380  1.00  0.00     0.267 C 
ATOM     82  H   UNL A   1      32.900  29.059  27.683  1.00  0.00     0.348 HD
BRANCH  79  83
ATOM     83  C   UNL A   1      37.069  30.657  27.588  1.00  0.00    -0.001 C 
ATOM     84  C   UNL A   1      38.321  30.393  28.403  1.00  0.00     0.004 C 
ATOM     85  C   UNL A   1      37.943  29.452  27.310  1.00  0.00     0.004 C 
ENDBRANCH  79  83
BRANCH  80  86
ATOM     86  C   UNL A   1      32.913  28.915  25.985  1.00  0.00     0.187 C 
ATOM     87  C   UNL A   1      31.489  28.394  26.233  1.00  0.00     0.086 C 
ATOM     88  C   UNL A   1      33.683  27.800  25.230  1.00  0.00     0.086 C 
ATOM     89  C   UNL A   1      31.511  27.076  26.961  1.00  0.00     0.126 C 
ATOM     90  C   UNL A   1      33.608  26.383  25.826  1.00  0.00     0.126 C 
ATOM     91  N   UNL A   1      32.270  26.023  26.279  1.00  0.00    -0.338 N 
ATOM     92  C   UNL A   1      31.672  24.753  26.239  1.00  0.00     0.253 C 
ATOM     93  O   UNL A   1      30.457  24.637  26.410  1.00  0.00    -0.269 OA
BRANCH  92  94
ATOM     94  C   UNL A   1      32.422  23.458  26.155  1.00  0.00     0.040 A 
ATOM     95  C   UNL A   1      32.821  22.887  27.380  1.00  0.00     0.014 A 
ATOM     96  C   UNL A   1      32.967  22.937  24.976  1.00  0.00     0.014 A 
ATOM     97  C   UNL A   1      33.733  21.829  27.431  1.00  0.00     0.001 A 
ATOM     98  C   UNL A   1      33.880  21.871  25.027  1.00  0.00     0.001 A 
ATOM     99  C   UNL A   1      34.266  21.323  26.252  1.00  0.00     0.000 A 
ENDBRANCH  92  94
ENDBRANCH  80  86
ENDBRANCH  75  77
ENDBRANCH  74  75
ENDBRANCH  73  74
ENDBRANCH   1  73
TORSDOF 17
ENDMDL
