MODEL 1
REMARK VINA RESULT:     -12.6      0.000      0.000
REMARK SMILES O=C(Cc1c(C(=O)c2cc3c(cn2)CCCC3)[nH]c2cc(Cl)ccc12)OCCOC(=O)c1ccc(-c2c3nc(c(-c4c(F)cc(S(=O)(=O)[O-])cc4F)c4ccc([nH]4)c(-c4c(F)cc(S(=O)(=O)[O-])cc4F)c4nc(c(-c5c(F)cc(S(=O)(=O)[O-])cc5F)c5ccc2[nH]5)C=C4)C=C3)cc1
REMARK SMILES IDX 27 1 26 2 2 3 1 4 3 5 4 6 5 7 25 8 18 9 19 10 24 11 20 13
REMARK SMILES IDX 23 14 21 15 22 16 6 17 7 18 8 19 9 20 13 21 10 22 12 23
REMARK SMILES IDX 11 24 17 25 14 26 16 27 15 28 28 29 29 30 30 31 31 32 32 33
REMARK SMILES IDX 33 34 97 35 34 36 96 37 35 38 36 39 37 40 90 41 38 42 95 43
REMARK SMILES IDX 89 44 91 45 39 46 94 47 88 48 87 49 40 51 74 52 53 53 73 54
REMARK SMILES IDX 54 55 57 56 72 57 92 58 55 59 56 60 71 62 93 63 58 64 41 65
REMARK SMILES IDX 42 66 51 67 43 68 44 69 50 70 52 71 45 72 46 73 47 74 48 75
REMARK SMILES IDX 49 76 75 77 76 78 85 79 77 80 78 81 84 82 86 83 79 84 80 85
REMARK SMILES IDX 81 86 82 87 83 88 59 89 60 90 69 91 61 92 62 93 68 94 70 95
REMARK SMILES IDX 63 96 64 97 65 98 66 99 67 100
REMARK H PARENT 18 12 91 50 57 61
REMARK Flexibility Score: inf
ROOT
ATOM      1  C   UNL A   1      33.764  29.830  27.048  1.00  0.00     0.274 C 
ENDROOT
BRANCH   1   2
ATOM      2  O   UNL A   1      34.406  28.627  26.582  1.00  0.00    -0.462 OA
BRANCH   2   3
ATOM      3  C   UNL A   1      33.778  27.461  26.304  1.00  0.00     0.310 C 
ATOM      4  O   UNL A   1      34.296  26.664  25.518  1.00  0.00    -0.252 OA
BRANCH   3   5
ATOM      5  C   UNL A   1      32.398  27.195  26.848  1.00  0.00     0.161 C 
BRANCH   5   6
ATOM      6  C   UNL A   1      31.259  26.808  25.953  1.00  0.00     0.000 A 
ATOM      7  C   UNL A   1      30.630  25.581  25.763  1.00  0.00     0.093 A 
ATOM      8  C   UNL A   1      30.690  27.731  25.004  1.00  0.00     0.004 A 
ATOM      9  N   UNL A   1      29.665  25.776  24.792  1.00  0.00    -0.351 N 
ATOM     10  C   UNL A   1      29.727  27.045  24.273  1.00  0.00     0.048 A 
ATOM     11  C   UNL A   1      30.945  29.082  24.679  1.00  0.00     0.012 A 
ATOM     12  H   UNL A   1      29.016  25.093  24.509  1.00  0.00     0.167 HD
ATOM     13  C   UNL A   1      29.022  27.631  23.213  1.00  0.00     0.047 A 
ATOM     14  C   UNL A   1      30.259  29.684  23.618  1.00  0.00     0.021 A 
ATOM     15  C   UNL A   1      29.315  28.962  22.897  1.00  0.00     0.043 A 
ATOM     16  Cl  UNL A   1      28.485  29.721  21.594  1.00  0.00    -0.084 Cl
BRANCH   7  17
ATOM     17  C   UNL A   1      30.910  24.302  26.395  1.00  0.00     0.227 C 
ATOM     18  O   UNL A   1      30.152  23.731  27.173  1.00  0.00    -0.285 OA
BRANCH  17  19
ATOM     19  C   UNL A   1      32.216  23.661  26.166  1.00  0.00     0.113 A 
ATOM     20  C   UNL A   1      32.755  23.705  24.889  1.00  0.00     0.036 A 
ATOM     21  N   UNL A   1      32.827  23.118  27.247  1.00  0.00    -0.252 NA
ATOM     22  C   UNL A   1      34.033  23.185  24.700  1.00  0.00    -0.041 A 
ATOM     23  C   UNL A   1      34.072  22.645  27.042  1.00  0.00     0.115 A 
ATOM     24  C   UNL A   1      34.714  22.645  25.803  1.00  0.00    -0.026 A 
ATOM     25  C   UNL A   1      34.626  23.175  23.317  1.00  0.00     0.036 C 
ATOM     26  C   UNL A   1      36.132  22.159  25.694  1.00  0.00     0.037 C 
ATOM     27  C   UNL A   1      36.139  22.969  23.318  1.00  0.00     0.005 C 
ATOM     28  C   UNL A   1      36.529  21.831  24.255  1.00  0.00     0.005 C 
ENDBRANCH  17  19
ENDBRANCH   7  17
ENDBRANCH   5   6
ENDBRANCH   3   5
ENDBRANCH   2   3
ENDBRANCH   1   2
BRANCH   1  29
ATOM     29  C   UNL A   1      34.650  30.536  28.075  1.00  0.00     0.275 C 
BRANCH  29  30
ATOM     30  O   UNL A   1      35.540  29.570  28.659  1.00  0.00    -0.458 OA
BRANCH  30  31
ATOM     31  C   UNL A   1      36.352  30.006  29.657  1.00  0.00     0.338 C 
ATOM     32  O   UNL A   1      36.017  30.412  30.753  1.00  0.00    -0.246 OA
BRANCH  31  33
ATOM     33  C   UNL A   1      37.739  29.668  29.259  1.00  0.00     0.060 A 
ATOM     34  C   UNL A   1      38.736  29.481  30.224  1.00  0.00     0.016 A 
ATOM     35  C   UNL A   1      38.066  29.683  27.897  1.00  0.00     0.016 A 
ATOM     36  C   UNL A   1      40.062  29.317  29.824  1.00  0.00     0.010 A 
ATOM     37  C   UNL A   1      39.398  29.531  27.500  1.00  0.00     0.010 A 
ATOM     38  C   UNL A   1      40.402  29.342  28.461  1.00  0.00    -0.014 A 
BRANCH  38  39
ATOM     39  C   UNL A   1      41.776  28.969  28.056  1.00  0.00     0.031 A 
ATOM     40  C   UNL A   1      42.911  29.944  28.061  1.00  0.00     0.074 A 
ATOM     41  C   UNL A   1      41.987  27.683  27.724  1.00  0.00     0.049 A 
ATOM     42  N   UNL A   1      44.189  29.710  27.905  1.00  0.00    -0.248 NA
ATOM     43  C   UNL A   1      42.577  31.356  28.279  1.00  0.00     0.031 C 
ATOM     44  C   UNL A   1      40.950  26.651  27.690  1.00  0.00     0.029 A 
ATOM     45  N   UNL A   1      43.133  27.025  27.374  1.00  0.00    -0.354 N 
ATOM     46  C   UNL A   1      44.824  30.936  28.054  1.00  0.00     0.074 A 
ATOM     47  C   UNL A   1      43.779  31.920  28.269  1.00  0.00     0.031 C 
ATOM     48  C   UNL A   1      41.513  25.480  27.360  1.00  0.00     0.029 A 
ATOM     49  C   UNL A   1      42.942  25.686  27.146  1.00  0.00     0.049 A 
ATOM     50  H   UNL A   1      44.009  27.467  27.293  1.00  0.00     0.167 HD
ATOM     51  C   UNL A   1      46.152  31.206  28.020  1.00  0.00     0.037 A 
ATOM     52  C   UNL A   1      43.820  24.722  26.816  1.00  0.00     0.037 A 
ATOM     53  C   UNL A   1      47.175  30.232  27.725  1.00  0.00     0.049 A 
ATOM     54  C   UNL A   1      45.272  25.065  26.688  1.00  0.00     0.074 A 
ATOM     55  C   UNL A   1      48.548  30.407  27.672  1.00  0.00     0.029 A 
ATOM     56  N   UNL A   1      46.936  28.902  27.400  1.00  0.00    -0.354 N 
ATOM     57  N   UNL A   1      45.865  26.216  26.891  1.00  0.00    -0.248 NA
ATOM     58  C   UNL A   1      46.173  23.977  26.293  1.00  0.00     0.031 C 
ATOM     59  C   UNL A   1      49.133  29.198  27.268  1.00  0.00     0.029 A 
ATOM     60  C   UNL A   1      48.130  28.256  27.111  1.00  0.00     0.049 A 
ATOM     61  H   UNL A   1      46.048  28.479  27.377  1.00  0.00     0.167 HD
ATOM     62  C   UNL A   1      47.216  25.993  26.657  1.00  0.00     0.074 A 
ATOM     63  C   UNL A   1      47.350  24.590  26.312  1.00  0.00     0.031 C 
ATOM     64  C   UNL A   1      48.249  26.869  26.728  1.00  0.00     0.037 A 
BRANCH  51  65
ATOM     65  C   UNL A   1      46.570  32.624  28.300  1.00  0.00     0.058 A 
ATOM     66  C   UNL A   1      46.916  33.039  29.598  1.00  0.00     0.135 A 
ATOM     67  C   UNL A   1      46.649  33.574  27.270  1.00  0.00     0.135 A 
ATOM     68  F   UNL A   1      46.852  32.173  30.622  1.00  0.00    -0.206 F 
ATOM     69  C   UNL A   1      47.293  34.351  29.869  1.00  0.00     0.059 A 
ATOM     70  C   UNL A   1      47.042  34.888  27.515  1.00  0.00     0.059 A 
ATOM     71  F   UNL A   1      46.333  33.233  26.011  1.00  0.00    -0.206 F 
ATOM     72  C   UNL A   1      47.345  35.271  28.821  1.00  0.00     0.060 A 
BRANCH  72  73
ATOM     73  S   UNL A   1      47.803  36.979  29.192  1.00  0.00     0.124 S 
ATOM     74  O   UNL A   1      47.499  37.059  30.619  1.00  0.00    -0.237 OA
ATOM     75  O   UNL A   1      49.220  37.007  28.844  1.00  0.00    -0.237 OA
ATOM     76  O   UNL A   1      46.931  37.762  28.323  1.00  0.00    -0.744 OA
ENDBRANCH  72  73
ENDBRANCH  51  65
BRANCH  52  77
ATOM     77  C   UNL A   1      43.322  23.338  26.639  1.00  0.00     0.058 A 
ATOM     78  C   UNL A   1      43.303  22.745  25.371  1.00  0.00     0.135 A 
ATOM     79  C   UNL A   1      42.969  22.549  27.745  1.00  0.00     0.135 A 
ATOM     80  F   UNL A   1      43.634  23.465  24.288  1.00  0.00    -0.206 F 
ATOM     81  C   UNL A   1      42.969  21.407  25.203  1.00  0.00     0.059 A 
ATOM     82  C   UNL A   1      42.649  21.204  27.606  1.00  0.00     0.059 A 
ATOM     83  F   UNL A   1      42.993  23.074  28.980  1.00  0.00    -0.206 F 
ATOM     84  C   UNL A   1      42.657  20.642  26.329  1.00  0.00     0.060 A 
BRANCH  84  85
ATOM     85  S   UNL A   1      42.340  18.877  26.109  1.00  0.00     0.124 S 
ATOM     86  O   UNL A   1      43.277  18.540  25.044  1.00  0.00    -0.237 OA
ATOM     87  O   UNL A   1      42.657  18.344  27.432  1.00  0.00    -0.237 OA
ATOM     88  O   UNL A   1      40.927  18.832  25.747  1.00  0.00    -0.744 OA
ENDBRANCH  84  85
ENDBRANCH  52  77
BRANCH  64  89
ATOM     89  C   UNL A   1      49.615  26.328  26.406  1.00  0.00     0.058 A 
ATOM     90  C   UNL A   1      50.414  25.725  27.392  1.00  0.00     0.135 A 
ATOM     91  C   UNL A   1      50.133  26.415  25.106  1.00  0.00     0.135 A 
ATOM     92  F   UNL A   1      49.969  25.626  28.655  1.00  0.00    -0.206 F 
ATOM     93  C   UNL A   1      51.692  25.258  27.105  1.00  0.00     0.059 A 
ATOM     94  C   UNL A   1      51.401  25.934  24.792  1.00  0.00     0.059 A 
ATOM     95  F   UNL A   1      49.410  26.977  24.124  1.00  0.00    -0.206 F 
ATOM     96  C   UNL A   1      52.180  25.371  25.803  1.00  0.00     0.060 A 
BRANCH  96  97
ATOM     97  S   UNL A   1      53.842  24.763  25.443  1.00  0.00     0.124 S 
ATOM     98  O   UNL A   1      54.488  24.885  26.745  1.00  0.00    -0.237 OA
ATOM     99  O   UNL A   1      53.586  23.400  24.987  1.00  0.00    -0.237 OA
ATOM    100  O   UNL A   1      54.324  25.680  24.414  1.00  0.00    -0.744 OA
ENDBRANCH  96  97
ENDBRANCH  64  89
ENDBRANCH  38  39
ENDBRANCH  31  33
ENDBRANCH  30  31
ENDBRANCH  29  30
ENDBRANCH   1  29
TORSDOF 17
ENDMDL
MODEL 2
REMARK VINA RESULT:     -12.5      3.101      9.231
REMARK SMILES O=C(Cc1c(C(=O)c2cc3c(cn2)CCCC3)[nH]c2cc(Cl)ccc12)OCCOC(=O)c1ccc(-c2c3nc(c(-c4c(F)cc(S(=O)(=O)[O-])cc4F)c4ccc([nH]4)c(-c4c(F)cc(S(=O)(=O)[O-])cc4F)c4nc(c(-c5c(F)cc(S(=O)(=O)[O-])cc5F)c5ccc2[nH]5)C=C4)C=C3)cc1
REMARK SMILES IDX 27 1 26 2 2 3 1 4 3 5 4 6 5 7 25 8 18 9 19 10 24 11 20 13
REMARK SMILES IDX 23 14 21 15 22 16 6 17 7 18 8 19 9 20 13 21 10 22 12 23
REMARK SMILES IDX 11 24 17 25 14 26 16 27 15 28 28 29 29 30 30 31 31 32 32 33
REMARK SMILES IDX 33 34 97 35 34 36 96 37 35 38 36 39 37 40 90 41 38 42 95 43
REMARK SMILES IDX 89 44 91 45 39 46 94 47 88 48 87 49 40 51 74 52 53 53 73 54
REMARK SMILES IDX 54 55 57 56 72 57 92 58 55 59 56 60 71 62 93 63 58 64 41 65
REMARK SMILES IDX 42 66 51 67 43 68 44 69 50 70 52 71 45 72 46 73 47 74 48 75
REMARK SMILES IDX 49 76 75 77 76 78 85 79 77 80 78 81 84 82 86 83 79 84 80 85
REMARK SMILES IDX 81 86 82 87 83 88 59 89 60 90 69 91 61 92 62 93 68 94 70 95
REMARK SMILES IDX 63 96 64 97 65 98 66 99 67 100
REMARK H PARENT 18 12 91 50 57 61
REMARK Flexibility Score: inf
ROOT
ATOM      1  C   UNL A   1      32.238  27.798  26.296  1.00  0.00     0.274 C 
ENDROOT
BRANCH   1   2
ATOM      2  O   UNL A   1      31.570  26.643  26.839  1.00  0.00    -0.462 OA
BRANCH   2   3
ATOM      3  C   UNL A   1      31.927  25.356  26.619  1.00  0.00     0.310 C 
ATOM      4  O   UNL A   1      31.379  24.456  27.260  1.00  0.00    -0.252 OA
BRANCH   3   5
ATOM      5  C   UNL A   1      33.072  25.034  25.695  1.00  0.00     0.161 C 
BRANCH   5   6
ATOM      6  C   UNL A   1      32.863  24.297  24.406  1.00  0.00     0.000 A 
ATOM      7  C   UNL A   1      32.605  24.770  23.122  1.00  0.00     0.093 A 
ATOM      8  C   UNL A   1      32.789  22.860  24.354  1.00  0.00     0.004 A 
ATOM      9  N   UNL A   1      32.459  23.658  22.313  1.00  0.00    -0.351 N 
ATOM     10  C   UNL A   1      32.499  22.498  23.045  1.00  0.00     0.048 A 
ATOM     11  C   UNL A   1      32.903  21.839  25.324  1.00  0.00     0.012 A 
ATOM     12  H   UNL A   1      32.340  23.694  21.336  1.00  0.00     0.167 HD
ATOM     13  C   UNL A   1      32.290  21.168  22.655  1.00  0.00     0.047 A 
ATOM     14  C   UNL A   1      32.688  20.504  24.960  1.00  0.00     0.021 A 
ATOM     15  C   UNL A   1      32.383  20.181  23.643  1.00  0.00     0.043 A 
ATOM     16  Cl  UNL A   1      32.120  18.534  23.215  1.00  0.00    -0.084 Cl
BRANCH   7  17
ATOM     17  C   UNL A   1      32.462  26.142  22.663  1.00  0.00     0.227 C 
ATOM     18  O   UNL A   1      33.362  26.798  22.148  1.00  0.00    -0.285 OA
BRANCH  17  19
ATOM     19  C   UNL A   1      31.188  26.845  22.891  1.00  0.00     0.113 A 
ATOM     20  C   UNL A   1      31.038  28.119  22.365  1.00  0.00     0.036 A 
ATOM     21  N   UNL A   1      30.226  26.162  23.559  1.00  0.00    -0.252 NA
ATOM     22  C   UNL A   1      29.798  28.739  22.498  1.00  0.00    -0.041 A 
ATOM     23  C   UNL A   1      29.029  26.775  23.651  1.00  0.00     0.115 A 
ATOM     24  C   UNL A   1      28.764  28.051  23.152  1.00  0.00    -0.026 A 
ATOM     25  C   UNL A   1      29.617  30.141  21.979  1.00  0.00     0.036 C 
ATOM     26  C   UNL A   1      27.374  28.617  23.243  1.00  0.00     0.037 C 
ATOM     27  C   UNL A   1      28.150  30.532  21.819  1.00  0.00     0.005 C 
ATOM     28  C   UNL A   1      27.346  30.132  23.051  1.00  0.00     0.005 C 
ENDBRANCH  17  19
ENDBRANCH   7  17
ENDBRANCH   5   6
ENDBRANCH   3   5
ENDBRANCH   2   3
ENDBRANCH   1   2
BRANCH   1  29
ATOM     29  C   UNL A   1      32.793  28.666  27.426  1.00  0.00     0.275 C 
BRANCH  29  30
ATOM     30  O   UNL A   1      34.019  29.273  26.983  1.00  0.00    -0.458 OA
BRANCH  30  31
ATOM     31  C   UNL A   1      34.500  30.302  27.727  1.00  0.00     0.338 C 
ATOM     32  O   UNL A   1      33.866  31.223  28.204  1.00  0.00    -0.246 OA
BRANCH  31  33
ATOM     33  C   UNL A   1      35.905  29.971  28.058  1.00  0.00     0.060 A 
ATOM     34  C   UNL A   1      36.899  29.995  27.072  1.00  0.00     0.016 A 
ATOM     35  C   UNL A   1      36.195  29.492  29.343  1.00  0.00     0.016 A 
ATOM     36  C   UNL A   1      38.180  29.531  27.371  1.00  0.00     0.010 A 
ATOM     37  C   UNL A   1      37.477  29.018  29.637  1.00  0.00     0.010 A 
ATOM     38  C   UNL A   1      38.477  29.040  28.654  1.00  0.00    -0.014 A 
BRANCH  38  39
ATOM     39  C   UNL A   1      39.885  28.743  29.002  1.00  0.00     0.031 A 
ATOM     40  C   UNL A   1      40.523  27.419  28.721  1.00  0.00     0.074 A 
ATOM     41  C   UNL A   1      40.603  29.742  29.544  1.00  0.00     0.049 A 
ATOM     42  N   UNL A   1      41.786  27.087  28.809  1.00  0.00    -0.248 NA
ATOM     43  C   UNL A   1      39.641  26.334  28.278  1.00  0.00     0.031 C 
ATOM     44  C   UNL A   1      40.078  31.072  29.854  1.00  0.00     0.029 A 
ATOM     45  N   UNL A   1      41.920  29.803  29.910  1.00  0.00    -0.354 N 
ATOM     46  C   UNL A   1      41.865  25.767  28.384  1.00  0.00     0.074 A 
ATOM     47  C   UNL A   1      40.509  25.347  28.083  1.00  0.00     0.031 C 
ATOM     48  C   UNL A   1      41.071  31.828  30.344  1.00  0.00     0.029 A 
ATOM     49  C   UNL A   1      42.292  31.030  30.395  1.00  0.00     0.049 A 
ATOM     50  H   UNL A   1      42.539  29.041  29.834  1.00  0.00     0.167 HD
ATOM     51  C   UNL A   1      42.967  24.988  28.254  1.00  0.00     0.037 A 
ATOM     52  C   UNL A   1      43.488  31.475  30.820  1.00  0.00     0.037 A 
ATOM     53  C   UNL A   1      44.300  25.392  28.634  1.00  0.00     0.049 A 
ATOM     54  C   UNL A   1      44.674  30.563  30.759  1.00  0.00     0.074 A 
ATOM     55  C   UNL A   1      45.481  24.677  28.537  1.00  0.00     0.029 A 
ATOM     56  N   UNL A   1      44.626  26.611  29.217  1.00  0.00    -0.354 N 
ATOM     57  N   UNL A   1      44.745  29.338  30.299  1.00  0.00    -0.248 NA
ATOM     58  C   UNL A   1      45.942  31.097  31.268  1.00  0.00     0.031 C 
ATOM     59  C   UNL A   1      46.511  25.442  29.105  1.00  0.00     0.029 A 
ATOM     60  C   UNL A   1      45.980  26.654  29.516  1.00  0.00     0.049 A 
ATOM     61  H   UNL A   1      43.987  27.340  29.392  1.00  0.00     0.167 HD
ATOM     62  C   UNL A   1      46.070  28.951  30.453  1.00  0.00     0.074 A 
ATOM     63  C   UNL A   1      46.767  30.083  31.036  1.00  0.00     0.031 C 
ATOM     64  C   UNL A   1      46.656  27.770  30.135  1.00  0.00     0.037 A 
BRANCH  51  65
ATOM     65  C   UNL A   1      42.769  23.610  27.685  1.00  0.00     0.058 A 
ATOM     66  C   UNL A   1      42.479  22.514  28.515  1.00  0.00     0.135 A 
ATOM     67  C   UNL A   1      42.848  23.378  26.303  1.00  0.00     0.135 A 
ATOM     68  F   UNL A   1      42.400  22.677  29.845  1.00  0.00    -0.206 F 
ATOM     69  C   UNL A   1      42.307  21.233  27.999  1.00  0.00     0.059 A 
ATOM     70  C   UNL A   1      42.660  22.108  25.762  1.00  0.00     0.059 A 
ATOM     71  F   UNL A   1      43.119  24.388  25.462  1.00  0.00    -0.206 F 
ATOM     72  C   UNL A   1      42.407  21.038  26.621  1.00  0.00     0.060 A 
BRANCH  72  73
ATOM     73  S   UNL A   1      42.215  19.364  25.968  1.00  0.00     0.124 S 
ATOM     74  O   UNL A   1      42.737  18.559  27.069  1.00  0.00    -0.237 OA
ATOM     75  O   UNL A   1      40.775  19.277  25.747  1.00  0.00    -0.237 OA
ATOM     76  O   UNL A   1      43.032  19.374  24.759  1.00  0.00    -0.744 OA
ENDBRANCH  72  73
ENDBRANCH  51  65
BRANCH  52  77
ATOM     77  C   UNL A   1      43.599  32.876  31.289  1.00  0.00     0.058 A 
ATOM     78  C   UNL A   1      43.512  33.179  32.653  1.00  0.00     0.135 A 
ATOM     79  C   UNL A   1      43.909  33.915  30.397  1.00  0.00     0.135 A 
ATOM     80  F   UNL A   1      43.218  32.214  33.538  1.00  0.00    -0.206 F 
ATOM     81  C   UNL A   1      43.747  34.464  33.125  1.00  0.00     0.059 A 
ATOM     82  C   UNL A   1      44.167  35.205  30.846  1.00  0.00     0.059 A 
ATOM     83  F   UNL A   1      44.022  33.663  29.084  1.00  0.00    -0.206 F 
ATOM     84  C   UNL A   1      44.089  35.467  32.214  1.00  0.00     0.060 A 
BRANCH  84  85
ATOM     85  S   UNL A   1      44.508  37.103  32.853  1.00  0.00     0.124 S 
ATOM     86  O   UNL A   1      44.741  37.849  31.622  1.00  0.00    -0.237 OA
ATOM     87  O   UNL A   1      43.301  37.458  33.596  1.00  0.00    -0.237 OA
ATOM     88  O   UNL A   1      45.688  36.852  33.674  1.00  0.00    -0.744 OA
ENDBRANCH  84  85
ENDBRANCH  52  77
BRANCH  64  89
ATOM     89  C   UNL A   1      48.124  27.643  30.433  1.00  0.00     0.058 A 
ATOM     90  C   UNL A   1      48.581  27.130  31.659  1.00  0.00     0.135 A 
ATOM     91  C   UNL A   1      49.085  28.040  29.490  1.00  0.00     0.135 A 
ATOM     92  F   UNL A   1      47.703  26.747  32.599  1.00  0.00    -0.206 F 
ATOM     93  C   UNL A   1      49.938  27.047  31.951  1.00  0.00     0.059 A 
ATOM     94  C   UNL A   1      50.449  27.944  29.754  1.00  0.00     0.059 A 
ATOM     95  F   UNL A   1      48.704  28.532  28.301  1.00  0.00    -0.206 F 
ATOM     96  C   UNL A   1      50.865  27.462  30.994  1.00  0.00     0.060 A 
BRANCH  96  97
ATOM     97  S   UNL A   1      52.624  27.351  31.385  1.00  0.00     0.124 S 
ATOM     98  O   UNL A   1      52.661  27.910  32.732  1.00  0.00    -0.237 OA
ATOM     99  O   UNL A   1      52.879  25.916  31.288  1.00  0.00    -0.237 OA
ATOM    100  O   UNL A   1      53.255  28.164  30.349  1.00  0.00    -0.744 OA
ENDBRANCH  96  97
ENDBRANCH  64  89
ENDBRANCH  38  39
ENDBRANCH  31  33
ENDBRANCH  30  31
ENDBRANCH  29  30
ENDBRANCH   1  29
TORSDOF 17
ENDMDL
MODEL 3
REMARK VINA RESULT:     -12.5      6.944     12.211
REMARK SMILES O=C(Cc1c(C(=O)c2cc3c(cn2)CCCC3)[nH]c2cc(Cl)ccc12)OCCOC(=O)c1ccc(-c2c3nc(c(-c4c(F)cc(S(=O)(=O)[O-])cc4F)c4ccc([nH]4)c(-c4c(F)cc(S(=O)(=O)[O-])cc4F)c4nc(c(-c5c(F)cc(S(=O)(=O)[O-])cc5F)c5ccc2[nH]5)C=C4)C=C3)cc1
REMARK SMILES IDX 27 1 26 2 2 3 1 4 3 5 4 6 5 7 25 8 18 9 19 10 24 11 20 13
REMARK SMILES IDX 23 14 21 15 22 16 6 17 7 18 8 19 9 20 13 21 10 22 12 23
REMARK SMILES IDX 11 24 17 25 14 26 16 27 15 28 28 29 29 30 30 31 31 32 32 33
REMARK SMILES IDX 33 34 97 35 34 36 96 37 35 38 36 39 37 40 90 41 38 42 95 43
REMARK SMILES IDX 89 44 91 45 39 46 94 47 88 48 87 49 40 51 74 52 53 53 73 54
REMARK SMILES IDX 54 55 57 56 72 57 92 58 55 59 56 60 71 62 93 63 58 64 41 65
REMARK SMILES IDX 42 66 51 67 43 68 44 69 50 70 52 71 45 72 46 73 47 74 48 75
REMARK SMILES IDX 49 76 75 77 76 78 85 79 77 80 78 81 84 82 86 83 79 84 80 85
REMARK SMILES IDX 81 86 82 87 83 88 59 89 60 90 69 91 61 92 62 93 68 94 70 95
REMARK SMILES IDX 63 96 64 97 65 98 66 99 67 100
REMARK H PARENT 18 12 91 50 57 61
REMARK Flexibility Score: inf
ROOT
ATOM      1  C   UNL A   1      38.876  21.899  26.028  1.00  0.00     0.274 C 
ENDROOT
BRANCH   1   2
ATOM      2  O   UNL A   1      37.784  22.652  25.465  1.00  0.00    -0.462 OA
BRANCH   2   3
ATOM      3  C   UNL A   1      36.470  22.394  25.666  1.00  0.00     0.310 C 
ATOM      4  O   UNL A   1      35.949  22.701  26.741  1.00  0.00    -0.252 OA
BRANCH   3   5
ATOM      5  C   UNL A   1      35.683  21.622  24.639  1.00  0.00     0.161 C 
BRANCH   5   6
ATOM      6  C   UNL A   1      34.391  20.943  24.983  1.00  0.00     0.000 A 
ATOM      7  C   UNL A   1      33.219  21.450  25.538  1.00  0.00     0.093 A 
ATOM      8  C   UNL A   1      34.227  19.517  24.869  1.00  0.00     0.004 A 
ATOM      9  N   UNL A   1      32.353  20.382  25.679  1.00  0.00    -0.351 N 
ATOM     10  C   UNL A   1      32.962  19.198  25.345  1.00  0.00     0.048 A 
ATOM     11  C   UNL A   1      35.068  18.467  24.438  1.00  0.00     0.012 A 
ATOM     12  H   UNL A   1      31.420  20.460  25.981  1.00  0.00     0.167 HD
ATOM     13  C   UNL A   1      32.499  17.878  25.441  1.00  0.00     0.047 A 
ATOM     14  C   UNL A   1      34.630  17.140  24.533  1.00  0.00     0.021 A 
ATOM     15  C   UNL A   1      33.365  16.857  25.032  1.00  0.00     0.043 A 
ATOM     16  Cl  UNL A   1      32.846  15.219  25.143  1.00  0.00    -0.084 Cl
BRANCH   7  17
ATOM     17  C   UNL A   1      32.915  22.811  25.948  1.00  0.00     0.227 C 
ATOM     18  O   UNL A   1      32.568  23.134  27.080  1.00  0.00    -0.285 OA
BRANCH  17  19
ATOM     19  C   UNL A   1      32.940  23.886  24.941  1.00  0.00     0.113 A 
ATOM     20  C   UNL A   1      33.244  25.172  25.361  1.00  0.00     0.036 A 
ATOM     21  N   UNL A   1      32.715  23.522  23.655  1.00  0.00    -0.252 NA
ATOM     22  C   UNL A   1      33.364  26.165  24.392  1.00  0.00    -0.041 A 
ATOM     23  C   UNL A   1      32.862  24.497  22.736  1.00  0.00     0.115 A 
ATOM     24  C   UNL A   1      33.174  25.821  23.044  1.00  0.00    -0.026 A 
ATOM     25  C   UNL A   1      33.647  27.580  24.819  1.00  0.00     0.036 C 
ATOM     26  C   UNL A   1      33.385  26.818  21.938  1.00  0.00     0.037 C 
ATOM     27  C   UNL A   1      34.150  28.459  23.676  1.00  0.00     0.005 C 
ATOM     28  C   UNL A   1      33.296  28.262  22.428  1.00  0.00     0.005 C 
ENDBRANCH  17  19
ENDBRANCH   7  17
ENDBRANCH   5   6
ENDBRANCH   3   5
ENDBRANCH   2   3
ENDBRANCH   1   2
BRANCH   1  29
ATOM     29  C   UNL A   1      39.916  22.848  26.627  1.00  0.00     0.275 C 
BRANCH  29  30
ATOM     30  O   UNL A   1      39.436  24.197  26.503  1.00  0.00    -0.458 OA
BRANCH  30  31
ATOM     31  C   UNL A   1      40.367  25.166  26.309  1.00  0.00     0.338 C 
ATOM     32  O   UNL A   1      41.008  25.379  25.298  1.00  0.00    -0.246 OA
BRANCH  31  33
ATOM     33  C   UNL A   1      40.287  26.076  27.476  1.00  0.00     0.060 A 
ATOM     34  C   UNL A   1      41.261  27.060  27.684  1.00  0.00     0.016 A 
ATOM     35  C   UNL A   1      39.303  25.839  28.443  1.00  0.00     0.016 A 
ATOM     36  C   UNL A   1      41.253  27.801  28.866  1.00  0.00     0.010 A 
ATOM     37  C   UNL A   1      39.303  26.575  29.632  1.00  0.00     0.010 A 
ATOM     38  C   UNL A   1      40.275  27.563  29.847  1.00  0.00    -0.014 A 
BRANCH  38  39
ATOM     39  C   UNL A   1      40.168  28.491  30.995  1.00  0.00     0.031 A 
ATOM     40  C   UNL A   1      41.062  28.401  32.192  1.00  0.00     0.074 A 
ATOM     41  C   UNL A   1      39.254  29.473  30.903  1.00  0.00     0.049 A 
ATOM     42  N   UNL A   1      41.195  29.251  33.177  1.00  0.00    -0.248 NA
ATOM     43  C   UNL A   1      41.921  27.216  32.294  1.00  0.00     0.031 C 
ATOM     44  C   UNL A   1      38.336  29.653  29.777  1.00  0.00     0.029 A 
ATOM     45  N   UNL A   1      38.960  30.506  31.750  1.00  0.00    -0.354 N 
ATOM     46  C   UNL A   1      42.189  28.735  33.997  1.00  0.00     0.074 A 
ATOM     47  C   UNL A   1      42.592  27.469  33.412  1.00  0.00     0.031 C 
ATOM     48  C   UNL A   1      37.594  30.749  29.993  1.00  0.00     0.029 A 
ATOM     49  C   UNL A   1      37.975  31.334  31.275  1.00  0.00     0.049 A 
ATOM     50  H   UNL A   1      39.410  30.642  32.615  1.00  0.00     0.167 HD
ATOM     51  C   UNL A   1      42.716  29.273  35.125  1.00  0.00     0.037 A 
ATOM     52  C   UNL A   1      37.445  32.452  31.802  1.00  0.00     0.037 A 
ATOM     53  C   UNL A   1      42.250  30.493  35.740  1.00  0.00     0.049 A 
ATOM     54  C   UNL A   1      37.976  32.975  33.100  1.00  0.00     0.074 A 
ATOM     55  C   UNL A   1      42.721  31.122  36.880  1.00  0.00     0.029 A 
ATOM     56  N   UNL A   1      41.181  31.255  35.285  1.00  0.00    -0.354 N 
ATOM     57  N   UNL A   1      38.958  32.508  33.833  1.00  0.00    -0.248 NA
ATOM     58  C   UNL A   1      37.333  34.178  33.638  1.00  0.00     0.031 C 
ATOM     59  C   UNL A   1      41.907  32.234  37.141  1.00  0.00     0.029 A 
ATOM     60  C   UNL A   1      40.955  32.325  36.139  1.00  0.00     0.049 A 
ATOM     61  H   UNL A   1      40.657  31.063  34.473  1.00  0.00     0.167 HD
ATOM     62  C   UNL A   1      39.059  33.367  34.920  1.00  0.00     0.074 A 
ATOM     63  C   UNL A   1      38.046  34.389  34.737  1.00  0.00     0.031 C 
ATOM     64  C   UNL A   1      39.917  33.315  35.970  1.00  0.00     0.037 A 
BRANCH  51  65
ATOM     65  C   UNL A   1      43.854  28.531  35.772  1.00  0.00     0.058 A 
ATOM     66  C   UNL A   1      45.191  28.856  35.487  1.00  0.00     0.135 A 
ATOM     67  C   UNL A   1      43.616  27.504  36.699  1.00  0.00     0.135 A 
ATOM     68  F   UNL A   1      45.476  29.825  34.603  1.00  0.00    -0.206 F 
ATOM     69  C   UNL A   1      46.250  28.168  36.072  1.00  0.00     0.059 A 
ATOM     70  C   UNL A   1      44.660  26.815  37.311  1.00  0.00     0.059 A 
ATOM     71  F   UNL A   1      42.359  27.154  37.011  1.00  0.00    -0.206 F 
ATOM     72  C   UNL A   1      45.974  27.143  36.977  1.00  0.00     0.060 A 
BRANCH  72  73
ATOM     73  S   UNL A   1      47.358  26.235  37.704  1.00  0.00     0.124 S 
ATOM     74  O   UNL A   1      48.012  25.699  36.513  1.00  0.00    -0.237 OA
ATOM     75  O   UNL A   1      48.086  27.284  38.408  1.00  0.00    -0.237 OA
ATOM     76  O   UNL A   1      46.706  25.246  38.557  1.00  0.00    -0.744 OA
ENDBRANCH  72  73
ENDBRANCH  51  65
BRANCH  52  77
ATOM     77  C   UNL A   1      36.381  33.157  31.048  1.00  0.00     0.058 A 
ATOM     78  C   UNL A   1      35.062  33.163  31.516  1.00  0.00     0.135 A 
ATOM     79  C   UNL A   1      36.687  33.929  29.917  1.00  0.00     0.135 A 
ATOM     80  F   UNL A   1      34.729  32.438  32.596  1.00  0.00    -0.206 F 
ATOM     81  C   UNL A   1      34.079  33.927  30.900  1.00  0.00     0.059 A 
ATOM     82  C   UNL A   1      35.726  34.717  29.294  1.00  0.00     0.059 A 
ATOM     83  F   UNL A   1      37.944  33.966  29.448  1.00  0.00    -0.206 F 
ATOM     84  C   UNL A   1      34.425  34.713  29.798  1.00  0.00     0.060 A 
BRANCH  84  85
ATOM     85  S   UNL A   1      33.167  35.791  29.081  1.00  0.00     0.124 S 
ATOM     86  O   UNL A   1      33.984  36.735  28.327  1.00  0.00    -0.237 OA
ATOM     87  O   UNL A   1      32.378  34.853  28.287  1.00  0.00    -0.237 OA
ATOM     88  O   UNL A   1      32.486  36.338  30.251  1.00  0.00    -0.744 OA
ENDBRANCH  84  85
ENDBRANCH  52  77
BRANCH  64  89
ATOM     89  C   UNL A   1      39.778  34.392  37.009  1.00  0.00     0.058 A 
ATOM     90  C   UNL A   1      39.060  34.175  38.198  1.00  0.00     0.135 A 
ATOM     91  C   UNL A   1      40.360  35.654  36.818  1.00  0.00     0.135 A 
ATOM     92  F   UNL A   1      38.475  32.988  38.424  1.00  0.00    -0.206 F 
ATOM     93  C   UNL A   1      38.898  35.181  39.143  1.00  0.00     0.059 A 
ATOM     94  C   UNL A   1      40.229  36.669  37.762  1.00  0.00     0.059 A 
ATOM     95  F   UNL A   1      41.061  35.915  35.703  1.00  0.00    -0.206 F 
ATOM     96  C   UNL A   1      39.482  36.428  38.914  1.00  0.00     0.060 A 
BRANCH  96  97
ATOM     97  S   UNL A   1      39.263  37.728  40.148  1.00  0.00     0.124 S 
ATOM     98  O   UNL A   1      38.177  38.507  39.564  1.00  0.00    -0.237 OA
ATOM     99  O   UNL A   1      38.923  36.969  41.348  1.00  0.00    -0.237 OA
ATOM    100  O   UNL A   1      40.565  38.389  40.180  1.00  0.00    -0.744 OA
ENDBRANCH  96  97
ENDBRANCH  64  89
ENDBRANCH  38  39
ENDBRANCH  31  33
ENDBRANCH  30  31
ENDBRANCH  29  30
ENDBRANCH   1  29
TORSDOF 17
ENDMDL
