MODEL 1
REMARK VINA RESULT:     -11.4      0.000      0.000
REMARK SMILES CC(=O)Nc1ccc2c(C(=O)OCCOC(=O)c3ccc(-c4c5nc(c(-c6c(F)cc(S(=O)(=O)[O-])cc6F)c6ccc([nH]6)c(-c6c(F)cc(S(=O)(=O)[O-])cc6F)c6nc(c(-c7c(F)cc(S(=O)(=O)[O-])cc7F)c7ccc4[nH]7)C=C6)C=C5)cc3)c(C)c(O)nc2n1
REMARK SMILES IDX 14 1 13 2 12 3 10 4 11 5 9 6 5 7 6 8 90 9 7 10 89 11 8 12
REMARK SMILES IDX 88 13 86 14 84 15 85 16 4 17 1 18 2 19 3 20 87 22 15 24
REMARK SMILES IDX 16 25 17 26 18 27 19 28 83 29 20 30 82 31 21 32 22 33 23 34
REMARK SMILES IDX 76 35 24 36 81 37 75 38 77 39 25 40 80 41 74 42 73 43 26 45
REMARK SMILES IDX 60 46 39 47 59 48 40 49 43 50 58 51 78 52 41 53 42 54 57 56
REMARK SMILES IDX 79 57 44 58 27 59 28 60 37 61 29 62 30 63 36 64 38 65 31 66
REMARK SMILES IDX 32 67 33 68 34 69 35 70 61 71 62 72 71 73 63 74 64 75 70 76
REMARK SMILES IDX 72 77 65 78 66 79 67 80 68 81 69 82 45 83 46 84 55 85 47 86
REMARK SMILES IDX 48 87 54 88 56 89 49 90 50 91 51 92 52 93 53 94
REMARK H PARENT 4 21 87 23 77 44 43 55
REMARK Flexibility Score: inf
ROOT
ATOM      1  C   UNL A   1      32.469  30.426  26.779  1.00  0.00     0.275 C 
ENDROOT
BRANCH   1   2
ATOM      2  C   UNL A   1      32.237  29.766  25.422  1.00  0.00     0.275 C 
BRANCH   2   3
ATOM      3  O   UNL A   1      32.880  28.474  25.340  1.00  0.00    -0.458 OA
BRANCH   3   4
ATOM      4  C   UNL A   1      32.049  27.407  25.343  1.00  0.00     0.339 C 
ATOM      5  O   UNL A   1      31.207  27.160  26.195  1.00  0.00    -0.246 OA
BRANCH   4   6
ATOM      6  C   UNL A   1      32.275  26.494  24.190  1.00  0.00     0.079 A 
ATOM      7  C   UNL A   1      35.439  23.793  24.313  1.00  0.00     0.135 A 
ATOM      8  C   UNL A   1      34.939  24.237  25.515  1.00  0.00     0.048 A 
ATOM      9  N   UNL A   1      34.928  24.199  23.132  1.00  0.00    -0.211 NA
ATOM     10  C   UNL A   1      33.881  25.125  25.483  1.00  0.00     0.017 A 
ATOM     11  C   UNL A   1      33.862  25.011  23.106  1.00  0.00     0.166 A 
ATOM     12  C   UNL A   1      33.338  25.562  24.275  1.00  0.00     0.035 A 
ATOM     13  N   UNL A   1      33.281  25.264  21.936  1.00  0.00    -0.193 NA
ATOM     14  C   UNL A   1      32.175  26.028  21.896  1.00  0.00     0.216 A 
ATOM     15  C   UNL A   1      31.617  26.694  22.975  1.00  0.00     0.026 A 
ATOM     16  C   UNL A   1      30.412  27.573  22.852  1.00  0.00     0.051 C 
BRANCH   7  17
ATOM     17  N   UNL A   1      36.539  22.944  24.242  1.00  0.00    -0.311 N 
ATOM     18  C   UNL A   1      35.492  20.807  24.937  1.00  0.00     0.114 C 
ATOM     19  C   UNL A   1      36.705  21.656  24.660  1.00  0.00     0.222 C 
ATOM     20  O   UNL A   1      37.840  21.187  24.729  1.00  0.00    -0.275 OA
ATOM     21  H   UNL A   1      37.334  23.342  23.817  1.00  0.00     0.171 HD
ENDBRANCH   7  17
BRANCH  14  22
ATOM     22  O   UNL A   1      31.627  26.119  20.650  1.00  0.00    -0.493 OA
ATOM     23  H   UNL A   1      30.875  26.659  20.508  1.00  0.00     0.295 HD
ENDBRANCH  14  22
ENDBRANCH   4   6
ENDBRANCH   3   4
ENDBRANCH   2   3
ENDBRANCH   1   2
BRANCH   1  24
ATOM     24  O   UNL A   1      33.540  29.772  27.482  1.00  0.00    -0.458 OA
BRANCH  24  25
ATOM     25  C   UNL A   1      34.459  30.602  28.020  1.00  0.00     0.338 C 
ATOM     26  O   UNL A   1      34.285  31.745  28.406  1.00  0.00    -0.246 OA
BRANCH  25  27
ATOM     27  C   UNL A   1      35.754  29.915  28.166  1.00  0.00     0.060 A 
ATOM     28  C   UNL A   1      36.119  29.419  29.413  1.00  0.00     0.016 A 
ATOM     29  C   UNL A   1      36.694  29.990  27.139  1.00  0.00     0.016 A 
ATOM     30  C   UNL A   1      37.466  29.182  29.677  1.00  0.00     0.010 A 
ATOM     31  C   UNL A   1      38.013  29.575  27.370  1.00  0.00     0.010 A 
ATOM     32  C   UNL A   1      38.440  29.225  28.659  1.00  0.00    -0.014 A 
BRANCH  32  33
ATOM     33  C   UNL A   1      39.869  28.893  28.973  1.00  0.00     0.031 A 
ATOM     34  C   UNL A   1      40.467  27.531  28.671  1.00  0.00     0.074 A 
ATOM     35  C   UNL A   1      40.662  29.857  29.495  1.00  0.00     0.049 A 
ATOM     36  N   UNL A   1      41.701  27.119  28.845  1.00  0.00    -0.248 NA
ATOM     37  C   UNL A   1      39.587  26.501  28.092  1.00  0.00     0.031 C 
ATOM     38  C   UNL A   1      40.223  31.213  29.839  1.00  0.00     0.029 A 
ATOM     39  N   UNL A   1      42.001  29.867  29.803  1.00  0.00    -0.354 N 
ATOM     40  C   UNL A   1      41.746  25.806  28.381  1.00  0.00     0.074 A 
ATOM     41  C   UNL A   1      40.407  25.467  27.958  1.00  0.00     0.031 C 
ATOM     42  C   UNL A   1      41.277  31.943  30.221  1.00  0.00     0.029 A 
ATOM     43  C   UNL A   1      42.448  31.080  30.280  1.00  0.00     0.049 A 
ATOM     44  H   UNL A   1      42.586  29.083  29.693  1.00  0.00     0.167 HD
ATOM     45  C   UNL A   1      42.804  24.963  28.301  1.00  0.00     0.037 A 
ATOM     46  C   UNL A   1      43.646  31.462  30.765  1.00  0.00     0.037 A 
ATOM     47  C   UNL A   1      44.127  25.280  28.774  1.00  0.00     0.049 A 
ATOM     48  C   UNL A   1      44.756  30.456  30.824  1.00  0.00     0.074 A 
ATOM     49  C   UNL A   1      45.253  24.475  28.780  1.00  0.00     0.029 A 
ATOM     50  N   UNL A   1      44.498  26.489  29.345  1.00  0.00    -0.354 N 
ATOM     51  N   UNL A   1      44.768  29.225  30.372  1.00  0.00    -0.248 NA
ATOM     52  C   UNL A   1      46.000  30.872  31.483  1.00  0.00     0.031 C 
ATOM     53  C   UNL A   1      46.280  25.165  29.428  1.00  0.00     0.029 A 
ATOM     54  C   UNL A   1      45.818  26.428  29.761  1.00  0.00     0.049 A 
ATOM     55  H   UNL A   1      43.912  27.272  29.441  1.00  0.00     0.167 HD
ATOM     56  C   UNL A   1      46.026  28.724  30.677  1.00  0.00     0.074 A 
ATOM     57  C   UNL A   1      46.750  29.785  31.347  1.00  0.00     0.031 C 
ATOM     58  C   UNL A   1      46.530  27.493  30.423  1.00  0.00     0.037 A 
BRANCH  45  59
ATOM     59  C   UNL A   1      42.585  23.592  27.711  1.00  0.00     0.058 A 
ATOM     60  C   UNL A   1      42.630  23.371  26.325  1.00  0.00     0.135 A 
ATOM     61  C   UNL A   1      42.414  22.473  28.542  1.00  0.00     0.135 A 
ATOM     62  F   UNL A   1      42.778  24.404  25.481  1.00  0.00    -0.206 F 
ATOM     63  C   UNL A   1      42.501  22.094  25.784  1.00  0.00     0.059 A 
ATOM     64  C   UNL A   1      42.304  21.183  28.024  1.00  0.00     0.059 A 
ATOM     65  F   UNL A   1      42.365  22.623  29.875  1.00  0.00    -0.206 F 
ATOM     66  C   UNL A   1      42.341  21.005  26.643  1.00  0.00     0.060 A 
BRANCH  66  67
ATOM     67  S   UNL A   1      42.174  19.356  25.923  1.00  0.00     0.124 S 
ATOM     68  O   UNL A   1      43.003  19.474  24.726  1.00  0.00    -0.237 OA
ATOM     69  O   UNL A   1      42.701  18.499  26.978  1.00  0.00    -0.237 OA
ATOM     70  O   UNL A   1      40.740  19.235  25.676  1.00  0.00    -0.744 OA
ENDBRANCH  66  67
ENDBRANCH  45  59
BRANCH  46  71
ATOM     71  C   UNL A   1      43.821  32.849  31.279  1.00  0.00     0.058 A 
ATOM     72  C   UNL A   1      44.134  33.911  30.420  1.00  0.00     0.135 A 
ATOM     73  C   UNL A   1      43.608  33.151  32.637  1.00  0.00     0.135 A 
ATOM     74  F   UNL A   1      44.360  33.677  29.119  1.00  0.00    -0.206 F 
ATOM     75  C   UNL A   1      44.218  35.222  30.883  1.00  0.00     0.059 A 
ATOM     76  C   UNL A   1      43.652  34.454  33.115  1.00  0.00     0.059 A 
ATOM     77  F   UNL A   1      43.295  32.172  33.502  1.00  0.00    -0.206 F 
ATOM     78  C   UNL A   1      43.961  35.485  32.231  1.00  0.00     0.060 A 
BRANCH  78  79
ATOM     79  S   UNL A   1      43.993  37.196  32.806  1.00  0.00     0.124 S 
ATOM     80  O   UNL A   1      45.301  37.265  33.449  1.00  0.00    -0.237 OA
ATOM     81  O   UNL A   1      43.853  37.940  31.559  1.00  0.00    -0.237 OA
ATOM     82  O   UNL A   1      42.846  37.271  33.704  1.00  0.00    -0.744 OA
ENDBRANCH  78  79
ENDBRANCH  46  71
BRANCH  58  83
ATOM     83  C   UNL A   1      47.942  27.210  30.851  1.00  0.00     0.058 A 
ATOM     84  C   UNL A   1      48.223  26.588  32.076  1.00  0.00     0.135 A 
ATOM     85  C   UNL A   1      49.010  27.451  29.972  1.00  0.00     0.135 A 
ATOM     86  F   UNL A   1      47.238  26.348  32.955  1.00  0.00    -0.206 F 
ATOM     87  C   UNL A   1      49.517  26.203  32.411  1.00  0.00     0.059 A 
ATOM     88  C   UNL A   1      50.307  27.052  30.275  1.00  0.00     0.059 A 
ATOM     89  F   UNL A   1      48.790  28.041  28.786  1.00  0.00    -0.206 F 
ATOM     90  C   UNL A   1      50.550  26.424  31.497  1.00  0.00     0.060 A 
BRANCH  90  91
ATOM     91  S   UNL A   1      52.203  25.831  31.908  1.00  0.00     0.124 S 
ATOM     92  O   UNL A   1      52.950  26.175  30.703  1.00  0.00    -0.237 OA
ATOM     93  O   UNL A   1      52.525  26.613  33.097  1.00  0.00    -0.237 OA
ATOM     94  O   UNL A   1      52.007  24.403  32.138  1.00  0.00    -0.744 OA
ENDBRANCH  90  91
ENDBRANCH  58  83
ENDBRANCH  32  33
ENDBRANCH  25  27
ENDBRANCH  24  25
ENDBRANCH   1  24
TORSDOF 16
ENDMDL
MODEL 2
REMARK VINA RESULT:     -11.2      0.440      8.311
REMARK SMILES CC(=O)Nc1ccc2c(C(=O)OCCOC(=O)c3ccc(-c4c5nc(c(-c6c(F)cc(S(=O)(=O)[O-])cc6F)c6ccc([nH]6)c(-c6c(F)cc(S(=O)(=O)[O-])cc6F)c6nc(c(-c7c(F)cc(S(=O)(=O)[O-])cc7F)c7ccc4[nH]7)C=C6)C=C5)cc3)c(C)c(O)nc2n1
REMARK SMILES IDX 14 1 13 2 12 3 10 4 11 5 9 6 5 7 6 8 90 9 7 10 89 11 8 12
REMARK SMILES IDX 88 13 86 14 84 15 85 16 4 17 1 18 2 19 3 20 87 22 15 24
REMARK SMILES IDX 16 25 17 26 18 27 19 28 83 29 20 30 82 31 21 32 22 33 23 34
REMARK SMILES IDX 76 35 24 36 81 37 75 38 77 39 25 40 80 41 74 42 73 43 26 45
REMARK SMILES IDX 60 46 39 47 59 48 40 49 43 50 58 51 78 52 41 53 42 54 57 56
REMARK SMILES IDX 79 57 44 58 27 59 28 60 37 61 29 62 30 63 36 64 38 65 31 66
REMARK SMILES IDX 32 67 33 68 34 69 35 70 61 71 62 72 71 73 63 74 64 75 70 76
REMARK SMILES IDX 72 77 65 78 66 79 67 80 68 81 69 82 45 83 46 84 55 85 47 86
REMARK SMILES IDX 48 87 54 88 56 89 49 90 50 91 51 92 52 93 53 94
REMARK H PARENT 4 21 87 23 77 44 43 55
REMARK Flexibility Score: inf
ROOT
ATOM      1  C   UNL A   1      32.691  30.547  26.508  1.00  0.00     0.275 C 
ENDROOT
BRANCH   1   2
ATOM      2  C   UNL A   1      31.896  29.565  25.653  1.00  0.00     0.275 C 
BRANCH   2   3
ATOM      3  O   UNL A   1      32.632  28.342  25.422  1.00  0.00    -0.458 OA
BRANCH   3   4
ATOM      4  C   UNL A   1      31.892  27.211  25.394  1.00  0.00     0.339 C 
ATOM      5  O   UNL A   1      31.069  26.875  26.234  1.00  0.00    -0.246 OA
BRANCH   4   6
ATOM      6  C   UNL A   1      32.197  26.348  24.220  1.00  0.00     0.079 A 
ATOM      7  C   UNL A   1      35.465  23.776  24.371  1.00  0.00     0.135 A 
ATOM      8  C   UNL A   1      34.905  24.157  25.567  1.00  0.00     0.048 A 
ATOM      9  N   UNL A   1      34.980  24.201  23.186  1.00  0.00    -0.211 NA
ATOM     10  C   UNL A   1      33.812  25.002  25.526  1.00  0.00     0.017 A 
ATOM     11  C   UNL A   1      33.881  24.969  23.147  1.00  0.00     0.166 A 
ATOM     12  C   UNL A   1      33.294  25.458  24.314  1.00  0.00     0.035 A 
ATOM     13  N   UNL A   1      33.332  25.238  21.966  1.00  0.00    -0.193 NA
ATOM     14  C   UNL A   1      32.198  25.957  21.911  1.00  0.00     0.216 A 
ATOM     15  C   UNL A   1      31.574  26.563  22.990  1.00  0.00     0.026 A 
ATOM     16  C   UNL A   1      30.339  27.395  22.851  1.00  0.00     0.051 C 
BRANCH   7  17
ATOM     17  N   UNL A   1      36.601  22.976  24.312  1.00  0.00    -0.311 N 
ATOM     18  C   UNL A   1      35.652  20.808  25.052  1.00  0.00     0.114 C 
ATOM     19  C   UNL A   1      36.826  21.704  24.754  1.00  0.00     0.222 C 
ATOM     20  O   UNL A   1      37.980  21.287  24.829  1.00  0.00    -0.275 OA
ATOM     21  H   UNL A   1      37.377  23.400  23.877  1.00  0.00     0.171 HD
ENDBRANCH   7  17
BRANCH  14  22
ATOM     22  O   UNL A   1      31.690  26.069  20.649  1.00  0.00    -0.493 OA
ATOM     23  H   UNL A   1      30.763  26.089  20.517  1.00  0.00     0.295 HD
ENDBRANCH  14  22
ENDBRANCH   4   6
ENDBRANCH   3   4
ENDBRANCH   2   3
ENDBRANCH   1   2
BRANCH   1  24
ATOM     24  O   UNL A   1      33.572  29.843  27.401  1.00  0.00    -0.458 OA
BRANCH  24  25
ATOM     25  C   UNL A   1      34.449  30.621  28.069  1.00  0.00     0.338 C 
ATOM     26  O   UNL A   1      34.230  31.704  28.587  1.00  0.00    -0.246 OA
BRANCH  25  27
ATOM     27  C   UNL A   1      35.758  29.953  28.176  1.00  0.00     0.060 A 
ATOM     28  C   UNL A   1      36.164  29.456  29.409  1.00  0.00     0.016 A 
ATOM     29  C   UNL A   1      36.669  30.047  27.124  1.00  0.00     0.016 A 
ATOM     30  C   UNL A   1      37.522  29.238  29.635  1.00  0.00     0.010 A 
ATOM     31  C   UNL A   1      37.999  29.651  27.316  1.00  0.00     0.010 A 
ATOM     32  C   UNL A   1      38.466  29.301  28.591  1.00  0.00    -0.014 A 
BRANCH  32  33
ATOM     33  C   UNL A   1      39.908  28.988  28.863  1.00  0.00     0.031 A 
ATOM     34  C   UNL A   1      40.842  29.987  29.522  1.00  0.00     0.074 A 
ATOM     35  C   UNL A   1      40.375  27.756  28.558  1.00  0.00     0.049 A 
ATOM     36  N   UNL A   1      42.101  29.835  29.861  1.00  0.00    -0.248 NA
ATOM     37  C   UNL A   1      40.308  31.319  29.856  1.00  0.00     0.031 C 
ATOM     38  C   UNL A   1      39.592  26.693  27.919  1.00  0.00     0.029 A 
ATOM     39  N   UNL A   1      41.602  27.169  28.762  1.00  0.00    -0.354 N 
ATOM     40  C   UNL A   1      42.493  31.029  30.461  1.00  0.00     0.074 A 
ATOM     41  C   UNL A   1      41.357  31.919  30.402  1.00  0.00     0.031 C 
ATOM     42  C   UNL A   1      40.318  25.570  27.866  1.00  0.00     0.029 A 
ATOM     43  C   UNL A   1      41.663  25.859  28.342  1.00  0.00     0.049 A 
ATOM     44  H   UNL A   1      42.363  27.641  29.170  1.00  0.00     0.167 HD
ATOM     45  C   UNL A   1      43.684  31.354  31.022  1.00  0.00     0.037 A 
ATOM     46  C   UNL A   1      42.690  24.987  28.287  1.00  0.00     0.037 A 
ATOM     47  C   UNL A   1      44.835  30.489  31.031  1.00  0.00     0.049 A 
ATOM     48  C   UNL A   1      44.042  25.430  28.757  1.00  0.00     0.074 A 
ATOM     49  C   UNL A   1      46.099  30.747  31.533  1.00  0.00     0.029 A 
ATOM     50  N   UNL A   1      44.871  29.208  30.497  1.00  0.00    -0.354 N 
ATOM     51  N   UNL A   1      44.378  26.563  29.324  1.00  0.00    -0.248 NA
ATOM     52  C   UNL A   1      45.158  24.499  28.555  1.00  0.00     0.031 C 
ATOM     53  C   UNL A   1      46.920  29.658  31.229  1.00  0.00     0.029 A 
ATOM     54  C   UNL A   1      46.151  28.690  30.603  1.00  0.00     0.049 A 
ATOM     55  H   UNL A   1      44.103  28.739  30.102  1.00  0.00     0.167 HD
ATOM     56  C   UNL A   1      45.743  26.476  29.562  1.00  0.00     0.074 A 
ATOM     57  C   UNL A   1      46.170  25.177  29.083  1.00  0.00     0.031 C 
ATOM     58  C   UNL A   1      46.564  27.393  30.126  1.00  0.00     0.037 A 
BRANCH  45  59
ATOM     59  C   UNL A   1      43.832  32.718  31.649  1.00  0.00     0.058 A 
ATOM     60  C   UNL A   1      44.174  33.846  30.887  1.00  0.00     0.135 A 
ATOM     61  C   UNL A   1      43.547  32.916  33.010  1.00  0.00     0.135 A 
ATOM     62  F   UNL A   1      44.470  33.717  29.585  1.00  0.00    -0.206 F 
ATOM     63  C   UNL A   1      44.239  35.118  31.452  1.00  0.00     0.059 A 
ATOM     64  C   UNL A   1      43.585  34.181  33.593  1.00  0.00     0.059 A 
ATOM     65  F   UNL A   1      43.213  31.874  33.788  1.00  0.00    -0.206 F 
ATOM     66  C   UNL A   1      43.939  35.276  32.807  1.00  0.00     0.060 A 
BRANCH  66  67
ATOM     67  S   UNL A   1      44.032  36.932  33.523  1.00  0.00     0.124 S 
ATOM     68  O   UNL A   1      42.716  37.055  34.147  1.00  0.00    -0.237 OA
ATOM     69  O   UNL A   1      45.160  36.813  34.440  1.00  0.00    -0.237 OA
ATOM     70  O   UNL A   1      44.254  37.793  32.366  1.00  0.00    -0.744 OA
ENDBRANCH  66  67
ENDBRANCH  45  59
BRANCH  46  71
ATOM     71  C   UNL A   1      42.468  23.630  27.712  1.00  0.00     0.058 A 
ATOM     72  C   UNL A   1      42.480  23.413  26.328  1.00  0.00     0.135 A 
ATOM     73  C   UNL A   1      42.308  22.508  28.546  1.00  0.00     0.135 A 
ATOM     74  F   UNL A   1      42.616  24.450  25.488  1.00  0.00    -0.206 F 
ATOM     75  C   UNL A   1      42.355  22.135  25.790  1.00  0.00     0.059 A 
ATOM     76  C   UNL A   1      42.216  21.219  28.034  1.00  0.00     0.059 A 
ATOM     77  F   UNL A   1      42.300  22.658  29.881  1.00  0.00    -0.206 F 
ATOM     78  C   UNL A   1      42.237  21.043  26.652  1.00  0.00     0.060 A 
BRANCH  78  79
ATOM     79  S   UNL A   1      42.156  19.382  25.949  1.00  0.00     0.124 S 
ATOM     80  O   UNL A   1      42.687  18.574  27.041  1.00  0.00    -0.237 OA
ATOM     81  O   UNL A   1      40.729  19.234  25.679  1.00  0.00    -0.237 OA
ATOM     82  O   UNL A   1      43.003  19.475  24.764  1.00  0.00    -0.744 OA
ENDBRANCH  78  79
ENDBRANCH  46  71
BRANCH  58  83
ATOM     83  C   UNL A   1      48.014  27.037  30.281  1.00  0.00     0.058 A 
ATOM     84  C   UNL A   1      48.962  27.397  29.313  1.00  0.00     0.135 A 
ATOM     85  C   UNL A   1      48.475  26.440  31.466  1.00  0.00     0.135 A 
ATOM     86  F   UNL A   1      48.572  27.958  28.158  1.00  0.00    -0.206 F 
ATOM     87  C   UNL A   1      50.322  27.188  29.519  1.00  0.00     0.059 A 
ATOM     88  C   UNL A   1      49.831  26.246  31.705  1.00  0.00     0.059 A 
ATOM     89  F   UNL A   1      47.606  26.081  32.424  1.00  0.00    -0.206 F 
ATOM     90  C   UNL A   1      50.748  26.627  30.726  1.00  0.00     0.060 A 
BRANCH  90  91
ATOM     91  S   UNL A   1      52.521  26.454  31.015  1.00  0.00     0.124 S 
ATOM     92  O   UNL A   1      53.045  26.472  29.653  1.00  0.00    -0.237 OA
ATOM     93  O   UNL A   1      52.818  27.632  31.823  1.00  0.00    -0.237 OA
ATOM     94  O   UNL A   1      52.631  25.177  31.713  1.00  0.00    -0.744 OA
ENDBRANCH  90  91
ENDBRANCH  58  83
ENDBRANCH  32  33
ENDBRANCH  25  27
ENDBRANCH  24  25
ENDBRANCH   1  24
TORSDOF 16
ENDMDL
MODEL 3
REMARK VINA RESULT:     -11.1      3.347      9.229
REMARK SMILES CC(=O)Nc1ccc2c(C(=O)OCCOC(=O)c3ccc(-c4c5nc(c(-c6c(F)cc(S(=O)(=O)[O-])cc6F)c6ccc([nH]6)c(-c6c(F)cc(S(=O)(=O)[O-])cc6F)c6nc(c(-c7c(F)cc(S(=O)(=O)[O-])cc7F)c7ccc4[nH]7)C=C6)C=C5)cc3)c(C)c(O)nc2n1
REMARK SMILES IDX 14 1 13 2 12 3 10 4 11 5 9 6 5 7 6 8 90 9 7 10 89 11 8 12
REMARK SMILES IDX 88 13 86 14 84 15 85 16 4 17 1 18 2 19 3 20 87 22 15 24
REMARK SMILES IDX 16 25 17 26 18 27 19 28 83 29 20 30 82 31 21 32 22 33 23 34
REMARK SMILES IDX 76 35 24 36 81 37 75 38 77 39 25 40 80 41 74 42 73 43 26 45
REMARK SMILES IDX 60 46 39 47 59 48 40 49 43 50 58 51 78 52 41 53 42 54 57 56
REMARK SMILES IDX 79 57 44 58 27 59 28 60 37 61 29 62 30 63 36 64 38 65 31 66
REMARK SMILES IDX 32 67 33 68 34 69 35 70 61 71 62 72 71 73 63 74 64 75 70 76
REMARK SMILES IDX 72 77 65 78 66 79 67 80 68 81 69 82 45 83 46 84 55 85 47 86
REMARK SMILES IDX 48 87 54 88 56 89 49 90 50 91 51 92 52 93 53 94
REMARK H PARENT 4 21 87 23 77 44 43 55
REMARK Flexibility Score: inf
ROOT
ATOM      1  C   UNL A   1      37.247  21.017  25.071  1.00  0.00     0.275 C 
ENDROOT
BRANCH   1   2
ATOM      2  C   UNL A   1      35.739  20.995  25.303  1.00  0.00     0.275 C 
BRANCH   2   3
ATOM      3  O   UNL A   1      35.211  22.326  25.506  1.00  0.00    -0.458 OA
BRANCH   3   4
ATOM      4  C   UNL A   1      34.390  22.783  24.534  1.00  0.00     0.339 C 
ATOM      5  O   UNL A   1      34.662  22.850  23.343  1.00  0.00    -0.246 OA
BRANCH   4   6
ATOM      6  C   UNL A   1      33.079  23.254  25.057  1.00  0.00     0.079 A 
ATOM      7  C   UNL A   1      32.738  27.139  26.514  1.00  0.00     0.135 A 
ATOM      8  C   UNL A   1      33.737  26.890  25.602  1.00  0.00     0.048 A 
ATOM      9  N   UNL A   1      31.887  26.174  26.922  1.00  0.00    -0.211 NA
ATOM     10  C   UNL A   1      33.850  25.606  25.105  1.00  0.00     0.017 A 
ATOM     11  C   UNL A   1      31.959  24.945  26.390  1.00  0.00     0.166 A 
ATOM     12  C   UNL A   1      32.985  24.591  25.513  1.00  0.00     0.035 A 
ATOM     13  N   UNL A   1      31.009  24.064  26.688  1.00  0.00    -0.193 NA
ATOM     14  C   UNL A   1      31.031  22.847  26.119  1.00  0.00     0.216 A 
ATOM     15  C   UNL A   1      32.040  22.356  25.305  1.00  0.00     0.026 A 
ATOM     16  C   UNL A   1      32.029  20.969  24.744  1.00  0.00     0.051 C 
BRANCH   7  17
ATOM     17  N   UNL A   1      32.582  28.384  27.113  1.00  0.00    -0.311 N 
ATOM     18  C   UNL A   1      31.512  29.635  25.259  1.00  0.00     0.114 C 
ATOM     19  C   UNL A   1      32.213  29.589  26.592  1.00  0.00     0.222 C 
ATOM     20  O   UNL A   1      32.390  30.611  27.253  1.00  0.00    -0.275 OA
ATOM     21  H   UNL A   1      32.770  28.397  28.080  1.00  0.00     0.171 HD
ENDBRANCH   7  17
BRANCH  14  22
ATOM     22  O   UNL A   1      29.945  22.084  26.433  1.00  0.00    -0.493 OA
ATOM     23  H   UNL A   1      29.320  21.863  25.770  1.00  0.00     0.295 HD
ENDBRANCH  14  22
ENDBRANCH   4   6
ENDBRANCH   3   4
ENDBRANCH   2   3
ENDBRANCH   1   2
BRANCH   1  24
ATOM     24  O   UNL A   1      37.829  22.202  25.641  1.00  0.00    -0.458 OA
BRANCH  24  25
ATOM     25  C   UNL A   1      39.024  22.019  26.243  1.00  0.00     0.338 C 
ATOM     26  O   UNL A   1      39.715  21.014  26.221  1.00  0.00    -0.246 OA
BRANCH  25  27
ATOM     27  C   UNL A   1      39.463  23.257  26.909  1.00  0.00     0.060 A 
ATOM     28  C   UNL A   1      38.937  24.473  26.490  1.00  0.00     0.016 A 
ATOM     29  C   UNL A   1      40.567  23.228  27.761  1.00  0.00     0.016 A 
ATOM     30  C   UNL A   1      39.636  25.645  26.773  1.00  0.00     0.010 A 
ATOM     31  C   UNL A   1      41.153  24.428  28.185  1.00  0.00     0.010 A 
ATOM     32  C   UNL A   1      40.740  25.656  27.648  1.00  0.00    -0.014 A 
BRANCH  32  33
ATOM     33  C   UNL A   1      41.420  26.952  27.982  1.00  0.00     0.031 A 
ATOM     34  C   UNL A   1      40.688  28.100  28.651  1.00  0.00     0.074 A 
ATOM     35  C   UNL A   1      42.743  27.077  27.724  1.00  0.00     0.049 A 
ATOM     36  N   UNL A   1      41.161  29.260  29.041  1.00  0.00    -0.248 NA
ATOM     37  C   UNL A   1      39.251  27.936  28.932  1.00  0.00     0.031 C 
ATOM     38  C   UNL A   1      43.576  26.056  27.082  1.00  0.00     0.029 A 
ATOM     39  N   UNL A   1      43.630  28.093  27.988  1.00  0.00    -0.354 N 
ATOM     40  C   UNL A   1      40.098  29.943  29.626  1.00  0.00     0.074 A 
ATOM     41  C   UNL A   1      38.937  29.091  29.503  1.00  0.00     0.031 C 
ATOM     42  C   UNL A   1      44.854  26.453  27.084  1.00  0.00     0.029 A 
ATOM     43  C   UNL A   1      44.922  27.811  27.602  1.00  0.00     0.049 A 
ATOM     44  H   UNL A   1      43.368  28.941  28.413  1.00  0.00     0.167 HD
ATOM     45  C   UNL A   1      40.086  31.160  30.223  1.00  0.00     0.037 A 
ATOM     46  C   UNL A   1      46.039  28.565  27.607  1.00  0.00     0.037 A 
ATOM     47  C   UNL A   1      41.229  32.033  30.297  1.00  0.00     0.049 A 
ATOM     48  C   UNL A   1      45.961  29.972  28.117  1.00  0.00     0.074 A 
ATOM     49  C   UNL A   1      41.303  33.305  30.839  1.00  0.00     0.029 A 
ATOM     50  N   UNL A   1      42.489  31.739  29.796  1.00  0.00    -0.354 N 
ATOM     51  N   UNL A   1      44.941  30.585  28.669  1.00  0.00    -0.248 NA
ATOM     52  C   UNL A   1      47.164  30.801  27.980  1.00  0.00     0.031 C 
ATOM     53  C   UNL A   1      42.583  33.810  30.593  1.00  0.00     0.029 A 
ATOM     54  C   UNL A   1      43.328  32.827  29.962  1.00  0.00     0.049 A 
ATOM     55  H   UNL A   1      42.747  30.884  29.383  1.00  0.00     0.167 HD
ATOM     56  C   UNL A   1      45.385  31.868  28.960  1.00  0.00     0.074 A 
ATOM     57  C   UNL A   1      46.766  31.942  28.530  1.00  0.00     0.031 C 
ATOM     58  C   UNL A   1      44.704  32.889  29.533  1.00  0.00     0.037 A 
BRANCH  45  59
ATOM     59  C   UNL A   1      38.792  31.652  30.822  1.00  0.00     0.058 A 
ATOM     60  C   UNL A   1      38.442  31.370  32.152  1.00  0.00     0.135 A 
ATOM     61  C   UNL A   1      37.933  32.485  30.087  1.00  0.00     0.135 A 
ATOM     62  F   UNL A   1      39.218  30.569  32.899  1.00  0.00    -0.206 F 
ATOM     63  C   UNL A   1      37.283  31.886  32.728  1.00  0.00     0.059 A 
ATOM     64  C   UNL A   1      36.779  33.030  30.648  1.00  0.00     0.059 A 
ATOM     65  F   UNL A   1      38.217  32.790  28.811  1.00  0.00    -0.206 F 
ATOM     66  C   UNL A   1      36.459  32.718  31.968  1.00  0.00     0.060 A 
BRANCH  66  67
ATOM     67  S   UNL A   1      34.959  33.376  32.731  1.00  0.00     0.124 S 
ATOM     68  O   UNL A   1      35.026  34.783  32.344  1.00  0.00    -0.237 OA
ATOM     69  O   UNL A   1      33.911  32.591  32.087  1.00  0.00    -0.237 OA
ATOM     70  O   UNL A   1      35.154  33.112  34.153  1.00  0.00    -0.744 OA
ENDBRANCH  66  67
ENDBRANCH  45  59
BRANCH  46  71
ATOM     71  C   UNL A   1      47.305  28.003  27.058  1.00  0.00     0.058 A 
ATOM     72  C   UNL A   1      47.610  28.090  25.693  1.00  0.00     0.135 A 
ATOM     73  C   UNL A   1      48.269  27.426  27.905  1.00  0.00     0.135 A 
ATOM     74  F   UNL A   1      46.721  28.618  24.839  1.00  0.00    -0.206 F 
ATOM     75  C   UNL A   1      48.827  27.639  25.189  1.00  0.00     0.059 A 
ATOM     76  C   UNL A   1      49.504  27.001  27.430  1.00  0.00     0.059 A 
ATOM     77  F   UNL A   1      48.033  27.327  29.224  1.00  0.00    -0.206 F 
ATOM     78  C   UNL A   1      49.773  27.108  26.068  1.00  0.00     0.060 A 
BRANCH  78  79
ATOM     79  S   UNL A   1      51.379  26.599  25.417  1.00  0.00     0.124 S 
ATOM     80  O   UNL A   1      52.272  27.559  26.057  1.00  0.00    -0.237 OA
ATOM     81  O   UNL A   1      51.477  25.222  25.889  1.00  0.00    -0.237 OA
ATOM     82  O   UNL A   1      51.221  26.750  23.974  1.00  0.00    -0.744 OA
ENDBRANCH  78  79
ENDBRANCH  46  71
BRANCH  58  83
ATOM     83  C   UNL A   1      45.432  34.184  29.751  1.00  0.00     0.058 A 
ATOM     84  C   UNL A   1      45.381  35.218  28.805  1.00  0.00     0.135 A 
ATOM     85  C   UNL A   1      46.080  34.436  30.970  1.00  0.00     0.135 A 
ATOM     86  F   UNL A   1      44.785  35.023  27.618  1.00  0.00    -0.206 F 
ATOM     87  C   UNL A   1      45.941  36.464  29.066  1.00  0.00     0.059 A 
ATOM     88  C   UNL A   1      46.623  35.682  31.263  1.00  0.00     0.059 A 
ATOM     89  F   UNL A   1      46.151  33.478  31.909  1.00  0.00    -0.206 F 
ATOM     90  C   UNL A   1      46.545  36.692  30.305  1.00  0.00     0.060 A 
BRANCH  90  91
ATOM     91  S   UNL A   1      47.178  38.344  30.662  1.00  0.00     0.124 S 
ATOM     92  O   UNL A   1      46.654  39.111  29.537  1.00  0.00    -0.237 OA
ATOM     93  O   UNL A   1      46.575  38.631  31.960  1.00  0.00    -0.237 OA
ATOM     94  O   UNL A   1      48.626  38.159  30.676  1.00  0.00    -0.744 OA
ENDBRANCH  90  91
ENDBRANCH  58  83
ENDBRANCH  32  33
ENDBRANCH  25  27
ENDBRANCH  24  25
ENDBRANCH   1  24
TORSDOF 16
ENDMDL
