MODEL 1
REMARK VINA RESULT:     -10.4      0.000      0.000
REMARK SMILES C[C@@H](CC(=O)OCCOC(=O)c1ccc(-c2c3nc(c(-c4c(F)cc(S(=O)(=O)[O-])cc4F)c4ccc([nH]4)c(-c4c(F)cc(S(=O)(=O)[O-])cc4F)c4nc(c(-c5c(F)cc(S(=O)(=O)[O-])cc5F)c5ccc2[nH]5)C=C4)C=C3)cc1)CC(=O)N(C)C[C@H]1CCC[N@H+]1C
REMARK SMILES IDX 6 1 4 2 5 3 3 4 2 5 1 6 78 7 79 8 80 9 81 10 82 11 83 12
REMARK SMILES IDX 84 13 85 14 88 15 86 16 87 17 89 18 7 20 8 21 9 22 10 23
REMARK SMILES IDX 11 24 12 25 13 26 77 27 14 28 76 29 15 30 16 31 17 32 70 33
REMARK SMILES IDX 18 34 75 35 69 36 71 37 19 38 74 39 68 40 67 41 20 43 54 44
REMARK SMILES IDX 33 45 53 46 34 47 37 48 52 49 72 50 35 51 36 52 51 54 73 55
REMARK SMILES IDX 38 56 21 57 22 58 31 59 23 60 24 61 30 62 32 63 25 64 26 65
REMARK SMILES IDX 27 66 28 67 29 68 55 69 56 70 65 71 57 72 58 73 64 74 66 75
REMARK SMILES IDX 59 76 60 77 61 78 62 79 63 80 39 81 40 82 49 83 41 84 42 85
REMARK SMILES IDX 48 86 50 87 43 88 44 89 45 90 46 91 47 92
REMARK H PARENT 88 19 71 42 37 53
REMARK Flexibility Score: inf
ROOT
ATOM      1  O   UNL A   1      38.240  21.860  24.902  1.00  0.00    -0.462 OA
ENDROOT
BRANCH   1   2
ATOM      2  C   UNL A   1      36.926  21.671  24.622  1.00  0.00     0.306 C 
ATOM      3  O   UNL A   1      36.214  20.833  25.164  1.00  0.00    -0.252 OA
BRANCH   2   4
ATOM      4  C   UNL A   1      36.398  22.572  23.525  1.00  0.00     0.126 C 
BRANCH   4   5
ATOM      5  C   UNL A   1      35.172  23.464  23.789  1.00  0.00     0.006 C 
ATOM      6  C   UNL A   1      35.224  24.112  25.174  1.00  0.00     0.009 C 
BRANCH   5   7
ATOM      7  C   UNL A   1      33.842  22.751  23.488  1.00  0.00     0.104 C 
BRANCH   7   8
ATOM      8  C   UNL A   1      33.064  23.460  22.394  1.00  0.00     0.222 C 
ATOM      9  O   UNL A   1      33.435  23.329  21.223  1.00  0.00    -0.275 OA
BRANCH   8  10
ATOM     10  N   UNL A   1      32.010  24.300  22.730  1.00  0.00    -0.340 N 
ATOM     11  C   UNL A   1      30.789  23.909  23.416  1.00  0.00     0.147 C 
BRANCH  10  12
ATOM     12  C   UNL A   1      32.126  25.705  22.312  1.00  0.00     0.184 C 
BRANCH  12  13
ATOM     13  C   UNL A   1      32.288  26.710  23.496  1.00  0.00     0.203 C 
ATOM     14  C   UNL A   1      33.681  27.374  23.453  1.00  0.00     0.073 C 
ATOM     15  N   UNL A   1      31.370  27.869  23.572  1.00  0.00    -0.333 N 
ATOM     16  C   UNL A   1      33.427  28.873  23.382  1.00  0.00     0.068 C 
ATOM     17  C   UNL A   1      32.007  28.973  22.867  1.00  0.00     0.262 C 
ATOM     18  C   UNL A   1      29.993  27.647  23.190  1.00  0.00     0.333 C 
ATOM     19  H   UNL A   1      31.240  28.089  24.559  1.00  0.00     0.348 HD
ENDBRANCH  12  13
ENDBRANCH  10  12
ENDBRANCH   8  10
ENDBRANCH   7   8
ENDBRANCH   5   7
ENDBRANCH   4   5
ENDBRANCH   2   4
ENDBRANCH   1   2
BRANCH   1  20
ATOM     20  C   UNL A   1      38.526  22.482  26.172  1.00  0.00     0.274 C 
BRANCH  20  21
ATOM     21  C   UNL A   1      39.951  22.158  26.608  1.00  0.00     0.275 C 
BRANCH  21  22
ATOM     22  O   UNL A   1      40.403  23.152  27.540  1.00  0.00    -0.458 OA
BRANCH  22  23
ATOM     23  C   UNL A   1      41.097  24.180  27.008  1.00  0.00     0.338 C 
ATOM     24  O   UNL A   1      41.768  24.159  25.979  1.00  0.00    -0.246 OA
BRANCH  23  25
ATOM     25  C   UNL A   1      40.949  25.373  27.852  1.00  0.00     0.060 A 
ATOM     26  C   UNL A   1      42.015  26.262  28.022  1.00  0.00     0.016 A 
ATOM     27  C   UNL A   1      39.762  25.557  28.563  1.00  0.00     0.016 A 
ATOM     28  C   UNL A   1      41.918  27.299  28.950  1.00  0.00     0.010 A 
ATOM     29  C   UNL A   1      39.643  26.632  29.445  1.00  0.00     0.010 A 
ATOM     30  C   UNL A   1      40.733  27.491  29.675  1.00  0.00    -0.014 A 
BRANCH  30  31
ATOM     31  C   UNL A   1      40.640  28.548  30.716  1.00  0.00     0.031 A 
ATOM     32  C   UNL A   1      41.546  28.495  31.918  1.00  0.00     0.074 A 
ATOM     33  C   UNL A   1      39.738  29.540  30.597  1.00  0.00     0.049 A 
ATOM     34  N   UNL A   1      41.532  29.233  32.999  1.00  0.00    -0.248 NA
ATOM     35  C   UNL A   1      42.598  27.466  31.909  1.00  0.00     0.031 C 
ATOM     36  C   UNL A   1      38.811  29.714  29.477  1.00  0.00     0.029 A 
ATOM     37  N   UNL A   1      39.447  30.587  31.436  1.00  0.00    -0.354 N 
ATOM     38  C   UNL A   1      42.542  28.733  33.814  1.00  0.00     0.074 A 
ATOM     39  C   UNL A   1      43.146  27.624  33.106  1.00  0.00     0.031 C 
ATOM     40  C   UNL A   1      38.057  30.803  29.696  1.00  0.00     0.029 A 
ATOM     41  C   UNL A   1      38.416  31.379  30.990  1.00  0.00     0.049 A 
ATOM     42  H   UNL A   1      39.930  30.756  32.276  1.00  0.00     0.167 HD
ATOM     43  C   UNL A   1      42.931  29.160  35.040  1.00  0.00     0.037 A 
ATOM     44  C   UNL A   1      37.810  32.434  31.568  1.00  0.00     0.037 A 
ATOM     45  C   UNL A   1      42.359  30.292  35.723  1.00  0.00     0.049 A 
ATOM     46  C   UNL A   1      38.280  32.908  32.915  1.00  0.00     0.074 A 
ATOM     47  C   UNL A   1      42.695  30.811  36.963  1.00  0.00     0.029 A 
ATOM     48  N   UNL A   1      41.345  31.090  35.218  1.00  0.00    -0.354 N 
ATOM     49  N   UNL A   1      39.220  32.408  33.682  1.00  0.00    -0.248 NA
ATOM     50  C   UNL A   1      37.610  34.090  33.474  1.00  0.00     0.031 C 
ATOM     51  C   UNL A   1      41.870  31.915  37.213  1.00  0.00     0.029 A 
ATOM     52  C   UNL A   1      41.044  32.099  36.118  1.00  0.00     0.049 A 
ATOM     53  H   UNL A   1      40.904  30.960  34.347  1.00  0.00     0.167 HD
ATOM     54  C   UNL A   1      39.264  33.225  34.807  1.00  0.00     0.074 A 
ATOM     55  C   UNL A   1      38.269  34.258  34.612  1.00  0.00     0.031 C 
ATOM     56  C   UNL A   1      40.056  33.126  35.902  1.00  0.00     0.037 A 
BRANCH  43  57
ATOM     57  C   UNL A   1      44.018  28.389  35.732  1.00  0.00     0.058 A 
ATOM     58  C   UNL A   1      45.376  28.697  35.554  1.00  0.00     0.135 A 
ATOM     59  C   UNL A   1      43.695  27.347  36.616  1.00  0.00     0.135 A 
ATOM     60  F   UNL A   1      45.740  29.672  34.706  1.00  0.00    -0.206 F 
ATOM     61  C   UNL A   1      46.375  27.988  36.212  1.00  0.00     0.059 A 
ATOM     62  C   UNL A   1      44.676  26.638  37.302  1.00  0.00     0.059 A 
ATOM     63  F   UNL A   1      42.411  27.009  36.822  1.00  0.00    -0.206 F 
ATOM     64  C   UNL A   1      46.015  26.958  37.083  1.00  0.00     0.060 A 
BRANCH  64  65
ATOM     65  S   UNL A   1      47.319  26.051  37.945  1.00  0.00     0.124 S 
ATOM     66  O   UNL A   1      47.254  24.751  37.283  1.00  0.00    -0.237 OA
ATOM     67  O   UNL A   1      48.505  26.850  37.656  1.00  0.00    -0.237 OA
ATOM     68  O   UNL A   1      46.880  26.069  39.337  1.00  0.00    -0.744 OA
ENDBRANCH  64  65
ENDBRANCH  43  57
BRANCH  44  69
ATOM     69  C   UNL A   1      36.683  33.111  30.875  1.00  0.00     0.058 A 
ATOM     70  C   UNL A   1      35.358  32.910  31.285  1.00  0.00     0.135 A 
ATOM     71  C   UNL A   1      36.913  33.977  29.795  1.00  0.00     0.135 A 
ATOM     72  F   UNL A   1      35.090  32.084  32.308  1.00  0.00    -0.206 F 
ATOM     73  C   UNL A   1      34.294  33.535  30.642  1.00  0.00     0.059 A 
ATOM     74  C   UNL A   1      35.869  34.629  29.150  1.00  0.00     0.059 A 
ATOM     75  F   UNL A   1      38.165  34.211  29.375  1.00  0.00    -0.206 F 
ATOM     76  C   UNL A   1      34.561  34.393  29.573  1.00  0.00     0.060 A 
BRANCH  76  77
ATOM     77  S   UNL A   1      33.184  35.246  28.772  1.00  0.00     0.124 S 
ATOM     78  O   UNL A   1      33.886  36.213  27.936  1.00  0.00    -0.237 OA
ATOM     79  O   UNL A   1      32.513  34.159  28.064  1.00  0.00    -0.237 OA
ATOM     80  O   UNL A   1      32.439  35.803  29.897  1.00  0.00    -0.744 OA
ENDBRANCH  76  77
ENDBRANCH  44  69
BRANCH  56  81
ATOM     81  C   UNL A   1      39.902  34.188  36.952  1.00  0.00     0.058 A 
ATOM     82  C   UNL A   1      39.100  33.990  38.086  1.00  0.00     0.135 A 
ATOM     83  C   UNL A   1      40.573  35.415  36.825  1.00  0.00     0.135 A 
ATOM     84  F   UNL A   1      38.434  32.836  38.250  1.00  0.00    -0.206 F 
ATOM     85  C   UNL A   1      38.938  34.987  39.043  1.00  0.00     0.059 A 
ATOM     86  C   UNL A   1      40.442  36.418  37.781  1.00  0.00     0.059 A 
ATOM     87  F   UNL A   1      41.360  35.648  35.764  1.00  0.00    -0.206 F 
ATOM     88  C   UNL A   1      39.608  36.200  38.877  1.00  0.00     0.060 A 
BRANCH  88  89
ATOM     89  S   UNL A   1      39.396  37.493  40.120  1.00  0.00     0.124 S 
ATOM     90  O   UNL A   1      38.865  36.731  41.245  1.00  0.00    -0.237 OA
ATOM     91  O   UNL A   1      40.753  38.003  40.284  1.00  0.00    -0.237 OA
ATOM     92  O   UNL A   1      38.459  38.418  39.487  1.00  0.00    -0.744 OA
ENDBRANCH  88  89
ENDBRANCH  56  81
ENDBRANCH  30  31
ENDBRANCH  23  25
ENDBRANCH  22  23
ENDBRANCH  21  22
ENDBRANCH  20  21
ENDBRANCH   1  20
TORSDOF 20
ENDMDL
MODEL 2
REMARK VINA RESULT:     -10.3      1.235      2.285
REMARK SMILES C[C@@H](CC(=O)OCCOC(=O)c1ccc(-c2c3nc(c(-c4c(F)cc(S(=O)(=O)[O-])cc4F)c4ccc([nH]4)c(-c4c(F)cc(S(=O)(=O)[O-])cc4F)c4nc(c(-c5c(F)cc(S(=O)(=O)[O-])cc5F)c5ccc2[nH]5)C=C4)C=C3)cc1)CC(=O)N(C)C[C@H]1CCC[N@H+]1C
REMARK SMILES IDX 6 1 4 2 5 3 3 4 2 5 1 6 78 7 79 8 80 9 81 10 82 11 83 12
REMARK SMILES IDX 84 13 85 14 88 15 86 16 87 17 89 18 7 20 8 21 9 22 10 23
REMARK SMILES IDX 11 24 12 25 13 26 77 27 14 28 76 29 15 30 16 31 17 32 70 33
REMARK SMILES IDX 18 34 75 35 69 36 71 37 19 38 74 39 68 40 67 41 20 43 54 44
REMARK SMILES IDX 33 45 53 46 34 47 37 48 52 49 72 50 35 51 36 52 51 54 73 55
REMARK SMILES IDX 38 56 21 57 22 58 31 59 23 60 24 61 30 62 32 63 25 64 26 65
REMARK SMILES IDX 27 66 28 67 29 68 55 69 56 70 65 71 57 72 58 73 64 74 66 75
REMARK SMILES IDX 59 76 60 77 61 78 62 79 63 80 39 81 40 82 49 83 41 84 42 85
REMARK SMILES IDX 48 86 50 87 43 88 44 89 45 90 46 91 47 92
REMARK H PARENT 88 19 71 42 37 53
REMARK Flexibility Score: inf
ROOT
ATOM      1  O   UNL A   1      38.186  22.197  25.592  1.00  0.00    -0.462 OA
ENDROOT
BRANCH   1   2
ATOM      2  C   UNL A   1      37.191  21.612  24.880  1.00  0.00     0.306 C 
ATOM      3  O   UNL A   1      36.869  20.433  24.974  1.00  0.00    -0.252 OA
BRANCH   2   4
ATOM      4  C   UNL A   1      36.516  22.543  23.895  1.00  0.00     0.126 C 
BRANCH   4   5
ATOM      5  C   UNL A   1      35.167  23.191  24.255  1.00  0.00     0.006 C 
ATOM      6  C   UNL A   1      34.258  23.338  23.033  1.00  0.00     0.009 C 
BRANCH   5   7
ATOM      7  C   UNL A   1      35.329  24.489  25.067  1.00  0.00     0.104 C 
BRANCH   7   8
ATOM      8  C   UNL A   1      33.984  25.092  25.431  1.00  0.00     0.222 C 
ATOM      9  O   UNL A   1      33.163  24.390  26.029  1.00  0.00    -0.275 OA
BRANCH   8  10
ATOM     10  N   UNL A   1      33.671  26.380  25.018  1.00  0.00    -0.340 N 
ATOM     11  C   UNL A   1      33.690  26.869  23.648  1.00  0.00     0.147 C 
BRANCH  10  12
ATOM     12  C   UNL A   1      33.333  27.348  26.072  1.00  0.00     0.184 C 
BRANCH  12  13
ATOM     13  C   UNL A   1      33.454  28.840  25.629  1.00  0.00     0.203 C 
ATOM     14  C   UNL A   1      32.053  29.467  25.458  1.00  0.00     0.073 C 
ATOM     15  N   UNL A   1      34.137  29.794  26.533  1.00  0.00    -0.333 N 
ATOM     16  C   UNL A   1      32.019  30.671  26.389  1.00  0.00     0.068 C 
ATOM     17  C   UNL A   1      33.117  30.384  27.390  1.00  0.00     0.262 C 
ATOM     18  C   UNL A   1      35.295  29.311  27.250  1.00  0.00     0.333 C 
ATOM     19  H   UNL A   1      34.580  30.502  25.948  1.00  0.00     0.348 HD
ENDBRANCH  12  13
ENDBRANCH  10  12
ENDBRANCH   8  10
ENDBRANCH   7   8
ENDBRANCH   5   7
ENDBRANCH   4   5
ENDBRANCH   2   4
ENDBRANCH   1   2
BRANCH   1  20
ATOM     20  C   UNL A   1      39.284  21.335  25.957  1.00  0.00     0.274 C 
BRANCH  20  21
ATOM     21  C   UNL A   1      40.206  22.047  26.943  1.00  0.00     0.275 C 
BRANCH  21  22
ATOM     22  O   UNL A   1      39.926  23.455  26.928  1.00  0.00    -0.458 OA
BRANCH  22  23
ATOM     23  C   UNL A   1      40.996  24.263  26.786  1.00  0.00     0.338 C 
ATOM     24  O   UNL A   1      41.969  24.072  26.061  1.00  0.00    -0.246 OA
BRANCH  23  25
ATOM     25  C   UNL A   1      40.850  25.444  27.648  1.00  0.00     0.060 A 
ATOM     26  C   UNL A   1      41.863  26.405  27.716  1.00  0.00     0.016 A 
ATOM     27  C   UNL A   1      39.730  25.544  28.474  1.00  0.00     0.016 A 
ATOM     28  C   UNL A   1      41.786  27.434  28.655  1.00  0.00     0.010 A 
ATOM     29  C   UNL A   1      39.625  26.609  29.371  1.00  0.00     0.010 A 
ATOM     30  C   UNL A   1      40.669  27.543  29.496  1.00  0.00    -0.014 A 
BRANCH  30  31
ATOM     31  C   UNL A   1      40.607  28.592  30.547  1.00  0.00     0.031 A 
ATOM     32  C   UNL A   1      41.544  28.527  31.725  1.00  0.00     0.074 A 
ATOM     33  C   UNL A   1      39.705  29.588  30.459  1.00  0.00     0.049 A 
ATOM     34  N   UNL A   1      41.560  29.256  32.811  1.00  0.00    -0.248 NA
ATOM     35  C   UNL A   1      42.591  27.494  31.680  1.00  0.00     0.031 C 
ATOM     36  C   UNL A   1      38.750  29.773  29.365  1.00  0.00     0.029 A 
ATOM     37  N   UNL A   1      39.439  30.629  31.313  1.00  0.00    -0.354 N 
ATOM     38  C   UNL A   1      42.589  28.746  33.596  1.00  0.00     0.074 A 
ATOM     39  C   UNL A   1      43.170  27.641  32.864  1.00  0.00     0.031 C 
ATOM     40  C   UNL A   1      38.006  30.863  29.612  1.00  0.00     0.029 A 
ATOM     41  C   UNL A   1      38.399  31.427  30.900  1.00  0.00     0.049 A 
ATOM     42  H   UNL A   1      39.945  30.789  32.142  1.00  0.00     0.167 HD
ATOM     43  C   UNL A   1      43.011  29.163  34.814  1.00  0.00     0.037 A 
ATOM     44  C   UNL A   1      37.812  32.480  31.502  1.00  0.00     0.037 A 
ATOM     45  C   UNL A   1      42.461  30.291  35.521  1.00  0.00     0.049 A 
ATOM     46  C   UNL A   1      38.318  32.941  32.840  1.00  0.00     0.074 A 
ATOM     47  C   UNL A   1      42.830  30.799  36.756  1.00  0.00     0.029 A 
ATOM     48  N   UNL A   1      41.436  31.096  35.049  1.00  0.00    -0.354 N 
ATOM     49  N   UNL A   1      39.276  32.432  33.579  1.00  0.00    -0.248 NA
ATOM     50  C   UNL A   1      37.667  34.121  33.426  1.00  0.00     0.031 C 
ATOM     51  C   UNL A   1      42.015  31.903  37.036  1.00  0.00     0.029 A 
ATOM     52  C   UNL A   1      41.161  32.099  35.964  1.00  0.00     0.049 A 
ATOM     53  H   UNL A   1      40.973  30.974  34.189  1.00  0.00     0.167 HD
ATOM     54  C   UNL A   1      39.352  33.240  34.709  1.00  0.00     0.074 A 
ATOM     55  C   UNL A   1      38.356  34.278  34.548  1.00  0.00     0.031 C 
ATOM     56  C   UNL A   1      40.172  33.130  35.782  1.00  0.00     0.037 A 
BRANCH  43  57
ATOM     57  C   UNL A   1      44.113  28.382  35.473  1.00  0.00     0.058 A 
ATOM     58  C   UNL A   1      43.848  27.294  36.317  1.00  0.00     0.135 A 
ATOM     59  C   UNL A   1      45.457  28.707  35.225  1.00  0.00     0.135 A 
ATOM     60  F   UNL A   1      42.581  26.953  36.601  1.00  0.00    -0.206 F 
ATOM     61  C   UNL A   1      44.876  26.566  36.909  1.00  0.00     0.059 A 
ATOM     62  C   UNL A   1      46.501  27.981  35.789  1.00  0.00     0.059 A 
ATOM     63  F   UNL A   1      45.766  29.742  34.426  1.00  0.00    -0.206 F 
ATOM     64  C   UNL A   1      46.199  26.918  36.641  1.00  0.00     0.060 A 
BRANCH  64  65
ATOM     65  S   UNL A   1      47.527  25.959  37.402  1.00  0.00     0.124 S 
ATOM     66  O   UNL A   1      47.076  24.593  37.156  1.00  0.00    -0.237 OA
ATOM     67  O   UNL A   1      48.700  26.385  36.645  1.00  0.00    -0.237 OA
ATOM     68  O   UNL A   1      47.497  26.388  38.797  1.00  0.00    -0.744 OA
ENDBRANCH  64  65
ENDBRANCH  43  57
BRANCH  44  69
ATOM     69  C   UNL A   1      36.670  33.165  30.844  1.00  0.00     0.058 A 
ATOM     70  C   UNL A   1      36.865  33.971  29.714  1.00  0.00     0.135 A 
ATOM     71  C   UNL A   1      35.361  33.019  31.329  1.00  0.00     0.135 A 
ATOM     72  F   UNL A   1      38.100  34.146  29.220  1.00  0.00    -0.206 F 
ATOM     73  C   UNL A   1      35.804  34.621  29.091  1.00  0.00     0.059 A 
ATOM     74  C   UNL A   1      34.282  33.641  30.712  1.00  0.00     0.059 A 
ATOM     75  F   UNL A   1      35.123  32.247  32.400  1.00  0.00    -0.206 F 
ATOM     76  C   UNL A   1      34.515  34.449  29.599  1.00  0.00     0.060 A 
BRANCH  76  77
ATOM     77  S   UNL A   1      33.131  35.251  28.759  1.00  0.00     0.124 S 
ATOM     78  O   UNL A   1      33.811  36.304  28.015  1.00  0.00    -0.237 OA
ATOM     79  O   UNL A   1      32.577  34.161  27.960  1.00  0.00    -0.237 OA
ATOM     80  O   UNL A   1      32.287  35.698  29.863  1.00  0.00    -0.744 OA
ENDBRANCH  76  77
ENDBRANCH  44  69
BRANCH  56  81
ATOM     81  C   UNL A   1      40.048  34.184  36.844  1.00  0.00     0.058 A 
ATOM     82  C   UNL A   1      40.819  35.356  36.811  1.00  0.00     0.135 A 
ATOM     83  C   UNL A   1      39.138  34.024  37.901  1.00  0.00     0.135 A 
ATOM     84  F   UNL A   1      41.707  35.553  35.823  1.00  0.00    -0.206 F 
ATOM     85  C   UNL A   1      40.720  36.318  37.811  1.00  0.00     0.059 A 
ATOM     86  C   UNL A   1      39.007  34.983  38.900  1.00  0.00     0.059 A 
ATOM     87  F   UNL A   1      38.369  32.926  37.970  1.00  0.00    -0.206 F 
ATOM     88  C   UNL A   1      39.816  36.118  38.856  1.00  0.00     0.060 A 
BRANCH  88  89
ATOM     89  S   UNL A   1      39.690  37.367  40.153  1.00  0.00     0.124 S 
ATOM     90  O   UNL A   1      40.688  38.339  39.721  1.00  0.00    -0.237 OA
ATOM     91  O   UNL A   1      38.299  37.798  40.047  1.00  0.00    -0.237 OA
ATOM     92  O   UNL A   1      40.016  36.626  41.368  1.00  0.00    -0.744 OA
ENDBRANCH  88  89
ENDBRANCH  56  81
ENDBRANCH  30  31
ENDBRANCH  23  25
ENDBRANCH  22  23
ENDBRANCH  21  22
ENDBRANCH  20  21
ENDBRANCH   1  20
TORSDOF 20
ENDMDL
MODEL 3
REMARK VINA RESULT:     -10.1      2.207      3.536
REMARK SMILES C[C@@H](CC(=O)OCCOC(=O)c1ccc(-c2c3nc(c(-c4c(F)cc(S(=O)(=O)[O-])cc4F)c4ccc([nH]4)c(-c4c(F)cc(S(=O)(=O)[O-])cc4F)c4nc(c(-c5c(F)cc(S(=O)(=O)[O-])cc5F)c5ccc2[nH]5)C=C4)C=C3)cc1)CC(=O)N(C)C[C@H]1CCC[N@H+]1C
REMARK SMILES IDX 6 1 4 2 5 3 3 4 2 5 1 6 78 7 79 8 80 9 81 10 82 11 83 12
REMARK SMILES IDX 84 13 85 14 88 15 86 16 87 17 89 18 7 20 8 21 9 22 10 23
REMARK SMILES IDX 11 24 12 25 13 26 77 27 14 28 76 29 15 30 16 31 17 32 70 33
REMARK SMILES IDX 18 34 75 35 69 36 71 37 19 38 74 39 68 40 67 41 20 43 54 44
REMARK SMILES IDX 33 45 53 46 34 47 37 48 52 49 72 50 35 51 36 52 51 54 73 55
REMARK SMILES IDX 38 56 21 57 22 58 31 59 23 60 24 61 30 62 32 63 25 64 26 65
REMARK SMILES IDX 27 66 28 67 29 68 55 69 56 70 65 71 57 72 58 73 64 74 66 75
REMARK SMILES IDX 59 76 60 77 61 78 62 79 63 80 39 81 40 82 49 83 41 84 42 85
REMARK SMILES IDX 48 86 50 87 43 88 44 89 45 90 46 91 47 92
REMARK H PARENT 88 19 71 42 37 53
REMARK Flexibility Score: inf
ROOT
ATOM      1  O   UNL A   1      39.550  22.347  26.252  1.00  0.00    -0.462 OA
ENDROOT
BRANCH   1   2
ATOM      2  C   UNL A   1      38.544  21.619  25.705  1.00  0.00     0.306 C 
ATOM      3  O   UNL A   1      38.635  20.439  25.383  1.00  0.00    -0.252 OA
BRANCH   2   4
ATOM      4  C   UNL A   1      37.273  22.409  25.473  1.00  0.00     0.126 C 
BRANCH   4   5
ATOM      5  C   UNL A   1      36.362  22.063  24.282  1.00  0.00     0.006 C 
ATOM      6  C   UNL A   1      36.584  23.008  23.099  1.00  0.00     0.009 C 
BRANCH   5   7
ATOM      7  C   UNL A   1      34.885  21.912  24.687  1.00  0.00     0.104 C 
BRANCH   7   8
ATOM      8  C   UNL A   1      34.450  20.458  24.679  1.00  0.00     0.222 C 
ATOM      9  O   UNL A   1      35.299  19.584  24.882  1.00  0.00    -0.275 OA
BRANCH   8  10
ATOM     10  N   UNL A   1      33.137  20.132  24.367  1.00  0.00    -0.340 N 
ATOM     11  C   UNL A   1      32.259  20.875  23.476  1.00  0.00     0.147 C 
BRANCH  10  12
ATOM     12  C   UNL A   1      32.571  18.951  25.037  1.00  0.00     0.184 C 
BRANCH  12  13
ATOM     13  C   UNL A   1      32.345  17.731  24.091  1.00  0.00     0.203 C 
ATOM     14  C   UNL A   1      33.191  17.878  22.808  1.00  0.00     0.073 C 
ATOM     15  N   UNL A   1      32.712  16.381  24.577  1.00  0.00    -0.333 N 
ATOM     16  C   UNL A   1      34.069  16.637  22.741  1.00  0.00     0.068 C 
ATOM     17  C   UNL A   1      34.089  16.134  24.169  1.00  0.00     0.262 C 
ATOM     18  C   UNL A   1      32.453  16.086  25.969  1.00  0.00     0.333 C 
ATOM     19  H   UNL A   1      32.074  15.717  24.140  1.00  0.00     0.348 HD
ENDBRANCH  12  13
ENDBRANCH  10  12
ENDBRANCH   8  10
ENDBRANCH   7   8
ENDBRANCH   5   7
ENDBRANCH   4   5
ENDBRANCH   2   4
ENDBRANCH   1   2
BRANCH   1  20
ATOM     20  C   UNL A   1      40.859  21.742  26.201  1.00  0.00     0.274 C 
BRANCH  20  21
ATOM     21  C   UNL A   1      41.933  22.821  26.106  1.00  0.00     0.275 C 
BRANCH  21  22
ATOM     22  O   UNL A   1      41.324  24.114  26.238  1.00  0.00    -0.458 OA
BRANCH  22  23
ATOM     23  C   UNL A   1      42.156  25.168  26.112  1.00  0.00     0.338 C 
ATOM     24  O   UNL A   1      42.886  25.417  25.156  1.00  0.00    -0.246 OA
BRANCH  23  25
ATOM     25  C   UNL A   1      42.084  26.010  27.314  1.00  0.00     0.060 A 
ATOM     26  C   UNL A   1      41.280  25.638  28.396  1.00  0.00     0.016 A 
ATOM     27  C   UNL A   1      42.750  27.236  27.323  1.00  0.00     0.016 A 
ATOM     28  C   UNL A   1      41.092  26.520  29.460  1.00  0.00     0.010 A 
ATOM     29  C   UNL A   1      42.610  28.092  28.417  1.00  0.00     0.010 A 
ATOM     30  C   UNL A   1      41.750  27.758  29.478  1.00  0.00    -0.014 A 
BRANCH  30  31
ATOM     31  C   UNL A   1      41.504  28.735  30.571  1.00  0.00     0.031 A 
ATOM     32  C   UNL A   1      42.367  28.709  31.806  1.00  0.00     0.074 A 
ATOM     33  C   UNL A   1      40.503  29.630  30.470  1.00  0.00     0.049 A 
ATOM     34  N   UNL A   1      42.233  29.374  32.925  1.00  0.00    -0.248 NA
ATOM     35  C   UNL A   1      43.525  27.800  31.784  1.00  0.00     0.031 C 
ATOM     36  C   UNL A   1      39.604  29.770  29.323  1.00  0.00     0.029 A 
ATOM     37  N   UNL A   1      40.069  30.587  31.352  1.00  0.00    -0.354 N 
ATOM     38  C   UNL A   1      43.261  28.938  33.753  1.00  0.00     0.074 A 
ATOM     39  C   UNL A   1      44.008  27.945  33.010  1.00  0.00     0.031 C 
ATOM     40  C   UNL A   1      38.728  30.757  29.570  1.00  0.00     0.029 A 
ATOM     41  C   UNL A   1      38.974  31.289  30.907  1.00  0.00     0.049 A 
ATOM     42  H   UNL A   1      40.500  30.757  32.220  1.00  0.00     0.167 HD
ATOM     43  C   UNL A   1      43.557  29.331  35.016  1.00  0.00     0.037 A 
ATOM     44  C   UNL A   1      38.235  32.237  31.517  1.00  0.00     0.037 A 
ATOM     45  C   UNL A   1      42.839  30.351  35.736  1.00  0.00     0.049 A 
ATOM     46  C   UNL A   1      38.601  32.676  32.907  1.00  0.00     0.074 A 
ATOM     47  C   UNL A   1      43.071  30.828  37.016  1.00  0.00     0.029 A 
ATOM     48  N   UNL A   1      41.762  31.064  35.233  1.00  0.00    -0.354 N 
ATOM     49  N   UNL A   1      39.562  32.236  33.684  1.00  0.00    -0.248 NA
ATOM     50  C   UNL A   1      37.786  33.744  33.502  1.00  0.00     0.031 C 
ATOM     51  C   UNL A   1      42.121  31.820  37.292  1.00  0.00     0.029 A 
ATOM     52  C   UNL A   1      41.320  31.980  36.174  1.00  0.00     0.049 A 
ATOM     53  H   UNL A   1      41.370  30.940  34.339  1.00  0.00     0.167 HD
ATOM     54  C   UNL A   1      39.476  32.984  34.854  1.00  0.00     0.074 A 
ATOM     55  C   UNL A   1      38.381  33.914  34.675  1.00  0.00     0.031 C 
ATOM     56  C   UNL A   1      40.234  32.905  35.974  1.00  0.00     0.037 A 
BRANCH  43  57
ATOM     57  C   UNL A   1      44.696  28.640  35.710  1.00  0.00     0.058 A 
ATOM     58  C   UNL A   1      46.013  29.118  35.628  1.00  0.00     0.135 A 
ATOM     59  C   UNL A   1      44.460  27.503  36.498  1.00  0.00     0.135 A 
ATOM     60  F   UNL A   1      46.295  30.191  34.872  1.00  0.00    -0.206 F 
ATOM     61  C   UNL A   1      47.060  28.482  36.288  1.00  0.00     0.059 A 
ATOM     62  C   UNL A   1      45.488  26.862  37.184  1.00  0.00     0.059 A 
ATOM     63  F   UNL A   1      43.219  27.002  36.609  1.00  0.00    -0.206 F 
ATOM     64  C   UNL A   1      46.787  27.353  37.062  1.00  0.00     0.060 A 
BRANCH  64  65
ATOM     65  S   UNL A   1      48.150  26.541  37.927  1.00  0.00     0.124 S 
ATOM     66  O   UNL A   1      48.400  27.478  39.019  1.00  0.00    -0.237 OA
ATOM     67  O   UNL A   1      47.563  25.261  38.312  1.00  0.00    -0.237 OA
ATOM     68  O   UNL A   1      49.197  26.467  36.913  1.00  0.00    -0.744 OA
ENDBRANCH  64  65
ENDBRANCH  43  57
BRANCH  44  69
ATOM     69  C   UNL A   1      37.066  32.828  30.815  1.00  0.00     0.058 A 
ATOM     70  C   UNL A   1      35.760  32.418  31.116  1.00  0.00     0.135 A 
ATOM     71  C   UNL A   1      37.235  33.821  29.839  1.00  0.00     0.135 A 
ATOM     72  F   UNL A   1      35.551  31.465  32.037  1.00  0.00    -0.206 F 
ATOM     73  C   UNL A   1      34.659  32.961  30.463  1.00  0.00     0.059 A 
ATOM     74  C   UNL A   1      36.149  34.395  29.188  1.00  0.00     0.059 A 
ATOM     75  F   UNL A   1      38.466  34.256  29.527  1.00  0.00    -0.206 F 
ATOM     76  C   UNL A   1      34.864  33.951  29.499  1.00  0.00     0.060 A 
BRANCH  76  77
ATOM     77  S   UNL A   1      33.431  34.694  28.689  1.00  0.00     0.124 S 
ATOM     78  O   UNL A   1      34.018  35.888  28.093  1.00  0.00    -0.237 OA
ATOM     79  O   UNL A   1      33.023  33.649  27.754  1.00  0.00    -0.237 OA
ATOM     80  O   UNL A   1      32.508  34.927  29.797  1.00  0.00    -0.744 OA
ENDBRANCH  76  77
ENDBRANCH  44  69
BRANCH  56  81
ATOM     81  C   UNL A   1      39.926  33.880  37.074  1.00  0.00     0.058 A 
ATOM     82  C   UNL A   1      40.455  35.179  37.075  1.00  0.00     0.135 A 
ATOM     83  C   UNL A   1      39.082  33.511  38.133  1.00  0.00     0.135 A 
ATOM     84  F   UNL A   1      41.271  35.577  36.086  1.00  0.00    -0.206 F 
ATOM     85  C   UNL A   1      40.187  36.070  38.110  1.00  0.00     0.059 A 
ATOM     86  C   UNL A   1      38.784  34.393  39.168  1.00  0.00     0.059 A 
ATOM     87  F   UNL A   1      38.541  32.283  38.171  1.00  0.00    -0.206 F 
ATOM     88  C   UNL A   1      39.357  35.664  39.156  1.00  0.00     0.060 A 
BRANCH  88  89
ATOM     89  S   UNL A   1      39.012  36.822  40.497  1.00  0.00     0.124 S 
ATOM     90  O   UNL A   1      38.054  36.066  41.297  1.00  0.00    -0.237 OA
ATOM     91  O   UNL A   1      40.328  37.013  41.100  1.00  0.00    -0.237 OA
ATOM     92  O   UNL A   1      38.474  37.990  39.806  1.00  0.00    -0.744 OA
ENDBRANCH  88  89
ENDBRANCH  56  81
ENDBRANCH  30  31
ENDBRANCH  23  25
ENDBRANCH  22  23
ENDBRANCH  21  22
ENDBRANCH  20  21
ENDBRANCH   1  20
TORSDOF 20
ENDMDL
