MODEL 1
REMARK VINA RESULT:     -12.8      0.000      0.000
REMARK SMILES O=C(OCCOC(=O)c1ccc(-c2c3nc(c(-c4c(F)cc(S(=O)(=O)[O-])cc4F)c4ccc([nH]4)c(-c4c(F)cc(S(=O)(=O)[O-])cc4F)c4nc(c(-c5c(F)cc(S(=O)(=O)[O-])cc5F)c5ccc2[nH]5)C=C4)C=C3)cc1)c1ccc(NC(=O)[C@@H]2CC=CC[C@H]2C(=O)Nc2cccc([N+](=O)[O-])c2)cc1
REMARK SMILES IDX 4 1 3 2 2 3 1 4 75 5 76 6 101 7 77 8 100 9 78 10 79 11 80 12
REMARK SMILES IDX 81 14 82 15 83 16 87 17 84 18 86 19 85 20 88 21 89 22 90 23
REMARK SMILES IDX 91 25 92 26 99 27 93 28 95 29 94 30 96 31 97 32 98 33 5 34
REMARK SMILES IDX 6 35 7 36 8 37 9 38 10 39 74 40 11 41 73 42 12 43 13 44
REMARK SMILES IDX 14 45 67 46 15 47 72 48 66 49 68 50 16 51 71 52 65 53 64 54
REMARK SMILES IDX 17 56 51 57 30 58 50 59 31 60 34 61 49 62 69 63 32 64 33 65
REMARK SMILES IDX 48 67 70 68 35 69 18 70 19 71 28 72 20 73 21 74 27 75 29 76
REMARK SMILES IDX 22 77 23 78 24 79 25 80 26 81 52 82 53 83 62 84 54 85 55 86
REMARK SMILES IDX 61 87 63 88 56 89 57 90 58 91 59 92 60 93 36 94 37 95 46 96
REMARK SMILES IDX 38 97 39 98 45 99 47 100 40 101 41 102 42 103 43 104 44 105
REMARK H PARENT 79 13 90 24 68 55 34 66
REMARK Flexibility Score: inf
ROOT
ATOM      1  C   UNL A   1      35.544  33.330  29.975  1.00  0.00     0.275 C 
ENDROOT
BRANCH   1   2
ATOM      2  O   UNL A   1      35.463  32.608  28.728  1.00  0.00    -0.458 OA
BRANCH   2   3
ATOM      3  C   UNL A   1      34.445  32.443  27.845  1.00  0.00     0.338 C 
ATOM      4  O   UNL A   1      33.964  33.452  27.331  1.00  0.00    -0.246 OA
BRANCH   3   5
ATOM      5  C   UNL A   1      33.806  31.126  27.507  1.00  0.00     0.060 A 
ATOM      6  C   UNL A   1      34.398  29.889  27.681  1.00  0.00     0.018 A 
ATOM      7  C   UNL A   1      32.460  31.115  27.098  1.00  0.00     0.018 A 
ATOM      8  C   UNL A   1      33.664  28.707  27.581  1.00  0.00     0.027 A 
ATOM      9  C   UNL A   1      31.746  29.906  26.922  1.00  0.00     0.027 A 
ATOM     10  C   UNL A   1      32.343  28.675  27.191  1.00  0.00     0.041 A 
BRANCH  10  11
ATOM     11  N   UNL A   1      31.568  27.499  27.143  1.00  0.00    -0.326 N 
ATOM     12  C   UNL A   1      31.374  26.511  26.208  1.00  0.00     0.228 C 
ATOM     13  H   UNL A   1      31.047  27.352  27.965  1.00  0.00     0.169 HD
ATOM     14  O   UNL A   1      30.714  25.526  26.555  1.00  0.00    -0.274 OA
BRANCH  12  15
ATOM     15  C   UNL A   1      31.855  26.620  24.756  1.00  0.00     0.095 C 
ATOM     16  C   UNL A   1      33.397  26.683  24.759  1.00  0.00     0.041 C 
ATOM     17  C   UNL A   1      31.236  27.839  24.020  1.00  0.00     0.095 C 
ATOM     18  C   UNL A   1      33.960  26.979  23.400  1.00  0.00    -0.030 C 
ATOM     19  C   UNL A   1      32.091  28.529  22.932  1.00  0.00     0.041 C 
ATOM     20  C   UNL A   1      33.354  27.826  22.563  1.00  0.00    -0.030 C 
BRANCH  17  21
ATOM     21  C   UNL A   1      29.821  27.702  23.463  1.00  0.00     0.228 C 
ATOM     22  O   UNL A   1      29.349  26.563  23.337  1.00  0.00    -0.274 OA
ATOM     23  N   UNL A   1      28.945  28.709  23.186  1.00  0.00    -0.326 N 
ATOM     24  H   UNL A   1      28.019  28.373  23.165  1.00  0.00     0.169 HD
BRANCH  23  25
ATOM     25  C   UNL A   1      28.984  30.090  22.922  1.00  0.00     0.048 A 
ATOM     26  C   UNL A   1      29.377  30.922  23.981  1.00  0.00     0.026 A 
ATOM     27  C   UNL A   1      28.534  30.695  21.757  1.00  0.00     0.111 A 
ATOM     28  C   UNL A   1      29.278  32.318  23.892  1.00  0.00     0.009 A 
ATOM     29  C   UNL A   1      28.337  32.083  21.700  1.00  0.00     0.271 A 
ATOM     30  C   UNL A   1      28.721  32.905  22.760  1.00  0.00     0.086 A 
BRANCH  29  31
ATOM     31  N   UNL A   1      27.628  32.658  20.550  1.00  0.00     0.062 N 
ATOM     32  O   UNL A   1      27.429  31.923  19.573  1.00  0.00    -0.258 OA
ATOM     33  O   UNL A   1      27.305  33.852  20.611  1.00  0.00    -0.258 OA
ENDBRANCH  29  31
ENDBRANCH  23  25
ENDBRANCH  17  21
ENDBRANCH  12  15
ENDBRANCH  10  11
ENDBRANCH   3   5
ENDBRANCH   2   3
ENDBRANCH   1   2
BRANCH   1  34
ATOM     34  C   UNL A   1      35.152  32.460  31.180  1.00  0.00     0.275 C 
BRANCH  34  35
ATOM     35  O   UNL A   1      35.870  31.211  31.202  1.00  0.00    -0.458 OA
BRANCH  35  36
ATOM     36  C   UNL A   1      36.944  31.166  32.034  1.00  0.00     0.338 C 
ATOM     37  O   UNL A   1      36.922  31.363  33.238  1.00  0.00    -0.246 OA
BRANCH  36  38
ATOM     38  C   UNL A   1      38.148  30.693  31.302  1.00  0.00     0.060 A 
ATOM     39  C   UNL A   1      39.233  30.219  32.045  1.00  0.00     0.016 A 
ATOM     40  C   UNL A   1      38.223  30.686  29.909  1.00  0.00     0.016 A 
ATOM     41  C   UNL A   1      40.391  29.766  31.399  1.00  0.00     0.010 A 
ATOM     42  C   UNL A   1      39.366  30.195  29.261  1.00  0.00     0.010 A 
ATOM     43  C   UNL A   1      40.477  29.760  29.997  1.00  0.00    -0.014 A 
BRANCH  43  44
ATOM     44  C   UNL A   1      41.742  29.359  29.316  1.00  0.00     0.031 A 
ATOM     45  C   UNL A   1      42.839  30.372  29.095  1.00  0.00     0.074 A 
ATOM     46  C   UNL A   1      41.927  28.093  28.888  1.00  0.00     0.049 A 
ATOM     47  N   UNL A   1      44.057  30.183  28.649  1.00  0.00    -0.248 NA
ATOM     48  C   UNL A   1      42.530  31.773  29.414  1.00  0.00     0.031 C 
ATOM     49  C   UNL A   1      40.946  27.015  28.995  1.00  0.00     0.029 A 
ATOM     50  N   UNL A   1      43.001  27.499  28.268  1.00  0.00    -0.354 N 
ATOM     51  C   UNL A   1      44.666  31.433  28.666  1.00  0.00     0.074 A 
ATOM     52  C   UNL A   1      43.662  32.383  29.093  1.00  0.00     0.031 C 
ATOM     53  C   UNL A   1      41.450  25.900  28.438  1.00  0.00     0.029 A 
ATOM     54  C   UNL A   1      42.802  26.175  27.957  1.00  0.00     0.049 A 
ATOM     55  H   UNL A   1      43.836  27.980  28.064  1.00  0.00     0.167 HD
ATOM     56  C   UNL A   1      45.952  31.759  28.390  1.00  0.00     0.037 A 
ATOM     57  C   UNL A   1      43.620  25.273  27.377  1.00  0.00     0.037 A 
ATOM     58  C   UNL A   1      46.951  30.819  27.951  1.00  0.00     0.049 A 
ATOM     59  C   UNL A   1      45.041  25.659  27.048  1.00  0.00     0.074 A 
ATOM     60  C   UNL A   1      48.298  31.042  27.716  1.00  0.00     0.029 A 
ATOM     61  N   UNL A   1      46.711  29.486  27.656  1.00  0.00    -0.354 N 
ATOM     62  N   UNL A   1      45.641  26.813  27.214  1.00  0.00    -0.248 NA
ATOM     63  C   UNL A   1      45.907  24.608  26.492  1.00  0.00     0.031 C 
ATOM     64  C   UNL A   1      48.861  29.857  27.231  1.00  0.00     0.029 A 
ATOM     65  C   UNL A   1      47.878  28.880  27.214  1.00  0.00     0.049 A 
ATOM     66  H   UNL A   1      45.841  29.035  27.747  1.00  0.00     0.167 HD
ATOM     67  C   UNL A   1      46.963  26.614  26.826  1.00  0.00     0.074 A 
ATOM     68  C   UNL A   1      47.076  25.229  26.419  1.00  0.00     0.031 C 
ATOM     69  C   UNL A   1      47.992  27.498  26.822  1.00  0.00     0.037 A 
BRANCH  56  70
ATOM     70  C   UNL A   1      46.365  33.193  28.580  1.00  0.00     0.058 A 
ATOM     71  C   UNL A   1      46.836  33.658  29.820  1.00  0.00     0.135 A 
ATOM     72  C   UNL A   1      46.351  34.098  27.507  1.00  0.00     0.135 A 
ATOM     73  F   UNL A   1      46.863  32.839  30.884  1.00  0.00    -0.206 F 
ATOM     74  C   UNL A   1      47.251  34.973  29.995  1.00  0.00     0.059 A 
ATOM     75  C   UNL A   1      46.788  35.412  27.652  1.00  0.00     0.059 A 
ATOM     76  F   UNL A   1      45.917  33.706  26.298  1.00  0.00    -0.206 F 
ATOM     77  C   UNL A   1      47.224  35.844  28.904  1.00  0.00     0.060 A 
BRANCH  77  78
ATOM     78  S   UNL A   1      47.782  37.543  29.148  1.00  0.00     0.124 S 
ATOM     79  O   UNL A   1      49.225  37.404  28.976  1.00  0.00    -0.237 OA
ATOM     80  O   UNL A   1      47.085  38.256  28.082  1.00  0.00    -0.237 OA
ATOM     81  O   UNL A   1      47.339  37.857  30.502  1.00  0.00    -0.744 OA
ENDBRANCH  77  78
ENDBRANCH  56  70
BRANCH  57  82
ATOM     82  C   UNL A   1      43.139  23.888  27.119  1.00  0.00     0.058 A 
ATOM     83  C   UNL A   1      43.030  22.952  28.159  1.00  0.00     0.135 A 
ATOM     84  C   UNL A   1      42.788  23.472  25.826  1.00  0.00     0.135 A 
ATOM     85  F   UNL A   1      43.359  23.301  29.412  1.00  0.00    -0.206 F 
ATOM     86  C   UNL A   1      42.614  21.646  27.923  1.00  0.00     0.059 A 
ATOM     87  C   UNL A   1      42.348  22.176  25.569  1.00  0.00     0.059 A 
ATOM     88  F   UNL A   1      42.855  24.335  24.799  1.00  0.00    -0.206 F 
ATOM     89  C   UNL A   1      42.276  21.267  26.622  1.00  0.00     0.060 A 
BRANCH  89  90
ATOM     90  S   UNL A   1      41.703  19.578  26.336  1.00  0.00     0.124 S 
ATOM     91  O   UNL A   1      42.068  18.927  27.588  1.00  0.00    -0.237 OA
ATOM     92  O   UNL A   1      40.274  19.773  26.109  1.00  0.00    -0.237 OA
ATOM     93  O   UNL A   1      42.464  19.160  25.162  1.00  0.00    -0.744 OA
ENDBRANCH  89  90
ENDBRANCH  57  82
BRANCH  69  94
ATOM     94  C   UNL A   1      49.348  26.997  26.404  1.00  0.00     0.058 A 
ATOM     95  C   UNL A   1      50.193  26.311  27.291  1.00  0.00     0.135 A 
ATOM     96  C   UNL A   1      49.784  27.153  25.077  1.00  0.00     0.135 A 
ATOM     97  F   UNL A   1      49.829  26.138  28.572  1.00  0.00    -0.206 F 
ATOM     98  C   UNL A   1      51.429  25.818  26.885  1.00  0.00     0.059 A 
ATOM     99  C   UNL A   1      51.004  26.642  24.642  1.00  0.00     0.059 A 
ATOM    100  F   UNL A   1      49.013  27.791  24.182  1.00  0.00    -0.206 F 
ATOM    101  C   UNL A   1      51.825  25.986  25.556  1.00  0.00     0.060 A 
BRANCH 101 102
ATOM    102  S   UNL A   1      53.415  25.305  25.032  1.00  0.00     0.124 S 
ATOM    103  O   UNL A   1      54.348  26.078  25.845  1.00  0.00    -0.237 OA
ATOM    104  O   UNL A   1      53.284  23.895  25.386  1.00  0.00    -0.237 OA
ATOM    105  O   UNL A   1      53.449  25.584  23.600  1.00  0.00    -0.744 OA
ENDBRANCH 101 102
ENDBRANCH  69  94
ENDBRANCH  43  44
ENDBRANCH  36  38
ENDBRANCH  35  36
ENDBRANCH  34  35
ENDBRANCH   1  34
TORSDOF 19
ENDMDL
MODEL 2
REMARK VINA RESULT:     -12.8      6.090     11.871
REMARK SMILES O=C(OCCOC(=O)c1ccc(-c2c3nc(c(-c4c(F)cc(S(=O)(=O)[O-])cc4F)c4ccc([nH]4)c(-c4c(F)cc(S(=O)(=O)[O-])cc4F)c4nc(c(-c5c(F)cc(S(=O)(=O)[O-])cc5F)c5ccc2[nH]5)C=C4)C=C3)cc1)c1ccc(NC(=O)[C@@H]2CC=CC[C@H]2C(=O)Nc2cccc([N+](=O)[O-])c2)cc1
REMARK SMILES IDX 4 1 3 2 2 3 1 4 75 5 76 6 101 7 77 8 100 9 78 10 79 11 80 12
REMARK SMILES IDX 81 14 82 15 83 16 87 17 84 18 86 19 85 20 88 21 89 22 90 23
REMARK SMILES IDX 91 25 92 26 99 27 93 28 95 29 94 30 96 31 97 32 98 33 5 34
REMARK SMILES IDX 6 35 7 36 8 37 9 38 10 39 74 40 11 41 73 42 12 43 13 44
REMARK SMILES IDX 14 45 67 46 15 47 72 48 66 49 68 50 16 51 71 52 65 53 64 54
REMARK SMILES IDX 17 56 51 57 30 58 50 59 31 60 34 61 49 62 69 63 32 64 33 65
REMARK SMILES IDX 48 67 70 68 35 69 18 70 19 71 28 72 20 73 21 74 27 75 29 76
REMARK SMILES IDX 22 77 23 78 24 79 25 80 26 81 52 82 53 83 62 84 54 85 55 86
REMARK SMILES IDX 61 87 63 88 56 89 57 90 58 91 59 92 60 93 36 94 37 95 46 96
REMARK SMILES IDX 38 97 39 98 45 99 47 100 40 101 41 102 42 103 43 104 44 105
REMARK H PARENT 79 13 90 24 68 55 34 66
REMARK Flexibility Score: inf
ROOT
ATOM      1  C   UNL A   1      43.124  21.895  26.117  1.00  0.00     0.275 C 
ENDROOT
BRANCH   1   2
ATOM      2  O   UNL A   1      41.827  21.323  25.847  1.00  0.00    -0.458 OA
BRANCH   2   3
ATOM      3  C   UNL A   1      40.700  21.244  26.600  1.00  0.00     0.338 C 
ATOM      4  O   UNL A   1      40.702  20.466  27.553  1.00  0.00    -0.246 OA
BRANCH   3   5
ATOM      5  C   UNL A   1      39.420  21.976  26.310  1.00  0.00     0.060 A 
ATOM      6  C   UNL A   1      39.103  23.236  26.781  1.00  0.00     0.018 A 
ATOM      7  C   UNL A   1      38.513  21.411  25.394  1.00  0.00     0.018 A 
ATOM      8  C   UNL A   1      38.017  23.952  26.276  1.00  0.00     0.027 A 
ATOM      9  C   UNL A   1      37.370  22.115  24.949  1.00  0.00     0.027 A 
ATOM     10  C   UNL A   1      37.123  23.422  25.372  1.00  0.00     0.041 A 
BRANCH  10  11
ATOM     11  N   UNL A   1      36.057  24.147  24.806  1.00  0.00    -0.326 N 
ATOM     12  C   UNL A   1      34.691  24.003  24.797  1.00  0.00     0.228 C 
ATOM     13  H   UNL A   1      36.359  24.937  24.302  1.00  0.00     0.169 HD
ATOM     14  O   UNL A   1      34.028  24.922  24.304  1.00  0.00    -0.274 OA
BRANCH  12  15
ATOM     15  C   UNL A   1      33.975  22.736  25.280  1.00  0.00     0.095 C 
ATOM     16  C   UNL A   1      34.261  21.603  24.272  1.00  0.00     0.041 C 
ATOM     17  C   UNL A   1      32.449  22.958  25.471  1.00  0.00     0.095 C 
ATOM     18  C   UNL A   1      33.453  20.370  24.552  1.00  0.00    -0.030 C 
ATOM     19  C   UNL A   1      31.512  21.757  25.206  1.00  0.00     0.041 C 
ATOM     20  C   UNL A   1      32.190  20.447  24.985  1.00  0.00    -0.030 C 
BRANCH  17  21
ATOM     21  C   UNL A   1      31.974  23.628  26.757  1.00  0.00     0.228 C 
ATOM     22  O   UNL A   1      32.045  22.984  27.813  1.00  0.00    -0.274 OA
ATOM     23  N   UNL A   1      31.575  24.923  26.912  1.00  0.00    -0.326 N 
ATOM     24  H   UNL A   1      31.642  25.200  27.854  1.00  0.00     0.169 HD
BRANCH  23  25
ATOM     25  C   UNL A   1      31.098  25.976  26.111  1.00  0.00     0.048 A 
ATOM     26  C   UNL A   1      30.169  25.636  25.114  1.00  0.00     0.026 A 
ATOM     27  C   UNL A   1      31.574  27.278  26.134  1.00  0.00     0.111 A 
ATOM     28  C   UNL A   1      29.765  26.564  24.143  1.00  0.00     0.009 A 
ATOM     29  C   UNL A   1      31.252  28.178  25.106  1.00  0.00     0.271 A 
ATOM     30  C   UNL A   1      30.335  27.833  24.113  1.00  0.00     0.086 A 
BRANCH  29  31
ATOM     31  N   UNL A   1      31.968  29.458  25.026  1.00  0.00     0.062 N 
ATOM     32  O   UNL A   1      31.375  30.472  25.419  1.00  0.00    -0.258 OA
ATOM     33  O   UNL A   1      33.105  29.452  24.536  1.00  0.00    -0.258 OA
ENDBRANCH  29  31
ENDBRANCH  23  25
ENDBRANCH  17  21
ENDBRANCH  12  15
ENDBRANCH  10  11
ENDBRANCH   3   5
ENDBRANCH   2   3
ENDBRANCH   1   2
BRANCH   1  34
ATOM     34  C   UNL A   1      43.231  23.352  25.639  1.00  0.00     0.275 C 
BRANCH  34  35
ATOM     35  O   UNL A   1      42.234  24.196  26.247  1.00  0.00    -0.458 OA
BRANCH  35  36
ATOM     36  C   UNL A   1      42.310  25.516  25.930  1.00  0.00     0.338 C 
ATOM     37  O   UNL A   1      42.437  25.972  24.805  1.00  0.00    -0.246 OA
BRANCH  36  38
ATOM     38  C   UNL A   1      42.065  26.354  27.132  1.00  0.00     0.060 A 
ATOM     39  C   UNL A   1      41.057  25.966  28.019  1.00  0.00     0.016 A 
ATOM     40  C   UNL A   1      42.817  27.496  27.414  1.00  0.00     0.016 A 
ATOM     41  C   UNL A   1      40.789  26.727  29.164  1.00  0.00     0.010 A 
ATOM     42  C   UNL A   1      42.574  28.235  28.582  1.00  0.00     0.010 A 
ATOM     43  C   UNL A   1      41.536  27.880  29.454  1.00  0.00    -0.014 A 
BRANCH  43  44
ATOM     44  C   UNL A   1      41.190  28.735  30.627  1.00  0.00     0.031 A 
ATOM     45  C   UNL A   1      41.944  28.584  31.924  1.00  0.00     0.074 A 
ATOM     46  C   UNL A   1      40.203  29.651  30.548  1.00  0.00     0.049 A 
ATOM     47  N   UNL A   1      41.883  29.325  33.004  1.00  0.00    -0.248 NA
ATOM     48  C   UNL A   1      42.887  27.460  32.024  1.00  0.00     0.031 C 
ATOM     49  C   UNL A   1      39.361  29.885  29.377  1.00  0.00     0.029 A 
ATOM     50  N   UNL A   1      39.733  30.551  31.474  1.00  0.00    -0.354 N 
ATOM     51  C   UNL A   1      42.800  28.777  33.894  1.00  0.00     0.074 A 
ATOM     52  C   UNL A   1      43.347  27.598  33.260  1.00  0.00     0.031 C 
ATOM     53  C   UNL A   1      38.462  30.844  29.660  1.00  0.00     0.029 A 
ATOM     54  C   UNL A   1      38.680  31.314  31.027  1.00  0.00     0.049 A 
ATOM     55  H   UNL A   1      40.115  30.640  32.378  1.00  0.00     0.167 HD
ATOM     56  C   UNL A   1      43.181  29.231  35.113  1.00  0.00     0.037 A 
ATOM     57  C   UNL A   1      37.985  32.298  31.632  1.00  0.00     0.037 A 
ATOM     58  C   UNL A   1      42.628  30.395  35.754  1.00  0.00     0.049 A 
ATOM     59  C   UNL A   1      38.403  32.774  33.000  1.00  0.00     0.074 A 
ATOM     60  C   UNL A   1      43.002  30.975  36.956  1.00  0.00     0.029 A 
ATOM     61  N   UNL A   1      41.569  31.145  35.265  1.00  0.00    -0.354 N 
ATOM     62  N   UNL A   1      39.376  32.336  33.764  1.00  0.00    -0.248 NA
ATOM     63  C   UNL A   1      37.656  33.905  33.572  1.00  0.00     0.031 C 
ATOM     64  C   UNL A   1      42.136  32.042  37.217  1.00  0.00     0.029 A 
ATOM     65  C   UNL A   1      41.258  32.163  36.152  1.00  0.00     0.049 A 
ATOM     66  H   UNL A   1      41.108  30.978  34.411  1.00  0.00     0.167 HD
ATOM     67  C   UNL A   1      39.385  33.165  34.882  1.00  0.00     0.074 A 
ATOM     68  C   UNL A   1      38.323  34.131  34.696  1.00  0.00     0.031 C 
ATOM     69  C   UNL A   1      40.209  33.133  35.959  1.00  0.00     0.037 A 
BRANCH  56  70
ATOM     70  C   UNL A   1      44.272  28.480  35.827  1.00  0.00     0.058 A 
ATOM     71  C   UNL A   1      43.976  27.419  36.699  1.00  0.00     0.135 A 
ATOM     72  C   UNL A   1      45.624  28.778  35.596  1.00  0.00     0.135 A 
ATOM     73  F   UNL A   1      42.701  27.096  36.965  1.00  0.00    -0.206 F 
ATOM     74  C   UNL A   1      44.980  26.699  37.337  1.00  0.00     0.059 A 
ATOM     75  C   UNL A   1      46.647  28.053  36.202  1.00  0.00     0.059 A 
ATOM     76  F   UNL A   1      45.965  29.778  34.768  1.00  0.00    -0.206 F 
ATOM     77  C   UNL A   1      46.314  27.022  37.081  1.00  0.00     0.060 A 
BRANCH  77  78
ATOM     78  S   UNL A   1      47.604  26.065  37.906  1.00  0.00     0.124 S 
ATOM     79  O   UNL A   1      48.288  27.100  38.675  1.00  0.00    -0.237 OA
ATOM     80  O   UNL A   1      46.829  25.105  38.686  1.00  0.00    -0.237 OA
ATOM     81  O   UNL A   1      48.367  25.497  36.799  1.00  0.00    -0.744 OA
ENDBRANCH  77  78
ENDBRANCH  56  70
BRANCH  57  82
ATOM     82  C   UNL A   1      36.849  32.951  30.924  1.00  0.00     0.058 A 
ATOM     83  C   UNL A   1      37.070  33.944  29.958  1.00  0.00     0.135 A 
ATOM     84  C   UNL A   1      35.521  32.600  31.208  1.00  0.00     0.135 A 
ATOM     85  F   UNL A   1      38.322  34.318  29.655  1.00  0.00    -0.206 F 
ATOM     86  C   UNL A   1      36.015  34.584  29.316  1.00  0.00     0.059 A 
ATOM     87  C   UNL A   1      34.449  33.211  30.563  1.00  0.00     0.059 A 
ATOM     88  F   UNL A   1      35.256  31.641  32.110  1.00  0.00    -0.206 F 
ATOM     89  C   UNL A   1      34.706  34.210  29.627  1.00  0.00     0.060 A 
BRANCH  89  90
ATOM     90  S   UNL A   1      33.346  35.024  28.760  1.00  0.00     0.124 S 
ATOM     91  O   UNL A   1      34.055  36.033  27.981  1.00  0.00    -0.237 OA
ATOM     92  O   UNL A   1      32.763  33.922  28.001  1.00  0.00    -0.237 OA
ATOM     93  O   UNL A   1      32.514  35.535  29.846  1.00  0.00    -0.744 OA
ENDBRANCH  89  90
ENDBRANCH  57  82
BRANCH  69  94
ATOM     94  C   UNL A   1      40.035  34.196  37.009  1.00  0.00     0.058 A 
ATOM     95  C   UNL A   1      40.653  35.453  36.905  1.00  0.00     0.135 A 
ATOM     96  C   UNL A   1      39.187  33.976  38.108  1.00  0.00     0.135 A 
ATOM     97  F   UNL A   1      41.478  35.717  35.879  1.00  0.00    -0.206 F 
ATOM     98  C   UNL A   1      40.455  36.443  37.862  1.00  0.00     0.059 A 
ATOM     99  C   UNL A   1      38.952  34.963  39.062  1.00  0.00     0.059 A 
ATOM    100  F   UNL A   1      38.561  32.797  38.254  1.00  0.00    -0.206 F 
ATOM    101  C   UNL A   1      39.600  36.190  38.937  1.00  0.00     0.060 A 
BRANCH 101 102
ATOM    102  S   UNL A   1      39.320  37.499  40.150  1.00  0.00     0.124 S 
ATOM    103  O   UNL A   1      40.659  38.061  40.291  1.00  0.00    -0.237 OA
ATOM    104  O   UNL A   1      38.343  38.348  39.475  1.00  0.00    -0.237 OA
ATOM    105  O   UNL A   1      38.815  36.779  41.316  1.00  0.00    -0.744 OA
ENDBRANCH 101 102
ENDBRANCH  69  94
ENDBRANCH  43  44
ENDBRANCH  36  38
ENDBRANCH  35  36
ENDBRANCH  34  35
ENDBRANCH   1  34
TORSDOF 19
ENDMDL
MODEL 3
REMARK VINA RESULT:     -12.6      6.009     11.633
REMARK SMILES O=C(OCCOC(=O)c1ccc(-c2c3nc(c(-c4c(F)cc(S(=O)(=O)[O-])cc4F)c4ccc([nH]4)c(-c4c(F)cc(S(=O)(=O)[O-])cc4F)c4nc(c(-c5c(F)cc(S(=O)(=O)[O-])cc5F)c5ccc2[nH]5)C=C4)C=C3)cc1)c1ccc(NC(=O)[C@@H]2CC=CC[C@H]2C(=O)Nc2cccc([N+](=O)[O-])c2)cc1
REMARK SMILES IDX 4 1 3 2 2 3 1 4 75 5 76 6 101 7 77 8 100 9 78 10 79 11 80 12
REMARK SMILES IDX 81 14 82 15 83 16 87 17 84 18 86 19 85 20 88 21 89 22 90 23
REMARK SMILES IDX 91 25 92 26 99 27 93 28 95 29 94 30 96 31 97 32 98 33 5 34
REMARK SMILES IDX 6 35 7 36 8 37 9 38 10 39 74 40 11 41 73 42 12 43 13 44
REMARK SMILES IDX 14 45 67 46 15 47 72 48 66 49 68 50 16 51 71 52 65 53 64 54
REMARK SMILES IDX 17 56 51 57 30 58 50 59 31 60 34 61 49 62 69 63 32 64 33 65
REMARK SMILES IDX 48 67 70 68 35 69 18 70 19 71 28 72 20 73 21 74 27 75 29 76
REMARK SMILES IDX 22 77 23 78 24 79 25 80 26 81 52 82 53 83 62 84 54 85 55 86
REMARK SMILES IDX 61 87 63 88 56 89 57 90 58 91 59 92 60 93 36 94 37 95 46 96
REMARK SMILES IDX 38 97 39 98 45 99 47 100 40 101 41 102 42 103 43 104 44 105
REMARK H PARENT 79 13 90 24 68 55 34 66
REMARK Flexibility Score: inf
ROOT
ATOM      1  C   UNL A   1      39.238  22.810  26.493  1.00  0.00     0.275 C 
ENDROOT
BRANCH   1   2
ATOM      2  O   UNL A   1      38.897  21.691  25.647  1.00  0.00    -0.458 OA
BRANCH   2   3
ATOM      3  C   UNL A   1      37.722  21.308  25.087  1.00  0.00     0.338 C 
ATOM      4  O   UNL A   1      37.634  20.152  24.676  1.00  0.00    -0.246 OA
BRANCH   3   5
ATOM      5  C   UNL A   1      36.545  22.213  24.857  1.00  0.00     0.060 A 
ATOM      6  C   UNL A   1      36.335  22.969  23.719  1.00  0.00     0.018 A 
ATOM      7  C   UNL A   1      35.502  22.215  25.802  1.00  0.00     0.018 A 
ATOM      8  C   UNL A   1      35.111  23.588  23.469  1.00  0.00     0.027 A 
ATOM      9  C   UNL A   1      34.293  22.914  25.573  1.00  0.00     0.027 A 
ATOM     10  C   UNL A   1      34.074  23.594  24.376  1.00  0.00     0.041 A 
BRANCH  10  11
ATOM     11  N   UNL A   1      32.810  24.162  24.118  1.00  0.00    -0.326 N 
ATOM     12  C   UNL A   1      32.331  25.446  24.027  1.00  0.00     0.228 C 
ATOM     13  H   UNL A   1      32.112  23.485  23.969  1.00  0.00     0.169 HD
ATOM     14  O   UNL A   1      31.167  25.590  23.642  1.00  0.00    -0.274 OA
BRANCH  12  15
ATOM     15  C   UNL A   1      33.136  26.677  24.463  1.00  0.00     0.095 C 
ATOM     16  C   UNL A   1      33.510  26.511  25.951  1.00  0.00     0.041 C 
ATOM     17  C   UNL A   1      32.366  28.003  24.212  1.00  0.00     0.095 C 
ATOM     18  C   UNL A   1      34.137  27.748  26.524  1.00  0.00    -0.030 C 
ATOM     19  C   UNL A   1      32.613  29.171  25.193  1.00  0.00     0.041 C 
ATOM     20  C   UNL A   1      33.723  28.969  26.170  1.00  0.00    -0.030 C 
BRANCH  17  21
ATOM     21  C   UNL A   1      32.375  28.586  22.802  1.00  0.00     0.228 C 
ATOM     22  O   UNL A   1      33.405  28.463  22.124  1.00  0.00    -0.274 OA
ATOM     23  N   UNL A   1      31.324  29.143  22.135  1.00  0.00    -0.326 N 
ATOM     24  H   UNL A   1      31.481  29.133  21.162  1.00  0.00     0.169 HD
BRANCH  23  25
ATOM     25  C   UNL A   1      30.080  29.725  22.437  1.00  0.00     0.048 A 
ATOM     26  C   UNL A   1      29.022  28.844  22.712  1.00  0.00     0.026 A 
ATOM     27  C   UNL A   1      29.786  31.078  22.345  1.00  0.00     0.111 A 
ATOM     28  C   UNL A   1      27.704  29.301  22.845  1.00  0.00     0.009 A 
ATOM     29  C   UNL A   1      28.457  31.527  22.375  1.00  0.00     0.271 A 
ATOM     30  C   UNL A   1      27.409  30.645  22.641  1.00  0.00     0.086 A 
BRANCH  29  31
ATOM     31  N   UNL A   1      28.166  32.923  22.026  1.00  0.00     0.062 N 
ATOM     32  O   UNL A   1      28.385  33.787  22.885  1.00  0.00    -0.258 OA
ATOM     33  O   UNL A   1      27.684  33.148  20.907  1.00  0.00    -0.258 OA
ENDBRANCH  29  31
ENDBRANCH  23  25
ENDBRANCH  17  21
ENDBRANCH  12  15
ENDBRANCH  10  11
ENDBRANCH   3   5
ENDBRANCH   2   3
ENDBRANCH   1   2
BRANCH   1  34
ATOM     34  C   UNL A   1      40.751  23.077  26.529  1.00  0.00     0.275 C 
BRANCH  34  35
ATOM     35  O   UNL A   1      41.073  24.421  26.122  1.00  0.00    -0.458 OA
BRANCH  35  36
ATOM     36  C   UNL A   1      42.178  24.961  26.701  1.00  0.00     0.338 C 
ATOM     37  O   UNL A   1      43.329  24.802  26.327  1.00  0.00    -0.246 OA
BRANCH  36  38
ATOM     38  C   UNL A   1      41.790  25.906  27.780  1.00  0.00     0.060 A 
ATOM     39  C   UNL A   1      42.703  26.895  28.157  1.00  0.00     0.016 A 
ATOM     40  C   UNL A   1      40.546  25.853  28.410  1.00  0.00     0.016 A 
ATOM     41  C   UNL A   1      42.382  27.806  29.171  1.00  0.00     0.010 A 
ATOM     42  C   UNL A   1      40.209  26.791  29.398  1.00  0.00     0.010 A 
ATOM     43  C   UNL A   1      41.135  27.758  29.815  1.00  0.00    -0.014 A 
BRANCH  43  44
ATOM     44  C   UNL A   1      40.831  28.673  30.953  1.00  0.00     0.031 A 
ATOM     45  C   UNL A   1      41.580  28.539  32.255  1.00  0.00     0.074 A 
ATOM     46  C   UNL A   1      39.887  29.631  30.838  1.00  0.00     0.049 A 
ATOM     47  N   UNL A   1      41.555  29.323  33.305  1.00  0.00    -0.248 NA
ATOM     48  C   UNL A   1      42.469  27.377  32.399  1.00  0.00     0.031 C 
ATOM     49  C   UNL A   1      39.056  29.858  29.658  1.00  0.00     0.029 A 
ATOM     50  N   UNL A   1      39.461  30.587  31.729  1.00  0.00    -0.354 N 
ATOM     51  C   UNL A   1      42.447  28.768  34.217  1.00  0.00     0.074 A 
ATOM     52  C   UNL A   1      42.938  27.542  33.628  1.00  0.00     0.031 C 
ATOM     53  C   UNL A   1      38.202  30.868  29.904  1.00  0.00     0.029 A 
ATOM     54  C   UNL A   1      38.445  31.380  31.251  1.00  0.00     0.049 A 
ATOM     55  H   UNL A   1      39.849  30.694  32.628  1.00  0.00     0.167 HD
ATOM     56  C   UNL A   1      42.850  29.252  35.417  1.00  0.00     0.037 A 
ATOM     57  C   UNL A   1      37.797  32.419  31.817  1.00  0.00     0.037 A 
ATOM     58  C   UNL A   1      42.353  30.464  36.012  1.00  0.00     0.049 A 
ATOM     59  C   UNL A   1      38.239  32.928  33.166  1.00  0.00     0.074 A 
ATOM     60  C   UNL A   1      42.756  31.072  37.190  1.00  0.00     0.029 A 
ATOM     61  N   UNL A   1      41.330  31.243  35.493  1.00  0.00    -0.354 N 
ATOM     62  N   UNL A   1      39.192  32.475  33.946  1.00  0.00    -0.248 NA
ATOM     63  C   UNL A   1      37.547  34.113  33.693  1.00  0.00     0.031 C 
ATOM     64  C   UNL A   1      41.941  32.188  37.408  1.00  0.00     0.029 A 
ATOM     65  C   UNL A   1      41.068  32.308  36.340  1.00  0.00     0.049 A 
ATOM     66  H   UNL A   1      40.860  31.065  34.647  1.00  0.00     0.167 HD
ATOM     67  C   UNL A   1      39.242  33.345  35.032  1.00  0.00     0.074 A 
ATOM     68  C   UNL A   1      38.226  34.352  34.807  1.00  0.00     0.031 C 
ATOM     69  C   UNL A   1      40.065  33.317  36.109  1.00  0.00     0.037 A 
BRANCH  56  70
ATOM     70  C   UNL A   1      43.907  28.479  36.160  1.00  0.00     0.058 A 
ATOM     71  C   UNL A   1      45.259  28.858  36.108  1.00  0.00     0.135 A 
ATOM     72  C   UNL A   1      43.565  27.391  36.978  1.00  0.00     0.135 A 
ATOM     73  F   UNL A   1      45.645  29.886  35.335  1.00  0.00    -0.206 F 
ATOM     74  C   UNL A   1      46.236  28.170  36.818  1.00  0.00     0.059 A 
ATOM     75  C   UNL A   1      44.522  26.704  37.720  1.00  0.00     0.059 A 
ATOM     76  F   UNL A   1      42.287  26.989  37.069  1.00  0.00    -0.206 F 
ATOM     77  C   UNL A   1      45.858  27.094  37.623  1.00  0.00     0.060 A 
BRANCH  77  78
ATOM     78  S   UNL A   1      47.139  26.224  38.551  1.00  0.00     0.124 S 
ATOM     79  O   UNL A   1      46.822  24.831  38.249  1.00  0.00    -0.237 OA
ATOM     80  O   UNL A   1      48.365  26.738  37.948  1.00  0.00    -0.237 OA
ATOM     81  O   UNL A   1      46.902  26.636  39.930  1.00  0.00    -0.744 OA
ENDBRANCH  77  78
ENDBRANCH  56  70
BRANCH  57  82
ATOM     82  C   UNL A   1      36.692  33.096  31.084  1.00  0.00     0.058 A 
ATOM     83  C   UNL A   1      36.956  33.995  30.040  1.00  0.00     0.135 A 
ATOM     84  C   UNL A   1      35.350  32.862  31.421  1.00  0.00     0.135 A 
ATOM     85  F   UNL A   1      38.223  34.254  29.685  1.00  0.00    -0.206 F 
ATOM     86  C   UNL A   1      35.932  34.658  29.372  1.00  0.00     0.059 A 
ATOM     87  C   UNL A   1      34.307  33.498  30.753  1.00  0.00     0.059 A 
ATOM     88  F   UNL A   1      35.042  31.996  32.400  1.00  0.00    -0.206 F 
ATOM     89  C   UNL A   1      34.609  34.403  29.738  1.00  0.00     0.060 A 
BRANCH  89  90
ATOM     90  S   UNL A   1      33.287  35.244  28.838  1.00  0.00     0.124 S 
ATOM     91  O   UNL A   1      32.661  34.135  28.128  1.00  0.00    -0.237 OA
ATOM     92  O   UNL A   1      32.506  35.833  29.921  1.00  0.00    -0.237 OA
ATOM     93  O   UNL A   1      34.007  36.202  28.003  1.00  0.00    -0.744 OA
ENDBRANCH  89  90
ENDBRANCH  57  82
BRANCH  69  94
ATOM     94  C   UNL A   1      39.942  34.428  37.117  1.00  0.00     0.058 A 
ATOM     95  C   UNL A   1      40.607  35.655  36.956  1.00  0.00     0.135 A 
ATOM     96  C   UNL A   1      39.098  34.285  38.231  1.00  0.00     0.135 A 
ATOM     97  F   UNL A   1      41.430  35.845  35.913  1.00  0.00    -0.206 F 
ATOM     98  C   UNL A   1      40.456  36.690  37.874  1.00  0.00     0.059 A 
ATOM     99  C   UNL A   1      38.910  35.317  39.146  1.00  0.00     0.059 A 
ATOM    100  F   UNL A   1      38.429  33.138  38.430  1.00  0.00    -0.206 F 
ATOM    101  C   UNL A   1      39.603  36.513  38.966  1.00  0.00     0.060 A 
BRANCH 101 102
ATOM    102  S   UNL A   1      39.386  37.879  40.128  1.00  0.00     0.124 S 
ATOM    103  O   UNL A   1      39.205  37.167  41.388  1.00  0.00    -0.237 OA
ATOM    104  O   UNL A   1      40.641  38.612  39.988  1.00  0.00    -0.237 OA
ATOM    105  O   UNL A   1      38.204  38.571  39.622  1.00  0.00    -0.744 OA
ENDBRANCH 101 102
ENDBRANCH  69  94
ENDBRANCH  43  44
ENDBRANCH  36  38
ENDBRANCH  35  36
ENDBRANCH  34  35
ENDBRANCH   1  34
TORSDOF 19
ENDMDL
