MODEL 1
REMARK VINA RESULT:     -13.0      0.000      0.000
REMARK SMILES Cc1cc(NC(=O)N2CCO[C@@H](CC(=O)OCCOC(=O)c3ccc(-c4c5nc(c(-c6c(F)cc(S(=O)(=O)[O-])cc6F)c6ccc([nH]6)c(-c6c(F)cc(S(=O)(=O)[O-])cc6F)c6nc(c(-c7c(F)cc(S(=O)(=O)[O-])cc7F)c7ccc4[nH]7)C=C6)C=C5)cc3)C2)ccc1F
REMARK SMILES IDX 17 1 16 2 14 3 15 4 13 5 12 6 8 7 9 8 88 9 10 10 11 11 6 12
REMARK SMILES IDX 5 13 7 15 4 16 1 17 2 18 3 19 91 20 90 21 92 22 89 23 18 24
REMARK SMILES IDX 19 25 20 26 21 27 22 28 23 29 87 30 24 31 86 32 25 33 26 34
REMARK SMILES IDX 27 35 80 36 28 37 85 38 79 39 81 40 29 41 84 42 78 43 77 44
REMARK SMILES IDX 30 46 64 47 43 48 63 49 44 50 47 51 62 52 82 53 45 54 46 55
REMARK SMILES IDX 61 57 83 58 48 59 31 60 32 61 41 62 33 63 34 64 40 65 42 66
REMARK SMILES IDX 35 67 36 68 37 69 38 70 39 71 65 72 66 73 75 74 67 75 68 76
REMARK SMILES IDX 74 77 76 78 69 79 70 80 71 81 72 82 73 83 49 84 50 85 59 86
REMARK SMILES IDX 51 87 52 88 58 89 60 90 53 91 54 92 55 93 56 94 57 95
REMARK H PARENT 5 14 81 45 47 56
REMARK Flexibility Score: inf
ROOT
ATOM      1  C   UNL A   1      33.038  29.838  25.824  1.00  0.00     0.274 C 
ENDROOT
BRANCH   1   2
ATOM      2  O   UNL A   1      33.635  28.618  25.370  1.00  0.00    -0.462 OA
BRANCH   2   3
ATOM      3  C   UNL A   1      33.147  28.108  24.222  1.00  0.00     0.308 C 
ATOM      4  O   UNL A   1      32.326  28.674  23.503  1.00  0.00    -0.252 OA
BRANCH   3   5
ATOM      5  C   UNL A   1      33.798  26.804  23.840  1.00  0.00     0.156 C 
BRANCH   5   6
ATOM      6  C   UNL A   1      33.078  25.480  24.108  1.00  0.00     0.149 C 
ATOM      7  N   UNL A   1      31.878  23.902  25.606  1.00  0.00    -0.320 N 
ATOM      8  C   UNL A   1      30.751  23.897  24.676  1.00  0.00     0.150 C 
ATOM      9  C   UNL A   1      32.659  25.163  25.560  1.00  0.00     0.154 C 
ATOM     10  C   UNL A   1      31.212  24.249  23.262  1.00  0.00     0.182 C 
ATOM     11  O   UNL A   1      31.888  25.510  23.255  1.00  0.00    -0.374 OA
BRANCH   7  12
ATOM     12  C   UNL A   1      31.945  23.103  26.718  1.00  0.00     0.322 C 
ATOM     13  N   UNL A   1      32.883  22.116  26.833  1.00  0.00    -0.308 N 
ATOM     14  H   UNL A   1      32.628  21.427  27.489  1.00  0.00     0.171 HD
ATOM     15  O   UNL A   1      31.107  23.177  27.621  1.00  0.00    -0.248 OA
BRANCH  13  16
ATOM     16  C   UNL A   1      34.131  21.854  26.232  1.00  0.00     0.043 A 
ATOM     17  C   UNL A   1      37.523  23.608  25.951  1.00  0.00     0.047 C 
ATOM     18  C   UNL A   1      36.424  22.599  25.819  1.00  0.00    -0.013 A 
ATOM     19  C   UNL A   1      35.148  22.813  26.370  1.00  0.00     0.032 A 
ATOM     20  C   UNL A   1      36.672  21.408  25.137  1.00  0.00     0.126 A 
ATOM     21  C   UNL A   1      35.668  20.474  24.950  1.00  0.00     0.041 A 
ATOM     22  F   UNL A   1      37.891  21.162  24.635  1.00  0.00    -0.207 F 
ATOM     23  C   UNL A   1      34.397  20.722  25.470  1.00  0.00     0.029 A 
ENDBRANCH  13  16
ENDBRANCH   7  12
ENDBRANCH   5   6
ENDBRANCH   3   5
ENDBRANCH   2   3
ENDBRANCH   1   2
BRANCH   1  24
ATOM     24  C   UNL A   1      33.828  30.393  27.008  1.00  0.00     0.275 C 
BRANCH  24  25
ATOM     25  O   UNL A   1      35.070  29.739  27.352  1.00  0.00    -0.458 OA
BRANCH  25  26
ATOM     26  C   UNL A   1      36.126  30.485  27.779  1.00  0.00     0.338 C 
ATOM     27  O   UNL A   1      36.135  31.681  27.935  1.00  0.00    -0.246 OA
BRANCH  26  28
ATOM     28  C   UNL A   1      37.265  29.574  28.072  1.00  0.00     0.060 A 
ATOM     29  C   UNL A   1      37.280  28.873  29.288  1.00  0.00     0.016 A 
ATOM     30  C   UNL A   1      38.369  29.536  27.219  1.00  0.00     0.016 A 
ATOM     31  C   UNL A   1      38.454  28.243  29.715  1.00  0.00     0.010 A 
ATOM     32  C   UNL A   1      39.527  28.912  27.641  1.00  0.00     0.010 A 
ATOM     33  C   UNL A   1      39.588  28.309  28.904  1.00  0.00    -0.014 A 
BRANCH  33  34
ATOM     34  C   UNL A   1      40.867  27.693  29.223  1.00  0.00     0.031 A 
ATOM     35  C   UNL A   1      41.163  26.327  28.738  1.00  0.00     0.074 A 
ATOM     36  C   UNL A   1      41.851  28.409  29.804  1.00  0.00     0.049 A 
ATOM     37  N   UNL A   1      42.125  25.588  29.181  1.00  0.00    -0.248 NA
ATOM     38  C   UNL A   1      40.354  25.669  27.715  1.00  0.00     0.031 C 
ATOM     39  C   UNL A   1      43.283  28.134  29.747  1.00  0.00     0.029 A 
ATOM     40  N   UNL A   1      41.764  29.489  30.667  1.00  0.00    -0.354 N 
ATOM     41  C   UNL A   1      42.260  24.529  28.314  1.00  0.00     0.074 A 
ATOM     42  C   UNL A   1      41.079  24.568  27.481  1.00  0.00     0.031 C 
ATOM     43  C   UNL A   1      43.912  28.865  30.679  1.00  0.00     0.029 A 
ATOM     44  C   UNL A   1      42.897  29.500  31.499  1.00  0.00     0.049 A 
ATOM     45  H   UNL A   1      41.029  30.144  30.692  1.00  0.00     0.167 HD
ATOM     46  C   UNL A   1      43.426  23.822  28.287  1.00  0.00     0.037 A 
ATOM     47  C   UNL A   1      42.793  29.303  32.856  1.00  0.00     0.037 A 
ATOM     48  C   UNL A   1      44.389  24.324  29.264  1.00  0.00     0.049 A 
ATOM     49  C   UNL A   1      43.360  28.001  33.367  1.00  0.00     0.074 A 
ATOM     50  C   UNL A   1      45.443  25.221  29.193  1.00  0.00     0.029 A 
ATOM     51  N   UNL A   1      44.146  24.130  30.609  1.00  0.00    -0.354 N 
ATOM     52  N   UNL A   1      43.989  27.132  32.630  1.00  0.00    -0.248 NA
ATOM     53  C   UNL A   1      43.177  27.537  34.744  1.00  0.00     0.031 C 
ATOM     54  C   UNL A   1      45.818  25.576  30.519  1.00  0.00     0.029 A 
ATOM     55  C   UNL A   1      44.998  24.887  31.394  1.00  0.00     0.049 A 
ATOM     56  H   UNL A   1      43.454  23.528  30.966  1.00  0.00     0.167 HD
ATOM     57  C   UNL A   1      44.232  26.006  33.365  1.00  0.00     0.074 A 
ATOM     58  C   UNL A   1      43.718  26.310  34.688  1.00  0.00     0.031 C 
ATOM     59  C   UNL A   1      44.803  24.889  32.832  1.00  0.00     0.037 A 
BRANCH  46  60
ATOM     60  C   UNL A   1      43.784  22.842  27.195  1.00  0.00     0.058 A 
ATOM     61  C   UNL A   1      43.036  21.659  27.019  1.00  0.00     0.135 A 
ATOM     62  C   UNL A   1      44.863  23.004  26.303  1.00  0.00     0.135 A 
ATOM     63  F   UNL A   1      41.945  21.402  27.751  1.00  0.00    -0.206 F 
ATOM     64  C   UNL A   1      43.378  20.676  26.094  1.00  0.00     0.059 A 
ATOM     65  C   UNL A   1      45.258  22.008  25.401  1.00  0.00     0.059 A 
ATOM     66  F   UNL A   1      45.552  24.154  26.250  1.00  0.00    -0.206 F 
ATOM     67  C   UNL A   1      44.509  20.842  25.308  1.00  0.00     0.060 A 
BRANCH  67  68
ATOM     68  S   UNL A   1      44.967  19.518  24.174  1.00  0.00     0.124 S 
ATOM     69  O   UNL A   1      44.280  18.366  24.753  1.00  0.00    -0.237 OA
ATOM     70  O   UNL A   1      44.430  20.005  22.908  1.00  0.00    -0.237 OA
ATOM     71  O   UNL A   1      46.423  19.480  24.266  1.00  0.00    -0.744 OA
ENDBRANCH  67  68
ENDBRANCH  46  60
BRANCH  47  72
ATOM     72  C   UNL A   1      41.615  29.985  33.463  1.00  0.00     0.058 A 
ATOM     73  C   UNL A   1      41.727  31.386  33.506  1.00  0.00     0.135 A 
ATOM     74  C   UNL A   1      40.357  29.412  33.225  1.00  0.00     0.135 A 
ATOM     75  F   UNL A   1      42.892  31.961  33.844  1.00  0.00    -0.206 F 
ATOM     76  C   UNL A   1      40.751  32.172  32.928  1.00  0.00     0.059 A 
ATOM     77  C   UNL A   1      39.362  30.178  32.644  1.00  0.00     0.059 A 
ATOM     78  F   UNL A   1      40.188  28.084  33.296  1.00  0.00    -0.206 F 
ATOM     79  C   UNL A   1      39.648  31.522  32.378  1.00  0.00     0.060 A 
BRANCH  79  80
ATOM     80  S   UNL A   1      38.914  32.289  30.929  1.00  0.00     0.124 S 
ATOM     81  O   UNL A   1      37.494  32.018  31.091  1.00  0.00    -0.237 OA
ATOM     82  O   UNL A   1      39.323  33.677  31.125  1.00  0.00    -0.237 OA
ATOM     83  O   UNL A   1      39.570  31.578  29.844  1.00  0.00    -0.744 OA
ENDBRANCH  79  80
ENDBRANCH  47  72
BRANCH  59  84
ATOM     84  C   UNL A   1      45.192  23.707  33.668  1.00  0.00     0.058 A 
ATOM     85  C   UNL A   1      44.245  22.751  34.075  1.00  0.00     0.135 A 
ATOM     86  C   UNL A   1      46.497  23.543  34.173  1.00  0.00     0.135 A 
ATOM     87  F   UNL A   1      42.950  22.876  33.738  1.00  0.00    -0.206 F 
ATOM     88  C   UNL A   1      44.592  21.642  34.841  1.00  0.00     0.059 A 
ATOM     89  C   UNL A   1      46.855  22.472  34.985  1.00  0.00     0.059 A 
ATOM     90  F   UNL A   1      47.482  24.400  33.869  1.00  0.00    -0.206 F 
ATOM     91  C   UNL A   1      45.905  21.503  35.278  1.00  0.00     0.060 A 
BRANCH  91  92
ATOM     92  S   UNL A   1      46.366  20.048  36.231  1.00  0.00     0.124 S 
ATOM     93  O   UNL A   1      45.794  20.330  37.544  1.00  0.00    -0.237 OA
ATOM     94  O   UNL A   1      45.709  18.989  35.472  1.00  0.00    -0.237 OA
ATOM     95  O   UNL A   1      47.824  20.055  36.174  1.00  0.00    -0.744 OA
ENDBRANCH  91  92
ENDBRANCH  59  84
ENDBRANCH  33  34
ENDBRANCH  26  28
ENDBRANCH  25  26
ENDBRANCH  24  25
ENDBRANCH   1  24
TORSDOF 17
ENDMDL
MODEL 2
REMARK VINA RESULT:     -12.7      4.787     11.253
REMARK SMILES Cc1cc(NC(=O)N2CCO[C@@H](CC(=O)OCCOC(=O)c3ccc(-c4c5nc(c(-c6c(F)cc(S(=O)(=O)[O-])cc6F)c6ccc([nH]6)c(-c6c(F)cc(S(=O)(=O)[O-])cc6F)c6nc(c(-c7c(F)cc(S(=O)(=O)[O-])cc7F)c7ccc4[nH]7)C=C6)C=C5)cc3)C2)ccc1F
REMARK SMILES IDX 17 1 16 2 14 3 15 4 13 5 12 6 8 7 9 8 88 9 10 10 11 11 6 12
REMARK SMILES IDX 5 13 7 15 4 16 1 17 2 18 3 19 91 20 90 21 92 22 89 23 18 24
REMARK SMILES IDX 19 25 20 26 21 27 22 28 23 29 87 30 24 31 86 32 25 33 26 34
REMARK SMILES IDX 27 35 80 36 28 37 85 38 79 39 81 40 29 41 84 42 78 43 77 44
REMARK SMILES IDX 30 46 64 47 43 48 63 49 44 50 47 51 62 52 82 53 45 54 46 55
REMARK SMILES IDX 61 57 83 58 48 59 31 60 32 61 41 62 33 63 34 64 40 65 42 66
REMARK SMILES IDX 35 67 36 68 37 69 38 70 39 71 65 72 66 73 75 74 67 75 68 76
REMARK SMILES IDX 74 77 76 78 69 79 70 80 71 81 72 82 73 83 49 84 50 85 59 86
REMARK SMILES IDX 51 87 52 88 58 89 60 90 53 91 54 92 55 93 56 94 57 95
REMARK H PARENT 5 14 81 45 47 56
REMARK Flexibility Score: inf
ROOT
ATOM      1  C   UNL A   1      36.672  22.145  25.250  1.00  0.00     0.274 C 
ENDROOT
BRANCH   1   2
ATOM      2  O   UNL A   1      35.769  21.835  26.318  1.00  0.00    -0.462 OA
BRANCH   2   3
ATOM      3  C   UNL A   1      34.505  21.534  25.960  1.00  0.00     0.308 C 
ATOM      4  O   UNL A   1      33.649  21.104  26.730  1.00  0.00    -0.252 OA
BRANCH   3   5
ATOM      5  C   UNL A   1      34.206  21.884  24.526  1.00  0.00     0.156 C 
BRANCH   5   6
ATOM      6  C   UNL A   1      33.405  23.146  24.196  1.00  0.00     0.149 C 
ATOM      7  N   UNL A   1      32.535  24.830  22.589  1.00  0.00    -0.320 N 
ATOM      8  C   UNL A   1      31.175  24.537  23.039  1.00  0.00     0.150 C 
ATOM      9  C   UNL A   1      33.456  23.677  22.746  1.00  0.00     0.154 C 
ATOM     10  C   UNL A   1      31.183  23.984  24.463  1.00  0.00     0.182 C 
ATOM     11  O   UNL A   1      32.020  22.826  24.547  1.00  0.00    -0.374 OA
BRANCH   7  12
ATOM     12  C   UNL A   1      32.838  25.823  21.694  1.00  0.00     0.322 C 
ATOM     13  N   UNL A   1      32.566  27.135  21.964  1.00  0.00    -0.308 N 
ATOM     14  H   UNL A   1      32.520  27.686  21.149  1.00  0.00     0.171 HD
ATOM     15  O   UNL A   1      33.282  25.570  20.570  1.00  0.00    -0.248 OA
BRANCH  13  16
ATOM     16  C   UNL A   1      32.338  27.883  23.136  1.00  0.00     0.043 A 
ATOM     17  C   UNL A   1      34.244  28.680  26.361  1.00  0.00     0.047 C 
ATOM     18  C   UNL A   1      33.188  28.649  25.299  1.00  0.00    -0.013 A 
ATOM     19  C   UNL A   1      33.342  27.899  24.119  1.00  0.00     0.032 A 
ATOM     20  C   UNL A   1      32.021  29.391  25.477  1.00  0.00     0.126 A 
ATOM     21  C   UNL A   1      31.001  29.349  24.541  1.00  0.00     0.041 A 
ATOM     22  F   UNL A   1      31.865  30.146  26.574  1.00  0.00    -0.207 F 
ATOM     23  C   UNL A   1      31.156  28.568  23.396  1.00  0.00     0.029 A 
ENDBRANCH  13  16
ENDBRANCH   7  12
ENDBRANCH   5   6
ENDBRANCH   3   5
ENDBRANCH   2   3
ENDBRANCH   1   2
BRANCH   1  24
ATOM     24  C   UNL A   1      38.082  22.344  25.804  1.00  0.00     0.275 C 
BRANCH  24  25
ATOM     25  O   UNL A   1      38.468  23.680  26.196  1.00  0.00    -0.458 OA
BRANCH  25  26
ATOM     26  C   UNL A   1      39.427  23.851  27.147  1.00  0.00     0.338 C 
ATOM     27  O   UNL A   1      40.169  23.000  27.570  1.00  0.00    -0.246 OA
BRANCH  26  28
ATOM     28  C   UNL A   1      39.446  25.282  27.552  1.00  0.00     0.060 A 
ATOM     29  C   UNL A   1      39.998  26.230  26.675  1.00  0.00     0.016 A 
ATOM     30  C   UNL A   1      39.059  25.651  28.842  1.00  0.00     0.016 A 
ATOM     31  C   UNL A   1      40.290  27.517  27.136  1.00  0.00     0.010 A 
ATOM     32  C   UNL A   1      39.347  26.924  29.294  1.00  0.00     0.010 A 
ATOM     33  C   UNL A   1      40.004  27.841  28.463  1.00  0.00    -0.014 A 
BRANCH  33  34
ATOM     34  C   UNL A   1      40.249  29.142  29.067  1.00  0.00     0.031 A 
ATOM     35  C   UNL A   1      39.183  30.168  29.052  1.00  0.00     0.074 A 
ATOM     36  C   UNL A   1      41.366  29.368  29.788  1.00  0.00     0.049 A 
ATOM     37  N   UNL A   1      39.372  31.421  29.302  1.00  0.00    -0.248 NA
ATOM     38  C   UNL A   1      37.797  29.851  28.716  1.00  0.00     0.031 C 
ATOM     39  C   UNL A   1      41.545  30.376  30.828  1.00  0.00     0.029 A 
ATOM     40  N   UNL A   1      42.624  28.803  29.666  1.00  0.00    -0.354 N 
ATOM     41  C   UNL A   1      38.135  31.997  29.471  1.00  0.00     0.074 A 
ATOM     42  C   UNL A   1      37.190  31.009  29.000  1.00  0.00     0.031 C 
ATOM     43  C   UNL A   1      42.853  30.505  31.098  1.00  0.00     0.029 A 
ATOM     44  C   UNL A   1      43.584  29.725  30.117  1.00  0.00     0.049 A 
ATOM     45  H   UNL A   1      42.815  27.901  29.320  1.00  0.00     0.167 HD
ATOM     46  C   UNL A   1      38.027  33.185  30.133  1.00  0.00     0.037 A 
ATOM     47  C   UNL A   1      44.514  30.270  29.263  1.00  0.00     0.037 A 
ATOM     48  C   UNL A   1      39.331  33.691  30.556  1.00  0.00     0.049 A 
ATOM     49  C   UNL A   1      44.338  31.740  28.967  1.00  0.00     0.074 A 
ATOM     50  C   UNL A   1      40.054  33.603  31.735  1.00  0.00     0.029 A 
ATOM     51  N   UNL A   1      40.216  34.150  29.601  1.00  0.00    -0.354 N 
ATOM     52  N   UNL A   1      43.440  32.501  29.521  1.00  0.00    -0.248 NA
ATOM     53  C   UNL A   1      45.114  32.445  27.944  1.00  0.00     0.031 C 
ATOM     54  C   UNL A   1      41.394  34.000  31.467  1.00  0.00     0.029 A 
ATOM     55  C   UNL A   1      41.481  34.338  30.130  1.00  0.00     0.049 A 
ATOM     56  H   UNL A   1      39.978  34.323  28.662  1.00  0.00     0.167 HD
ATOM     57  C   UNL A   1      43.453  33.728  28.921  1.00  0.00     0.074 A 
ATOM     58  C   UNL A   1      44.528  33.653  27.948  1.00  0.00     0.031 C 
ATOM     59  C   UNL A   1      42.562  34.710  29.235  1.00  0.00     0.037 A 
BRANCH  46  60
ATOM     60  C   UNL A   1      36.716  33.753  30.621  1.00  0.00     0.058 A 
ATOM     61  C   UNL A   1      35.730  34.169  29.703  1.00  0.00     0.135 A 
ATOM     62  C   UNL A   1      36.381  33.929  31.979  1.00  0.00     0.135 A 
ATOM     63  F   UNL A   1      35.882  34.004  28.383  1.00  0.00    -0.206 F 
ATOM     64  C   UNL A   1      34.544  34.789  30.092  1.00  0.00     0.059 A 
ATOM     65  C   UNL A   1      35.222  34.595  32.393  1.00  0.00     0.059 A 
ATOM     66  F   UNL A   1      37.153  33.427  32.953  1.00  0.00    -0.206 F 
ATOM     67  C   UNL A   1      34.309  35.027  31.439  1.00  0.00     0.060 A 
BRANCH  67  68
ATOM     68  S   UNL A   1      32.801  35.897  31.904  1.00  0.00     0.124 S 
ATOM     69  O   UNL A   1      33.312  36.958  32.769  1.00  0.00    -0.237 OA
ATOM     70  O   UNL A   1      32.289  36.328  30.608  1.00  0.00    -0.237 OA
ATOM     71  O   UNL A   1      32.013  34.872  32.582  1.00  0.00    -0.744 OA
ENDBRANCH  67  68
ENDBRANCH  46  60
BRANCH  47  72
ATOM     72  C   UNL A   1      45.061  29.289  28.283  1.00  0.00     0.058 A 
ATOM     73  C   UNL A   1      45.904  28.320  28.856  1.00  0.00     0.135 A 
ATOM     74  C   UNL A   1      44.223  28.918  27.221  1.00  0.00     0.135 A 
ATOM     75  F   UNL A   1      46.797  28.671  29.794  1.00  0.00    -0.206 F 
ATOM     76  C   UNL A   1      45.628  26.980  28.680  1.00  0.00     0.059 A 
ATOM     77  C   UNL A   1      43.929  27.580  27.026  1.00  0.00     0.059 A 
ATOM     78  F   UNL A   1      43.495  29.839  26.572  1.00  0.00    -0.206 F 
ATOM     79  C   UNL A   1      44.542  26.650  27.872  1.00  0.00     0.060 A 
BRANCH  79  80
ATOM     80  S   UNL A   1      43.633  25.169  28.327  1.00  0.00     0.124 S 
ATOM     81  O   UNL A   1      44.661  24.302  28.882  1.00  0.00    -0.237 OA
ATOM     82  O   UNL A   1      42.682  25.724  29.288  1.00  0.00    -0.237 OA
ATOM     83  O   UNL A   1      43.078  24.748  27.051  1.00  0.00    -0.744 OA
ENDBRANCH  79  80
ENDBRANCH  47  72
BRANCH  59  84
ATOM     84  C   UNL A   1      42.662  36.098  28.676  1.00  0.00     0.058 A 
ATOM     85  C   UNL A   1      43.124  37.173  29.455  1.00  0.00     0.135 A 
ATOM     86  C   UNL A   1      42.208  36.418  27.381  1.00  0.00     0.135 A 
ATOM     87  F   UNL A   1      43.477  36.993  30.738  1.00  0.00    -0.206 F 
ATOM     88  C   UNL A   1      43.233  38.464  28.947  1.00  0.00     0.059 A 
ATOM     89  C   UNL A   1      42.258  37.710  26.870  1.00  0.00     0.059 A 
ATOM     90  F   UNL A   1      41.730  35.480  26.551  1.00  0.00    -0.206 F 
ATOM     91  C   UNL A   1      42.813  38.718  27.646  1.00  0.00     0.060 A 
BRANCH  91  92
ATOM     92  S   UNL A   1      42.995  40.378  26.971  1.00  0.00     0.124 S 
ATOM     93  O   UNL A   1      43.705  41.080  28.036  1.00  0.00    -0.237 OA
ATOM     94  O   UNL A   1      43.771  40.112  25.765  1.00  0.00    -0.237 OA
ATOM     95  O   UNL A   1      41.618  40.807  26.754  1.00  0.00    -0.744 OA
ENDBRANCH  91  92
ENDBRANCH  59  84
ENDBRANCH  33  34
ENDBRANCH  26  28
ENDBRANCH  25  26
ENDBRANCH  24  25
ENDBRANCH   1  24
TORSDOF 17
ENDMDL
MODEL 3
REMARK VINA RESULT:     -12.5      4.674     11.108
REMARK SMILES Cc1cc(NC(=O)N2CCO[C@@H](CC(=O)OCCOC(=O)c3ccc(-c4c5nc(c(-c6c(F)cc(S(=O)(=O)[O-])cc6F)c6ccc([nH]6)c(-c6c(F)cc(S(=O)(=O)[O-])cc6F)c6nc(c(-c7c(F)cc(S(=O)(=O)[O-])cc7F)c7ccc4[nH]7)C=C6)C=C5)cc3)C2)ccc1F
REMARK SMILES IDX 17 1 16 2 14 3 15 4 13 5 12 6 8 7 9 8 88 9 10 10 11 11 6 12
REMARK SMILES IDX 5 13 7 15 4 16 1 17 2 18 3 19 91 20 90 21 92 22 89 23 18 24
REMARK SMILES IDX 19 25 20 26 21 27 22 28 23 29 87 30 24 31 86 32 25 33 26 34
REMARK SMILES IDX 27 35 80 36 28 37 85 38 79 39 81 40 29 41 84 42 78 43 77 44
REMARK SMILES IDX 30 46 64 47 43 48 63 49 44 50 47 51 62 52 82 53 45 54 46 55
REMARK SMILES IDX 61 57 83 58 48 59 31 60 32 61 41 62 33 63 34 64 40 65 42 66
REMARK SMILES IDX 35 67 36 68 37 69 38 70 39 71 65 72 66 73 75 74 67 75 68 76
REMARK SMILES IDX 74 77 76 78 69 79 70 80 71 81 72 82 73 83 49 84 50 85 59 86
REMARK SMILES IDX 51 87 52 88 58 89 60 90 53 91 54 92 55 93 56 94 57 95
REMARK H PARENT 5 14 81 45 47 56
REMARK Flexibility Score: inf
ROOT
ATOM      1  C   UNL A   1      36.663  23.721  25.356  1.00  0.00     0.274 C 
ENDROOT
BRANCH   1   2
ATOM      2  O   UNL A   1      35.449  22.992  25.577  1.00  0.00    -0.462 OA
BRANCH   2   3
ATOM      3  C   UNL A   1      34.796  22.575  24.474  1.00  0.00     0.308 C 
ATOM      4  O   UNL A   1      34.420  21.420  24.285  1.00  0.00    -0.252 OA
BRANCH   3   5
ATOM      5  C   UNL A   1      34.469  23.701  23.529  1.00  0.00     0.156 C 
BRANCH   5   6
ATOM      6  C   UNL A   1      33.166  24.486  23.692  1.00  0.00     0.149 C 
ATOM      7  N   UNL A   1      31.680  26.026  24.953  1.00  0.00    -0.320 N 
ATOM      8  C   UNL A   1      31.630  26.910  23.791  1.00  0.00     0.150 C 
ATOM      9  C   UNL A   1      32.932  25.233  25.023  1.00  0.00     0.154 C 
ATOM     10  C   UNL A   1      31.900  26.130  22.505  1.00  0.00     0.182 C 
ATOM     11  O   UNL A   1      33.156  25.448  22.587  1.00  0.00    -0.374 OA
BRANCH   7  12
ATOM     12  C   UNL A   1      30.943  26.231  26.091  1.00  0.00     0.322 C 
ATOM     13  N   UNL A   1      31.329  27.134  27.040  1.00  0.00    -0.308 N 
ATOM     14  H   UNL A   1      30.924  26.955  27.919  1.00  0.00     0.171 HD
ATOM     15  O   UNL A   1      29.950  25.544  26.354  1.00  0.00    -0.248 OA
BRANCH  13  16
ATOM     16  C   UNL A   1      32.172  28.264  27.054  1.00  0.00     0.043 A 
ATOM     17  C   UNL A   1      31.763  32.063  26.801  1.00  0.00     0.047 C 
ATOM     18  C   UNL A   1      32.367  30.700  26.949  1.00  0.00    -0.013 A 
ATOM     19  C   UNL A   1      31.584  29.532  26.915  1.00  0.00     0.032 A 
ATOM     20  C   UNL A   1      33.744  30.582  27.134  1.00  0.00     0.126 A 
ATOM     21  C   UNL A   1      34.346  29.339  27.225  1.00  0.00     0.041 A 
ATOM     22  F   UNL A   1      34.508  31.682  27.209  1.00  0.00    -0.207 F 
ATOM     23  C   UNL A   1      33.557  28.190  27.149  1.00  0.00     0.029 A 
ENDBRANCH  13  16
ENDBRANCH   7  12
ENDBRANCH   5   6
ENDBRANCH   3   5
ENDBRANCH   2   3
ENDBRANCH   1   2
BRANCH   1  24
ATOM     24  C   UNL A   1      37.863  22.858  25.743  1.00  0.00     0.275 C 
BRANCH  24  25
ATOM     25  O   UNL A   1      38.574  23.200  26.953  1.00  0.00    -0.458 OA
BRANCH  25  26
ATOM     26  C   UNL A   1      39.839  23.697  26.871  1.00  0.00     0.338 C 
ATOM     27  O   UNL A   1      40.813  23.104  26.479  1.00  0.00    -0.246 OA
BRANCH  26  28
ATOM     28  C   UNL A   1      39.820  25.122  27.301  1.00  0.00     0.060 A 
ATOM     29  C   UNL A   1      40.394  26.092  26.464  1.00  0.00     0.016 A 
ATOM     30  C   UNL A   1      39.375  25.462  28.579  1.00  0.00     0.016 A 
ATOM     31  C   UNL A   1      40.647  27.376  26.959  1.00  0.00     0.010 A 
ATOM     32  C   UNL A   1      39.624  26.731  29.065  1.00  0.00     0.010 A 
ATOM     33  C   UNL A   1      40.301  27.671  28.278  1.00  0.00    -0.014 A 
BRANCH  33  34
ATOM     34  C   UNL A   1      40.501  28.965  28.914  1.00  0.00     0.031 A 
ATOM     35  C   UNL A   1      39.411  29.965  28.898  1.00  0.00     0.074 A 
ATOM     36  C   UNL A   1      41.598  29.203  29.662  1.00  0.00     0.049 A 
ATOM     37  N   UNL A   1      39.564  31.217  29.178  1.00  0.00    -0.248 NA
ATOM     38  C   UNL A   1      38.040  29.621  28.528  1.00  0.00     0.031 C 
ATOM     39  C   UNL A   1      41.731  30.193  30.727  1.00  0.00     0.029 A 
ATOM     40  N   UNL A   1      42.872  28.672  29.554  1.00  0.00    -0.354 N 
ATOM     41  C   UNL A   1      38.309  31.758  29.334  1.00  0.00     0.074 A 
ATOM     42  C   UNL A   1      37.399  30.757  28.823  1.00  0.00     0.031 C 
ATOM     43  C   UNL A   1      43.029  30.348  31.026  1.00  0.00     0.029 A 
ATOM     44  C   UNL A   1      43.799  29.608  30.044  1.00  0.00     0.049 A 
ATOM     45  H   UNL A   1      43.092  27.783  29.193  1.00  0.00     0.167 HD
ATOM     46  C   UNL A   1      38.159  32.928  30.018  1.00  0.00     0.037 A 
ATOM     47  C   UNL A   1      44.732  30.193  29.221  1.00  0.00     0.037 A 
ATOM     48  C   UNL A   1      39.440  33.457  30.478  1.00  0.00     0.049 A 
ATOM     49  C   UNL A   1      44.526  31.664  28.952  1.00  0.00     0.074 A 
ATOM     50  C   UNL A   1      40.142  33.362  31.669  1.00  0.00     0.029 A 
ATOM     51  N   UNL A   1      40.333  33.958  29.552  1.00  0.00    -0.354 N 
ATOM     52  N   UNL A   1      43.598  32.391  29.503  1.00  0.00    -0.248 NA
ATOM     53  C   UNL A   1      45.303  32.410  27.960  1.00  0.00     0.031 C 
ATOM     54  C   UNL A   1      41.477  33.797  31.438  1.00  0.00     0.029 A 
ATOM     55  C   UNL A   1      41.582  34.166  30.110  1.00  0.00     0.049 A 
ATOM     56  H   UNL A   1      40.109  34.145  28.612  1.00  0.00     0.167 HD
ATOM     57  C   UNL A   1      43.592  33.631  28.929  1.00  0.00     0.074 A 
ATOM     58  C   UNL A   1      44.687  33.603  27.977  1.00  0.00     0.031 C 
ATOM     59  C   UNL A   1      42.670  34.584  29.246  1.00  0.00     0.037 A 
BRANCH  46  60
ATOM     60  C   UNL A   1      36.824  33.453  30.491  1.00  0.00     0.058 A 
ATOM     61  C   UNL A   1      35.880  33.948  29.567  1.00  0.00     0.135 A 
ATOM     62  C   UNL A   1      36.425  33.512  31.841  1.00  0.00     0.135 A 
ATOM     63  F   UNL A   1      36.096  33.897  28.246  1.00  0.00    -0.206 F 
ATOM     64  C   UNL A   1      34.676  34.533  29.952  1.00  0.00     0.059 A 
ATOM     65  C   UNL A   1      35.245  34.141  32.256  1.00  0.00     0.059 A 
ATOM     66  F   UNL A   1      37.152  32.926  32.805  1.00  0.00    -0.206 F 
ATOM     67  C   UNL A   1      34.377  34.654  31.301  1.00  0.00     0.060 A 
BRANCH  67  68
ATOM     68  S   UNL A   1      32.846  35.483  31.768  1.00  0.00     0.124 S 
ATOM     69  O   UNL A   1      32.102  35.486  30.512  1.00  0.00    -0.237 OA
ATOM     70  O   UNL A   1      32.330  34.600  32.808  1.00  0.00    -0.237 OA
ATOM     71  O   UNL A   1      33.296  36.795  32.224  1.00  0.00    -0.744 OA
ENDBRANCH  67  68
ENDBRANCH  46  60
BRANCH  47  72
ATOM     72  C   UNL A   1      45.323  29.248  28.231  1.00  0.00     0.058 A 
ATOM     73  C   UNL A   1      46.212  28.315  28.795  1.00  0.00     0.135 A 
ATOM     74  C   UNL A   1      44.501  28.845  27.168  1.00  0.00     0.135 A 
ATOM     75  F   UNL A   1      47.089  28.700  29.734  1.00  0.00    -0.206 F 
ATOM     76  C   UNL A   1      45.999  26.964  28.609  1.00  0.00     0.059 A 
ATOM     77  C   UNL A   1      44.270  27.497  26.963  1.00  0.00     0.059 A 
ATOM     78  F   UNL A   1      43.729  29.736  26.528  1.00  0.00    -0.206 F 
ATOM     79  C   UNL A   1      44.929  26.590  27.800  1.00  0.00     0.060 A 
BRANCH  79  80
ATOM     80  S   UNL A   1      44.092  25.064  28.245  1.00  0.00     0.124 S 
ATOM     81  O   UNL A   1      43.753  24.481  26.956  1.00  0.00    -0.237 OA
ATOM     82  O   UNL A   1      45.149  24.387  28.991  1.00  0.00    -0.237 OA
ATOM     83  O   UNL A   1      42.968  25.551  29.029  1.00  0.00    -0.744 OA
ENDBRANCH  79  80
ENDBRANCH  47  72
BRANCH  59  84
ATOM     84  C   UNL A   1      42.747  35.985  28.717  1.00  0.00     0.058 A 
ATOM     85  C   UNL A   1      42.268  36.315  27.437  1.00  0.00     0.135 A 
ATOM     86  C   UNL A   1      43.388  37.019  29.427  1.00  0.00     0.135 A 
ATOM     87  F   UNL A   1      41.738  35.376  26.636  1.00  0.00    -0.206 F 
ATOM     88  C   UNL A   1      42.322  37.613  26.937  1.00  0.00     0.059 A 
ATOM     89  C   UNL A   1      43.502  38.311  28.926  1.00  0.00     0.059 A 
ATOM     90  F   UNL A   1      43.901  36.820  30.650  1.00  0.00    -0.206 F 
ATOM     91  C   UNL A   1      42.926  38.608  27.697  1.00  0.00     0.060 A 
BRANCH  91  92
ATOM     92  S   UNL A   1      42.957  40.296  27.072  1.00  0.00     0.124 S 
ATOM     93  O   UNL A   1      41.665  40.413  26.403  1.00  0.00    -0.237 OA
ATOM     94  O   UNL A   1      43.098  41.056  28.309  1.00  0.00    -0.237 OA
ATOM     95  O   UNL A   1      44.117  40.307  26.188  1.00  0.00    -0.744 OA
ENDBRANCH  91  92
ENDBRANCH  59  84
ENDBRANCH  33  34
ENDBRANCH  26  28
ENDBRANCH  25  26
ENDBRANCH  24  25
ENDBRANCH   1  24
TORSDOF 17
ENDMDL
