MODEL 1
REMARK VINA RESULT:     -12.5      0.000      0.000
REMARK SMILES CC(C)C(=O)Nc1ccc2c([C@H](C(=O)OCCOC(=O)c3ccc(-c4c5nc(c(-c6c(F)cc(S(=O)(=O)[O-])cc6F)c6ccc([nH]6)c(-c6c(F)cc(S(=O)(=O)[O-])cc6F)c6nc(c(-c7c(F)cc(S(=O)(=O)[O-])cc7F)c7ccc4[nH]7)C=C6)C=C5)cc3)[NH+]3CC[NH+](CC(=O)N(C)C)CC3)c[nH]c2c1
REMARK SMILES IDX 16 1 15 2 13 3 14 4 12 5 11 6 7 7 8 8 102 9 9 10 101 11
REMARK SMILES IDX 10 12 100 13 99 14 6 16 4 17 5 18 2 20 1 21 3 22 87 23 88 24
REMARK SMILES IDX 98 25 89 27 97 28 90 29 91 31 92 32 93 33 94 34 95 35 96 36
REMARK SMILES IDX 17 37 18 38 19 39 20 40 21 41 22 42 86 43 23 44 85 45 24 46
REMARK SMILES IDX 25 47 26 48 79 49 27 50 84 51 78 52 80 53 28 54 83 55 77 56
REMARK SMILES IDX 76 57 29 59 63 60 42 61 62 62 43 63 46 64 61 65 81 66 44 67
REMARK SMILES IDX 45 68 60 70 82 71 47 72 30 73 31 74 40 75 32 76 33 77 39 78
REMARK SMILES IDX 41 79 34 80 35 81 36 82 37 83 38 84 64 85 65 86 74 87 66 88
REMARK SMILES IDX 67 89 73 90 75 91 68 92 69 93 70 94 71 95 72 96 48 97 49 98
REMARK SMILES IDX 58 99 50 100 51 101 57 102 59 103 52 104 53 105 54 106
REMARK SMILES IDX 55 107 56 108
REMARK H PARENT 100 15 6 19 87 26 90 30 80 58 46 69
REMARK Flexibility Score: inf
ROOT
ATOM      1  C   UNL A   1      32.890  27.188  26.504  1.00  0.00     0.274 C 
ENDROOT
BRANCH   1   2
ATOM      2  O   UNL A   1      33.515  26.038  25.883  1.00  0.00    -0.457 OA
BRANCH   2   3
ATOM      3  C   UNL A   1      32.731  24.929  25.805  1.00  0.00     0.370 C 
ATOM      4  O   UNL A   1      32.522  24.187  26.766  1.00  0.00    -0.245 OA
BRANCH   3   5
ATOM      5  C   UNL A   1      32.241  24.579  24.396  1.00  0.00     0.328 C 
BRANCH   5   6
ATOM      6  C   UNL A   1      32.012  25.713  23.430  1.00  0.00     0.046 A 
ATOM      7  C   UNL A   1      28.821  28.427  23.051  1.00  0.00     0.043 A 
ATOM      8  C   UNL A   1      28.540  27.247  23.728  1.00  0.00     0.027 A 
ATOM      9  C   UNL A   1      30.019  28.544  22.329  1.00  0.00     0.052 A 
ATOM     10  C   UNL A   1      29.512  26.268  23.918  1.00  0.00     0.013 A 
ATOM     11  C   UNL A   1      30.974  27.525  22.488  1.00  0.00     0.048 A 
ATOM     12  C   UNL A   1      30.778  26.440  23.336  1.00  0.00     0.009 A 
ATOM     13  N   UNL A   1      32.208  27.343  21.912  1.00  0.00    -0.361 N 
ATOM     14  C   UNL A   1      32.840  26.256  22.466  1.00  0.00     0.094 A 
ATOM     15  H   UNL A   1      32.587  27.910  21.202  1.00  0.00     0.166 HD
BRANCH   7  16
ATOM     16  N   UNL A   1      27.907  29.487  23.013  1.00  0.00    -0.326 N 
ATOM     17  C   UNL A   1      28.015  30.796  23.389  1.00  0.00     0.226 C 
ATOM     18  O   UNL A   1      26.963  31.425  23.562  1.00  0.00    -0.274 OA
ATOM     19  H   UNL A   1      27.024  29.245  22.649  1.00  0.00     0.169 HD
BRANCH  17  20
ATOM     20  C   UNL A   1      29.353  31.541  23.543  1.00  0.00     0.072 C 
ATOM     21  C   UNL A   1      29.308  33.022  23.181  1.00  0.00     0.018 C 
ATOM     22  C   UNL A   1      30.107  31.262  24.839  1.00  0.00     0.018 C 
ENDBRANCH  17  20
ENDBRANCH   7  16
ENDBRANCH   5   6
BRANCH   5  23
ATOM     23  N   UNL A   1      32.898  23.425  23.748  1.00  0.00    -0.310 N 
ATOM     24  C   UNL A   1      34.183  22.973  24.284  1.00  0.00     0.325 C 
ATOM     25  C   UNL A   1      31.992  22.307  23.489  1.00  0.00     0.325 C 
ATOM     26  H   UNL A   1      33.162  23.842  22.856  1.00  0.00     0.349 HD
ATOM     27  C   UNL A   1      34.126  21.917  25.405  1.00  0.00     0.325 C 
ATOM     28  C   UNL A   1      31.916  21.232  24.598  1.00  0.00     0.325 C 
ATOM     29  N   UNL A   1      33.178  20.805  25.213  1.00  0.00    -0.318 N 
ATOM     30  H   UNL A   1      32.910  20.494  26.146  1.00  0.00     0.348 HD
BRANCH  29  31
ATOM     31  C   UNL A   1      33.793  19.608  24.607  1.00  0.00     0.364 C 
BRANCH  31  32
ATOM     32  C   UNL A   1      33.168  18.280  25.053  1.00  0.00     0.277 C 
ATOM     33  O   UNL A   1      32.425  18.264  26.040  1.00  0.00    -0.268 OA
ATOM     34  N   UNL A   1      33.490  17.114  24.371  1.00  0.00    -0.344 N 
ATOM     35  C   UNL A   1      34.072  17.032  23.042  1.00  0.00     0.146 C 
ATOM     36  C   UNL A   1      33.208  15.844  25.022  1.00  0.00     0.146 C 
ENDBRANCH  31  32
ENDBRANCH  29  31
ENDBRANCH   5  23
ENDBRANCH   3   5
ENDBRANCH   2   3
ENDBRANCH   1   2
BRANCH   1  37
ATOM     37  C   UNL A   1      33.803  28.400  26.391  1.00  0.00     0.275 C 
BRANCH  37  38
ATOM     38  O   UNL A   1      33.946  28.922  27.718  1.00  0.00    -0.458 OA
BRANCH  38  39
ATOM     39  C   UNL A   1      34.504  30.145  27.803  1.00  0.00     0.338 C 
ATOM     40  O   UNL A   1      33.941  31.226  27.718  1.00  0.00    -0.246 OA
BRANCH  39  41
ATOM     41  C   UNL A   1      35.925  29.986  28.158  1.00  0.00     0.060 A 
ATOM     42  C   UNL A   1      36.907  30.179  27.181  1.00  0.00     0.016 A 
ATOM     43  C   UNL A   1      36.272  29.490  29.411  1.00  0.00     0.016 A 
ATOM     44  C   UNL A   1      38.217  29.780  27.420  1.00  0.00     0.010 A 
ATOM     45  C   UNL A   1      37.612  29.209  29.686  1.00  0.00     0.010 A 
ATOM     46  C   UNL A   1      38.595  29.318  28.684  1.00  0.00    -0.014 A 
BRANCH  46  47
ATOM     47  C   UNL A   1      40.001  28.933  28.983  1.00  0.00     0.031 A 
ATOM     48  C   UNL A   1      40.980  29.978  29.448  1.00  0.00     0.074 A 
ATOM     49  C   UNL A   1      40.420  27.666  28.792  1.00  0.00     0.049 A 
ATOM     50  N   UNL A   1      42.286  29.948  29.455  1.00  0.00    -0.248 NA
ATOM     51  C   UNL A   1      40.410  31.230  29.973  1.00  0.00     0.031 C 
ATOM     52  C   UNL A   1      39.573  26.527  28.433  1.00  0.00     0.029 A 
ATOM     53  N   UNL A   1      41.685  27.131  28.843  1.00  0.00    -0.354 N 
ATOM     54  C   UNL A   1      42.693  31.188  29.935  1.00  0.00     0.074 A 
ATOM     55  C   UNL A   1      41.497  31.941  30.237  1.00  0.00     0.031 C 
ATOM     56  C   UNL A   1      40.335  25.434  28.291  1.00  0.00     0.029 A 
ATOM     57  C   UNL A   1      41.732  25.820  28.428  1.00  0.00     0.049 A 
ATOM     58  H   UNL A   1      42.475  27.633  29.143  1.00  0.00     0.167 HD
ATOM     59  C   UNL A   1      43.953  31.664  30.071  1.00  0.00     0.037 A 
ATOM     60  C   UNL A   1      42.776  25.038  28.096  1.00  0.00     0.037 A 
ATOM     61  C   UNL A   1      45.132  30.909  29.742  1.00  0.00     0.049 A 
ATOM     62  C   UNL A   1      44.160  25.613  28.145  1.00  0.00     0.074 A 
ATOM     63  C   UNL A   1      46.457  31.306  29.796  1.00  0.00     0.029 A 
ATOM     64  N   UNL A   1      45.125  29.597  29.291  1.00  0.00    -0.354 N 
ATOM     65  N   UNL A   1      44.536  26.818  28.501  1.00  0.00    -0.248 NA
ATOM     66  C   UNL A   1      45.256  24.738  27.713  1.00  0.00     0.031 C 
ATOM     67  C   UNL A   1      47.248  30.243  29.342  1.00  0.00     0.029 A 
ATOM     68  C   UNL A   1      46.418  29.173  29.046  1.00  0.00     0.049 A 
ATOM     69  H   UNL A   1      44.318  29.048  29.164  1.00  0.00     0.167 HD
ATOM     70  C   UNL A   1      45.915  26.845  28.343  1.00  0.00     0.074 A 
ATOM     71  C   UNL A   1      46.307  25.532  27.867  1.00  0.00     0.031 C 
ATOM     72  C   UNL A   1      46.781  27.863  28.569  1.00  0.00     0.037 A 
BRANCH  59  73
ATOM     73  C   UNL A   1      44.116  33.085  30.528  1.00  0.00     0.058 A 
ATOM     74  C   UNL A   1      44.335  33.412  31.875  1.00  0.00     0.135 A 
ATOM     75  C   UNL A   1      44.072  34.135  29.595  1.00  0.00     0.135 A 
ATOM     76  F   UNL A   1      44.355  32.448  32.809  1.00  0.00    -0.206 F 
ATOM     77  C   UNL A   1      44.497  34.733  32.283  1.00  0.00     0.059 A 
ATOM     78  C   UNL A   1      44.246  35.461  29.979  1.00  0.00     0.059 A 
ATOM     79  F   UNL A   1      43.849  33.876  28.298  1.00  0.00    -0.206 F 
ATOM     80  C   UNL A   1      44.447  35.751  31.327  1.00  0.00     0.060 A 
BRANCH  80  81
ATOM     81  S   UNL A   1      44.653  37.461  31.868  1.00  0.00     0.124 S 
ATOM     82  O   UNL A   1      45.967  37.406  32.503  1.00  0.00    -0.237 OA
ATOM     83  O   UNL A   1      44.587  38.200  30.611  1.00  0.00    -0.237 OA
ATOM     84  O   UNL A   1      43.527  37.669  32.773  1.00  0.00    -0.744 OA
ENDBRANCH  80  81
ENDBRANCH  59  73
BRANCH  60  85
ATOM     85  C   UNL A   1      42.524  23.663  27.591  1.00  0.00     0.058 A 
ATOM     86  C   UNL A   1      42.341  23.418  26.226  1.00  0.00     0.135 A 
ATOM     87  C   UNL A   1      42.531  22.560  28.462  1.00  0.00     0.135 A 
ATOM     88  F   UNL A   1      42.314  24.441  25.358  1.00  0.00    -0.206 F 
ATOM     89  C   UNL A   1      42.186  22.125  25.734  1.00  0.00     0.059 A 
ATOM     90  C   UNL A   1      42.405  21.258  27.993  1.00  0.00     0.059 A 
ATOM     91  F   UNL A   1      42.715  22.744  29.779  1.00  0.00    -0.206 F 
ATOM     92  C   UNL A   1      42.230  21.050  26.626  1.00  0.00     0.060 A 
BRANCH  92  93
ATOM     93  S   UNL A   1      42.134  19.368  25.975  1.00  0.00     0.124 S 
ATOM     94  O   UNL A   1      43.018  19.451  24.819  1.00  0.00    -0.237 OA
ATOM     95  O   UNL A   1      42.622  18.571  27.096  1.00  0.00    -0.237 OA
ATOM     96  O   UNL A   1      40.714  19.208  25.677  1.00  0.00    -0.744 OA
ENDBRANCH  92  93
ENDBRANCH  60  85
BRANCH  72  97
ATOM     97  C   UNL A   1      48.234  27.587  28.335  1.00  0.00     0.058 A 
ATOM     98  C   UNL A   1      49.022  26.942  29.298  1.00  0.00     0.135 A 
ATOM     99  C   UNL A   1      48.832  27.936  27.114  1.00  0.00     0.135 A 
ATOM    100  F   UNL A   1      48.495  26.597  30.483  1.00  0.00    -0.206 F 
ATOM    101  C   UNL A   1      50.364  26.664  29.064  1.00  0.00     0.059 A 
ATOM    102  C   UNL A   1      50.166  27.652  26.851  1.00  0.00     0.059 A 
ATOM    103  F   UNL A   1      48.112  28.550  26.161  1.00  0.00    -0.206 F 
ATOM    104  C   UNL A   1      50.927  27.024  27.838  1.00  0.00     0.060 A 
BRANCH 104 105
ATOM    105  S   UNL A   1      52.662  26.632  27.528  1.00  0.00     0.124 S 
ATOM    106  O   UNL A   1      53.036  27.683  26.588  1.00  0.00    -0.237 OA
ATOM    107  O   UNL A   1      53.251  26.735  28.859  1.00  0.00    -0.237 OA
ATOM    108  O   UNL A   1      52.610  25.282  26.976  1.00  0.00    -0.744 OA
ENDBRANCH 104 105
ENDBRANCH  72  97
ENDBRANCH  46  47
ENDBRANCH  39  41
ENDBRANCH  38  39
ENDBRANCH  37  38
ENDBRANCH   1  37
TORSDOF 20
ENDMDL
MODEL 2
REMARK VINA RESULT:     -12.4      1.078      5.638
REMARK SMILES CC(C)C(=O)Nc1ccc2c([C@H](C(=O)OCCOC(=O)c3ccc(-c4c5nc(c(-c6c(F)cc(S(=O)(=O)[O-])cc6F)c6ccc([nH]6)c(-c6c(F)cc(S(=O)(=O)[O-])cc6F)c6nc(c(-c7c(F)cc(S(=O)(=O)[O-])cc7F)c7ccc4[nH]7)C=C6)C=C5)cc3)[NH+]3CC[NH+](CC(=O)N(C)C)CC3)c[nH]c2c1
REMARK SMILES IDX 16 1 15 2 13 3 14 4 12 5 11 6 7 7 8 8 102 9 9 10 101 11
REMARK SMILES IDX 10 12 100 13 99 14 6 16 4 17 5 18 2 20 1 21 3 22 87 23 88 24
REMARK SMILES IDX 98 25 89 27 97 28 90 29 91 31 92 32 93 33 94 34 95 35 96 36
REMARK SMILES IDX 17 37 18 38 19 39 20 40 21 41 22 42 86 43 23 44 85 45 24 46
REMARK SMILES IDX 25 47 26 48 79 49 27 50 84 51 78 52 80 53 28 54 83 55 77 56
REMARK SMILES IDX 76 57 29 59 63 60 42 61 62 62 43 63 46 64 61 65 81 66 44 67
REMARK SMILES IDX 45 68 60 70 82 71 47 72 30 73 31 74 40 75 32 76 33 77 39 78
REMARK SMILES IDX 41 79 34 80 35 81 36 82 37 83 38 84 64 85 65 86 74 87 66 88
REMARK SMILES IDX 67 89 73 90 75 91 68 92 69 93 70 94 71 95 72 96 48 97 49 98
REMARK SMILES IDX 58 99 50 100 51 101 57 102 59 103 52 104 53 105 54 106
REMARK SMILES IDX 55 107 56 108
REMARK H PARENT 100 15 6 19 87 26 90 30 80 58 46 69
REMARK Flexibility Score: inf
ROOT
ATOM      1  C   UNL A   1      33.887  28.639  25.792  1.00  0.00     0.274 C 
ENDROOT
BRANCH   1   2
ATOM      2  O   UNL A   1      33.607  27.455  26.578  1.00  0.00    -0.457 OA
BRANCH   2   3
ATOM      3  C   UNL A   1      32.404  26.872  26.330  1.00  0.00     0.370 C 
ATOM      4  O   UNL A   1      31.384  27.140  26.968  1.00  0.00    -0.245 OA
BRANCH   3   5
ATOM      5  C   UNL A   1      32.431  25.743  25.295  1.00  0.00     0.328 C 
BRANCH   5   6
ATOM      6  C   UNL A   1      32.211  24.335  25.785  1.00  0.00     0.046 A 
ATOM      7  C   UNL A   1      34.140  20.728  24.805  1.00  0.00     0.043 A 
ATOM      8  C   UNL A   1      34.261  21.755  23.877  1.00  0.00     0.027 A 
ATOM      9  C   UNL A   1      33.208  20.842  25.848  1.00  0.00     0.052 A 
ATOM     10  C   UNL A   1      33.666  22.997  24.086  1.00  0.00     0.013 A 
ATOM     11  C   UNL A   1      32.575  22.085  26.019  1.00  0.00     0.048 A 
ATOM     12  C   UNL A   1      32.855  23.185  25.215  1.00  0.00     0.009 A 
ATOM     13  N   UNL A   1      31.619  22.499  26.914  1.00  0.00    -0.361 N 
ATOM     14  C   UNL A   1      31.388  23.846  26.781  1.00  0.00     0.094 A 
ATOM     15  H   UNL A   1      31.162  21.913  27.561  1.00  0.00     0.166 HD
BRANCH   7  16
ATOM     16  N   UNL A   1      34.879  19.544  24.689  1.00  0.00    -0.326 N 
ATOM     17  C   UNL A   1      34.495  18.233  24.642  1.00  0.00     0.226 C 
ATOM     18  O   UNL A   1      35.361  17.381  24.876  1.00  0.00    -0.274 OA
ATOM     19  H   UNL A   1      35.853  19.681  24.632  1.00  0.00     0.169 HD
BRANCH  17  20
ATOM     20  C   UNL A   1      33.084  17.761  24.251  1.00  0.00     0.072 C 
ATOM     21  C   UNL A   1      32.798  17.761  22.752  1.00  0.00     0.018 C 
ATOM     22  C   UNL A   1      32.604  16.495  24.955  1.00  0.00     0.018 C 
ENDBRANCH  17  20
ENDBRANCH   7  16
ENDBRANCH   5   6
BRANCH   5  23
ATOM     23  N   UNL A   1      31.716  26.005  24.029  1.00  0.00    -0.310 N 
ATOM     24  C   UNL A   1      30.314  25.596  23.931  1.00  0.00     0.325 C 
ATOM     25  C   UNL A   1      31.926  27.356  23.507  1.00  0.00     0.325 C 
ATOM     26  H   UNL A   1      32.185  25.343  23.412  1.00  0.00     0.349 HD
ATOM     27  C   UNL A   1      29.263  26.631  24.380  1.00  0.00     0.325 C 
ATOM     28  C   UNL A   1      30.886  28.414  23.942  1.00  0.00     0.325 C 
ATOM     29  N   UNL A   1      29.473  28.018  23.929  1.00  0.00    -0.318 N 
ATOM     30  H   UNL A   1      29.038  28.615  24.631  1.00  0.00     0.348 HD
BRANCH  29  31
ATOM     31  C   UNL A   1      28.745  28.348  22.688  1.00  0.00     0.364 C 
BRANCH  31  32
ATOM     32  C   UNL A   1      29.032  29.751  22.139  1.00  0.00     0.277 C 
ATOM     33  O   UNL A   1      29.815  29.881  21.191  1.00  0.00    -0.268 OA
ATOM     34  N   UNL A   1      28.447  30.854  22.749  1.00  0.00    -0.344 N 
ATOM     35  C   UNL A   1      27.294  30.831  23.633  1.00  0.00     0.146 C 
ATOM     36  C   UNL A   1      29.014  32.165  22.475  1.00  0.00     0.146 C 
ENDBRANCH  31  32
ENDBRANCH  29  31
ENDBRANCH   5  23
ENDBRANCH   3   5
ENDBRANCH   2   3
ENDBRANCH   1   2
BRANCH   1  37
ATOM     37  C   UNL A   1      33.398  29.878  26.528  1.00  0.00     0.275 C 
BRANCH  37  38
ATOM     38  O   UNL A   1      33.868  29.757  27.876  1.00  0.00    -0.458 OA
BRANCH  38  39
ATOM     39  C   UNL A   1      34.724  30.717  28.281  1.00  0.00     0.338 C 
ATOM     40  O   UNL A   1      34.459  31.873  28.573  1.00  0.00    -0.246 OA
BRANCH  39  41
ATOM     41  C   UNL A   1      36.056  30.112  28.452  1.00  0.00     0.060 A 
ATOM     42  C   UNL A   1      36.441  29.630  29.707  1.00  0.00     0.016 A 
ATOM     43  C   UNL A   1      36.979  30.171  27.412  1.00  0.00     0.016 A 
ATOM     44  C   UNL A   1      37.770  29.304  29.952  1.00  0.00     0.010 A 
ATOM     45  C   UNL A   1      38.283  29.723  27.630  1.00  0.00     0.010 A 
ATOM     46  C   UNL A   1      38.704  29.317  28.911  1.00  0.00    -0.014 A 
BRANCH  46  47
ATOM     47  C   UNL A   1      40.122  28.924  29.133  1.00  0.00     0.031 A 
ATOM     48  C   UNL A   1      41.129  29.962  29.551  1.00  0.00     0.074 A 
ATOM     49  C   UNL A   1      40.525  27.656  28.913  1.00  0.00     0.049 A 
ATOM     50  N   UNL A   1      42.434  29.927  29.488  1.00  0.00    -0.248 NA
ATOM     51  C   UNL A   1      40.594  31.214  30.111  1.00  0.00     0.031 C 
ATOM     52  C   UNL A   1      39.654  26.523  28.593  1.00  0.00     0.029 A 
ATOM     53  N   UNL A   1      41.787  27.115  28.893  1.00  0.00    -0.354 N 
ATOM     54  C   UNL A   1      42.871  31.162  29.952  1.00  0.00     0.074 A 
ATOM     55  C   UNL A   1      41.696  31.919  30.321  1.00  0.00     0.031 C 
ATOM     56  C   UNL A   1      40.403  25.427  28.405  1.00  0.00     0.029 A 
ATOM     57  C   UNL A   1      41.806  25.807  28.470  1.00  0.00     0.049 A 
ATOM     58  H   UNL A   1      42.595  27.613  29.154  1.00  0.00     0.167 HD
ATOM     59  C   UNL A   1      44.138  31.632  30.023  1.00  0.00     0.037 A 
ATOM     60  C   UNL A   1      42.828  25.022  28.079  1.00  0.00     0.037 A 
ATOM     61  C   UNL A   1      45.295  30.874  29.628  1.00  0.00     0.049 A 
ATOM     62  C   UNL A   1      44.216  25.591  28.056  1.00  0.00     0.074 A 
ATOM     63  C   UNL A   1      46.622  31.265  29.614  1.00  0.00     0.029 A 
ATOM     64  N   UNL A   1      45.258  29.565  29.171  1.00  0.00    -0.354 N 
ATOM     65  N   UNL A   1      44.615  26.792  28.399  1.00  0.00    -0.248 NA
ATOM     66  C   UNL A   1      45.283  24.714  27.562  1.00  0.00     0.031 C 
ATOM     67  C   UNL A   1      47.384  30.201  29.113  1.00  0.00     0.029 A 
ATOM     68  C   UNL A   1      46.534  29.137  28.855  1.00  0.00     0.049 A 
ATOM     69  H   UNL A   1      44.442  29.020  29.084  1.00  0.00     0.167 HD
ATOM     70  C   UNL A   1      45.984  26.814  28.167  1.00  0.00     0.074 A 
ATOM     71  C   UNL A   1      46.344  25.503  27.664  1.00  0.00     0.031 C 
ATOM     72  C   UNL A   1      46.865  27.827  28.353  1.00  0.00     0.037 A 
BRANCH  59  73
ATOM     73  C   UNL A   1      44.332  33.050  30.479  1.00  0.00     0.058 A 
ATOM     74  C   UNL A   1      44.243  34.134  29.593  1.00  0.00     0.135 A 
ATOM     75  C   UNL A   1      44.591  33.326  31.832  1.00  0.00     0.135 A 
ATOM     76  F   UNL A   1      44.028  33.922  28.285  1.00  0.00    -0.206 F 
ATOM     77  C   UNL A   1      44.413  35.444  30.031  1.00  0.00     0.059 A 
ATOM     78  C   UNL A   1      44.749  34.628  32.295  1.00  0.00     0.059 A 
ATOM     79  F   UNL A   1      44.701  32.323  32.716  1.00  0.00    -0.206 F 
ATOM     80  C   UNL A   1      44.669  35.681  31.385  1.00  0.00     0.060 A 
BRANCH  80  81
ATOM     81  S   UNL A   1      44.892  37.384  31.942  1.00  0.00     0.124 S 
ATOM     82  O   UNL A   1      45.981  37.233  32.902  1.00  0.00    -0.237 OA
ATOM     83  O   UNL A   1      45.230  38.079  30.704  1.00  0.00    -0.237 OA
ATOM     84  O   UNL A   1      43.593  37.726  32.514  1.00  0.00    -0.744 OA
ENDBRANCH  80  81
ENDBRANCH  59  73
BRANCH  60  85
ATOM     85  C   UNL A   1      42.544  23.651  27.580  1.00  0.00     0.058 A 
ATOM     86  C   UNL A   1      42.424  23.391  26.210  1.00  0.00     0.135 A 
ATOM     87  C   UNL A   1      42.454  22.564  28.467  1.00  0.00     0.135 A 
ATOM     88  F   UNL A   1      42.491  24.400  25.328  1.00  0.00    -0.206 F 
ATOM     89  C   UNL A   1      42.240  22.098  25.730  1.00  0.00     0.059 A 
ATOM     90  C   UNL A   1      42.296  21.260  28.010  1.00  0.00     0.059 A 
ATOM     91  F   UNL A   1      42.573  22.762  29.789  1.00  0.00    -0.206 F 
ATOM     92  C   UNL A   1      42.187  21.038  26.638  1.00  0.00     0.060 A 
BRANCH  92  93
ATOM     93  S   UNL A   1      42.052  19.350  26.007  1.00  0.00     0.124 S 
ATOM     94  O   UNL A   1      42.565  18.577  27.131  1.00  0.00    -0.237 OA
ATOM     95  O   UNL A   1      40.622  19.227  25.746  1.00  0.00    -0.237 OA
ATOM     96  O   UNL A   1      42.896  19.374  24.816  1.00  0.00    -0.744 OA
ENDBRANCH  92  93
ENDBRANCH  60  85
BRANCH  72  97
ATOM     97  C   UNL A   1      48.303  27.547  28.040  1.00  0.00     0.058 A 
ATOM     98  C   UNL A   1      49.164  26.983  28.992  1.00  0.00     0.135 A 
ATOM     99  C   UNL A   1      48.811  27.807  26.758  1.00  0.00     0.135 A 
ATOM    100  F   UNL A   1      48.723  26.726  30.233  1.00  0.00    -0.206 F 
ATOM    101  C   UNL A   1      50.490  26.700  28.688  1.00  0.00     0.059 A 
ATOM    102  C   UNL A   1      50.128  27.515  26.425  1.00  0.00     0.059 A 
ATOM    103  F   UNL A   1      48.019  28.341  25.813  1.00  0.00    -0.206 F 
ATOM    104  C   UNL A   1      50.963  26.970  27.401  1.00  0.00     0.060 A 
BRANCH 104 105
ATOM    105  S   UNL A   1      52.677  26.571  27.003  1.00  0.00     0.124 S 
ATOM    106  O   UNL A   1      52.978  27.562  25.976  1.00  0.00    -0.237 OA
ATOM    107  O   UNL A   1      53.351  26.761  28.283  1.00  0.00    -0.237 OA
ATOM    108  O   UNL A   1      52.604  25.188  26.542  1.00  0.00    -0.744 OA
ENDBRANCH 104 105
ENDBRANCH  72  97
ENDBRANCH  46  47
ENDBRANCH  39  41
ENDBRANCH  38  39
ENDBRANCH  37  38
ENDBRANCH   1  37
TORSDOF 20
ENDMDL
MODEL 3
REMARK VINA RESULT:     -12.2      4.995      9.960
REMARK SMILES CC(C)C(=O)Nc1ccc2c([C@H](C(=O)OCCOC(=O)c3ccc(-c4c5nc(c(-c6c(F)cc(S(=O)(=O)[O-])cc6F)c6ccc([nH]6)c(-c6c(F)cc(S(=O)(=O)[O-])cc6F)c6nc(c(-c7c(F)cc(S(=O)(=O)[O-])cc7F)c7ccc4[nH]7)C=C6)C=C5)cc3)[NH+]3CC[NH+](CC(=O)N(C)C)CC3)c[nH]c2c1
REMARK SMILES IDX 16 1 15 2 13 3 14 4 12 5 11 6 7 7 8 8 102 9 9 10 101 11
REMARK SMILES IDX 10 12 100 13 99 14 6 16 4 17 5 18 2 20 1 21 3 22 87 23 88 24
REMARK SMILES IDX 98 25 89 27 97 28 90 29 91 31 92 32 93 33 94 34 95 35 96 36
REMARK SMILES IDX 17 37 18 38 19 39 20 40 21 41 22 42 86 43 23 44 85 45 24 46
REMARK SMILES IDX 25 47 26 48 79 49 27 50 84 51 78 52 80 53 28 54 83 55 77 56
REMARK SMILES IDX 76 57 29 59 63 60 42 61 62 62 43 63 46 64 61 65 81 66 44 67
REMARK SMILES IDX 45 68 60 70 82 71 47 72 30 73 31 74 40 75 32 76 33 77 39 78
REMARK SMILES IDX 41 79 34 80 35 81 36 82 37 83 38 84 64 85 65 86 74 87 66 88
REMARK SMILES IDX 67 89 73 90 75 91 68 92 69 93 70 94 71 95 72 96 48 97 49 98
REMARK SMILES IDX 58 99 50 100 51 101 57 102 59 103 52 104 53 105 54 106
REMARK SMILES IDX 55 107 56 108
REMARK H PARENT 100 15 6 19 87 26 90 30 80 58 46 69
REMARK Flexibility Score: inf
ROOT
ATOM      1  C   UNL A   1      36.629  22.687  25.732  1.00  0.00     0.274 C 
ENDROOT
BRANCH   1   2
ATOM      2  O   UNL A   1      36.147  23.871  25.052  1.00  0.00    -0.457 OA
BRANCH   2   3
ATOM      3  C   UNL A   1      35.258  23.636  24.049  1.00  0.00     0.370 C 
ATOM      4  O   UNL A   1      35.577  23.117  22.978  1.00  0.00    -0.245 OA
BRANCH   3   5
ATOM      5  C   UNL A   1      33.852  24.198  24.284  1.00  0.00     0.328 C 
BRANCH   5   6
ATOM      6  C   UNL A   1      33.350  25.255  23.334  1.00  0.00     0.046 A 
ATOM      7  C   UNL A   1      30.921  28.628  23.974  1.00  0.00     0.043 A 
ATOM      8  C   UNL A   1      30.837  27.626  24.933  1.00  0.00     0.027 A 
ATOM      9  C   UNL A   1      31.576  28.373  22.760  1.00  0.00     0.052 A 
ATOM     10  C   UNL A   1      31.590  26.459  24.833  1.00  0.00     0.013 A 
ATOM     11  C   UNL A   1      32.293  27.169  22.650  1.00  0.00     0.048 A 
ATOM     12  C   UNL A   1      32.384  26.254  23.693  1.00  0.00     0.009 A 
ATOM     13  N   UNL A   1      33.005  26.630  21.606  1.00  0.00    -0.361 N 
ATOM     14  C   UNL A   1      33.641  25.479  22.002  1.00  0.00     0.094 A 
ATOM     15  H   UNL A   1      33.052  27.014  20.700  1.00  0.00     0.166 HD
BRANCH   7  16
ATOM     16  N   UNL A   1      30.308  29.873  24.159  1.00  0.00    -0.326 N 
ATOM     17  C   UNL A   1      29.381  30.550  23.417  1.00  0.00     0.226 C 
ATOM     18  O   UNL A   1      29.265  31.764  23.626  1.00  0.00    -0.274 OA
ATOM     19  H   UNL A   1      30.598  30.349  24.972  1.00  0.00     0.169 HD
BRANCH  17  20
ATOM     20  C   UNL A   1      28.438  29.884  22.399  1.00  0.00     0.072 C 
ATOM     21  C   UNL A   1      27.303  29.069  23.012  1.00  0.00     0.018 C 
ATOM     22  C   UNL A   1      27.983  30.781  21.252  1.00  0.00     0.018 C 
ENDBRANCH  17  20
ENDBRANCH   7  16
ENDBRANCH   5   6
BRANCH   5  23
ATOM     23  N   UNL A   1      32.805  23.211  24.615  1.00  0.00    -0.310 N 
ATOM     24  C   UNL A   1      32.059  22.600  23.513  1.00  0.00     0.325 C 
ATOM     25  C   UNL A   1      33.228  22.217  25.602  1.00  0.00     0.325 C 
ATOM     26  H   UNL A   1      32.108  23.819  25.045  1.00  0.00     0.349 HD
ATOM     27  C   UNL A   1      32.653  21.310  22.914  1.00  0.00     0.325 C 
ATOM     28  C   UNL A   1      33.827  20.913  25.027  1.00  0.00     0.325 C 
ATOM     29  N   UNL A   1      33.151  20.309  23.874  1.00  0.00    -0.318 N 
ATOM     30  H   UNL A   1      33.887  19.793  23.392  1.00  0.00     0.348 HD
BRANCH  29  31
ATOM     31  C   UNL A   1      32.157  19.271  24.208  1.00  0.00     0.364 C 
BRANCH  31  32
ATOM     32  C   UNL A   1      32.722  18.081  24.994  1.00  0.00     0.277 C 
ATOM     33  O   UNL A   1      32.425  17.950  26.187  1.00  0.00    -0.268 OA
ATOM     34  N   UNL A   1      33.596  17.203  24.366  1.00  0.00    -0.344 N 
ATOM     35  C   UNL A   1      33.773  17.052  22.932  1.00  0.00     0.146 C 
ATOM     36  C   UNL A   1      34.404  16.331  25.203  1.00  0.00     0.146 C 
ENDBRANCH  31  32
ENDBRANCH  29  31
ENDBRANCH   5  23
ENDBRANCH   3   5
ENDBRANCH   2   3
ENDBRANCH   1   2
BRANCH   1  37
ATOM     37  C   UNL A   1      38.150  22.689  25.764  1.00  0.00     0.275 C 
BRANCH  37  38
ATOM     38  O   UNL A   1      38.542  24.008  26.165  1.00  0.00    -0.458 OA
BRANCH  38  39
ATOM     39  C   UNL A   1      39.729  24.093  26.798  1.00  0.00     0.338 C 
ATOM     40  O   UNL A   1      40.686  23.340  26.688  1.00  0.00    -0.246 OA
BRANCH  39  41
ATOM     41  C   UNL A   1      39.756  25.345  27.574  1.00  0.00     0.060 A 
ATOM     42  C   UNL A   1      40.651  26.359  27.219  1.00  0.00     0.016 A 
ATOM     43  C   UNL A   1      39.011  25.447  28.745  1.00  0.00     0.016 A 
ATOM     44  C   UNL A   1      40.878  27.424  28.084  1.00  0.00     0.010 A 
ATOM     45  C   UNL A   1      39.152  26.581  29.547  1.00  0.00     0.010 A 
ATOM     46  C   UNL A   1      40.111  27.566  29.245  1.00  0.00    -0.014 A 
BRANCH  46  47
ATOM     47  C   UNL A   1      40.296  28.723  30.162  1.00  0.00     0.031 A 
ATOM     48  C   UNL A   1      41.337  28.656  31.248  1.00  0.00     0.074 A 
ATOM     49  C   UNL A   1      39.505  29.810  30.065  1.00  0.00     0.049 A 
ATOM     50  N   UNL A   1      41.455  29.377  32.332  1.00  0.00    -0.248 NA
ATOM     51  C   UNL A   1      42.387  27.635  31.095  1.00  0.00     0.031 C 
ATOM     52  C   UNL A   1      38.516  30.059  29.014  1.00  0.00     0.029 A 
ATOM     53  N   UNL A   1      39.388  30.901  30.891  1.00  0.00    -0.354 N 
ATOM     54  C   UNL A   1      42.556  28.867  33.011  1.00  0.00     0.074 A 
ATOM     55  C   UNL A   1      43.093  27.792  32.206  1.00  0.00     0.031 C 
ATOM     56  C   UNL A   1      37.892  31.220  29.258  1.00  0.00     0.029 A 
ATOM     57  C   UNL A   1      38.349  31.733  30.541  1.00  0.00     0.049 A 
ATOM     58  H   UNL A   1      39.985  31.070  31.654  1.00  0.00     0.167 HD
ATOM     59  C   UNL A   1      43.046  29.239  34.216  1.00  0.00     0.037 A 
ATOM     60  C   UNL A   1      37.757  32.735  31.217  1.00  0.00     0.037 A 
ATOM     61  C   UNL A   1      42.484  30.295  35.015  1.00  0.00     0.049 A 
ATOM     62  C   UNL A   1      38.238  33.065  32.599  1.00  0.00     0.074 A 
ATOM     63  C   UNL A   1      42.870  30.728  36.272  1.00  0.00     0.029 A 
ATOM     64  N   UNL A   1      41.409  31.083  34.632  1.00  0.00    -0.354 N 
ATOM     65  N   UNL A   1      39.214  32.514  33.281  1.00  0.00    -0.248 NA
ATOM     66  C   UNL A   1      37.518  34.123  33.316  1.00  0.00     0.031 C 
ATOM     67  C   UNL A   1      42.002  31.755  36.663  1.00  0.00     0.029 A 
ATOM     68  C   UNL A   1      41.105  31.987  35.633  1.00  0.00     0.049 A 
ATOM     69  H   UNL A   1      40.932  31.010  33.774  1.00  0.00     0.167 HD
ATOM     70  C   UNL A   1      39.229  33.165  34.508  1.00  0.00     0.074 A 
ATOM     71  C   UNL A   1      38.172  34.156  34.469  1.00  0.00     0.031 C 
ATOM     72  C   UNL A   1      40.044  32.961  35.571  1.00  0.00     0.037 A 
BRANCH  59  73
ATOM     73  C   UNL A   1      44.200  28.456  34.772  1.00  0.00     0.058 A 
ATOM     74  C   UNL A   1      45.532  28.853  34.576  1.00  0.00     0.135 A 
ATOM     75  C   UNL A   1      43.965  27.298  35.532  1.00  0.00     0.135 A 
ATOM     76  F   UNL A   1      45.811  29.935  33.832  1.00  0.00    -0.206 F 
ATOM     77  C   UNL A   1      46.591  28.123  35.108  1.00  0.00     0.059 A 
ATOM     78  C   UNL A   1      45.008  26.562  36.085  1.00  0.00     0.059 A 
ATOM     79  F   UNL A   1      42.710  26.867  35.735  1.00  0.00    -0.206 F 
ATOM     80  C   UNL A   1      46.319  26.977  35.859  1.00  0.00     0.060 A 
BRANCH  80  81
ATOM     81  S   UNL A   1      47.701  26.036  36.540  1.00  0.00     0.124 S 
ATOM     82  O   UNL A   1      47.965  25.089  35.460  1.00  0.00    -0.237 OA
ATOM     83  O   UNL A   1      48.715  27.066  36.741  1.00  0.00    -0.237 OA
ATOM     84  O   UNL A   1      47.149  25.457  37.761  1.00  0.00    -0.744 OA
ENDBRANCH  80  81
ENDBRANCH  59  73
BRANCH  60  85
ATOM     85  C   UNL A   1      36.579  33.418  30.622  1.00  0.00     0.058 A 
ATOM     86  C   UNL A   1      35.288  33.188  31.111  1.00  0.00     0.135 A 
ATOM     87  C   UNL A   1      36.734  34.366  29.596  1.00  0.00     0.135 A 
ATOM     88  F   UNL A   1      35.090  32.283  32.082  1.00  0.00    -0.206 F 
ATOM     89  C   UNL A   1      34.189  33.883  30.617  1.00  0.00     0.059 A 
ATOM     90  C   UNL A   1      35.656  35.092  29.103  1.00  0.00     0.059 A 
ATOM     91  F   UNL A   1      37.954  34.629  29.102  1.00  0.00    -0.206 F 
ATOM     92  C   UNL A   1      34.385  34.841  29.618  1.00  0.00     0.060 A 
BRANCH  92  93
ATOM     93  S   UNL A   1      32.974  35.816  29.051  1.00  0.00     0.124 S 
ATOM     94  O   UNL A   1      33.637  36.964  28.446  1.00  0.00    -0.237 OA
ATOM     95  O   UNL A   1      32.312  34.900  28.127  1.00  0.00    -0.237 OA
ATOM     96  O   UNL A   1      32.240  36.085  30.284  1.00  0.00    -0.744 OA
ENDBRANCH  92  93
ENDBRANCH  60  85
BRANCH  72  97
ATOM     97  C   UNL A   1      39.843  33.845  36.764  1.00  0.00     0.058 A 
ATOM     98  C   UNL A   1      40.454  35.103  36.855  1.00  0.00     0.135 A 
ATOM     99  C   UNL A   1      38.994  33.443  37.806  1.00  0.00     0.135 A 
ATOM    100  F   UNL A   1      41.280  35.526  35.885  1.00  0.00    -0.206 F 
ATOM    101  C   UNL A   1      40.242  35.931  37.951  1.00  0.00     0.059 A 
ATOM    102  C   UNL A   1      38.753  34.261  38.903  1.00  0.00     0.059 A 
ATOM    103  F   UNL A   1      38.383  32.248  37.757  1.00  0.00    -0.206 F 
ATOM    104  C   UNL A   1      39.390  35.501  38.971  1.00  0.00     0.060 A 
BRANCH 104 105
ATOM    105  S   UNL A   1      39.094  36.593  40.376  1.00  0.00     0.124 S 
ATOM    106  O   UNL A   1      40.441  36.748  40.915  1.00  0.00    -0.237 OA
ATOM    107  O   UNL A   1      38.527  37.778  39.741  1.00  0.00    -0.237 OA
ATOM    108  O   UNL A   1      38.167  35.832  41.207  1.00  0.00    -0.744 OA
ENDBRANCH 104 105
ENDBRANCH  72  97
ENDBRANCH  46  47
ENDBRANCH  39  41
ENDBRANCH  38  39
ENDBRANCH  37  38
ENDBRANCH   1  37
TORSDOF 20
ENDMDL
