MODEL 1
REMARK VINA RESULT:     -14.3      0.000      0.000
REMARK SMILES COc1ccc(S(=O)(=O)N2CCCC[C@@H]2C(=O)OCCOC(=O)c2ccc(-c3c4nc(c(-c5c(F)cc(S(=O)(=O)[O-])cc5F)c5ccc([nH]5)c(-c5c(F)cc(S(=O)(=O)[O-])cc5F)c5nc(c(-c6c(F)cc(S(=O)(=O)[O-])cc6F)c6ccc3[nH]6)C=C5)C=C4)cc2)cc1C
REMARK SMILES IDX 19 1 18 2 16 3 17 4 15 5 10 6 11 7 12 8 14 9 13 10 7 11 8 12
REMARK SMILES IDX 9 13 6 14 3 15 4 16 91 17 5 18 90 19 92 20 2 21 1 22 20 23
REMARK SMILES IDX 21 24 22 25 23 26 24 27 25 28 89 29 26 30 88 31 27 32 28 33
REMARK SMILES IDX 29 34 82 35 30 36 87 37 81 38 83 39 31 40 86 41 80 42 79 43
REMARK SMILES IDX 32 45 66 46 45 47 65 48 46 49 49 50 64 51 84 52 47 53 48 54
REMARK SMILES IDX 63 56 85 57 50 58 33 59 34 60 43 61 35 62 36 63 42 64 44 65
REMARK SMILES IDX 37 66 38 67 39 68 40 69 41 70 67 71 68 72 77 73 69 74 70 75
REMARK SMILES IDX 76 76 78 77 71 78 72 79 73 80 74 81 75 82 51 83 52 84 61 85
REMARK SMILES IDX 53 86 54 87 60 88 62 89 55 90 56 91 57 92 58 93 59 94
REMARK H PARENT 83 44 49 55
REMARK Flexibility Score: inf
ROOT
ATOM      1  C   UNL A   1      38.906  22.564  26.134  1.00  0.00     0.274 C 
ENDROOT
BRANCH   1   2
ATOM      2  O   UNL A   1      38.330  21.351  25.622  1.00  0.00    -0.461 OA
BRANCH   2   3
ATOM      3  C   UNL A   1      37.130  21.514  24.813  1.00  0.00     0.324 C 
ATOM      4  O   UNL A   1      37.298  22.648  24.258  1.00  0.00    -0.250 OA
BRANCH   3   5
ATOM      5  C   UNL A   1      35.453  20.109  24.719  1.00  0.00     0.183 C 
ATOM      6  N   UNL A   1      33.794  20.224  25.618  1.00  0.00    -0.184 NA
ATOM      7  C   UNL A   1      32.808  19.079  25.491  1.00  0.00     0.103 C 
ATOM      8  C   UNL A   1      33.301  17.688  25.286  1.00  0.00     0.017 C 
ATOM      9  C   UNL A   1      35.512  18.354  24.625  1.00  0.00     0.032 C 
ATOM     10  C   UNL A   1      34.253  17.680  24.139  1.00  0.00     0.004 C 
BRANCH   6  11
ATOM     11  S   UNL A   1      32.638  21.701  25.795  1.00  0.00     0.243 S 
ATOM     12  O   UNL A   1      32.741  22.335  27.084  1.00  0.00    -0.207 OA
ATOM     13  O   UNL A   1      31.329  21.230  25.370  1.00  0.00    -0.207 OA
BRANCH  11  14
ATOM     14  C   UNL A   1      33.015  22.998  24.638  1.00  0.00     0.083 A 
ATOM     15  C   UNL A   1      33.522  24.872  22.639  1.00  0.00     0.121 A 
ATOM     16  C   UNL A   1      33.277  23.550  22.284  1.00  0.00     0.048 A 
ATOM     17  C   UNL A   1      33.482  25.276  23.986  1.00  0.00    -0.008 A 
ATOM     18  C   UNL A   1      33.035  22.613  23.282  1.00  0.00     0.025 A 
ATOM     19  C   UNL A   1      33.238  24.321  24.991  1.00  0.00     0.029 A 
ATOM     20  C   UNL A   1      33.713  26.704  24.382  1.00  0.00     0.048 C 
BRANCH  15  21
ATOM     21  O   UNL A   1      33.707  25.765  21.618  1.00  0.00    -0.496 OA
ATOM     22  C   UNL A   1      32.468  26.091  20.993  1.00  0.00     0.278 C 
ENDBRANCH  15  21
ENDBRANCH  11  14
ENDBRANCH   6  11
ENDBRANCH   3   5
ENDBRANCH   2   3
ENDBRANCH   1   2
BRANCH   1  23
ATOM     23  C   UNL A   1      40.227  22.190  26.820  1.00  0.00     0.275 C 
BRANCH  23  24
ATOM     24  O   UNL A   1      41.353  23.078  26.521  1.00  0.00    -0.458 OA
BRANCH  24  25
ATOM     25  C   UNL A   1      41.632  24.215  27.220  1.00  0.00     0.338 C 
ATOM     26  O   UNL A   1      42.589  24.380  27.958  1.00  0.00    -0.246 OA
BRANCH  25  27
ATOM     27  C   UNL A   1      40.663  25.321  26.965  1.00  0.00     0.060 A 
ATOM     28  C   UNL A   1      41.188  26.733  26.004  1.00  0.00     0.016 A 
ATOM     29  C   UNL A   1      39.576  25.514  28.361  1.00  0.00     0.016 A 
ATOM     30  C   UNL A   1      40.752  28.405  26.592  1.00  0.00     0.010 A 
ATOM     31  C   UNL A   1      39.063  27.128  28.907  1.00  0.00     0.010 A 
ATOM     32  C   UNL A   1      39.775  28.573  28.130  1.00  0.00    -0.014 A 
BRANCH  32  33
ATOM     33  C   UNL A   1      39.956  29.624  29.121  1.00  0.00     0.031 A 
ATOM     34  C   UNL A   1      38.914  30.658  29.133  1.00  0.00     0.074 A 
ATOM     35  C   UNL A   1      41.015  29.594  29.964  1.00  0.00     0.049 A 
ATOM     36  N   UNL A   1      39.092  31.803  29.670  1.00  0.00    -0.248 NA
ATOM     37  C   UNL A   1      37.620  30.546  28.454  1.00  0.00     0.031 C 
ATOM     38  C   UNL A   1      41.334  30.509  31.051  1.00  0.00     0.029 A 
ATOM     39  N   UNL A   1      42.163  28.810  29.890  1.00  0.00    -0.354 N 
ATOM     40  C   UNL A   1      37.913  32.494  29.606  1.00  0.00     0.074 A 
ATOM     41  C   UNL A   1      37.070  31.727  28.738  1.00  0.00     0.031 C 
ATOM     42  C   UNL A   1      42.666  30.474  31.254  1.00  0.00     0.029 A 
ATOM     43  C   UNL A   1      43.252  29.591  30.255  1.00  0.00     0.049 A 
ATOM     44  H   UNL A   1      42.197  27.862  29.625  1.00  0.00     0.167 HD
ATOM     45  C   UNL A   1      37.808  33.570  30.426  1.00  0.00     0.037 A 
ATOM     46  C   UNL A   1      44.211  29.903  29.330  1.00  0.00     0.037 A 
ATOM     47  C   UNL A   1      39.166  33.982  30.840  1.00  0.00     0.049 A 
ATOM     48  C   UNL A   1      44.066  31.383  28.916  1.00  0.00     0.074 A 
ATOM     49  C   UNL A   1      39.943  33.840  31.977  1.00  0.00     0.029 A 
ATOM     50  N   UNL A   1      40.076  34.249  29.820  1.00  0.00    -0.354 N 
ATOM     51  N   UNL A   1      43.195  32.213  29.448  1.00  0.00    -0.248 NA
ATOM     52  C   UNL A   1      44.858  32.060  27.888  1.00  0.00     0.031 C 
ATOM     53  C   UNL A   1      41.326  33.977  31.595  1.00  0.00     0.029 A 
ATOM     54  C   UNL A   1      41.393  34.243  30.237  1.00  0.00     0.049 A 
ATOM     55  H   UNL A   1      39.806  34.425  28.890  1.00  0.00     0.167 HD
ATOM     56  C   UNL A   1      43.260  33.454  28.871  1.00  0.00     0.074 A 
ATOM     57  C   UNL A   1      44.328  33.301  27.891  1.00  0.00     0.031 C 
ATOM     58  C   UNL A   1      42.436  34.499  29.231  1.00  0.00     0.037 A 
BRANCH  45  59
ATOM     59  C   UNL A   1      36.491  34.078  30.977  1.00  0.00     0.058 A 
ATOM     60  C   UNL A   1      35.416  34.317  30.099  1.00  0.00     0.135 A 
ATOM     61  C   UNL A   1      36.243  34.483  32.314  1.00  0.00     0.135 A 
ATOM     62  F   UNL A   1      35.503  34.000  28.798  1.00  0.00    -0.206 F 
ATOM     63  C   UNL A   1      34.220  34.926  30.502  1.00  0.00     0.059 A 
ATOM     64  C   UNL A   1      35.054  35.073  32.742  1.00  0.00     0.059 A 
ATOM     65  F   UNL A   1      37.147  34.381  33.290  1.00  0.00    -0.206 F 
ATOM     66  C   UNL A   1      34.049  35.307  31.826  1.00  0.00     0.060 A 
BRANCH  66  67
ATOM     67  S   UNL A   1      32.527  36.118  32.340  1.00  0.00     0.124 S 
ATOM     68  O   UNL A   1      31.661  34.982  32.634  1.00  0.00    -0.237 OA
ATOM     69  O   UNL A   1      32.969  36.901  33.490  1.00  0.00    -0.237 OA
ATOM     70  O   UNL A   1      32.143  36.903  31.168  1.00  0.00    -0.744 OA
ENDBRANCH  66  67
ENDBRANCH  45  59
BRANCH  46  71
ATOM     71  C   UNL A   1      44.707  28.686  28.566  1.00  0.00     0.058 A 
ATOM     72  C   UNL A   1      44.440  28.640  27.173  1.00  0.00     0.135 A 
ATOM     73  C   UNL A   1      45.648  27.749  29.010  1.00  0.00     0.135 A 
ATOM     74  F   UNL A   1      43.480  29.425  26.656  1.00  0.00    -0.206 F 
ATOM     75  C   UNL A   1      45.186  27.875  26.268  1.00  0.00     0.059 A 
ATOM     76  C   UNL A   1      46.411  26.953  28.121  1.00  0.00     0.059 A 
ATOM     77  F   UNL A   1      45.934  27.670  30.314  1.00  0.00    -0.206 F 
ATOM     78  C   UNL A   1      46.208  27.064  26.743  1.00  0.00     0.060 A 
BRANCH  78  79
ATOM     79  S   UNL A   1      47.340  26.303  25.532  1.00  0.00     0.124 S 
ATOM     80  O   UNL A   1      46.413  25.698  24.584  1.00  0.00    -0.237 OA
ATOM     81  O   UNL A   1      48.092  27.449  25.032  1.00  0.00    -0.237 OA
ATOM     82  O   UNL A   1      48.116  25.359  26.333  1.00  0.00    -0.744 OA
ENDBRANCH  78  79
ENDBRANCH  46  71
BRANCH  58  83
ATOM     83  C   UNL A   1      42.512  35.907  28.645  1.00  0.00     0.058 A 
ATOM     84  C   UNL A   1      42.172  36.203  27.314  1.00  0.00     0.135 A 
ATOM     85  C   UNL A   1      43.068  36.996  29.369  1.00  0.00     0.135 A 
ATOM     86  F   UNL A   1      41.748  35.243  26.480  1.00  0.00    -0.206 F 
ATOM     87  C   UNL A   1      42.290  37.494  26.779  1.00  0.00     0.059 A 
ATOM     88  C   UNL A   1      43.254  38.266  28.838  1.00  0.00     0.059 A 
ATOM     89  F   UNL A   1      43.433  36.900  30.653  1.00  0.00    -0.206 F 
ATOM     90  C   UNL A   1      42.826  38.520  27.552  1.00  0.00     0.060 A 
BRANCH  90  91
ATOM     91  S   UNL A   1      42.972  40.183  26.879  1.00  0.00     0.124 S 
ATOM     92  O   UNL A   1      43.935  40.000  25.798  1.00  0.00    -0.237 OA
ATOM     93  O   UNL A   1      41.598  40.452  26.465  1.00  0.00    -0.237 OA
ATOM     94  O   UNL A   1      43.450  40.974  28.009  1.00  0.00    -0.744 OA
ENDBRANCH  90  91
ENDBRANCH  58  83
ENDBRANCH  32  33
ENDBRANCH  25  27
ENDBRANCH  24  25
ENDBRANCH  23  24
ENDBRANCH   1  23
TORSDOF 17
ENDMDL
MODEL 2
REMARK VINA RESULT:     -12.5      1.596      2.539
REMARK SMILES COc1ccc(S(=O)(=O)N2CCCC[C@@H]2C(=O)OCCOC(=O)c2ccc(-c3c4nc(c(-c5c(F)cc(S(=O)(=O)[O-])cc5F)c5ccc([nH]5)c(-c5c(F)cc(S(=O)(=O)[O-])cc5F)c5nc(c(-c6c(F)cc(S(=O)(=O)[O-])cc6F)c6ccc3[nH]6)C=C5)C=C4)cc2)cc1C
REMARK SMILES IDX 19 1 18 2 16 3 17 4 15 5 10 6 11 7 12 8 14 9 13 10 7 11 8 12
REMARK SMILES IDX 9 13 6 14 3 15 4 16 91 17 5 18 90 19 92 20 2 21 1 22 20 23
REMARK SMILES IDX 21 24 22 25 23 26 24 27 25 28 89 29 26 30 88 31 27 32 28 33
REMARK SMILES IDX 29 34 82 35 30 36 87 37 81 38 83 39 31 40 86 41 80 42 79 43
REMARK SMILES IDX 32 45 66 46 45 47 65 48 46 49 49 50 64 51 84 52 47 53 48 54
REMARK SMILES IDX 63 56 85 57 50 58 33 59 34 60 43 61 35 62 36 63 42 64 44 65
REMARK SMILES IDX 37 66 38 67 39 68 40 69 41 70 67 71 68 72 77 73 69 74 70 75
REMARK SMILES IDX 76 76 78 77 71 78 72 79 73 80 74 81 75 82 51 83 52 84 61 85
REMARK SMILES IDX 53 86 54 87 60 88 62 89 55 90 56 91 57 92 58 93 59 94
REMARK H PARENT 83 44 49 55
REMARK Flexibility Score: inf
ROOT
ATOM      1  C   UNL A   1      38.439  22.920  25.384  1.00  0.00     0.274 C 
ENDROOT
BRANCH   1   2
ATOM      2  O   UNL A   1      37.420  22.018  24.921  1.00  0.00    -0.461 OA
BRANCH   2   3
ATOM      3  C   UNL A   1      36.380  22.613  24.093  1.00  0.00     0.324 C 
ATOM      4  O   UNL A   1      37.035  23.273  23.222  1.00  0.00    -0.250 OA
BRANCH   3   5
ATOM      5  C   UNL A   1      34.224  22.418  24.416  1.00  0.00     0.183 C 
ATOM      6  N   UNL A   1      32.959  23.802  24.660  1.00  0.00    -0.184 NA
ATOM      7  C   UNL A   1      31.521  23.439  24.975  1.00  0.00     0.103 C 
ATOM      8  C   UNL A   1      31.214  22.187  25.723  1.00  0.00     0.017 C 
ATOM      9  C   UNL A   1      33.373  21.198  25.354  1.00  0.00     0.032 C 
ATOM     10  C   UNL A   1      31.902  21.046  25.053  1.00  0.00     0.004 C 
BRANCH   6  11
ATOM     11  S   UNL A   1      32.740  25.399  23.682  1.00  0.00     0.243 S 
ATOM     12  O   UNL A   1      31.628  25.343  22.770  1.00  0.00    -0.207 OA
ATOM     13  O   UNL A   1      34.053  25.711  23.139  1.00  0.00    -0.207 OA
BRANCH  11  14
ATOM     14  C   UNL A   1      32.378  26.789  24.731  1.00  0.00     0.083 A 
ATOM     15  C   UNL A   1      31.778  29.104  26.161  1.00  0.00     0.121 A 
ATOM     16  C   UNL A   1      32.073  29.200  24.805  1.00  0.00     0.048 A 
ATOM     17  C   UNL A   1      31.746  27.854  26.805  1.00  0.00    -0.008 A 
ATOM     18  C   UNL A   1      32.383  28.046  24.094  1.00  0.00     0.025 A 
ATOM     19  C   UNL A   1      32.063  26.690  26.078  1.00  0.00     0.029 A 
ATOM     20  C   UNL A   1      31.399  27.731  28.258  1.00  0.00     0.048 C 
BRANCH  15  21
ATOM     21  O   UNL A   1      31.432  30.262  26.804  1.00  0.00    -0.496 OA
ATOM     22  C   UNL A   1      31.674  31.398  25.978  1.00  0.00     0.278 C 
ENDBRANCH  15  21
ENDBRANCH  11  14
ENDBRANCH   6  11
ENDBRANCH   3   5
ENDBRANCH   2   3
ENDBRANCH   1   2
BRANCH   1  23
ATOM     23  C   UNL A   1      39.328  22.141  26.363  1.00  0.00     0.275 C 
BRANCH  23  24
ATOM     24  O   UNL A   1      40.683  22.674  26.527  1.00  0.00    -0.458 OA
BRANCH  24  25
ATOM     25  C   UNL A   1      40.986  23.762  27.291  1.00  0.00     0.338 C 
ATOM     26  O   UNL A   1      41.850  23.810  28.151  1.00  0.00    -0.246 OA
BRANCH  25  27
ATOM     27  C   UNL A   1      40.179  24.970  26.949  1.00  0.00     0.060 A 
ATOM     28  C   UNL A   1      40.964  26.324  26.085  1.00  0.00     0.016 A 
ATOM     29  C   UNL A   1      38.964  25.271  28.214  1.00  0.00     0.016 A 
ATOM     30  C   UNL A   1      40.645  28.028  26.654  1.00  0.00     0.010 A 
ATOM     31  C   UNL A   1      38.569  26.927  28.731  1.00  0.00     0.010 A 
ATOM     32  C   UNL A   1      39.520  28.292  28.071  1.00  0.00    -0.014 A 
BRANCH  32  33
ATOM     33  C   UNL A   1      39.697  29.308  29.098  1.00  0.00     0.031 A 
ATOM     34  C   UNL A   1      38.703  30.388  29.086  1.00  0.00     0.074 A 
ATOM     35  C   UNL A   1      40.709  29.208  29.992  1.00  0.00     0.049 A 
ATOM     36  N   UNL A   1      38.905  31.510  29.662  1.00  0.00    -0.248 NA
ATOM     37  C   UNL A   1      37.442  30.353  28.340  1.00  0.00     0.031 C 
ATOM     38  C   UNL A   1      41.012  30.080  31.118  1.00  0.00     0.029 A 
ATOM     39  N   UNL A   1      41.823  28.374  29.955  1.00  0.00    -0.354 N 
ATOM     40  C   UNL A   1      37.763  32.256  29.558  1.00  0.00     0.074 A 
ATOM     41  C   UNL A   1      36.931  31.551  28.628  1.00  0.00     0.031 C 
ATOM     42  C   UNL A   1      42.329  29.978  31.386  1.00  0.00     0.029 A 
ATOM     43  C   UNL A   1      42.926  29.094  30.395  1.00  0.00     0.049 A 
ATOM     44  H   UNL A   1      41.828  27.432  29.666  1.00  0.00     0.167 HD
ATOM     45  C   UNL A   1      37.664  33.316  30.400  1.00  0.00     0.037 A 
ATOM     46  C   UNL A   1      43.943  29.384  29.527  1.00  0.00     0.037 A 
ATOM     47  C   UNL A   1      39.016  33.654  30.893  1.00  0.00     0.049 A 
ATOM     48  C   UNL A   1      43.887  30.880  29.146  1.00  0.00     0.074 A 
ATOM     49  C   UNL A   1      39.727  33.448  32.063  1.00  0.00     0.029 A 
ATOM     50  N   UNL A   1      39.988  33.904  29.927  1.00  0.00    -0.354 N 
ATOM     51  N   UNL A   1      43.028  31.735  29.656  1.00  0.00    -0.248 NA
ATOM     52  C   UNL A   1      44.761  31.545  28.179  1.00  0.00     0.031 C 
ATOM     53  C   UNL A   1      41.133  33.530  31.754  1.00  0.00     0.029 A 
ATOM     54  C   UNL A   1      41.281  33.826  30.410  1.00  0.00     0.049 A 
ATOM     55  H   UNL A   1      39.775  34.115  28.990  1.00  0.00     0.167 HD
ATOM     56  C   UNL A   1      43.178  32.986  29.118  1.00  0.00     0.074 A 
ATOM     57  C   UNL A   1      44.287  32.808  28.189  1.00  0.00     0.031 C 
ATOM     58  C   UNL A   1      42.384  34.058  29.464  1.00  0.00     0.037 A 
BRANCH  45  59
ATOM     59  C   UNL A   1      36.345  33.870  30.898  1.00  0.00     0.058 A 
ATOM     60  C   UNL A   1      35.470  34.502  29.993  1.00  0.00     0.135 A 
ATOM     61  C   UNL A   1      35.927  33.947  32.252  1.00  0.00     0.135 A 
ATOM     62  F   UNL A   1      35.736  34.526  28.678  1.00  0.00    -0.206 F 
ATOM     63  C   UNL A   1      34.307  35.172  30.394  1.00  0.00     0.059 A 
ATOM     64  C   UNL A   1      34.763  34.591  32.673  1.00  0.00     0.059 A 
ATOM     65  F   UNL A   1      36.633  33.447  33.267  1.00  0.00    -0.206 F 
ATOM     66  C   UNL A   1      33.963  35.217  31.739  1.00  0.00     0.060 A 
BRANCH  66  67
ATOM     67  S   UNL A   1      32.486  36.103  32.261  1.00  0.00     0.124 S 
ATOM     68  O   UNL A   1      32.150  36.866  31.063  1.00  0.00    -0.237 OA
ATOM     69  O   UNL A   1      31.578  35.013  32.601  1.00  0.00    -0.237 OA
ATOM     70  O   UNL A   1      32.947  36.902  33.395  1.00  0.00    -0.744 OA
ENDBRANCH  66  67
ENDBRANCH  45  59
BRANCH  46  71
ATOM     71  C   UNL A   1      44.423  28.165  28.757  1.00  0.00     0.058 A 
ATOM     72  C   UNL A   1      44.273  28.188  27.346  1.00  0.00     0.135 A 
ATOM     73  C   UNL A   1      45.260  27.151  29.237  1.00  0.00     0.135 A 
ATOM     74  F   UNL A   1      43.413  29.055  26.784  1.00  0.00    -0.206 F 
ATOM     75  C   UNL A   1      45.043  27.408  26.473  1.00  0.00     0.059 A 
ATOM     76  C   UNL A   1      46.043  26.338  28.381  1.00  0.00     0.059 A 
ATOM     77  F   UNL A   1      45.429  27.006  30.556  1.00  0.00    -0.206 F 
ATOM     78  C   UNL A   1      45.966  26.512  26.997  1.00  0.00     0.060 A 
BRANCH  78  79
ATOM     79  S   UNL A   1      47.145  25.721  25.853  1.00  0.00     0.124 S 
ATOM     80  O   UNL A   1      47.467  24.483  26.551  1.00  0.00    -0.237 OA
ATOM     81  O   UNL A   1      46.357  25.569  24.635  1.00  0.00    -0.237 OA
ATOM     82  O   UNL A   1      48.237  26.686  25.763  1.00  0.00    -0.744 OA
ENDBRANCH  78  79
ENDBRANCH  46  71
BRANCH  58  83
ATOM     83  C   UNL A   1      42.554  35.475  28.921  1.00  0.00     0.058 A 
ATOM     84  C   UNL A   1      43.256  36.481  29.606  1.00  0.00     0.135 A 
ATOM     85  C   UNL A   1      41.892  35.916  27.743  1.00  0.00     0.135 A 
ATOM     86  F   UNL A   1      43.829  36.235  30.793  1.00  0.00    -0.206 F 
ATOM     87  C   UNL A   1      43.366  37.790  29.115  1.00  0.00     0.059 A 
ATOM     88  C   UNL A   1      41.933  37.223  27.273  1.00  0.00     0.059 A 
ATOM     89  F   UNL A   1      41.191  35.092  26.956  1.00  0.00    -0.206 F 
ATOM     90  C   UNL A   1      42.705  38.148  27.942  1.00  0.00     0.060 A 
BRANCH  90  91
ATOM     91  S   UNL A   1      42.847  39.822  27.296  1.00  0.00     0.124 S 
ATOM     92  O   UNL A   1      41.574  40.001  26.605  1.00  0.00    -0.237 OA
ATOM     93  O   UNL A   1      43.017  40.595  28.523  1.00  0.00    -0.237 OA
ATOM     94  O   UNL A   1      44.021  39.760  26.429  1.00  0.00    -0.744 OA
ENDBRANCH  90  91
ENDBRANCH  58  83
ENDBRANCH  32  33
ENDBRANCH  25  27
ENDBRANCH  24  25
ENDBRANCH  23  24
ENDBRANCH   1  23
TORSDOF 17
ENDMDL
MODEL 3
REMARK VINA RESULT:     -11.4      7.068     10.263
REMARK SMILES COc1ccc(S(=O)(=O)N2CCCC[C@@H]2C(=O)OCCOC(=O)c2ccc(-c3c4nc(c(-c5c(F)cc(S(=O)(=O)[O-])cc5F)c5ccc([nH]5)c(-c5c(F)cc(S(=O)(=O)[O-])cc5F)c5nc(c(-c6c(F)cc(S(=O)(=O)[O-])cc6F)c6ccc3[nH]6)C=C5)C=C4)cc2)cc1C
REMARK SMILES IDX 19 1 18 2 16 3 17 4 15 5 10 6 11 7 12 8 14 9 13 10 7 11 8 12
REMARK SMILES IDX 9 13 6 14 3 15 4 16 91 17 5 18 90 19 92 20 2 21 1 22 20 23
REMARK SMILES IDX 21 24 22 25 23 26 24 27 25 28 89 29 26 30 88 31 27 32 28 33
REMARK SMILES IDX 29 34 82 35 30 36 87 37 81 38 83 39 31 40 86 41 80 42 79 43
REMARK SMILES IDX 32 45 66 46 45 47 65 48 46 49 49 50 64 51 84 52 47 53 48 54
REMARK SMILES IDX 63 56 85 57 50 58 33 59 34 60 43 61 35 62 36 63 42 64 44 65
REMARK SMILES IDX 37 66 38 67 39 68 40 69 41 70 67 71 68 72 77 73 69 74 70 75
REMARK SMILES IDX 76 76 78 77 71 78 72 79 73 80 74 81 75 82 51 83 52 84 61 85
REMARK SMILES IDX 53 86 54 87 60 88 62 89 55 90 56 91 57 92 58 93 59 94
REMARK H PARENT 83 44 49 55
REMARK Flexibility Score: inf
ROOT
ATOM      1  C   UNL A   1      43.685  28.565  27.664  1.00  0.00     0.274 C 
ENDROOT
BRANCH   1   2
ATOM      2  O   UNL A   1      42.582  28.594  26.743  1.00  0.00    -0.461 OA
BRANCH   2   3
ATOM      3  C   UNL A   1      42.690  27.698  25.600  1.00  0.00     0.324 C 
ATOM      4  O   UNL A   1      42.278  28.409  24.626  1.00  0.00    -0.250 OA
BRANCH   3   5
ATOM      5  C   UNL A   1      43.342  25.610  25.671  1.00  0.00     0.183 C 
ATOM      6  N   UNL A   1      43.143  24.382  27.094  1.00  0.00    -0.184 NA
ATOM      7  C   UNL A   1      43.766  23.004  26.972  1.00  0.00     0.103 C 
ATOM      8  C   UNL A   1      45.004  22.815  26.165  1.00  0.00     0.017 C 
ATOM      9  C   UNL A   1      44.809  24.908  25.001  1.00  0.00     0.032 C 
ATOM     10  C   UNL A   1      44.794  23.411  24.814  1.00  0.00     0.004 C 
BRANCH   6  11
ATOM     11  S   UNL A   1      41.622  24.016  28.145  1.00  0.00     0.243 S 
ATOM     12  O   UNL A   1      41.049  25.203  28.725  1.00  0.00    -0.207 OA
ATOM     13  O   UNL A   1      42.012  22.939  29.041  1.00  0.00    -0.207 OA
BRANCH  11  14
ATOM     14  C   UNL A   1      40.296  23.310  27.192  1.00  0.00     0.083 A 
ATOM     15  C   UNL A   1      38.319  21.976  25.751  1.00  0.00     0.121 A 
ATOM     16  C   UNL A   1      39.469  21.288  26.126  1.00  0.00     0.048 A 
ATOM     17  C   UNL A   1      38.131  23.320  26.120  1.00  0.00    -0.008 A 
ATOM     18  C   UNL A   1      40.460  21.957  26.835  1.00  0.00     0.025 A 
ATOM     19  C   UNL A   1      39.140  23.991  26.837  1.00  0.00     0.029 A 
ATOM     20  C   UNL A   1      36.884  24.065  25.751  1.00  0.00     0.048 C 
BRANCH  15  21
ATOM     21  O   UNL A   1      37.353  21.260  25.097  1.00  0.00    -0.496 OA
ATOM     22  C   UNL A   1      37.778  19.919  24.865  1.00  0.00     0.278 C 
ENDBRANCH  15  21
ENDBRANCH  11  14
ENDBRANCH   6  11
ENDBRANCH   3   5
ENDBRANCH   2   3
ENDBRANCH   1   2
BRANCH   1  23
ATOM     23  C   UNL A   1      44.914  29.105  26.921  1.00  0.00     0.275 C 
BRANCH  23  24
ATOM     24  O   UNL A   1      46.136  28.315  27.090  1.00  0.00    -0.458 OA
BRANCH  24  25
ATOM     25  C   UNL A   1      46.975  28.428  28.160  1.00  0.00     0.338 C 
ATOM     26  O   UNL A   1      47.537  29.449  28.518  1.00  0.00    -0.246 OA
BRANCH  25  27
ATOM     27  C   UNL A   1      47.124  27.161  28.933  1.00  0.00     0.060 A 
ATOM     28  C   UNL A   1      46.069  25.773  28.541  1.00  0.00     0.016 A 
ATOM     29  C   UNL A   1      47.575  27.523  30.617  1.00  0.00     0.016 A 
ATOM     30  C   UNL A   1      45.298  24.844  29.909  1.00  0.00     0.010 A 
ATOM     31  C   UNL A   1      46.906  26.580  31.968  1.00  0.00     0.010 A 
ATOM     32  C   UNL A   1      45.649  25.352  31.631  1.00  0.00    -0.014 A 
BRANCH  32  33
ATOM     33  C   UNL A   1      44.685  25.325  32.720  1.00  0.00     0.031 A 
ATOM     34  C   UNL A   1      43.972  26.587  32.955  1.00  0.00     0.074 A 
ATOM     35  C   UNL A   1      44.479  24.187  33.424  1.00  0.00     0.049 A 
ATOM     36  N   UNL A   1      43.375  26.842  34.055  1.00  0.00    -0.248 NA
ATOM     37  C   UNL A   1      43.951  27.719  32.025  1.00  0.00     0.031 C 
ATOM     38  C   UNL A   1      43.525  23.945  34.497  1.00  0.00     0.029 A 
ATOM     39  N   UNL A   1      45.247  23.026  33.443  1.00  0.00    -0.354 N 
ATOM     40  C   UNL A   1      42.728  28.040  33.924  1.00  0.00     0.074 A 
ATOM     41  C   UNL A   1      43.214  28.602  32.699  1.00  0.00     0.031 C 
ATOM     42  C   UNL A   1      43.999  22.944  35.264  1.00  0.00     0.029 A 
ATOM     43  C   UNL A   1      45.306  22.561  34.750  1.00  0.00     0.049 A 
ATOM     44  H   UNL A   1      45.674  22.605  32.662  1.00  0.00     0.167 HD
ATOM     45  C   UNL A   1      41.767  28.302  34.846  1.00  0.00     0.037 A 
ATOM     46  C   UNL A   1      46.498  22.564  35.423  1.00  0.00     0.037 A 
ATOM     47  C   UNL A   1      41.986  27.428  36.018  1.00  0.00     0.049 A 
ATOM     48  C   UNL A   1      46.494  23.695  36.475  1.00  0.00     0.074 A 
ATOM     49  C   UNL A   1      41.416  26.267  36.510  1.00  0.00     0.029 A 
ATOM     50  N   UNL A   1      43.244  27.485  36.613  1.00  0.00    -0.354 N 
ATOM     51  N   UNL A   1      45.459  24.469  36.716  1.00  0.00    -0.248 NA
ATOM     52  C   UNL A   1      47.622  24.063  37.332  1.00  0.00     0.031 C 
ATOM     53  C   UNL A   1      42.381  25.620  37.362  1.00  0.00     0.029 A 
ATOM     54  C   UNL A   1      43.521  26.403  37.425  1.00  0.00     0.049 A 
ATOM     55  H   UNL A   1      43.874  28.227  36.469  1.00  0.00     0.167 HD
ATOM     56  C   UNL A   1      45.741  25.409  37.673  1.00  0.00     0.074 A 
ATOM     57  C   UNL A   1      47.122  25.107  38.026  1.00  0.00     0.031 C 
ATOM     58  C   UNL A   1      44.834  26.359  38.090  1.00  0.00     0.037 A 
BRANCH  45  59
ATOM     59  C   UNL A   1      40.564  29.182  34.574  1.00  0.00     0.058 A 
ATOM     60  C   UNL A   1      39.716  28.884  33.489  1.00  0.00     0.135 A 
ATOM     61  C   UNL A   1      40.249  30.398  35.233  1.00  0.00     0.135 A 
ATOM     62  F   UNL A   1      39.894  27.774  32.757  1.00  0.00    -0.206 F 
ATOM     63  C   UNL A   1      38.675  29.727  33.078  1.00  0.00     0.059 A 
ATOM     64  C   UNL A   1      39.205  31.243  34.855  1.00  0.00     0.059 A 
ATOM     65  F   UNL A   1      40.954  30.880  36.259  1.00  0.00    -0.206 F 
ATOM     66  C   UNL A   1      38.429  30.909  33.765  1.00  0.00     0.060 A 
BRANCH  66  67
ATOM     67  S   UNL A   1      37.112  32.009  33.220  1.00  0.00     0.124 S 
ATOM     68  O   UNL A   1      37.852  33.026  32.481  1.00  0.00    -0.237 OA
ATOM     69  O   UNL A   1      36.278  31.117  32.422  1.00  0.00    -0.237 OA
ATOM     70  O   UNL A   1      36.509  32.468  34.470  1.00  0.00    -0.744 OA
ENDBRANCH  66  67
ENDBRANCH  45  59
BRANCH  46  71
ATOM     71  C   UNL A   1      47.626  21.936  34.622  1.00  0.00     0.058 A 
ATOM     72  C   UNL A   1      48.609  22.811  34.089  1.00  0.00     0.135 A 
ATOM     73  C   UNL A   1      47.976  20.581  34.593  1.00  0.00     0.135 A 
ATOM     74  F   UNL A   1      48.337  24.122  33.973  1.00  0.00    -0.206 F 
ATOM     75  C   UNL A   1      49.904  22.402  33.746  1.00  0.00     0.059 A 
ATOM     76  C   UNL A   1      49.274  20.134  34.242  1.00  0.00     0.059 A 
ATOM     77  F   UNL A   1      47.100  19.666  35.022  1.00  0.00    -0.206 F 
ATOM     78  C   UNL A   1      50.250  21.062  33.870  1.00  0.00     0.060 A 
BRANCH  78  79
ATOM     79  S   UNL A   1      52.005  20.604  33.692  1.00  0.00     0.124 S 
ATOM     80  O   UNL A   1      52.659  21.529  34.610  1.00  0.00    -0.237 OA
ATOM     81  O   UNL A   1      52.014  19.203  34.098  1.00  0.00    -0.237 OA
ATOM     82  O   UNL A   1      52.279  20.837  32.276  1.00  0.00    -0.744 OA
ENDBRANCH  78  79
ENDBRANCH  46  71
BRANCH  58  83
ATOM     83  C   UNL A   1      45.097  27.389  39.186  1.00  0.00     0.058 A 
ATOM     84  C   UNL A   1      45.674  28.645  38.935  1.00  0.00     0.135 A 
ATOM     85  C   UNL A   1      44.903  27.092  40.562  1.00  0.00     0.135 A 
ATOM     86  F   UNL A   1      46.021  29.009  37.692  1.00  0.00    -0.206 F 
ATOM     87  C   UNL A   1      45.950  29.563  39.959  1.00  0.00     0.059 A 
ATOM     88  C   UNL A   1      45.230  27.961  41.596  1.00  0.00     0.059 A 
ATOM     89  F   UNL A   1      44.351  25.950  40.985  1.00  0.00    -0.206 F 
ATOM     90  C   UNL A   1      45.718  29.213  41.287  1.00  0.00     0.060 A 
BRANCH  90  91
ATOM     91  S   UNL A   1      46.058  30.386  42.608  1.00  0.00     0.124 S 
ATOM     92  O   UNL A   1      45.216  29.891  43.692  1.00  0.00    -0.237 OA
ATOM     93  O   UNL A   1      47.496  30.211  42.791  1.00  0.00    -0.237 OA
ATOM     94  O   UNL A   1      45.652  31.670  42.043  1.00  0.00    -0.744 OA
ENDBRANCH  90  91
ENDBRANCH  58  83
ENDBRANCH  32  33
ENDBRANCH  25  27
ENDBRANCH  24  25
ENDBRANCH  23  24
ENDBRANCH   1  23
TORSDOF 17
ENDMDL
