MODEL 1
REMARK VINA RESULT:     -10.1      0.000      0.000
REMARK SMILES COc1ccc(C(=O)NNC(=O)CCC(=O)OCCOC(=O)c2ccc(-c3c4nc(c(-c5c(F)cc(S(=O)(=O)[O-])cc5F)c5ccc([nH]5)c(-c5c(F)cc(S(=O)(=O)[O-])cc5F)c5nc(c(-c6c(F)cc(S(=O)(=O)[O-])cc6F)c6ccc3[nH]6)C=C5)C=C4)cc2)cc1Br
REMARK SMILES IDX 18 1 17 2 15 3 16 4 14 5 13 6 11 7 10 8 12 10 9 11 7 12 8 13
REMARK SMILES IDX 6 15 3 16 4 17 90 18 5 19 89 20 91 21 2 22 1 23 19 24 20 25
REMARK SMILES IDX 21 26 22 27 23 28 24 29 88 30 25 31 87 32 26 33 27 34 28 35
REMARK SMILES IDX 81 36 29 37 86 38 80 39 82 40 30 41 85 42 79 43 78 44 31 46
REMARK SMILES IDX 65 47 44 48 64 49 45 50 48 51 63 52 83 53 46 54 47 55 62 57
REMARK SMILES IDX 84 58 49 59 32 60 33 61 42 62 34 63 35 64 41 65 43 66 36 67
REMARK SMILES IDX 37 68 38 69 39 70 40 71 66 72 67 73 76 74 68 75 69 76 75 77
REMARK SMILES IDX 77 78 70 79 71 80 72 81 73 82 74 83 50 84 51 85 60 86 52 87
REMARK SMILES IDX 53 88 59 89 61 90 54 91 55 92 56 93 57 94 58 95
REMARK H PARENT 10 9 9 14 82 45 48 56
REMARK Flexibility Score: inf
ROOT
ATOM      1  C   UNL A   1      33.913  34.194  28.303  1.00  0.00     0.274 C 
ENDROOT
BRANCH   1   2
ATOM      2  O   UNL A   1      34.080  35.144  29.374  1.00  0.00    -0.462 OA
BRANCH   2   3
ATOM      3  C   UNL A   1      33.002  35.917  29.658  1.00  0.00     0.306 C 
ATOM      4  O   UNL A   1      32.293  36.469  28.827  1.00  0.00    -0.252 OA
BRANCH   3   5
ATOM      5  C   UNL A   1      32.786  36.069  31.143  1.00  0.00     0.132 C 
BRANCH   5   6
ATOM      6  C   UNL A   1      33.481  35.002  31.972  1.00  0.00     0.113 C 
BRANCH   6   7
ATOM      7  C   UNL A   1      34.637  35.557  32.771  1.00  0.00     0.238 C 
ATOM      8  N   UNL A   1      35.928  35.291  32.408  1.00  0.00    -0.267 N 
ATOM      9  H   UNL A   1      36.633  35.570  33.037  1.00  0.00     0.191 HD
ATOM     10  O   UNL A   1      34.434  36.225  33.787  1.00  0.00    -0.273 OA
BRANCH   8  11
ATOM     11  N   UNL A   1      36.342  34.668  31.246  1.00  0.00    -0.264 N 
ATOM     12  C   UNL A   1      37.070  33.498  31.141  1.00  0.00     0.269 C 
ATOM     13  O   UNL A   1      37.157  32.971  30.026  1.00  0.00    -0.267 OA
ATOM     14  H   UNL A   1      36.090  35.106  30.402  1.00  0.00     0.191 HD
BRANCH  12  15
ATOM     15  C   UNL A   1      37.774  32.800  32.265  1.00  0.00     0.042 A 
ATOM     16  C   UNL A   1      38.719  31.384  34.515  1.00  0.00     0.133 A 
ATOM     17  C   UNL A   1      37.817  30.777  33.649  1.00  0.00     0.048 A 
ATOM     18  C   UNL A   1      39.242  32.638  34.198  1.00  0.00     0.060 A 
ATOM     19  C   UNL A   1      37.345  31.484  32.541  1.00  0.00     0.018 A 
ATOM     20  C   UNL A   1      38.770  33.343  33.080  1.00  0.00     0.033 A 
ATOM     21  Br  UNL A   1      40.608  33.451  35.237  1.00  0.00    -0.047 Br
BRANCH  16  22
ATOM     22  O   UNL A   1      39.066  30.690  35.643  1.00  0.00    -0.496 OA
ATOM     23  C   UNL A   1      38.085  30.888  36.668  1.00  0.00     0.278 C 
ENDBRANCH  16  22
ENDBRANCH  12  15
ENDBRANCH   8  11
ENDBRANCH   6   7
ENDBRANCH   5   6
ENDBRANCH   3   5
ENDBRANCH   2   3
ENDBRANCH   1   2
BRANCH   1  24
ATOM     24  C   UNL A   1      34.158  32.755  28.756  1.00  0.00     0.275 C 
BRANCH  24  25
ATOM     25  O   UNL A   1      34.672  31.942  27.696  1.00  0.00    -0.458 OA
BRANCH  25  26
ATOM     26  C   UNL A   1      34.522  30.603  27.848  1.00  0.00     0.338 C 
ATOM     27  O   UNL A   1      33.524  29.928  27.723  1.00  0.00    -0.246 OA
BRANCH  26  28
ATOM     28  C   UNL A   1      35.855  30.062  28.119  1.00  0.00     0.060 A 
ATOM     29  C   UNL A   1      36.811  30.062  27.100  1.00  0.00     0.016 A 
ATOM     30  C   UNL A   1      36.155  29.612  29.404  1.00  0.00     0.016 A 
ATOM     31  C   UNL A   1      38.104  29.639  27.380  1.00  0.00     0.010 A 
ATOM     32  C   UNL A   1      37.457  29.217  29.688  1.00  0.00     0.010 A 
ATOM     33  C   UNL A   1      38.440  29.249  28.683  1.00  0.00    -0.014 A 
BRANCH  33  34
ATOM     34  C   UNL A   1      39.839  28.924  29.023  1.00  0.00     0.031 A 
ATOM     35  C   UNL A   1      40.721  29.977  29.616  1.00  0.00     0.074 A 
ATOM     36  C   UNL A   1      40.301  27.692  28.736  1.00  0.00     0.049 A 
ATOM     37  N   UNL A   1      42.001  29.931  29.870  1.00  0.00    -0.248 NA
ATOM     38  C   UNL A   1      40.083  31.259  29.955  1.00  0.00     0.031 C 
ATOM     39  C   UNL A   1      39.502  26.605  28.159  1.00  0.00     0.029 A 
ATOM     40  N   UNL A   1      41.549  27.145  28.874  1.00  0.00    -0.354 N 
ATOM     41  C   UNL A   1      42.328  31.181  30.380  1.00  0.00     0.074 A 
ATOM     42  C   UNL A   1      41.118  31.972  30.378  1.00  0.00     0.031 C 
ATOM     43  C   UNL A   1      40.281  25.524  27.995  1.00  0.00     0.029 A 
ATOM     44  C   UNL A   1      41.640  25.856  28.404  1.00  0.00     0.049 A 
ATOM     45  H   UNL A   1      42.309  27.630  29.270  1.00  0.00     0.167 HD
ATOM     46  C   UNL A   1      43.535  31.616  30.809  1.00  0.00     0.037 A 
ATOM     47  C   UNL A   1      42.710  25.048  28.290  1.00  0.00     0.037 A 
ATOM     48  C   UNL A   1      44.721  30.797  30.800  1.00  0.00     0.049 A 
ATOM     49  C   UNL A   1      44.046  25.573  28.740  1.00  0.00     0.074 A 
ATOM     50  C   UNL A   1      45.993  31.118  31.238  1.00  0.00     0.029 A 
ATOM     51  N   UNL A   1      44.778  29.494  30.319  1.00  0.00    -0.354 N 
ATOM     52  N   UNL A   1      44.339  26.747  29.253  1.00  0.00    -0.248 NA
ATOM     53  C   UNL A   1      45.197  24.673  28.598  1.00  0.00     0.031 C 
ATOM     54  C   UNL A   1      46.830  30.029  30.974  1.00  0.00     0.029 A 
ATOM     55  C   UNL A   1      46.069  29.007  30.425  1.00  0.00     0.049 A 
ATOM     56  H   UNL A   1      44.014  28.992  29.957  1.00  0.00     0.167 HD
ATOM     57  C   UNL A   1      45.703  26.719  29.514  1.00  0.00     0.074 A 
ATOM     58  C   UNL A   1      46.172  25.404  29.121  1.00  0.00     0.031 C 
ATOM     59  C   UNL A   1      46.500  27.689  30.027  1.00  0.00     0.037 A 
BRANCH  46  60
ATOM     60  C   UNL A   1      43.640  33.034  31.299  1.00  0.00     0.058 A 
ATOM     61  C   UNL A   1      43.536  33.357  32.662  1.00  0.00     0.135 A 
ATOM     62  C   UNL A   1      43.891  34.080  30.397  1.00  0.00     0.135 A 
ATOM     63  F   UNL A   1      43.275  32.401  33.567  1.00  0.00    -0.206 F 
ATOM     64  C   UNL A   1      43.662  34.669  33.110  1.00  0.00     0.059 A 
ATOM     65  C   UNL A   1      44.046  35.396  30.826  1.00  0.00     0.059 A 
ATOM     66  F   UNL A   1      43.990  33.830  29.083  1.00  0.00    -0.206 F 
ATOM     67  C   UNL A   1      43.922  35.681  32.185  1.00  0.00     0.060 A 
BRANCH  67  68
ATOM     68  S   UNL A   1      44.107  37.372  32.788  1.00  0.00     0.124 S 
ATOM     69  O   UNL A   1      43.943  38.142  31.559  1.00  0.00    -0.237 OA
ATOM     70  O   UNL A   1      43.017  37.480  33.752  1.00  0.00    -0.237 OA
ATOM     71  O   UNL A   1      45.450  37.386  33.361  1.00  0.00    -0.744 OA
ENDBRANCH  67  68
ENDBRANCH  46  60
BRANCH  47  72
ATOM     72  C   UNL A   1      42.567  23.681  27.719  1.00  0.00     0.058 A 
ATOM     73  C   UNL A   1      42.416  22.562  28.550  1.00  0.00     0.135 A 
ATOM     74  C   UNL A   1      42.575  23.464  26.331  1.00  0.00     0.135 A 
ATOM     75  F   UNL A   1      42.405  22.714  29.883  1.00  0.00    -0.206 F 
ATOM     76  C   UNL A   1      42.304  21.275  28.031  1.00  0.00     0.059 A 
ATOM     77  C   UNL A   1      42.434  22.190  25.787  1.00  0.00     0.059 A 
ATOM     78  F   UNL A   1      42.700  24.500  25.487  1.00  0.00    -0.206 F 
ATOM     79  C   UNL A   1      42.314  21.100  26.647  1.00  0.00     0.060 A 
BRANCH  79  80
ATOM     80  S   UNL A   1      42.146  19.427  25.984  1.00  0.00     0.124 S 
ATOM     81  O   UNL A   1      40.708  19.343  25.763  1.00  0.00    -0.237 OA
ATOM     82  O   UNL A   1      42.975  19.488  24.785  1.00  0.00    -0.237 OA
ATOM     83  O   UNL A   1      42.671  18.587  27.057  1.00  0.00    -0.744 OA
ENDBRANCH  79  80
ENDBRANCH  47  72
BRANCH  59  84
ATOM     84  C   UNL A   1      47.951  27.348  30.219  1.00  0.00     0.058 A 
ATOM     85  C   UNL A   1      48.910  27.634  29.236  1.00  0.00     0.135 A 
ATOM     86  C   UNL A   1      48.390  26.772  31.422  1.00  0.00     0.135 A 
ATOM     87  F   UNL A   1      48.539  28.177  28.066  1.00  0.00    -0.206 F 
ATOM     88  C   UNL A   1      50.255  27.337  29.430  1.00  0.00     0.059 A 
ATOM     89  C   UNL A   1      49.734  26.497  31.649  1.00  0.00     0.059 A 
ATOM     90  F   UNL A   1      47.512  26.488  32.397  1.00  0.00    -0.206 F 
ATOM     91  C   UNL A   1      50.657  26.772  30.641  1.00  0.00     0.060 A 
BRANCH  91  92
ATOM     92  S   UNL A   1      52.410  26.426  30.892  1.00  0.00     0.124 S 
ATOM     93  O   UNL A   1      52.882  26.296  29.517  1.00  0.00    -0.237 OA
ATOM     94  O   UNL A   1      52.863  27.614  31.608  1.00  0.00    -0.237 OA
ATOM     95  O   UNL A   1      52.404  25.192  31.674  1.00  0.00    -0.744 OA
ENDBRANCH  91  92
ENDBRANCH  59  84
ENDBRANCH  33  34
ENDBRANCH  26  28
ENDBRANCH  25  26
ENDBRANCH  24  25
ENDBRANCH   1  24
TORSDOF 19
ENDMDL
MODEL 2
REMARK VINA RESULT:      -9.6      3.003      8.667
REMARK SMILES COc1ccc(C(=O)NNC(=O)CCC(=O)OCCOC(=O)c2ccc(-c3c4nc(c(-c5c(F)cc(S(=O)(=O)[O-])cc5F)c5ccc([nH]5)c(-c5c(F)cc(S(=O)(=O)[O-])cc5F)c5nc(c(-c6c(F)cc(S(=O)(=O)[O-])cc6F)c6ccc3[nH]6)C=C5)C=C4)cc2)cc1Br
REMARK SMILES IDX 18 1 17 2 15 3 16 4 14 5 13 6 11 7 10 8 12 10 9 11 7 12 8 13
REMARK SMILES IDX 6 15 3 16 4 17 90 18 5 19 89 20 91 21 2 22 1 23 19 24 20 25
REMARK SMILES IDX 21 26 22 27 23 28 24 29 88 30 25 31 87 32 26 33 27 34 28 35
REMARK SMILES IDX 81 36 29 37 86 38 80 39 82 40 30 41 85 42 79 43 78 44 31 46
REMARK SMILES IDX 65 47 44 48 64 49 45 50 48 51 63 52 83 53 46 54 47 55 62 57
REMARK SMILES IDX 84 58 49 59 32 60 33 61 42 62 34 63 35 64 41 65 43 66 36 67
REMARK SMILES IDX 37 68 38 69 39 70 40 71 66 72 67 73 76 74 68 75 69 76 75 77
REMARK SMILES IDX 77 78 70 79 71 80 72 81 73 82 74 83 50 84 51 85 60 86 52 87
REMARK SMILES IDX 53 88 59 89 61 90 54 91 55 92 56 93 57 94 58 95
REMARK H PARENT 10 9 9 14 82 45 48 56
REMARK Flexibility Score: inf
ROOT
ATOM      1  C   UNL A   1      33.580  33.977  28.385  1.00  0.00     0.274 C 
ENDROOT
BRANCH   1   2
ATOM      2  O   UNL A   1      33.221  34.581  29.643  1.00  0.00    -0.462 OA
BRANCH   2   3
ATOM      3  C   UNL A   1      32.898  35.898  29.600  1.00  0.00     0.306 C 
ATOM      4  O   UNL A   1      32.197  36.424  28.746  1.00  0.00    -0.252 OA
BRANCH   3   5
ATOM      5  C   UNL A   1      33.547  36.680  30.715  1.00  0.00     0.132 C 
BRANCH   5   6
ATOM      6  C   UNL A   1      32.699  36.765  31.973  1.00  0.00     0.113 C 
BRANCH   6   7
ATOM      7  C   UNL A   1      33.515  36.580  33.230  1.00  0.00     0.238 C 
ATOM      8  N   UNL A   1      33.847  35.329  33.672  1.00  0.00    -0.267 N 
ATOM      9  H   UNL A   1      34.267  35.268  34.561  1.00  0.00     0.191 HD
ATOM     10  O   UNL A   1      33.861  37.554  33.903  1.00  0.00    -0.273 OA
BRANCH   8  11
ATOM     11  N   UNL A   1      33.651  34.142  32.992  1.00  0.00    -0.264 N 
ATOM     12  C   UNL A   1      34.609  33.382  32.348  1.00  0.00     0.269 C 
ATOM     13  O   UNL A   1      34.294  32.242  31.987  1.00  0.00    -0.267 OA
ATOM     14  H   UNL A   1      32.728  33.802  32.964  1.00  0.00     0.191 HD
BRANCH  12  15
ATOM     15  C   UNL A   1      36.010  33.815  32.041  1.00  0.00     0.042 A 
ATOM     16  C   UNL A   1      38.675  34.281  31.238  1.00  0.00     0.133 A 
ATOM     17  C   UNL A   1      37.708  33.994  30.281  1.00  0.00     0.048 A 
ATOM     18  C   UNL A   1      38.296  34.456  32.570  1.00  0.00     0.060 A 
ATOM     19  C   UNL A   1      36.392  33.756  30.683  1.00  0.00     0.018 A 
ATOM     20  C   UNL A   1      36.972  34.223  32.969  1.00  0.00     0.033 A 
ATOM     21  Br  UNL A   1      39.528  35.024  33.900  1.00  0.00    -0.047 Br
BRANCH  16  22
ATOM     22  O   UNL A   1      39.969  34.399  30.804  1.00  0.00    -0.496 OA
ATOM     23  C   UNL A   1      39.995  34.861  29.449  1.00  0.00     0.278 C 
ENDBRANCH  16  22
ENDBRANCH  12  15
ENDBRANCH   8  11
ENDBRANCH   6   7
ENDBRANCH   5   6
ENDBRANCH   3   5
ENDBRANCH   2   3
ENDBRANCH   1   2
BRANCH   1  24
ATOM     24  C   UNL A   1      33.704  32.457  28.482  1.00  0.00     0.275 C 
BRANCH  24  25
ATOM     25  O   UNL A   1      34.879  31.974  27.822  1.00  0.00    -0.458 OA
BRANCH  25  26
ATOM     26  C   UNL A   1      34.920  30.641  27.582  1.00  0.00     0.338 C 
ATOM     27  O   UNL A   1      34.145  29.954  26.952  1.00  0.00    -0.246 OA
BRANCH  26  28
ATOM     28  C   UNL A   1      36.169  30.149  28.167  1.00  0.00     0.060 A 
ATOM     29  C   UNL A   1      37.376  30.404  27.511  1.00  0.00     0.016 A 
ATOM     30  C   UNL A   1      36.128  29.488  29.393  1.00  0.00     0.016 A 
ATOM     31  C   UNL A   1      38.570  30.024  28.110  1.00  0.00     0.010 A 
ATOM     32  C   UNL A   1      37.326  29.135  30.004  1.00  0.00     0.010 A 
ATOM     33  C   UNL A   1      38.550  29.420  29.374  1.00  0.00    -0.014 A 
BRANCH  33  34
ATOM     34  C   UNL A   1      39.815  29.132  30.079  1.00  0.00     0.031 A 
ATOM     35  C   UNL A   1      40.709  28.041  29.579  1.00  0.00     0.074 A 
ATOM     36  C   UNL A   1      40.103  29.830  31.194  1.00  0.00     0.049 A 
ATOM     37  N   UNL A   1      41.792  27.553  30.119  1.00  0.00    -0.248 NA
ATOM     38  C   UNL A   1      40.326  27.403  28.309  1.00  0.00     0.031 C 
ATOM     39  C   UNL A   1      39.283  30.913  31.746  1.00  0.00     0.029 A 
ATOM     40  N   UNL A   1      41.150  29.729  32.072  1.00  0.00    -0.354 N 
ATOM     41  C   UNL A   1      42.213  26.538  29.269  1.00  0.00     0.074 A 
ATOM     42  C   UNL A   1      41.255  26.464  28.188  1.00  0.00     0.031 C 
ATOM     43  C   UNL A   1      39.861  31.376  32.867  1.00  0.00     0.029 A 
ATOM     44  C   UNL A   1      41.057  30.590  33.140  1.00  0.00     0.049 A 
ATOM     45  H   UNL A   1      41.897  29.099  31.950  1.00  0.00     0.167 HD
ATOM     46  C   UNL A   1      43.304  25.747  29.391  1.00  0.00     0.037 A 
ATOM     47  C   UNL A   1      41.838  30.707  34.230  1.00  0.00     0.037 A 
ATOM     48  C   UNL A   1      44.239  25.852  30.481  1.00  0.00     0.049 A 
ATOM     49  C   UNL A   1      43.022  29.788  34.355  1.00  0.00     0.074 A 
ATOM     50  C   UNL A   1      45.397  25.126  30.696  1.00  0.00     0.029 A 
ATOM     51  N   UNL A   1      44.118  26.737  31.546  1.00  0.00    -0.354 N 
ATOM     52  N   UNL A   1      43.430  28.853  33.528  1.00  0.00    -0.248 NA
ATOM     53  C   UNL A   1      43.852  29.933  35.558  1.00  0.00     0.031 C 
ATOM     54  C   UNL A   1      45.947  25.536  31.915  1.00  0.00     0.029 A 
ATOM     55  C   UNL A   1      45.164  26.558  32.433  1.00  0.00     0.049 A 
ATOM     56  H   UNL A   1      43.394  27.395  31.653  1.00  0.00     0.167 HD
ATOM     57  C   UNL A   1      44.575  28.312  34.099  1.00  0.00     0.074 A 
ATOM     58  C   UNL A   1      44.805  29.040  35.332  1.00  0.00     0.031 C 
ATOM     59  C   UNL A   1      45.365  27.304  33.651  1.00  0.00     0.037 A 
BRANCH  46  60
ATOM     60  C   UNL A   1      43.530  24.693  28.342  1.00  0.00     0.058 A 
ATOM     61  C   UNL A   1      43.048  23.383  28.491  1.00  0.00     0.135 A 
ATOM     62  C   UNL A   1      44.202  25.010  27.150  1.00  0.00     0.135 A 
ATOM     63  F   UNL A   1      42.418  23.018  29.619  1.00  0.00    -0.206 F 
ATOM     64  C   UNL A   1      43.239  22.420  27.504  1.00  0.00     0.059 A 
ATOM     65  C   UNL A   1      44.381  24.071  26.139  1.00  0.00     0.059 A 
ATOM     66  F   UNL A   1      44.692  26.245  26.959  1.00  0.00    -0.206 F 
ATOM     67  C   UNL A   1      43.902  22.776  26.329  1.00  0.00     0.060 A 
BRANCH  67  68
ATOM     68  S   UNL A   1      44.117  21.522  25.048  1.00  0.00     0.124 S 
ATOM     69  O   UNL A   1      44.017  22.323  23.833  1.00  0.00    -0.237 OA
ATOM     70  O   UNL A   1      45.443  20.993  25.350  1.00  0.00    -0.237 OA
ATOM     71  O   UNL A   1      43.009  20.600  25.283  1.00  0.00    -0.744 OA
ENDBRANCH  67  68
ENDBRANCH  46  60
BRANCH  47  72
ATOM     72  C   UNL A   1      41.520  31.711  35.281  1.00  0.00     0.058 A 
ATOM     73  C   UNL A   1      42.268  32.891  35.406  1.00  0.00     0.135 A 
ATOM     74  C   UNL A   1      40.460  31.515  36.183  1.00  0.00     0.135 A 
ATOM     75  F   UNL A   1      43.293  33.125  34.572  1.00  0.00    -0.206 F 
ATOM     76  C   UNL A   1      41.998  33.828  36.399  1.00  0.00     0.059 A 
ATOM     77  C   UNL A   1      40.151  32.452  37.166  1.00  0.00     0.059 A 
ATOM     78  F   UNL A   1      39.700  30.413  36.101  1.00  0.00    -0.206 F 
ATOM     79  C   UNL A   1      40.936  33.598  37.275  1.00  0.00     0.060 A 
BRANCH  79  80
ATOM     80  S   UNL A   1      40.580  34.832  38.546  1.00  0.00     0.124 S 
ATOM     81  O   UNL A   1      41.537  35.880  38.213  1.00  0.00    -0.237 OA
ATOM     82  O   UNL A   1      39.177  35.141  38.289  1.00  0.00    -0.237 OA
ATOM     83  O   UNL A   1      40.837  34.114  39.791  1.00  0.00    -0.744 OA
ENDBRANCH  79  80
ENDBRANCH  47  72
BRANCH  59  84
ATOM     84  C   UNL A   1      46.564  26.957  34.487  1.00  0.00     0.058 A 
ATOM     85  C   UNL A   1      46.504  25.974  35.487  1.00  0.00     0.135 A 
ATOM     86  C   UNL A   1      47.799  27.581  34.248  1.00  0.00     0.135 A 
ATOM     87  F   UNL A   1      45.345  25.355  35.758  1.00  0.00    -0.206 F 
ATOM     88  C   UNL A   1      47.625  25.641  36.240  1.00  0.00     0.059 A 
ATOM     89  C   UNL A   1      48.938  27.240  34.968  1.00  0.00     0.059 A 
ATOM     90  F   UNL A   1      47.910  28.520  33.294  1.00  0.00    -0.206 F 
ATOM     91  C   UNL A   1      48.838  26.277  35.970  1.00  0.00     0.060 A 
BRANCH  91  92
ATOM     92  S   UNL A   1      50.290  25.808  36.932  1.00  0.00     0.124 S 
ATOM     93  O   UNL A   1      50.612  27.061  37.608  1.00  0.00    -0.237 OA
ATOM     94  O   UNL A   1      49.769  24.744  37.785  1.00  0.00    -0.237 OA
ATOM     95  O   UNL A   1      51.246  25.378  35.916  1.00  0.00    -0.744 OA
ENDBRANCH  91  92
ENDBRANCH  59  84
ENDBRANCH  33  34
ENDBRANCH  26  28
ENDBRANCH  25  26
ENDBRANCH  24  25
ENDBRANCH   1  24
TORSDOF 19
ENDMDL
MODEL 3
REMARK VINA RESULT:      -9.5      2.743      3.393
REMARK SMILES COc1ccc(C(=O)NNC(=O)CCC(=O)OCCOC(=O)c2ccc(-c3c4nc(c(-c5c(F)cc(S(=O)(=O)[O-])cc5F)c5ccc([nH]5)c(-c5c(F)cc(S(=O)(=O)[O-])cc5F)c5nc(c(-c6c(F)cc(S(=O)(=O)[O-])cc6F)c6ccc3[nH]6)C=C5)C=C4)cc2)cc1Br
REMARK SMILES IDX 18 1 17 2 15 3 16 4 14 5 13 6 11 7 10 8 12 10 9 11 7 12 8 13
REMARK SMILES IDX 6 15 3 16 4 17 90 18 5 19 89 20 91 21 2 22 1 23 19 24 20 25
REMARK SMILES IDX 21 26 22 27 23 28 24 29 88 30 25 31 87 32 26 33 27 34 28 35
REMARK SMILES IDX 81 36 29 37 86 38 80 39 82 40 30 41 85 42 79 43 78 44 31 46
REMARK SMILES IDX 65 47 44 48 64 49 45 50 48 51 63 52 83 53 46 54 47 55 62 57
REMARK SMILES IDX 84 58 49 59 32 60 33 61 42 62 34 63 35 64 41 65 43 66 36 67
REMARK SMILES IDX 37 68 38 69 39 70 40 71 66 72 67 73 76 74 68 75 69 76 75 77
REMARK SMILES IDX 77 78 70 79 71 80 72 81 73 82 74 83 50 84 51 85 60 86 52 87
REMARK SMILES IDX 53 88 59 89 61 90 54 91 55 92 56 93 57 94 58 95
REMARK H PARENT 10 9 9 14 82 45 48 56
REMARK Flexibility Score: inf
ROOT
ATOM      1  C   UNL A   1      34.570  33.525  28.148  1.00  0.00     0.274 C 
ENDROOT
BRANCH   1   2
ATOM      2  O   UNL A   1      34.400  34.936  28.386  1.00  0.00    -0.462 OA
BRANCH   2   3
ATOM      3  C   UNL A   1      33.529  35.272  29.370  1.00  0.00     0.306 C 
ATOM      4  O   UNL A   1      32.607  34.571  29.765  1.00  0.00    -0.252 OA
BRANCH   3   5
ATOM      5  C   UNL A   1      33.790  36.655  29.913  1.00  0.00     0.132 C 
BRANCH   5   6
ATOM      6  C   UNL A   1      32.814  37.078  30.999  1.00  0.00     0.113 C 
BRANCH   6   7
ATOM      7  C   UNL A   1      33.481  37.218  32.347  1.00  0.00     0.238 C 
ATOM      8  N   UNL A   1      33.568  36.151  33.198  1.00  0.00    -0.267 N 
ATOM      9  H   UNL A   1      33.896  36.334  34.109  1.00  0.00     0.191 HD
ATOM     10  O   UNL A   1      33.921  38.308  32.720  1.00  0.00    -0.273 OA
BRANCH   8  11
ATOM     11  N   UNL A   1      33.242  34.841  32.906  1.00  0.00    -0.264 N 
ATOM     12  C   UNL A   1      34.099  33.757  32.864  1.00  0.00     0.269 C 
ATOM     13  O   UNL A   1      33.599  32.628  32.806  1.00  0.00    -0.267 OA
ATOM     14  H   UNL A   1      32.296  34.660  32.705  1.00  0.00     0.191 HD
BRANCH  12  15
ATOM     15  C   UNL A   1      35.596  33.823  32.882  1.00  0.00     0.042 A 
ATOM     16  C   UNL A   1      38.369  34.206  33.241  1.00  0.00     0.133 A 
ATOM     17  C   UNL A   1      37.580  33.831  34.323  1.00  0.00     0.048 A 
ATOM     18  C   UNL A   1      37.805  34.269  31.966  1.00  0.00     0.060 A 
ATOM     19  C   UNL A   1      36.207  33.650  34.143  1.00  0.00     0.018 A 
ATOM     20  C   UNL A   1      36.426  34.081  31.788  1.00  0.00     0.033 A 
ATOM     21  Br  UNL A   1      38.853  34.599  30.417  1.00  0.00    -0.047 Br
BRANCH  16  22
ATOM     22  O   UNL A   1      39.688  34.475  33.492  1.00  0.00    -0.496 OA
ATOM     23  C   UNL A   1      39.813  35.277  34.672  1.00  0.00     0.278 C 
ENDBRANCH  16  22
ENDBRANCH  12  15
ENDBRANCH   8  11
ENDBRANCH   6   7
ENDBRANCH   5   6
ENDBRANCH   3   5
ENDBRANCH   2   3
ENDBRANCH   1   2
BRANCH   1  24
ATOM     24  C   UNL A   1      36.040  33.107  28.147  1.00  0.00     0.275 C 
BRANCH  24  25
ATOM     25  O   UNL A   1      36.190  31.684  28.186  1.00  0.00    -0.458 OA
BRANCH  25  26
ATOM     26  C   UNL A   1      36.528  31.155  29.388  1.00  0.00     0.338 C 
ATOM     27  O   UNL A   1      35.890  31.127  30.418  1.00  0.00    -0.246 OA
BRANCH  26  28
ATOM     28  C   UNL A   1      37.830  30.510  29.208  1.00  0.00     0.060 A 
ATOM     29  C   UNL A   1      38.171  29.999  27.953  1.00  0.00     0.016 A 
ATOM     30  C   UNL A   1      38.721  30.470  30.280  1.00  0.00     0.016 A 
ATOM     31  C   UNL A   1      39.440  29.474  27.753  1.00  0.00     0.010 A 
ATOM     32  C   UNL A   1      40.000  29.970  30.069  1.00  0.00     0.010 A 
ATOM     33  C   UNL A   1      40.370  29.489  28.801  1.00  0.00    -0.014 A 
BRANCH  33  34
ATOM     34  C   UNL A   1      41.762  29.055  28.565  1.00  0.00     0.031 A 
ATOM     35  C   UNL A   1      42.866  30.064  28.588  1.00  0.00     0.074 A 
ATOM     36  C   UNL A   1      41.991  27.759  28.278  1.00  0.00     0.049 A 
ATOM     37  N   UNL A   1      44.127  29.911  28.288  1.00  0.00    -0.248 NA
ATOM     38  C   UNL A   1      42.502  31.433  28.989  1.00  0.00     0.031 C 
ATOM     39  C   UNL A   1      40.966  26.711  28.238  1.00  0.00     0.029 A 
ATOM     40  N   UNL A   1      43.148  27.103  27.953  1.00  0.00    -0.354 N 
ATOM     41  C   UNL A   1      44.707  31.164  28.443  1.00  0.00     0.074 A 
ATOM     42  C   UNL A   1      43.655  32.073  28.842  1.00  0.00     0.031 C 
ATOM     43  C   UNL A   1      41.543  25.543  27.910  1.00  0.00     0.029 A 
ATOM     44  C   UNL A   1      42.961  25.771  27.664  1.00  0.00     0.049 A 
ATOM     45  H   UNL A   1      44.028  27.542  27.927  1.00  0.00     0.167 HD
ATOM     46  C   UNL A   1      46.002  31.511  28.266  1.00  0.00     0.037 A 
ATOM     47  C   UNL A   1      43.836  24.848  27.222  1.00  0.00     0.037 A 
ATOM     48  C   UNL A   1      47.025  30.576  27.871  1.00  0.00     0.049 A 
ATOM     49  C   UNL A   1      45.262  25.274  26.998  1.00  0.00     0.074 A 
ATOM     50  C   UNL A   1      48.377  30.804  27.690  1.00  0.00     0.029 A 
ATOM     51  N   UNL A   1      46.803  29.233  27.589  1.00  0.00    -0.354 N 
ATOM     52  N   UNL A   1      45.807  26.455  27.180  1.00  0.00    -0.248 NA
ATOM     53  C   UNL A   1      46.192  24.249  26.509  1.00  0.00     0.031 C 
ATOM     54  C   UNL A   1      48.963  29.613  27.248  1.00  0.00     0.029 A 
ATOM     55  C   UNL A   1      47.988  28.627  27.210  1.00  0.00     0.049 A 
ATOM     56  H   UNL A   1      45.932  28.780  27.650  1.00  0.00     0.167 HD
ATOM     57  C   UNL A   1      47.148  26.311  26.848  1.00  0.00     0.074 A 
ATOM     58  C   UNL A   1      47.334  24.922  26.475  1.00  0.00     0.031 C 
ATOM     59  C   UNL A   1      48.137  27.239  26.847  1.00  0.00     0.037 A 
BRANCH  46  60
ATOM     60  C   UNL A   1      46.380  32.951  28.474  1.00  0.00     0.058 A 
ATOM     61  C   UNL A   1      46.814  33.432  29.720  1.00  0.00     0.135 A 
ATOM     62  C   UNL A   1      46.350  33.855  27.400  1.00  0.00     0.135 A 
ATOM     63  F   UNL A   1      46.843  32.618  30.787  1.00  0.00    -0.206 F 
ATOM     64  C   UNL A   1      47.189  34.760  29.898  1.00  0.00     0.059 A 
ATOM     65  C   UNL A   1      46.745  35.182  27.549  1.00  0.00     0.059 A 
ATOM     66  F   UNL A   1      45.935  33.453  26.189  1.00  0.00    -0.206 F 
ATOM     67  C   UNL A   1      47.156  35.627  28.804  1.00  0.00     0.060 A 
BRANCH  67  68
ATOM     68  S   UNL A   1      47.670  37.340  29.047  1.00  0.00     0.124 S 
ATOM     69  O   UNL A   1      46.885  38.030  28.028  1.00  0.00    -0.237 OA
ATOM     70  O   UNL A   1      47.274  37.591  30.429  1.00  0.00    -0.237 OA
ATOM     71  O   UNL A   1      49.110  37.302  28.808  1.00  0.00    -0.744 OA
ENDBRANCH  67  68
ENDBRANCH  46  60
BRANCH  47  72
ATOM     72  C   UNL A   1      43.390  23.455  26.951  1.00  0.00     0.058 A 
ATOM     73  C   UNL A   1      43.133  22.560  28.000  1.00  0.00     0.135 A 
ATOM     74  C   UNL A   1      43.210  22.986  25.639  1.00  0.00     0.135 A 
ATOM     75  F   UNL A   1      43.294  22.956  29.272  1.00  0.00    -0.206 F 
ATOM     76  C   UNL A   1      42.739  21.247  27.762  1.00  0.00     0.059 A 
ATOM     77  C   UNL A   1      42.787  21.686  25.375  1.00  0.00     0.059 A 
ATOM     78  F   UNL A   1      43.426  23.803  24.596  1.00  0.00    -0.206 F 
ATOM     79  C   UNL A   1      42.568  20.819  26.444  1.00  0.00     0.060 A 
BRANCH  79  80
ATOM     80  S   UNL A   1      42.035  19.119  26.147  1.00  0.00     0.124 S 
ATOM     81  O   UNL A   1      42.854  18.751  24.999  1.00  0.00    -0.237 OA
ATOM     82  O   UNL A   1      42.373  18.467  27.409  1.00  0.00    -0.237 OA
ATOM     83  O   UNL A   1      40.605  19.257  25.886  1.00  0.00    -0.744 OA
ENDBRANCH  79  80
ENDBRANCH  47  72
BRANCH  59  84
ATOM     84  C   UNL A   1      49.511  26.768  26.458  1.00  0.00     0.058 A 
ATOM     85  C   UNL A   1      49.989  26.899  25.146  1.00  0.00     0.135 A 
ATOM     86  C   UNL A   1      50.374  26.227  27.424  1.00  0.00     0.135 A 
ATOM     87  F   UNL A   1      49.199  27.403  24.185  1.00  0.00    -0.206 F 
ATOM     88  C   UNL A   1      51.270  26.484  24.798  1.00  0.00     0.059 A 
ATOM     89  C   UNL A   1      51.669  25.835  27.105  1.00  0.00     0.059 A 
ATOM     90  F   UNL A   1      49.966  26.091  28.697  1.00  0.00    -0.206 F 
ATOM     91  C   UNL A   1      52.103  25.957  25.786  1.00  0.00     0.060 A 
BRANCH  91  92
ATOM     92  S   UNL A   1      53.775  25.456  25.327  1.00  0.00     0.124 S 
ATOM     93  O   UNL A   1      54.185  26.558  24.464  1.00  0.00    -0.237 OA
ATOM     94  O   UNL A   1      54.444  25.381  26.622  1.00  0.00    -0.237 OA
ATOM     95  O   UNL A   1      53.573  24.174  24.657  1.00  0.00    -0.744 OA
ENDBRANCH  91  92
ENDBRANCH  59  84
ENDBRANCH  33  34
ENDBRANCH  26  28
ENDBRANCH  25  26
ENDBRANCH  24  25
ENDBRANCH   1  24
TORSDOF 19
ENDMDL
