MODEL 1
REMARK VINA RESULT:     -11.1      0.000      0.000
REMARK SMILES Cc1ccc(S(=O)(=O)N[C@@H](Cc2cccc(F)c2)C(=O)OCCOC(=O)c2ccc(-c3c4nc(c(-c5c(F)cc(S(=O)(=O)[O-])cc5F)c5ccc([nH]5)c(-c5c(F)cc(S(=O)(=O)[O-])cc5F)c5nc(c(-c6c(F)cc(S(=O)(=O)[O-])cc6F)c6ccc3[nH]6)C=C5)C=C4)cc2)cc1
REMARK SMILES IDX 22 1 21 2 19 3 20 4 10 5 9 6 6 8 7 9 8 10 5 11 1 12 2 13
REMARK SMILES IDX 3 14 94 15 4 16 93 17 11 18 12 19 13 20 18 21 14 22 16 23
REMARK SMILES IDX 15 24 17 25 23 26 24 27 25 28 26 29 27 30 28 31 92 32 29 33
REMARK SMILES IDX 91 34 30 35 31 36 32 37 85 38 33 39 90 40 84 41 86 42 34 43
REMARK SMILES IDX 89 44 83 45 82 46 35 48 69 49 48 50 68 51 49 52 52 53 67 54
REMARK SMILES IDX 87 55 50 56 51 57 66 59 88 60 53 61 36 62 37 63 46 64 38 65
REMARK SMILES IDX 39 66 45 67 47 68 40 69 41 70 42 71 43 72 44 73 70 74 71 75
REMARK SMILES IDX 80 76 72 77 73 78 79 79 81 80 74 81 75 82 76 83 77 84 78 85
REMARK SMILES IDX 54 86 55 87 64 88 56 89 57 90 63 91 65 92 58 93 59 94 60 95
REMARK SMILES IDX 61 96 62 97
REMARK H PARENT 9 7 86 47 52 58
REMARK Flexibility Score: inf
ROOT
ATOM      1  C   UNL A   1      46.898  29.226  26.421  1.00  0.00     0.274 C 
ENDROOT
BRANCH   1   2
ATOM      2  O   UNL A   1      46.389  30.314  25.681  1.00  0.00    -0.461 OA
BRANCH   2   3
ATOM      3  C   UNL A   1      45.553  31.252  26.444  1.00  0.00     0.324 C 
ATOM      4  O   UNL A   1      46.063  32.389  26.213  1.00  0.00    -0.250 OA
BRANCH   3   5
ATOM      5  C   UNL A   1      43.954  30.609  27.784  1.00  0.00     0.184 C 
BRANCH   5   6
ATOM      6  N   UNL A   1      43.310  28.993  27.972  1.00  0.00    -0.197 NA
ATOM      7  H   UNL A   1      44.060  28.369  27.674  1.00  0.00     0.142 HD
BRANCH   6   8
ATOM      8  S   UNL A   1      41.896  28.388  27.220  1.00  0.00     0.241 S 
ATOM      9  O   UNL A   1      42.017  26.960  27.038  1.00  0.00    -0.207 OA
ATOM     10  O   UNL A   1      41.755  29.228  26.045  1.00  0.00    -0.207 OA
BRANCH   8  11
ATOM     11  C   UNL A   1      40.433  28.672  28.177  1.00  0.00     0.082 A 
ATOM     12  C   UNL A   1      37.072  29.646  30.705  1.00  0.00     0.044 C 
ATOM     13  C   UNL A   1      38.232  29.276  29.828  1.00  0.00    -0.051 A 
ATOM     14  C   UNL A   1      39.383  28.694  30.374  1.00  0.00     0.005 A 
ATOM     15  C   UNL A   1      38.180  29.500  28.449  1.00  0.00     0.005 A 
ATOM     16  C   UNL A   1      40.482  28.402  29.555  1.00  0.00     0.022 A 
ATOM     17  C   UNL A   1      39.267  29.180  27.631  1.00  0.00     0.022 A 
ENDBRANCH   8  11
ENDBRANCH   6   8
ENDBRANCH   5   6
BRANCH   5  18
ATOM     18  C   UNL A   1      43.750  31.131  29.529  1.00  0.00     0.067 C 
BRANCH  18  19
ATOM     19  C   UNL A   1      42.855  32.351  29.842  1.00  0.00    -0.043 A 
ATOM     20  C   UNL A   1      41.284  31.825  30.566  1.00  0.00     0.004 A 
ATOM     21  C   UNL A   1      42.944  34.049  29.005  1.00  0.00     0.043 A 
ATOM     22  C   UNL A   1      39.870  32.879  30.480  1.00  0.00     0.003 A 
ATOM     23  C   UNL A   1      41.523  35.131  29.044  1.00  0.00     0.123 A 
ATOM     24  C   UNL A   1      39.996  34.524  29.762  1.00  0.00     0.039 A 
ATOM     25  F   UNL A   1      41.560  36.292  28.371  1.00  0.00    -0.207 F 
ENDBRANCH  18  19
ENDBRANCH   5  18
ENDBRANCH   3   5
ENDBRANCH   2   3
ENDBRANCH   1   2
BRANCH   1  26
ATOM     26  C   UNL A   1      46.436  27.957  25.697  1.00  0.00     0.275 C 
BRANCH  26  27
ATOM     27  O   UNL A   1      46.124  26.777  26.533  1.00  0.00    -0.458 OA
BRANCH  27  28
ATOM     28  C   UNL A   1      46.517  25.485  26.299  1.00  0.00     0.338 C 
ATOM     29  O   UNL A   1      46.798  25.024  25.204  1.00  0.00    -0.246 OA
BRANCH  28  30
ATOM     30  C   UNL A   1      46.563  24.639  27.546  1.00  0.00     0.060 A 
ATOM     31  C   UNL A   1      45.063  23.839  28.078  1.00  0.00     0.016 A 
ATOM     32  C   UNL A   1      47.606  25.413  28.718  1.00  0.00     0.016 A 
ATOM     33  C   UNL A   1      44.418  24.025  29.775  1.00  0.00     0.010 A 
ATOM     34  C   UNL A   1      47.026  25.630  30.385  1.00  0.00     0.010 A 
ATOM     35  C   UNL A   1      45.329  25.062  30.922  1.00  0.00    -0.014 A 
BRANCH  35  36
ATOM     36  C   UNL A   1      44.730  25.434  32.518  1.00  0.00     0.031 A 
ATOM     37  C   UNL A   1      44.190  27.430  33.099  1.00  0.00     0.074 A 
ATOM     38  C   UNL A   1      44.436  24.048  32.907  1.00  0.00     0.049 A 
ATOM     39  N   UNL A   1      44.106  28.103  34.281  1.00  0.00    -0.248 NA
ATOM     40  C   UNL A   1      43.659  28.754  32.126  1.00  0.00     0.031 C 
ATOM     41  C   UNL A   1      43.380  23.435  33.818  1.00  0.00     0.029 A 
ATOM     42  N   UNL A   1      45.424  23.040  33.019  1.00  0.00    -0.354 N 
ATOM     43  C   UNL A   1      43.111  29.058  34.254  1.00  0.00     0.074 A 
ATOM     44  C   UNL A   1      43.056  29.593  32.939  1.00  0.00     0.031 C 
ATOM     45  C   UNL A   1      43.924  22.566  34.675  1.00  0.00     0.029 A 
ATOM     46  C   UNL A   1      45.294  22.447  34.310  1.00  0.00     0.049 A 
ATOM     47  H   UNL A   1      46.081  22.791  32.330  1.00  0.00     0.167 HD
ATOM     48  C   UNL A   1      42.180  29.119  35.254  1.00  0.00     0.037 A 
ATOM     49  C   UNL A   1      46.316  22.329  35.186  1.00  0.00     0.037 A 
ATOM     50  C   UNL A   1      42.312  27.991  36.215  1.00  0.00     0.049 A 
ATOM     51  C   UNL A   1      46.192  23.296  36.386  1.00  0.00     0.074 A 
ATOM     52  C   UNL A   1      41.527  26.898  36.561  1.00  0.00     0.029 A 
ATOM     53  N   UNL A   1      43.558  27.688  36.762  1.00  0.00    -0.354 N 
ATOM     54  N   UNL A   1      45.205  24.145  36.635  1.00  0.00    -0.248 NA
ATOM     55  C   UNL A   1      47.243  23.394  37.395  1.00  0.00     0.031 C 
ATOM     56  C   UNL A   1      42.293  26.006  37.390  1.00  0.00     0.029 A 
ATOM     57  C   UNL A   1      43.583  26.499  37.490  1.00  0.00     0.049 A 
ATOM     58  H   UNL A   1      44.349  28.264  36.644  1.00  0.00     0.167 HD
ATOM     59  C   UNL A   1      45.541  24.984  37.705  1.00  0.00     0.074 A 
ATOM     60  C   UNL A   1      46.833  24.442  38.130  1.00  0.00     0.031 C 
ATOM     61  C   UNL A   1      44.831  26.094  38.160  1.00  0.00     0.037 A 
BRANCH  48  62
ATOM     62  C   UNL A   1      40.977  30.054  35.127  1.00  0.00     0.058 A 
ATOM     63  C   UNL A   1      39.933  29.788  34.226  1.00  0.00     0.135 A 
ATOM     64  C   UNL A   1      40.780  31.230  35.902  1.00  0.00     0.135 A 
ATOM     65  F   UNL A   1      39.903  28.664  33.500  1.00  0.00    -0.206 F 
ATOM     66  C   UNL A   1      38.838  30.640  34.056  1.00  0.00     0.059 A 
ATOM     67  C   UNL A   1      39.756  32.154  35.674  1.00  0.00     0.059 A 
ATOM     68  F   UNL A   1      41.529  31.496  36.984  1.00  0.00    -0.206 F 
ATOM     69  C   UNL A   1      38.766  31.829  34.768  1.00  0.00     0.060 A 
BRANCH  69  70
ATOM     70  S   UNL A   1      37.299  32.858  34.602  1.00  0.00     0.124 S 
ATOM     71  O   UNL A   1      36.430  32.030  33.773  1.00  0.00    -0.237 OA
ATOM     72  O   UNL A   1      36.892  33.013  35.995  1.00  0.00    -0.237 OA
ATOM     73  O   UNL A   1      37.801  34.069  33.958  1.00  0.00    -0.744 OA
ENDBRANCH  69  70
ENDBRANCH  48  62
BRANCH  49  74
ATOM     74  C   UNL A   1      47.477  21.777  34.406  1.00  0.00     0.058 A 
ATOM     75  C   UNL A   1      48.613  22.642  34.338  1.00  0.00     0.135 A 
ATOM     76  C   UNL A   1      47.735  20.407  34.329  1.00  0.00     0.135 A 
ATOM     77  F   UNL A   1      48.437  23.975  34.387  1.00  0.00    -0.206 F 
ATOM     78  C   UNL A   1      49.921  22.171  34.445  1.00  0.00     0.059 A 
ATOM     79  C   UNL A   1      49.054  19.915  34.328  1.00  0.00     0.059 A 
ATOM     80  F   UNL A   1      46.729  19.528  34.437  1.00  0.00    -0.206 F 
ATOM     81  C   UNL A   1      50.134  20.800  34.458  1.00  0.00     0.060 A 
BRANCH  81  82
ATOM     82  S   UNL A   1      51.829  20.200  34.692  1.00  0.00     0.124 S 
ATOM     83  O   UNL A   1      51.607  18.839  35.162  1.00  0.00    -0.237 OA
ATOM     84  O   UNL A   1      52.409  20.307  33.359  1.00  0.00    -0.237 OA
ATOM     85  O   UNL A   1      52.373  21.123  35.688  1.00  0.00    -0.744 OA
ENDBRANCH  81  82
ENDBRANCH  49  74
BRANCH  61  86
ATOM     86  C   UNL A   1      45.283  27.008  39.322  1.00  0.00     0.058 A 
ATOM     87  C   UNL A   1      44.866  26.838  40.650  1.00  0.00     0.135 A 
ATOM     88  C   UNL A   1      46.081  28.172  39.121  1.00  0.00     0.135 A 
ATOM     89  F   UNL A   1      43.905  25.958  40.969  1.00  0.00    -0.206 F 
ATOM     90  C   UNL A   1      45.346  27.626  41.704  1.00  0.00     0.059 A 
ATOM     91  C   UNL A   1      46.513  29.013  40.139  1.00  0.00     0.059 A 
ATOM     92  F   UNL A   1      46.475  28.599  37.918  1.00  0.00    -0.206 F 
ATOM     93  C   UNL A   1      46.175  28.710  41.438  1.00  0.00     0.060 A 
BRANCH  93  94
ATOM     94  S   UNL A   1      46.691  29.791  42.776  1.00  0.00     0.124 S 
ATOM     95  O   UNL A   1      47.136  28.832  43.782  1.00  0.00    -0.237 OA
ATOM     96  O   UNL A   1      47.743  30.573  42.134  1.00  0.00    -0.237 OA
ATOM     97  O   UNL A   1      45.477  30.529  43.114  1.00  0.00    -0.744 OA
ENDBRANCH  93  94
ENDBRANCH  61  86
ENDBRANCH  35  36
ENDBRANCH  28  30
ENDBRANCH  27  28
ENDBRANCH  26  27
ENDBRANCH   1  26
TORSDOF 19
ENDMDL
MODEL 2
REMARK VINA RESULT:     -11.1      6.001     10.461
REMARK SMILES Cc1ccc(S(=O)(=O)N[C@@H](Cc2cccc(F)c2)C(=O)OCCOC(=O)c2ccc(-c3c4nc(c(-c5c(F)cc(S(=O)(=O)[O-])cc5F)c5ccc([nH]5)c(-c5c(F)cc(S(=O)(=O)[O-])cc5F)c5nc(c(-c6c(F)cc(S(=O)(=O)[O-])cc6F)c6ccc3[nH]6)C=C5)C=C4)cc2)cc1
REMARK SMILES IDX 22 1 21 2 19 3 20 4 10 5 9 6 6 8 7 9 8 10 5 11 1 12 2 13
REMARK SMILES IDX 3 14 94 15 4 16 93 17 11 18 12 19 13 20 18 21 14 22 16 23
REMARK SMILES IDX 15 24 17 25 23 26 24 27 25 28 26 29 27 30 28 31 92 32 29 33
REMARK SMILES IDX 91 34 30 35 31 36 32 37 85 38 33 39 90 40 84 41 86 42 34 43
REMARK SMILES IDX 89 44 83 45 82 46 35 48 69 49 48 50 68 51 49 52 52 53 67 54
REMARK SMILES IDX 87 55 50 56 51 57 66 59 88 60 53 61 36 62 37 63 46 64 38 65
REMARK SMILES IDX 39 66 45 67 47 68 40 69 41 70 42 71 43 72 44 73 70 74 71 75
REMARK SMILES IDX 80 76 72 77 73 78 79 79 81 80 74 81 75 82 76 83 77 84 78 85
REMARK SMILES IDX 54 86 55 87 64 88 56 89 57 90 63 91 65 92 58 93 59 94 60 95
REMARK SMILES IDX 61 96 62 97
REMARK H PARENT 9 7 86 47 52 58
REMARK Flexibility Score: inf
ROOT
ATOM      1  C   UNL A   1      34.131  29.347  26.749  1.00  0.00     0.274 C 
ENDROOT
BRANCH   1   2
ATOM      2  O   UNL A   1      32.982  29.000  27.490  1.00  0.00    -0.461 OA
BRANCH   2   3
ATOM      3  C   UNL A   1      32.229  27.849  26.973  1.00  0.00     0.324 C 
ATOM      4  O   UNL A   1      31.371  27.603  27.872  1.00  0.00    -0.250 OA
BRANCH   3   5
ATOM      5  C   UNL A   1      32.758  26.805  25.129  1.00  0.00     0.184 C 
BRANCH   5   6
ATOM      6  N   UNL A   1      32.386  27.290  23.489  1.00  0.00    -0.197 NA
ATOM      7  H   UNL A   1      31.479  27.753  23.545  1.00  0.00     0.142 HD
BRANCH   6   8
ATOM      8  S   UNL A   1      32.276  26.244  22.139  1.00  0.00     0.241 S 
ATOM      9  O   UNL A   1      33.445  26.405  21.305  1.00  0.00    -0.207 OA
ATOM     10  O   UNL A   1      30.975  26.556  21.578  1.00  0.00    -0.207 OA
BRANCH   8  11
ATOM     11  C   UNL A   1      32.190  24.535  22.598  1.00  0.00     0.082 A 
ATOM     12  C   UNL A   1      32.323  20.426  23.913  1.00  0.00     0.044 C 
ATOM     13  C   UNL A   1      32.266  21.845  23.426  1.00  0.00    -0.051 A 
ATOM     14  C   UNL A   1      33.226  22.333  22.532  1.00  0.00     0.005 A 
ATOM     15  C   UNL A   1      31.247  22.701  23.855  1.00  0.00     0.005 A 
ATOM     16  C   UNL A   1      33.194  23.674  22.126  1.00  0.00     0.022 A 
ATOM     17  C   UNL A   1      31.202  24.030  23.425  1.00  0.00     0.022 A 
ENDBRANCH   8  11
ENDBRANCH   6   8
ENDBRANCH   5   6
BRANCH   5  18
ATOM     18  C   UNL A   1      34.381  26.035  24.768  1.00  0.00     0.067 C 
BRANCH  18  19
ATOM     19  C   UNL A   1      34.747  24.706  25.468  1.00  0.00    -0.043 A 
ATOM     20  C   UNL A   1      36.057  23.846  24.567  1.00  0.00     0.004 A 
ATOM     21  C   UNL A   1      33.624  23.699  26.615  1.00  0.00     0.043 A 
ATOM     22  C   UNL A   1      36.268  22.103  24.757  1.00  0.00     0.003 A 
ATOM     23  C   UNL A   1      33.946  21.960  26.868  1.00  0.00     0.123 A 
ATOM     24  C   UNL A   1      35.252  21.179  25.919  1.00  0.00     0.039 A 
ATOM     25  F   UNL A   1      33.094  21.233  27.607  1.00  0.00    -0.207 F 
ENDBRANCH  18  19
ENDBRANCH   5  18
ENDBRANCH   3   5
ENDBRANCH   2   3
ENDBRANCH   1   2
BRANCH   1  26
ATOM     26  C   UNL A   1      35.055  30.101  27.711  1.00  0.00     0.275 C 
BRANCH  26  27
ATOM     27  O   UNL A   1      34.433  31.108  28.598  1.00  0.00    -0.458 OA
BRANCH  27  28
ATOM     28  C   UNL A   1      34.260  32.440  28.325  1.00  0.00     0.338 C 
ATOM     29  O   UNL A   1      33.375  32.904  27.624  1.00  0.00    -0.246 OA
BRANCH  28  30
ATOM     30  C   UNL A   1      35.299  33.321  28.970  1.00  0.00     0.060 A 
ATOM     31  C   UNL A   1      36.991  33.160  28.435  1.00  0.00     0.016 A 
ATOM     32  C   UNL A   1      34.929  33.482  30.672  1.00  0.00     0.016 A 
ATOM     33  C   UNL A   1      38.354  32.879  29.616  1.00  0.00     0.010 A 
ATOM     34  C   UNL A   1      36.216  33.209  31.869  1.00  0.00     0.010 A 
ATOM     35  C   UNL A   1      37.954  32.748  31.360  1.00  0.00    -0.014 A 
BRANCH  35  36
ATOM     36  C   UNL A   1      39.150  32.330  32.561  1.00  0.00     0.031 A 
ATOM     37  C   UNL A   1      40.048  33.804  33.840  1.00  0.00     0.074 A 
ATOM     38  C   UNL A   1      38.898  30.884  32.542  1.00  0.00     0.049 A 
ATOM     39  N   UNL A   1      41.220  33.901  34.528  1.00  0.00    -0.248 NA
ATOM     40  C   UNL A   1      39.429  35.326  34.368  1.00  0.00     0.031 C 
ATOM     41  C   UNL A   1      39.000  29.806  33.614  1.00  0.00     0.029 A 
ATOM     42  N   UNL A   1      39.098  30.067  31.403  1.00  0.00    -0.354 N 
ATOM     43  C   UNL A   1      41.071  34.632  35.689  1.00  0.00     0.074 A 
ATOM     44  C   UNL A   1      40.119  35.655  35.440  1.00  0.00     0.031 C 
ATOM     45  C   UNL A   1      39.675  28.742  33.170  1.00  0.00     0.029 A 
ATOM     46  C   UNL A   1      39.931  28.977  31.791  1.00  0.00     0.049 A 
ATOM     47  H   UNL A   1      38.728  30.224  30.504  1.00  0.00     0.167 HD
ATOM     48  C   UNL A   1      41.521  34.139  36.882  1.00  0.00     0.037 A 
ATOM     49  C   UNL A   1      41.075  28.644  31.153  1.00  0.00     0.037 A 
ATOM     50  C   UNL A   1      42.019  32.742  36.763  1.00  0.00     0.049 A 
ATOM     51  C   UNL A   1      42.341  28.992  31.971  1.00  0.00     0.074 A 
ATOM     52  C   UNL A   1      41.611  31.508  37.253  1.00  0.00     0.029 A 
ATOM     53  N   UNL A   1      42.925  32.413  35.756  1.00  0.00    -0.354 N 
ATOM     54  N   UNL A   1      42.392  29.513  33.188  1.00  0.00    -0.248 NA
ATOM     55  C   UNL A   1      43.679  28.801  31.418  1.00  0.00     0.031 C 
ATOM     56  C   UNL A   1      42.351  30.465  36.595  1.00  0.00     0.029 A 
ATOM     57  C   UNL A   1      43.161  31.044  35.632  1.00  0.00     0.049 A 
ATOM     58  H   UNL A   1      43.360  33.087  35.184  1.00  0.00     0.167 HD
ATOM     59  C   UNL A   1      43.708  29.864  33.514  1.00  0.00     0.074 A 
ATOM     60  C   UNL A   1      44.455  29.378  32.353  1.00  0.00     0.031 C 
ATOM     61  C   UNL A   1      44.139  30.571  34.636  1.00  0.00     0.037 A 
BRANCH  48  62
ATOM     62  C   UNL A   1      41.191  34.865  38.187  1.00  0.00     0.058 A 
ATOM     63  C   UNL A   1      39.950  34.702  38.823  1.00  0.00     0.135 A 
ATOM     64  C   UNL A   1      42.084  35.725  38.883  1.00  0.00     0.135 A 
ATOM     65  F   UNL A   1      39.034  33.840  38.364  1.00  0.00    -0.206 F 
ATOM     66  C   UNL A   1      39.599  35.379  39.994  1.00  0.00     0.059 A 
ATOM     67  C   UNL A   1      41.720  36.499  39.989  1.00  0.00     0.059 A 
ATOM     68  F   UNL A   1      43.388  35.791  38.572  1.00  0.00    -0.206 F 
ATOM     69  C   UNL A   1      40.481  36.289  40.560  1.00  0.00     0.060 A 
BRANCH  69  70
ATOM     70  S   UNL A   1      40.044  37.074  42.120  1.00  0.00     0.124 S 
ATOM     71  O   UNL A   1      39.005  36.187  42.633  1.00  0.00    -0.237 OA
ATOM     72  O   UNL A   1      41.318  37.041  42.830  1.00  0.00    -0.237 OA
ATOM     73  O   UNL A   1      39.584  38.401  41.719  1.00  0.00    -0.744 OA
ENDBRANCH  69  70
ENDBRANCH  48  62
BRANCH  49  74
ATOM     74  C   UNL A   1      40.752  28.636  29.685  1.00  0.00     0.058 A 
ATOM     75  C   UNL A   1      41.514  29.557  28.902  1.00  0.00     0.135 A 
ATOM     76  C   UNL A   1      40.306  27.486  29.029  1.00  0.00     0.135 A 
ATOM     77  F   UNL A   1      41.961  30.696  29.463  1.00  0.00    -0.206 F 
ATOM     78  C   UNL A   1      42.011  29.236  27.639  1.00  0.00     0.059 A 
ATOM     79  C   UNL A   1      40.711  27.197  27.713  1.00  0.00     0.059 A 
ATOM     80  F   UNL A   1      39.628  26.549  29.707  1.00  0.00    -0.206 F 
ATOM     81  C   UNL A   1      41.618  28.040  27.056  1.00  0.00     0.060 A 
BRANCH  81  82
ATOM     82  S   UNL A   1      42.345  27.589  25.456  1.00  0.00     0.124 S 
ATOM     83  O   UNL A   1      42.043  28.760  24.644  1.00  0.00    -0.237 OA
ATOM     84  O   UNL A   1      43.756  27.403  25.772  1.00  0.00    -0.237 OA
ATOM     85  O   UNL A   1      41.618  26.374  25.093  1.00  0.00    -0.744 OA
ENDBRANCH  81  82
ENDBRANCH  49  74
BRANCH  61  86
ATOM     86  C   UNL A   1      45.607  30.966  34.913  1.00  0.00     0.058 A 
ATOM     87  C   UNL A   1      46.213  32.118  34.391  1.00  0.00     0.135 A 
ATOM     88  C   UNL A   1      46.506  30.131  35.639  1.00  0.00     0.135 A 
ATOM     89  F   UNL A   1      45.592  32.872  33.471  1.00  0.00    -0.206 F 
ATOM     90  C   UNL A   1      47.520  32.502  34.715  1.00  0.00     0.059 A 
ATOM     91  C   UNL A   1      47.828  30.454  35.915  1.00  0.00     0.059 A 
ATOM     92  F   UNL A   1      46.177  28.924  36.109  1.00  0.00    -0.206 F 
ATOM     93  C   UNL A   1      48.320  31.664  35.483  1.00  0.00     0.060 A 
BRANCH  93  94
ATOM     94  S   UNL A   1      50.033  32.101  35.796  1.00  0.00     0.124 S 
ATOM     95  O   UNL A   1      49.975  32.573  37.176  1.00  0.00    -0.237 OA
ATOM     96  O   UNL A   1      50.706  30.823  35.588  1.00  0.00    -0.237 OA
ATOM     97  O   UNL A   1      50.316  33.130  34.799  1.00  0.00    -0.744 OA
ENDBRANCH  93  94
ENDBRANCH  61  86
ENDBRANCH  35  36
ENDBRANCH  28  30
ENDBRANCH  27  28
ENDBRANCH  26  27
ENDBRANCH   1  26
TORSDOF 19
ENDMDL
MODEL 3
REMARK VINA RESULT:     -11.0      6.251     11.356
REMARK SMILES Cc1ccc(S(=O)(=O)N[C@@H](Cc2cccc(F)c2)C(=O)OCCOC(=O)c2ccc(-c3c4nc(c(-c5c(F)cc(S(=O)(=O)[O-])cc5F)c5ccc([nH]5)c(-c5c(F)cc(S(=O)(=O)[O-])cc5F)c5nc(c(-c6c(F)cc(S(=O)(=O)[O-])cc6F)c6ccc3[nH]6)C=C5)C=C4)cc2)cc1
REMARK SMILES IDX 22 1 21 2 19 3 20 4 10 5 9 6 6 8 7 9 8 10 5 11 1 12 2 13
REMARK SMILES IDX 3 14 94 15 4 16 93 17 11 18 12 19 13 20 18 21 14 22 16 23
REMARK SMILES IDX 15 24 17 25 23 26 24 27 25 28 26 29 27 30 28 31 92 32 29 33
REMARK SMILES IDX 91 34 30 35 31 36 32 37 85 38 33 39 90 40 84 41 86 42 34 43
REMARK SMILES IDX 89 44 83 45 82 46 35 48 69 49 48 50 68 51 49 52 52 53 67 54
REMARK SMILES IDX 87 55 50 56 51 57 66 59 88 60 53 61 36 62 37 63 46 64 38 65
REMARK SMILES IDX 39 66 45 67 47 68 40 69 41 70 42 71 43 72 44 73 70 74 71 75
REMARK SMILES IDX 80 76 72 77 73 78 79 79 81 80 74 81 75 82 76 83 77 84 78 85
REMARK SMILES IDX 54 86 55 87 64 88 56 89 57 90 63 91 65 92 58 93 59 94 60 95
REMARK SMILES IDX 61 96 62 97
REMARK H PARENT 9 7 86 47 52 58
REMARK Flexibility Score: inf
ROOT
ATOM      1  C   UNL A   1      40.205  29.171  33.353  1.00  0.00     0.274 C 
ENDROOT
BRANCH   1   2
ATOM      2  O   UNL A   1      40.695  30.479  33.549  1.00  0.00    -0.461 OA
BRANCH   2   3
ATOM      3  C   UNL A   1      39.801  31.375  34.297  1.00  0.00     0.324 C 
ATOM      4  O   UNL A   1      39.640  30.800  35.415  1.00  0.00    -0.250 OA
BRANCH   3   5
ATOM      5  C   UNL A   1      38.895  33.160  33.424  1.00  0.00     0.184 C 
BRANCH   5   6
ATOM      6  N   UNL A   1      37.606  34.134  34.096  1.00  0.00    -0.197 NA
ATOM      7  H   UNL A   1      37.537  33.851  35.074  1.00  0.00     0.142 HD
BRANCH   6   8
ATOM      8  S   UNL A   1      35.992  34.185  33.528  1.00  0.00     0.241 S 
ATOM      9  O   UNL A   1      35.513  35.547  33.552  1.00  0.00    -0.207 OA
ATOM     10  O   UNL A   1      35.316  33.196  34.347  1.00  0.00    -0.207 OA
BRANCH   8  11
ATOM     11  C   UNL A   1      35.831  33.602  31.863  1.00  0.00     0.082 A 
ATOM     12  C   UNL A   1      35.718  31.912  27.893  1.00  0.00     0.044 C 
ATOM     13  C   UNL A   1      35.754  32.530  29.260  1.00  0.00    -0.051 A 
ATOM     14  C   UNL A   1      36.898  33.200  29.712  1.00  0.00     0.005 A 
ATOM     15  C   UNL A   1      34.642  32.451  30.103  1.00  0.00     0.005 A 
ATOM     16  C   UNL A   1      36.940  33.726  31.010  1.00  0.00     0.022 A 
ATOM     17  C   UNL A   1      34.678  33.002  31.387  1.00  0.00     0.022 A 
ENDBRANCH   8  11
ENDBRANCH   6   8
ENDBRANCH   5   6
BRANCH   5  18
ATOM     18  C   UNL A   1      39.804  34.528  32.611  1.00  0.00     0.067 C 
BRANCH  18  19
ATOM     19  C   UNL A   1      40.953  34.183  31.636  1.00  0.00    -0.043 A 
ATOM     20  C   UNL A   1      42.468  33.797  32.543  1.00  0.00     0.004 A 
ATOM     21  C   UNL A   1      41.093  34.739  29.830  1.00  0.00     0.043 A 
ATOM     22  C   UNL A   1      44.039  33.946  31.750  1.00  0.00     0.003 A 
ATOM     23  C   UNL A   1      42.692  34.764  29.033  1.00  0.00     0.123 A 
ATOM     24  C   UNL A   1      44.148  34.387  30.010  1.00  0.00     0.039 A 
ATOM     25  F   UNL A   1      42.799  35.245  27.785  1.00  0.00    -0.207 F 
ENDBRANCH  18  19
ENDBRANCH   5  18
ENDBRANCH   3   5
ENDBRANCH   2   3
ENDBRANCH   1   2
BRANCH   1  26
ATOM     26  C   UNL A   1      38.765  29.318  32.852  1.00  0.00     0.275 C 
BRANCH  26  27
ATOM     27  O   UNL A   1      38.433  28.695  31.552  1.00  0.00    -0.458 OA
BRANCH  27  28
ATOM     28  C   UNL A   1      37.698  29.258  30.542  1.00  0.00     0.338 C 
ATOM     29  O   UNL A   1      36.480  29.331  30.517  1.00  0.00    -0.246 OA
BRANCH  28  30
ATOM     30  C   UNL A   1      38.544  29.788  29.412  1.00  0.00     0.060 A 
ATOM     31  C   UNL A   1      39.159  28.632  28.205  1.00  0.00     0.016 A 
ATOM     32  C   UNL A   1      39.587  31.051  30.029  1.00  0.00     0.016 A 
ATOM     33  C   UNL A   1      40.931  28.534  27.777  1.00  0.00     0.010 A 
ATOM     34  C   UNL A   1      41.325  31.001  29.651  1.00  0.00     0.010 A 
ATOM     35  C   UNL A   1      42.071  29.633  28.620  1.00  0.00    -0.014 A 
BRANCH  35  36
ATOM     36  C   UNL A   1      43.800  29.525  28.404  1.00  0.00     0.031 A 
ATOM     37  C   UNL A   1      44.895  30.948  27.224  1.00  0.00     0.074 A 
ATOM     38  C   UNL A   1      44.039  28.571  29.494  1.00  0.00     0.049 A 
ATOM     39  N   UNL A   1      46.074  30.933  26.542  1.00  0.00    -0.248 NA
ATOM     40  C   UNL A   1      44.522  32.594  26.860  1.00  0.00     0.031 C 
ATOM     41  C   UNL A   1      45.218  28.355  30.434  1.00  0.00     0.029 A 
ATOM     42  N   UNL A   1      43.505  27.260  29.521  1.00  0.00    -0.354 N 
ATOM     43  C   UNL A   1      46.677  32.174  26.539  1.00  0.00     0.074 A 
ATOM     44  C   UNL A   1      45.653  33.157  26.490  1.00  0.00     0.031 C 
ATOM     45  C   UNL A   1      45.561  27.065  30.493  1.00  0.00     0.029 A 
ATOM     46  C   UNL A   1      44.585  26.356  29.740  1.00  0.00     0.049 A 
ATOM     47  H   UNL A   1      42.557  27.017  29.409  1.00  0.00     0.167 HD
ATOM     48  C   UNL A   1      47.990  32.309  26.899  1.00  0.00     0.037 A 
ATOM     49  C   UNL A   1      44.849  25.296  28.943  1.00  0.00     0.037 A 
ATOM     50  C   UNL A   1      48.571  31.032  27.395  1.00  0.00     0.049 A 
ATOM     51  C   UNL A   1      46.113  25.498  28.075  1.00  0.00     0.074 A 
ATOM     52  C   UNL A   1      49.052  30.581  28.617  1.00  0.00     0.029 A 
ATOM     53  N   UNL A   1      48.413  29.863  26.651  1.00  0.00    -0.354 N 
ATOM     54  N   UNL A   1      46.933  26.539  28.082  1.00  0.00    -0.248 NA
ATOM     55  C   UNL A   1      46.515  24.512  27.077  1.00  0.00     0.031 C 
ATOM     56  C   UNL A   1      49.263  29.159  28.551  1.00  0.00     0.029 A 
ATOM     57  C   UNL A   1      48.832  28.710  27.314  1.00  0.00     0.049 A 
ATOM     58  H   UNL A   1      48.039  29.854  25.740  1.00  0.00     0.167 HD
ATOM     59  C   UNL A   1      47.847  26.446  27.025  1.00  0.00     0.074 A 
ATOM     60  C   UNL A   1      47.521  25.142  26.447  1.00  0.00     0.031 C 
ATOM     61  C   UNL A   1      48.762  27.415  26.614  1.00  0.00     0.037 A 
BRANCH  48  62
ATOM     62  C   UNL A   1      48.600  33.700  27.073  1.00  0.00     0.058 A 
ATOM     63  C   UNL A   1      48.335  34.480  28.210  1.00  0.00     0.135 A 
ATOM     64  C   UNL A   1      49.491  34.314  26.150  1.00  0.00     0.135 A 
ATOM     65  F   UNL A   1      47.608  34.009  29.230  1.00  0.00    -0.206 F 
ATOM     66  C   UNL A   1      48.844  35.770  28.384  1.00  0.00     0.059 A 
ATOM     67  C   UNL A   1      49.922  35.641  26.245  1.00  0.00     0.059 A 
ATOM     68  F   UNL A   1      50.060  33.623  25.150  1.00  0.00    -0.206 F 
ATOM     69  C   UNL A   1      49.619  36.351  27.390  1.00  0.00     0.060 A 
BRANCH  69  70
ATOM     70  S   UNL A   1      50.341  37.973  27.682  1.00  0.00     0.124 S 
ATOM     71  O   UNL A   1      51.594  37.894  26.936  1.00  0.00    -0.237 OA
ATOM     72  O   UNL A   1      49.321  38.852  27.121  1.00  0.00    -0.237 OA
ATOM     73  O   UNL A   1      50.487  38.027  29.134  1.00  0.00    -0.744 OA
ENDBRANCH  69  70
ENDBRANCH  48  62
BRANCH  49  74
ATOM     74  C   UNL A   1      43.537  24.595  28.728  1.00  0.00     0.058 A 
ATOM     75  C   UNL A   1      43.029  24.677  27.394  1.00  0.00     0.135 A 
ATOM     76  C   UNL A   1      43.170  23.465  29.462  1.00  0.00     0.135 A 
ATOM     77  F   UNL A   1      43.327  25.747  26.634  1.00  0.00    -0.206 F 
ATOM     78  C   UNL A   1      42.419  23.597  26.757  1.00  0.00     0.059 A 
ATOM     79  C   UNL A   1      42.458  22.409  28.864  1.00  0.00     0.059 A 
ATOM     80  F   UNL A   1      43.645  23.289  30.703  1.00  0.00    -0.206 F 
ATOM     81  C   UNL A   1      42.152  22.454  27.496  1.00  0.00     0.060 A 
BRANCH  81  82
ATOM     82  S   UNL A   1      41.445  21.023  26.634  1.00  0.00     0.124 S 
ATOM     83  O   UNL A   1      42.386  20.834  25.539  1.00  0.00    -0.237 OA
ATOM     84  O   UNL A   1      41.461  19.979  27.651  1.00  0.00    -0.237 OA
ATOM     85  O   UNL A   1      40.118  21.496  26.241  1.00  0.00    -0.744 OA
ENDBRANCH  81  82
ENDBRANCH  49  74
BRANCH  61  86
ATOM     86  C   UNL A   1      49.715  27.265  25.407  1.00  0.00     0.058 A 
ATOM     87  C   UNL A   1      49.299  27.373  24.072  1.00  0.00     0.135 A 
ATOM     88  C   UNL A   1      51.085  26.895  25.547  1.00  0.00     0.135 A 
ATOM     89  F   UNL A   1      47.998  27.451  23.755  1.00  0.00    -0.206 F 
ATOM     90  C   UNL A   1      50.188  27.313  22.992  1.00  0.00     0.059 A 
ATOM     91  C   UNL A   1      51.974  26.759  24.487  1.00  0.00     0.059 A 
ATOM     92  F   UNL A   1      51.657  26.608  26.720  1.00  0.00    -0.206 F 
ATOM     93  C   UNL A   1      51.527  27.009  23.211  1.00  0.00     0.060 A 
BRANCH  93  94
ATOM     94  S   UNL A   1      52.640  26.813  21.815  1.00  0.00     0.124 S 
ATOM     95  O   UNL A   1      52.779  28.188  21.347  1.00  0.00    -0.237 OA
ATOM     96  O   UNL A   1      53.818  26.238  22.456  1.00  0.00    -0.237 OA
ATOM     97  O   UNL A   1      51.915  25.920  20.916  1.00  0.00    -0.744 OA
ENDBRANCH  93  94
ENDBRANCH  61  86
ENDBRANCH  35  36
ENDBRANCH  28  30
ENDBRANCH  27  28
ENDBRANCH  26  27
ENDBRANCH   1  26
TORSDOF 19
ENDMDL
