MODEL 1
REMARK VINA RESULT:     -10.6      0.000      0.000
REMARK SMILES CC(C)[NH2+][C@@]1(C(=O)OCCOC(=O)c2ccc(-c3c4nc(c(-c5c(F)cc(S(=O)(=O)[O-])cc5F)c5ccc([nH]5)c(-c5c(F)cc(S(=O)(=O)[O-])cc5F)c5nc(c(-c6c(F)cc(S(=O)(=O)[O-])cc6F)c6ccc3[nH]6)C=C5)C=C4)cc2)CCC[C@H](Sc2ccncn2)C1
REMARK SMILES IDX 10 1 9 2 8 3 6 4 7 5 5 6 80 7 91 8 81 9 83 10 82 11 4 12
REMARK SMILES IDX 2 15 1 16 3 17 84 18 85 19 86 20 90 21 87 22 89 23 88 24
REMARK SMILES IDX 11 25 12 26 13 27 14 28 15 29 79 30 16 31 78 32 17 33 18 34
REMARK SMILES IDX 19 35 72 36 20 37 77 38 71 39 73 40 21 41 76 42 70 43 69 44
REMARK SMILES IDX 22 46 56 47 35 48 55 49 36 50 39 51 54 52 74 53 37 54 38 55
REMARK SMILES IDX 53 57 75 58 40 59 23 60 24 61 33 62 25 63 26 64 32 65 34 66
REMARK SMILES IDX 27 67 28 68 29 69 30 70 31 71 57 72 58 73 67 74 59 75 60 76
REMARK SMILES IDX 66 77 68 78 61 79 62 80 63 81 64 82 65 83 41 84 42 85 51 86
REMARK SMILES IDX 43 87 44 88 50 89 52 90 45 91 46 92 47 93 48 94 49 95
REMARK H PARENT 4 13 4 14 73 45 39 56
REMARK Flexibility Score: inf
ROOT
ATOM      1  C   UNL A   1      32.268  29.089  27.537  1.00  0.00     0.275 C 
ENDROOT
BRANCH   1   2
ATOM      2  C   UNL A   1      31.561  27.758  27.250  1.00  0.00     0.274 C 
BRANCH   2   3
ATOM      3  O   UNL A   1      32.349  26.903  26.401  1.00  0.00    -0.457 OA
BRANCH   3   4
ATOM      4  C   UNL A   1      31.667  26.279  25.408  1.00  0.00     0.368 C 
ATOM      5  O   UNL A   1      30.589  25.740  25.628  1.00  0.00    -0.245 OA
BRANCH   4   6
ATOM      6  C   UNL A   1      32.456  26.274  24.046  1.00  0.00     0.195 C 
ATOM      7  C   UNL A   1      33.570  27.339  24.046  1.00  0.00     0.081 C 
ATOM      8  C   UNL A   1      31.513  26.512  22.815  1.00  0.00     0.096 C 
ATOM      9  C   UNL A   1      33.055  28.767  23.916  1.00  0.00     0.008 C 
ATOM     10  C   UNL A   1      31.092  27.968  22.462  1.00  0.00     0.060 C 
ATOM     11  C   UNL A   1      32.244  28.956  22.646  1.00  0.00     0.015 C 
BRANCH   6  12
ATOM     12  N   UNL A   1      33.109  24.944  23.763  1.00  0.00    -0.330 N 
ATOM     13  H   UNL A   1      32.481  24.233  24.136  1.00  0.00     0.347 HD
ATOM     14  H   UNL A   1      33.264  24.992  22.756  1.00  0.00     0.347 HD
BRANCH  12  15
ATOM     15  C   UNL A   1      34.450  24.611  24.264  1.00  0.00     0.176 C 
ATOM     16  C   UNL A   1      34.294  23.985  25.658  1.00  0.00     0.075 C 
ATOM     17  C   UNL A   1      35.297  23.655  23.416  1.00  0.00     0.075 C 
ENDBRANCH  12  15
ENDBRANCH   6  12
BRANCH  10  18
ATOM     18  S   UNL A   1      29.392  28.354  23.097  1.00  0.00    -0.103 SA
BRANCH  18  19
ATOM     19  C   UNL A   1      29.003  30.021  22.637  1.00  0.00     0.100 A 
ATOM     20  C   UNL A   1      28.546  30.349  21.380  1.00  0.00     0.055 A 
ATOM     21  N   UNL A   1      29.036  30.917  23.646  1.00  0.00    -0.230 NA
ATOM     22  C   UNL A   1      28.172  31.660  21.193  1.00  0.00     0.115 A 
ATOM     23  C   UNL A   1      28.618  32.157  23.360  1.00  0.00     0.222 A 
ATOM     24  N   UNL A   1      28.194  32.589  22.165  1.00  0.00    -0.245 NA
ENDBRANCH  18  19
ENDBRANCH  10  18
ENDBRANCH   4   6
ENDBRANCH   3   4
ENDBRANCH   2   3
ENDBRANCH   1   2
BRANCH   1  25
ATOM     25  O   UNL A   1      33.702  28.944  27.606  1.00  0.00    -0.458 OA
BRANCH  25  26
ATOM     26  C   UNL A   1      34.412  30.096  27.725  1.00  0.00     0.338 C 
ATOM     27  O   UNL A   1      33.977  31.228  27.644  1.00  0.00    -0.246 OA
BRANCH  26  28
ATOM     28  C   UNL A   1      35.819  29.808  28.093  1.00  0.00     0.060 A 
ATOM     29  C   UNL A   1      36.799  29.976  27.109  1.00  0.00     0.016 A 
ATOM     30  C   UNL A   1      36.182  29.347  29.362  1.00  0.00     0.016 A 
ATOM     31  C   UNL A   1      38.141  29.730  27.402  1.00  0.00     0.010 A 
ATOM     32  C   UNL A   1      37.528  29.071  29.645  1.00  0.00     0.010 A 
ATOM     33  C   UNL A   1      38.518  29.272  28.670  1.00  0.00    -0.014 A 
BRANCH  33  34
ATOM     34  C   UNL A   1      39.940  28.914  28.912  1.00  0.00     0.031 A 
ATOM     35  C   UNL A   1      40.836  29.922  29.573  1.00  0.00     0.074 A 
ATOM     36  C   UNL A   1      40.412  27.689  28.612  1.00  0.00     0.049 A 
ATOM     37  N   UNL A   1      42.095  29.817  29.909  1.00  0.00    -0.248 NA
ATOM     38  C   UNL A   1      40.227  31.220  29.905  1.00  0.00     0.031 C 
ATOM     39  C   UNL A   1      39.627  26.608  28.021  1.00  0.00     0.029 A 
ATOM     40  N   UNL A   1      41.661  27.140  28.777  1.00  0.00    -0.354 N 
ATOM     41  C   UNL A   1      42.431  31.032  30.493  1.00  0.00     0.074 A 
ATOM     42  C   UNL A   1      41.244  31.858  30.466  1.00  0.00     0.031 C 
ATOM     43  C   UNL A   1      40.404  25.519  27.895  1.00  0.00     0.029 A 
ATOM     44  C   UNL A   1      41.759  25.838  28.341  1.00  0.00     0.049 A 
ATOM     45  H   UNL A   1      42.417  27.633  29.171  1.00  0.00     0.167 HD
ATOM     46  C   UNL A   1      43.626  31.430  30.989  1.00  0.00     0.037 A 
ATOM     47  C   UNL A   1      42.826  25.011  28.282  1.00  0.00     0.037 A 
ATOM     48  C   UNL A   1      44.820  30.627  30.959  1.00  0.00     0.049 A 
ATOM     49  C   UNL A   1      44.170  25.515  28.755  1.00  0.00     0.074 A 
ATOM     50  C   UNL A   1      46.092  30.962  31.391  1.00  0.00     0.029 A 
ATOM     51  N   UNL A   1      44.898  29.340  30.448  1.00  0.00    -0.354 N 
ATOM     52  N   UNL A   1      44.475  26.668  29.302  1.00  0.00    -0.248 NA
ATOM     53  C   UNL A   1      45.319  24.613  28.583  1.00  0.00     0.031 C 
ATOM     54  C   UNL A   1      46.951  29.901  31.083  1.00  0.00     0.029 A 
ATOM     55  C   UNL A   1      46.202  28.877  30.526  1.00  0.00     0.049 A 
ATOM     56  H   UNL A   1      44.139  28.829  30.083  1.00  0.00     0.167 HD
ATOM     57  C   UNL A   1      45.843  26.622  29.556  1.00  0.00     0.074 A 
ATOM     58  C   UNL A   1      46.304  25.320  29.121  1.00  0.00     0.031 C 
ATOM     59  C   UNL A   1      46.647  27.573  30.096  1.00  0.00     0.037 A 
BRANCH  46  60
ATOM     60  C   UNL A   1      43.712  32.828  31.534  1.00  0.00     0.058 A 
ATOM     61  C   UNL A   1      43.511  33.108  32.894  1.00  0.00     0.135 A 
ATOM     62  C   UNL A   1      44.000  33.902  30.678  1.00  0.00     0.135 A 
ATOM     63  F   UNL A   1      43.208  32.120  33.752  1.00  0.00    -0.206 F 
ATOM     64  C   UNL A   1      43.568  34.410  33.383  1.00  0.00     0.059 A 
ATOM     65  C   UNL A   1      44.089  35.209  31.149  1.00  0.00     0.059 A 
ATOM     66  F   UNL A   1      44.191  33.691  29.366  1.00  0.00    -0.206 F 
ATOM     67  C   UNL A   1      43.857  35.453  32.501  1.00  0.00     0.060 A 
BRANCH  67  68
ATOM     68  S   UNL A   1      43.923  37.137  33.149  1.00  0.00     0.124 S 
ATOM     69  O   UNL A   1      43.832  37.925  31.924  1.00  0.00    -0.237 OA
ATOM     70  O   UNL A   1      42.752  37.181  34.020  1.00  0.00    -0.237 OA
ATOM     71  O   UNL A   1      45.211  37.189  33.833  1.00  0.00    -0.744 OA
ENDBRANCH  67  68
ENDBRANCH  46  60
BRANCH  47  72
ATOM     72  C   UNL A   1      42.692  23.638  27.712  1.00  0.00     0.058 A 
ATOM     73  C   UNL A   1      42.791  23.401  26.332  1.00  0.00     0.135 A 
ATOM     74  C   UNL A   1      42.426  22.534  28.538  1.00  0.00     0.135 A 
ATOM     75  F   UNL A   1      43.022  24.421  25.491  1.00  0.00    -0.206 F 
ATOM     76  C   UNL A   1      42.616  22.129  25.791  1.00  0.00     0.059 A 
ATOM     77  C   UNL A   1      42.282  21.247  28.026  1.00  0.00     0.059 A 
ATOM     78  F   UNL A   1      42.316  22.696  29.866  1.00  0.00    -0.206 F 
ATOM     79  C   UNL A   1      42.367  21.056  26.648  1.00  0.00     0.060 A 
BRANCH  79  80
ATOM     80  S   UNL A   1      42.184  19.402  25.945  1.00  0.00     0.124 S 
ATOM     81  O   UNL A   1      42.710  18.565  27.017  1.00  0.00    -0.237 OA
ATOM     82  O   UNL A   1      40.743  19.322  25.722  1.00  0.00    -0.237 OA
ATOM     83  O   UNL A   1      42.995  19.459  24.733  1.00  0.00    -0.744 OA
ENDBRANCH  79  80
ENDBRANCH  47  72
BRANCH  59  84
ATOM     84  C   UNL A   1      48.104  27.237  30.286  1.00  0.00     0.058 A 
ATOM     85  C   UNL A   1      49.082  27.610  29.351  1.00  0.00     0.135 A 
ATOM     86  C   UNL A   1      48.533  26.594  31.460  1.00  0.00     0.135 A 
ATOM     87  F   UNL A   1      48.729  28.224  28.211  1.00  0.00    -0.206 F 
ATOM     88  C   UNL A   1      50.431  27.336  29.562  1.00  0.00     0.059 A 
ATOM     89  C   UNL A   1      49.879  26.339  31.705  1.00  0.00     0.059 A 
ATOM     90  F   UNL A   1      47.642  26.226  32.394  1.00  0.00    -0.206 F 
ATOM     91  C   UNL A   1      50.820  26.705  30.745  1.00  0.00     0.060 A 
BRANCH  91  92
ATOM     92  S   UNL A   1      52.577  26.393  31.023  1.00  0.00     0.124 S 
ATOM     93  O   UNL A   1      53.076  26.277  29.657  1.00  0.00    -0.237 OA
ATOM     94  O   UNL A   1      52.994  27.587  31.751  1.00  0.00    -0.237 OA
ATOM     95  O   UNL A   1      52.584  25.156  31.800  1.00  0.00    -0.744 OA
ENDBRANCH  91  92
ENDBRANCH  59  84
ENDBRANCH  33  34
ENDBRANCH  26  28
ENDBRANCH  25  26
ENDBRANCH   1  25
TORSDOF 18
ENDMDL
MODEL 2
REMARK VINA RESULT:     -10.6      1.448      4.083
REMARK SMILES CC(C)[NH2+][C@@]1(C(=O)OCCOC(=O)c2ccc(-c3c4nc(c(-c5c(F)cc(S(=O)(=O)[O-])cc5F)c5ccc([nH]5)c(-c5c(F)cc(S(=O)(=O)[O-])cc5F)c5nc(c(-c6c(F)cc(S(=O)(=O)[O-])cc6F)c6ccc3[nH]6)C=C5)C=C4)cc2)CCC[C@H](Sc2ccncn2)C1
REMARK SMILES IDX 10 1 9 2 8 3 6 4 7 5 5 6 80 7 91 8 81 9 83 10 82 11 4 12
REMARK SMILES IDX 2 15 1 16 3 17 84 18 85 19 86 20 90 21 87 22 89 23 88 24
REMARK SMILES IDX 11 25 12 26 13 27 14 28 15 29 79 30 16 31 78 32 17 33 18 34
REMARK SMILES IDX 19 35 72 36 20 37 77 38 71 39 73 40 21 41 76 42 70 43 69 44
REMARK SMILES IDX 22 46 56 47 35 48 55 49 36 50 39 51 54 52 74 53 37 54 38 55
REMARK SMILES IDX 53 57 75 58 40 59 23 60 24 61 33 62 25 63 26 64 32 65 34 66
REMARK SMILES IDX 27 67 28 68 29 69 30 70 31 71 57 72 58 73 67 74 59 75 60 76
REMARK SMILES IDX 66 77 68 78 61 79 62 80 63 81 64 82 65 83 41 84 42 85 51 86
REMARK SMILES IDX 43 87 44 88 50 89 52 90 45 91 46 92 47 93 48 94 49 95
REMARK H PARENT 4 13 4 14 73 45 39 56
REMARK Flexibility Score: inf
ROOT
ATOM      1  C   UNL A   1      32.216  29.055  27.241  1.00  0.00     0.275 C 
ENDROOT
BRANCH   1   2
ATOM      2  C   UNL A   1      31.499  27.702  27.329  1.00  0.00     0.274 C 
BRANCH   2   3
ATOM      3  O   UNL A   1      31.951  26.786  26.314  1.00  0.00    -0.457 OA
BRANCH   3   4
ATOM      4  C   UNL A   1      30.974  26.091  25.680  1.00  0.00     0.368 C 
ATOM      5  O   UNL A   1      29.996  25.680  26.293  1.00  0.00    -0.245 OA
BRANCH   4   6
ATOM      6  C   UNL A   1      31.305  25.832  24.163  1.00  0.00     0.195 C 
ATOM      7  C   UNL A   1      30.557  24.591  23.636  1.00  0.00     0.081 C 
ATOM      8  C   UNL A   1      32.844  25.653  23.915  1.00  0.00     0.096 C 
ATOM      9  C   UNL A   1      31.126  23.271  24.143  1.00  0.00     0.008 C 
ATOM     10  C   UNL A   1      33.494  24.269  24.201  1.00  0.00     0.060 C 
ATOM     11  C   UNL A   1      32.590  23.113  23.771  1.00  0.00     0.015 C 
BRANCH   6  12
ATOM     12  N   UNL A   1      30.918  26.993  23.282  1.00  0.00    -0.330 N 
ATOM     13  H   UNL A   1      31.792  27.403  22.951  1.00  0.00     0.347 HD
ATOM     14  H   UNL A   1      30.289  26.552  22.611  1.00  0.00     0.347 HD
BRANCH  12  15
ATOM     15  C   UNL A   1      30.103  28.112  23.777  1.00  0.00     0.176 C 
ATOM     16  C   UNL A   1      30.991  29.363  23.824  1.00  0.00     0.075 C 
ATOM     17  C   UNL A   1      28.841  28.465  22.981  1.00  0.00     0.075 C 
ENDBRANCH  12  15
ENDBRANCH   6  12
BRANCH  10  18
ATOM     18  S   UNL A   1      34.350  24.249  25.846  1.00  0.00    -0.103 SA
BRANCH  18  19
ATOM     19  C   UNL A   1      35.863  23.343  25.664  1.00  0.00     0.100 A 
ATOM     20  C   UNL A   1      37.086  23.882  25.994  1.00  0.00     0.055 A 
ATOM     21  N   UNL A   1      35.717  22.043  25.331  1.00  0.00    -0.230 NA
ATOM     22  C   UNL A   1      38.165  23.032  25.914  1.00  0.00     0.115 A 
ATOM     23  C   UNL A   1      36.830  21.300  25.316  1.00  0.00     0.222 A 
ATOM     24  N   UNL A   1      38.070  21.733  25.580  1.00  0.00    -0.245 NA
ENDBRANCH  18  19
ENDBRANCH  10  18
ENDBRANCH   4   6
ENDBRANCH   3   4
ENDBRANCH   2   3
ENDBRANCH   1   2
BRANCH   1  25
ATOM     25  O   UNL A   1      33.627  28.946  27.524  1.00  0.00    -0.458 OA
BRANCH  25  26
ATOM     26  C   UNL A   1      34.260  30.104  27.847  1.00  0.00     0.338 C 
ATOM     27  O   UNL A   1      33.756  31.207  27.939  1.00  0.00    -0.246 OA
BRANCH  26  28
ATOM     28  C   UNL A   1      35.676  29.845  28.201  1.00  0.00     0.060 A 
ATOM     29  C   UNL A   1      36.637  29.970  27.191  1.00  0.00     0.016 A 
ATOM     30  C   UNL A   1      36.068  29.450  29.484  1.00  0.00     0.016 A 
ATOM     31  C   UNL A   1      37.985  29.749  27.470  1.00  0.00     0.010 A 
ATOM     32  C   UNL A   1      37.421  29.198  29.755  1.00  0.00     0.010 A 
ATOM     33  C   UNL A   1      38.391  29.357  28.751  1.00  0.00    -0.014 A 
BRANCH  33  34
ATOM     34  C   UNL A   1      39.820  29.022  28.983  1.00  0.00     0.031 A 
ATOM     35  C   UNL A   1      40.701  30.038  29.651  1.00  0.00     0.074 A 
ATOM     36  C   UNL A   1      40.311  27.808  28.668  1.00  0.00     0.049 A 
ATOM     37  N   UNL A   1      41.963  29.952  29.980  1.00  0.00    -0.248 NA
ATOM     38  C   UNL A   1      40.071  31.322  30.000  1.00  0.00     0.031 C 
ATOM     39  C   UNL A   1      39.542  26.720  28.069  1.00  0.00     0.029 A 
ATOM     40  N   UNL A   1      41.571  27.280  28.822  1.00  0.00    -0.354 N 
ATOM     41  C   UNL A   1      42.281  31.166  30.576  1.00  0.00     0.074 A 
ATOM     42  C   UNL A   1      41.079  31.972  30.562  1.00  0.00     0.031 C 
ATOM     43  C   UNL A   1      40.338  25.646  27.928  1.00  0.00     0.029 A 
ATOM     44  C   UNL A   1      41.690  25.984  28.372  1.00  0.00     0.049 A 
ATOM     45  H   UNL A   1      42.319  27.782  29.217  1.00  0.00     0.167 HD
ATOM     46  C   UNL A   1      43.471  31.580  31.069  1.00  0.00     0.037 A 
ATOM     47  C   UNL A   1      42.770  25.177  28.299  1.00  0.00     0.037 A 
ATOM     48  C   UNL A   1      44.679  30.798  31.026  1.00  0.00     0.049 A 
ATOM     49  C   UNL A   1      44.108  25.699  28.771  1.00  0.00     0.074 A 
ATOM     50  C   UNL A   1      45.946  31.151  31.456  1.00  0.00     0.029 A 
ATOM     51  N   UNL A   1      44.777  29.518  30.501  1.00  0.00    -0.354 N 
ATOM     52  N   UNL A   1      44.395  26.852  29.329  1.00  0.00    -0.248 NA
ATOM     53  C   UNL A   1      45.272  24.820  28.585  1.00  0.00     0.031 C 
ATOM     54  C   UNL A   1      46.822  30.109  31.133  1.00  0.00     0.029 A 
ATOM     55  C   UNL A   1      46.089  29.078  30.568  1.00  0.00     0.049 A 
ATOM     56  H   UNL A   1      44.025  28.999  30.134  1.00  0.00     0.167 HD
ATOM     57  C   UNL A   1      45.765  26.827  29.576  1.00  0.00     0.074 A 
ATOM     58  C   UNL A   1      46.247  25.538  29.125  1.00  0.00     0.031 C 
ATOM     59  C   UNL A   1      46.554  27.786  30.122  1.00  0.00     0.037 A 
BRANCH  46  60
ATOM     60  C   UNL A   1      43.534  32.974  31.629  1.00  0.00     0.058 A 
ATOM     61  C   UNL A   1      43.798  34.088  30.819  1.00  0.00     0.135 A 
ATOM     62  C   UNL A   1      43.327  33.193  33.000  1.00  0.00     0.135 A 
ATOM     63  F   UNL A   1      44.029  33.932  29.505  1.00  0.00    -0.206 F 
ATOM     64  C   UNL A   1      43.879  35.371  31.353  1.00  0.00     0.059 A 
ATOM     65  C   UNL A   1      43.376  34.469  33.552  1.00  0.00     0.059 A 
ATOM     66  F   UNL A   1      43.080  32.160  33.821  1.00  0.00    -0.206 F 
ATOM     67  C   UNL A   1      43.667  35.550  32.722  1.00  0.00     0.060 A 
BRANCH  67  68
ATOM     68  S   UNL A   1      43.780  37.219  33.401  1.00  0.00     0.124 S 
ATOM     69  O   UNL A   1      42.585  37.276  34.237  1.00  0.00    -0.237 OA
ATOM     70  O   UNL A   1      45.052  37.178  34.115  1.00  0.00    -0.237 OA
ATOM     71  O   UNL A   1      43.757  38.072  32.217  1.00  0.00    -0.744 OA
ENDBRANCH  67  68
ENDBRANCH  46  60
BRANCH  47  72
ATOM     72  C   UNL A   1      42.658  23.808  27.715  1.00  0.00     0.058 A 
ATOM     73  C   UNL A   1      42.456  22.677  28.523  1.00  0.00     0.135 A 
ATOM     74  C   UNL A   1      42.787  23.598  26.332  1.00  0.00     0.135 A 
ATOM     75  F   UNL A   1      42.349  22.814  29.853  1.00  0.00    -0.206 F 
ATOM     76  C   UNL A   1      42.402  21.392  27.986  1.00  0.00     0.059 A 
ATOM     77  C   UNL A   1      42.701  22.328  25.768  1.00  0.00     0.059 A 
ATOM     78  F   UNL A   1      42.985  24.639  25.508  1.00  0.00    -0.206 F 
ATOM     79  C   UNL A   1      42.521  21.228  26.605  1.00  0.00     0.060 A 
BRANCH  79  80
ATOM     80  S   UNL A   1      42.408  19.564  25.911  1.00  0.00     0.124 S 
ATOM     81  O   UNL A   1      42.943  18.753  26.998  1.00  0.00    -0.237 OA
ATOM     82  O   UNL A   1      40.975  19.433  25.664  1.00  0.00    -0.237 OA
ATOM     83  O   UNL A   1      43.238  19.642  24.713  1.00  0.00    -0.744 OA
ENDBRANCH  79  80
ENDBRANCH  47  72
BRANCH  59  84
ATOM     84  C   UNL A   1      48.018  27.474  30.302  1.00  0.00     0.058 A 
ATOM     85  C   UNL A   1      48.493  26.737  31.397  1.00  0.00     0.135 A 
ATOM     86  C   UNL A   1      48.948  27.861  29.322  1.00  0.00     0.135 A 
ATOM     87  F   UNL A   1      47.651  26.344  32.365  1.00  0.00    -0.206 F 
ATOM     88  C   UNL A   1      49.842  26.414  31.527  1.00  0.00     0.059 A 
ATOM     89  C   UNL A   1      50.294  27.523  29.415  1.00  0.00     0.059 A 
ATOM     90  F   UNL A   1      48.547  28.558  28.246  1.00  0.00    -0.206 F 
ATOM     91  C   UNL A   1      50.734  26.807  30.527  1.00  0.00     0.060 A 
BRANCH  91  92
ATOM     92  S   UNL A   1      52.472  26.347  30.688  1.00  0.00     0.124 S 
ATOM     93  O   UNL A   1      52.840  26.092  29.299  1.00  0.00    -0.237 OA
ATOM     94  O   UNL A   1      53.057  27.541  31.289  1.00  0.00    -0.237 OA
ATOM     95  O   UNL A   1      52.435  25.170  31.552  1.00  0.00    -0.744 OA
ENDBRANCH  91  92
ENDBRANCH  59  84
ENDBRANCH  33  34
ENDBRANCH  26  28
ENDBRANCH  25  26
ENDBRANCH   1  25
TORSDOF 18
ENDMDL
MODEL 3
REMARK VINA RESULT:     -10.5      3.640      9.793
REMARK SMILES CC(C)[NH2+][C@@]1(C(=O)OCCOC(=O)c2ccc(-c3c4nc(c(-c5c(F)cc(S(=O)(=O)[O-])cc5F)c5ccc([nH]5)c(-c5c(F)cc(S(=O)(=O)[O-])cc5F)c5nc(c(-c6c(F)cc(S(=O)(=O)[O-])cc6F)c6ccc3[nH]6)C=C5)C=C4)cc2)CCC[C@H](Sc2ccncn2)C1
REMARK SMILES IDX 10 1 9 2 8 3 6 4 7 5 5 6 80 7 91 8 81 9 83 10 82 11 4 12
REMARK SMILES IDX 2 15 1 16 3 17 84 18 85 19 86 20 90 21 87 22 89 23 88 24
REMARK SMILES IDX 11 25 12 26 13 27 14 28 15 29 79 30 16 31 78 32 17 33 18 34
REMARK SMILES IDX 19 35 72 36 20 37 77 38 71 39 73 40 21 41 76 42 70 43 69 44
REMARK SMILES IDX 22 46 56 47 35 48 55 49 36 50 39 51 54 52 74 53 37 54 38 55
REMARK SMILES IDX 53 57 75 58 40 59 23 60 24 61 33 62 25 63 26 64 32 65 34 66
REMARK SMILES IDX 27 67 28 68 29 69 30 70 31 71 57 72 58 73 67 74 59 75 60 76
REMARK SMILES IDX 66 77 68 78 61 79 62 80 63 81 64 82 65 83 41 84 42 85 51 86
REMARK SMILES IDX 43 87 44 88 50 89 52 90 45 91 46 92 47 93 48 94 49 95
REMARK H PARENT 4 13 4 14 73 45 39 56
REMARK Flexibility Score: inf
ROOT
ATOM      1  C   UNL A   1      37.090  22.235  24.363  1.00  0.00     0.275 C 
ENDROOT
BRANCH   1   2
ATOM      2  C   UNL A   1      36.552  23.182  23.282  1.00  0.00     0.274 C 
BRANCH   2   3
ATOM      3  O   UNL A   1      35.148  22.976  23.036  1.00  0.00    -0.457 OA
BRANCH   3   4
ATOM      4  C   UNL A   1      34.315  23.858  23.642  1.00  0.00     0.368 C 
ATOM      5  O   UNL A   1      34.753  24.729  24.383  1.00  0.00    -0.245 OA
BRANCH   4   6
ATOM      6  C   UNL A   1      32.799  23.560  23.341  1.00  0.00     0.195 C 
ATOM      7  C   UNL A   1      31.892  24.115  24.457  1.00  0.00     0.081 C 
ATOM      8  C   UNL A   1      32.521  22.026  23.164  1.00  0.00     0.096 C 
ATOM      9  C   UNL A   1      31.951  23.313  25.752  1.00  0.00     0.008 C 
ATOM     10  C   UNL A   1      32.351  21.143  24.434  1.00  0.00     0.060 C 
ATOM     11  C   UNL A   1      31.561  21.862  25.528  1.00  0.00     0.015 C 
BRANCH   6  12
ATOM     12  N   UNL A   1      32.337  24.174  22.043  1.00  0.00    -0.330 N 
ATOM     13  H   UNL A   1      32.490  23.468  21.323  1.00  0.00     0.347 HD
ATOM     14  H   UNL A   1      31.382  24.456  22.268  1.00  0.00     0.347 HD
BRANCH  12  15
ATOM     15  C   UNL A   1      32.910  25.423  21.522  1.00  0.00     0.176 C 
ATOM     16  C   UNL A   1      32.620  25.487  20.016  1.00  0.00     0.075 C 
ATOM     17  C   UNL A   1      32.420  26.734  22.148  1.00  0.00     0.075 C 
ENDBRANCH  12  15
ENDBRANCH   6  12
BRANCH  10  18
ATOM     18  S   UNL A   1      33.910  20.219  24.831  1.00  0.00    -0.103 SA
BRANCH  18  19
ATOM     19  C   UNL A   1      33.558  18.485  24.727  1.00  0.00     0.100 A 
ATOM     20  C   UNL A   1      34.348  17.618  24.005  1.00  0.00     0.055 A 
ATOM     21  N   UNL A   1      32.562  18.052  25.527  1.00  0.00    -0.230 NA
ATOM     22  C   UNL A   1      34.030  16.283  24.103  1.00  0.00     0.115 A 
ATOM     23  C   UNL A   1      32.361  16.729  25.571  1.00  0.00     0.222 A 
ATOM     24  N   UNL A   1      33.042  15.805  24.880  1.00  0.00    -0.245 NA
ENDBRANCH  18  19
ENDBRANCH  10  18
ENDBRANCH   4   6
ENDBRANCH   3   4
ENDBRANCH   2   3
ENDBRANCH   1   2
BRANCH   1  25
ATOM     25  O   UNL A   1      37.391  22.924  25.594  1.00  0.00    -0.458 OA
BRANCH  25  26
ATOM     26  C   UNL A   1      38.637  22.726  26.098  1.00  0.00     0.338 C 
ATOM     27  O   UNL A   1      39.298  21.710  26.021  1.00  0.00    -0.246 OA
BRANCH  26  28
ATOM     28  C   UNL A   1      39.170  23.980  26.683  1.00  0.00     0.060 A 
ATOM     29  C   UNL A   1      39.905  24.829  25.849  1.00  0.00     0.016 A 
ATOM     30  C   UNL A   1      38.994  24.313  28.029  1.00  0.00     0.016 A 
ATOM     31  C   UNL A   1      40.422  26.027  26.342  1.00  0.00     0.010 A 
ATOM     32  C   UNL A   1      39.541  25.504  28.531  1.00  0.00     0.010 A 
ATOM     33  C   UNL A   1      40.249  26.374  27.687  1.00  0.00    -0.014 A 
BRANCH  33  34
ATOM     34  C   UNL A   1      40.908  27.602  28.204  1.00  0.00     0.031 A 
ATOM     35  C   UNL A   1      42.401  27.721  28.099  1.00  0.00     0.074 A 
ATOM     36  C   UNL A   1      40.184  28.625  28.699  1.00  0.00     0.049 A 
ATOM     37  N   UNL A   1      43.181  28.708  28.453  1.00  0.00    -0.248 NA
ATOM     38  C   UNL A   1      43.108  26.574  27.507  1.00  0.00     0.031 C 
ATOM     39  C   UNL A   1      38.728  28.652  28.801  1.00  0.00     0.029 A 
ATOM     40  N   UNL A   1      40.575  29.847  29.193  1.00  0.00    -0.354 N 
ATOM     41  C   UNL A   1      44.470  28.305  28.128  1.00  0.00     0.074 A 
ATOM     42  C   UNL A   1      44.367  26.984  27.548  1.00  0.00     0.031 C 
ATOM     43  C   UNL A   1      38.344  29.839  29.302  1.00  0.00     0.029 A 
ATOM     44  C   UNL A   1      39.529  30.638  29.613  1.00  0.00     0.049 A 
ATOM     45  H   UNL A   1      41.516  30.130  29.243  1.00  0.00     0.167 HD
ATOM     46  C   UNL A   1      45.636  28.967  28.315  1.00  0.00     0.037 A 
ATOM     47  C   UNL A   1      39.530  31.851  30.205  1.00  0.00     0.037 A 
ATOM     48  C   UNL A   1      45.739  30.256  28.947  1.00  0.00     0.049 A 
ATOM     49  C   UNL A   1      40.852  32.527  30.489  1.00  0.00     0.074 A 
ATOM     50  C   UNL A   1      46.881  30.986  29.228  1.00  0.00     0.029 A 
ATOM     51  N   UNL A   1      44.666  30.996  29.421  1.00  0.00    -0.354 N 
ATOM     52  N   UNL A   1      42.065  32.133  30.179  1.00  0.00    -0.248 NA
ATOM     53  C   UNL A   1      40.808  33.802  31.220  1.00  0.00     0.031 C 
ATOM     54  C   UNL A   1      46.503  32.137  29.927  1.00  0.00     0.029 A 
ATOM     55  C   UNL A   1      45.120  32.161  30.019  1.00  0.00     0.049 A 
ATOM     56  H   UNL A   1      43.720  30.733  29.345  1.00  0.00     0.167 HD
ATOM     57  C   UNL A   1      42.923  33.118  30.660  1.00  0.00     0.074 A 
ATOM     58  C   UNL A   1      42.091  34.137  31.264  1.00  0.00     0.031 C 
ATOM     59  C   UNL A   1      44.278  33.172  30.611  1.00  0.00     0.037 A 
BRANCH  46  60
ATOM     60  C   UNL A   1      46.898  28.267  27.895  1.00  0.00     0.058 A 
ATOM     61  C   UNL A   1      47.461  28.450  26.623  1.00  0.00     0.135 A 
ATOM     62  C   UNL A   1      47.551  27.399  28.784  1.00  0.00     0.135 A 
ATOM     63  F   UNL A   1      46.863  29.250  25.726  1.00  0.00    -0.206 F 
ATOM     64  C   UNL A   1      48.617  27.777  26.238  1.00  0.00     0.059 A 
ATOM     65  C   UNL A   1      48.722  26.736  28.430  1.00  0.00     0.059 A 
ATOM     66  F   UNL A   1      47.049  27.181  30.010  1.00  0.00    -0.206 F 
ATOM     67  C   UNL A   1      49.239  26.921  27.149  1.00  0.00     0.060 A 
BRANCH  67  68
ATOM     68  S   UNL A   1      50.734  26.051  26.633  1.00  0.00     0.124 S 
ATOM     69  O   UNL A   1      51.777  26.944  27.128  1.00  0.00    -0.237 OA
ATOM     70  O   UNL A   1      50.607  24.775  27.330  1.00  0.00    -0.237 OA
ATOM     71  O   UNL A   1      50.605  25.984  25.180  1.00  0.00    -0.744 OA
ENDBRANCH  67  68
ENDBRANCH  46  60
BRANCH  47  72
ATOM     72  C   UNL A   1      38.249  32.496  30.622  1.00  0.00     0.058 A 
ATOM     73  C   UNL A   1      37.723  32.321  31.911  1.00  0.00     0.135 A 
ATOM     74  C   UNL A   1      37.505  33.274  29.721  1.00  0.00     0.135 A 
ATOM     75  F   UNL A   1      38.379  31.568  32.808  1.00  0.00    -0.206 F 
ATOM     76  C   UNL A   1      36.502  32.879  32.287  1.00  0.00     0.059 A 
ATOM     77  C   UNL A   1      36.300  33.871  30.083  1.00  0.00     0.059 A 
ATOM     78  F   UNL A   1      37.954  33.475  28.472  1.00  0.00    -0.206 F 
ATOM     79  C   UNL A   1      35.800  33.657  31.366  1.00  0.00     0.060 A 
BRANCH  79  80
ATOM     80  S   UNL A   1      34.239  34.412  31.873  1.00  0.00     0.124 S 
ATOM     81  O   UNL A   1      33.558  34.570  30.594  1.00  0.00    -0.237 OA
ATOM     82  O   UNL A   1      33.687  33.401  32.769  1.00  0.00    -0.237 OA
ATOM     83  O   UNL A   1      34.659  35.651  32.522  1.00  0.00    -0.744 OA
ENDBRANCH  79  80
ENDBRANCH  47  72
BRANCH  59  84
ATOM     84  C   UNL A   1      44.954  34.388  31.191  1.00  0.00     0.058 A 
ATOM     85  C   UNL A   1      45.403  34.428  32.520  1.00  0.00     0.135 A 
ATOM     86  C   UNL A   1      45.220  35.504  30.378  1.00  0.00     0.135 A 
ATOM     87  F   UNL A   1      45.174  33.392  33.342  1.00  0.00    -0.206 F 
ATOM     88  C   UNL A   1      46.070  35.538  33.031  1.00  0.00     0.059 A 
ATOM     89  C   UNL A   1      45.912  36.611  30.859  1.00  0.00     0.059 A 
ATOM     90  F   UNL A   1      44.825  35.516  29.095  1.00  0.00    -0.206 F 
ATOM     91  C   UNL A   1      46.324  36.624  32.190  1.00  0.00     0.060 A 
BRANCH  91  92
ATOM     92  S   UNL A   1      47.225  38.041  32.853  1.00  0.00     0.124 S 
ATOM     93  O   UNL A   1      46.279  38.558  33.837  1.00  0.00    -0.237 OA
ATOM     94  O   UNL A   1      48.428  37.419  33.397  1.00  0.00    -0.237 OA
ATOM     95  O   UNL A   1      47.438  38.888  31.683  1.00  0.00    -0.744 OA
ENDBRANCH  91  92
ENDBRANCH  59  84
ENDBRANCH  33  34
ENDBRANCH  26  28
ENDBRANCH  25  26
ENDBRANCH   1  25
TORSDOF 18
ENDMDL
