MODEL 1
REMARK VINA RESULT:     -12.1      0.000      0.000
REMARK SMILES O=C(OCCOC(=O)c1cc(S(=O)(=O)Nc2cc(F)ccc2F)cc2c1OCCO2)c1ccc(-c2c3nc(c(-c4c(F)cc(S(=O)(=O)[O-])cc4F)c4ccc([nH]4)c(-c4c(F)cc(S(=O)(=O)[O-])cc4F)c4nc(c(-c5c(F)cc(S(=O)(=O)[O-])cc5F)c5ccc2[nH]5)C=C4)C=C3)cc1
REMARK SMILES IDX 4 1 3 2 2 3 1 4 31 5 32 6 96 7 33 8 95 9 34 10 35 11 36 12
REMARK SMILES IDX 89 13 37 14 94 15 88 16 90 17 38 18 93 19 87 20 86 21 39 23
REMARK SMILES IDX 73 24 52 25 72 26 53 27 56 28 71 29 91 30 54 31 55 32 70 34
REMARK SMILES IDX 92 35 57 36 40 37 41 38 50 39 42 40 43 41 49 42 51 43 44 44
REMARK SMILES IDX 45 45 46 46 47 47 48 48 74 49 75 50 84 51 76 52 77 53 83 54
REMARK SMILES IDX 85 55 78 56 79 57 80 58 81 59 82 60 58 61 59 62 68 63 60 64
REMARK SMILES IDX 61 65 67 66 69 67 62 68 63 69 64 70 65 71 66 72 5 73 6 74
REMARK SMILES IDX 7 75 8 76 9 77 10 78 26 79 11 80 25 81 27 82 24 83 30 84
REMARK SMILES IDX 28 85 29 86 12 87 13 88 14 89 15 90 16 92 17 93 22 94 18 95
REMARK SMILES IDX 21 96 23 97 19 98 20 99
REMARK H PARENT 90 22 56 33 15 91
REMARK Flexibility Score: inf
ROOT
ATOM      1  C   UNL A   1      32.399  29.382  27.132  1.00  0.00     0.275 C 
ENDROOT
BRANCH   1   2
ATOM      2  O   UNL A   1      33.689  29.138  27.726  1.00  0.00    -0.458 OA
BRANCH   2   3
ATOM      3  C   UNL A   1      34.569  30.130  27.975  1.00  0.00     0.338 C 
ATOM      4  O   UNL A   1      34.187  31.284  28.125  1.00  0.00    -0.246 OA
BRANCH   3   5
ATOM      5  C   UNL A   1      36.000  29.771  28.215  1.00  0.00     0.060 A 
ATOM      6  C   UNL A   1      37.020  29.910  27.277  1.00  0.00     0.016 A 
ATOM      7  C   UNL A   1      36.343  29.346  29.509  1.00  0.00     0.016 A 
ATOM      8  C   UNL A   1      38.340  29.643  27.622  1.00  0.00     0.010 A 
ATOM      9  C   UNL A   1      37.668  29.119  29.877  1.00  0.00     0.010 A 
ATOM     10  C   UNL A   1      38.673  29.260  28.925  1.00  0.00    -0.014 A 
BRANCH  10  11
ATOM     11  C   UNL A   1      40.091  28.995  29.233  1.00  0.00     0.031 A 
ATOM     12  C   UNL A   1      40.673  27.663  28.904  1.00  0.00     0.074 A 
ATOM     13  C   UNL A   1      40.855  30.009  29.679  1.00  0.00     0.049 A 
ATOM     14  N   UNL A   1      41.927  27.307  28.889  1.00  0.00    -0.248 NA
ATOM     15  C   UNL A   1      39.731  26.596  28.531  1.00  0.00     0.031 C 
ATOM     16  C   UNL A   1      40.334  31.327  30.029  1.00  0.00     0.029 A 
ATOM     17  N   UNL A   1      42.202  30.124  29.880  1.00  0.00    -0.354 N 
ATOM     18  C   UNL A   1      41.930  25.987  28.465  1.00  0.00     0.074 A 
ATOM     19  C   UNL A   1      40.552  25.582  28.302  1.00  0.00     0.031 C 
ATOM     20  C   UNL A   1      41.351  32.132  30.368  1.00  0.00     0.029 A 
ATOM     21  C   UNL A   1      42.591  31.382  30.282  1.00  0.00     0.049 A 
ATOM     22  H   UNL A   1      42.833  29.379  29.750  1.00  0.00     0.167 HD
ATOM     23  C   UNL A   1      43.000  25.204  28.206  1.00  0.00     0.037 A 
ATOM     24  C   UNL A   1      43.814  31.881  30.542  1.00  0.00     0.037 A 
ATOM     25  C   UNL A   1      44.357  25.633  28.421  1.00  0.00     0.049 A 
ATOM     26  C   UNL A   1      44.982  30.977  30.287  1.00  0.00     0.074 A 
ATOM     27  C   UNL A   1      45.528  24.920  28.249  1.00  0.00     0.029 A 
ATOM     28  N   UNL A   1      44.719  26.899  28.871  1.00  0.00    -0.354 N 
ATOM     29  N   UNL A   1      44.973  29.737  29.853  1.00  0.00    -0.248 NA
ATOM     30  C   UNL A   1      46.318  31.528  30.526  1.00  0.00     0.031 C 
ATOM     31  C   UNL A   1      46.595  25.745  28.628  1.00  0.00     0.029 A 
ATOM     32  C   UNL A   1      46.094  26.987  28.992  1.00  0.00     0.049 A 
ATOM     33  H   UNL A   1      44.087  27.627  29.074  1.00  0.00     0.167 HD
ATOM     34  C   UNL A   1      46.301  29.355  29.762  1.00  0.00     0.074 A 
ATOM     35  C   UNL A   1      47.087  30.515  30.149  1.00  0.00     0.031 C 
ATOM     36  C   UNL A   1      46.828  28.159  29.403  1.00  0.00     0.037 A 
BRANCH  23  37
ATOM     37  C   UNL A   1      42.720  23.826  27.682  1.00  0.00     0.058 A 
ATOM     38  C   UNL A   1      42.621  22.722  28.546  1.00  0.00     0.135 A 
ATOM     39  C   UNL A   1      42.584  23.592  26.305  1.00  0.00     0.135 A 
ATOM     40  F   UNL A   1      42.778  22.883  29.870  1.00  0.00    -0.206 F 
ATOM     41  C   UNL A   1      42.418  21.434  28.063  1.00  0.00     0.059 A 
ATOM     42  C   UNL A   1      42.358  22.314  25.801  1.00  0.00     0.059 A 
ATOM     43  F   UNL A   1      42.688  24.608  25.434  1.00  0.00    -0.206 F 
ATOM     44  C   UNL A   1      42.289  21.240  26.687  1.00  0.00     0.060 A 
BRANCH  44  45
ATOM     45  S   UNL A   1      42.022  19.561  26.077  1.00  0.00     0.124 S 
ATOM     46  O   UNL A   1      40.597  19.588  25.762  1.00  0.00    -0.237 OA
ATOM     47  O   UNL A   1      42.922  19.502  24.930  1.00  0.00    -0.237 OA
ATOM     48  O   UNL A   1      42.398  18.723  27.211  1.00  0.00    -0.744 OA
ENDBRANCH  44  45
ENDBRANCH  23  37
BRANCH  24  49
ATOM     49  C   UNL A   1      43.975  33.273  31.047  1.00  0.00     0.058 A 
ATOM     50  C   UNL A   1      43.975  33.574  32.417  1.00  0.00     0.135 A 
ATOM     51  C   UNL A   1      44.161  34.342  30.152  1.00  0.00     0.135 A 
ATOM     52  F   UNL A   1      43.814  32.595  33.319  1.00  0.00    -0.206 F 
ATOM     53  C   UNL A   1      44.128  34.881  32.881  1.00  0.00     0.059 A 
ATOM     54  C   UNL A   1      44.344  35.650  30.591  1.00  0.00     0.059 A 
ATOM     55  F   UNL A   1      44.197  34.113  28.830  1.00  0.00    -0.206 F 
ATOM     56  C   UNL A   1      44.312  35.912  31.958  1.00  0.00     0.060 A 
BRANCH  56  57
ATOM     57  S   UNL A   1      44.553  37.596  32.568  1.00  0.00     0.124 S 
ATOM     58  O   UNL A   1      44.565  38.360  31.326  1.00  0.00    -0.237 OA
ATOM     59  O   UNL A   1      43.384  37.781  33.422  1.00  0.00    -0.237 OA
ATOM     60  O   UNL A   1      45.827  37.516  33.276  1.00  0.00    -0.744 OA
ENDBRANCH  56  57
ENDBRANCH  24  49
BRANCH  36  61
ATOM     61  C   UNL A   1      48.324  28.071  29.422  1.00  0.00     0.058 A 
ATOM     62  C   UNL A   1      49.017  27.664  30.573  1.00  0.00     0.135 A 
ATOM     63  C   UNL A   1      49.068  28.396  28.278  1.00  0.00     0.135 A 
ATOM     64  F   UNL A   1      48.345  27.355  31.693  1.00  0.00    -0.206 F 
ATOM     65  C   UNL A   1      50.403  27.624  30.602  1.00  0.00     0.059 A 
ATOM     66  C   UNL A   1      50.455  28.332  28.275  1.00  0.00     0.059 A 
ATOM     67  F   UNL A   1      48.446  28.781  27.152  1.00  0.00    -0.206 F 
ATOM     68  C   UNL A   1      51.114  27.963  29.448  1.00  0.00     0.060 A 
BRANCH  68  69
ATOM     69  S   UNL A   1      52.915  27.909  29.498  1.00  0.00     0.124 S 
ATOM     70  O   UNL A   1      53.242  29.307  29.757  1.00  0.00    -0.237 OA
ATOM     71  O   UNL A   1      53.170  26.982  30.596  1.00  0.00    -0.237 OA
ATOM     72  O   UNL A   1      53.275  27.415  28.172  1.00  0.00    -0.744 OA
ENDBRANCH  68  69
ENDBRANCH  36  61
ENDBRANCH  10  11
ENDBRANCH   3   5
ENDBRANCH   2   3
ENDBRANCH   1   2
BRANCH   1  73
ATOM     73  C   UNL A   1      31.727  28.240  26.354  1.00  0.00     0.275 C 
BRANCH  73  74
ATOM     74  O   UNL A   1      32.603  27.140  26.062  1.00  0.00    -0.458 OA
BRANCH  74  75
ATOM     75  C   UNL A   1      32.052  25.895  26.112  1.00  0.00     0.342 C 
ATOM     76  O   UNL A   1      31.043  25.561  26.710  1.00  0.00    -0.246 OA
BRANCH  75  77
ATOM     77  C   UNL A   1      32.784  25.003  25.188  1.00  0.00     0.107 A 
ATOM     78  C   UNL A   1      33.593  23.986  25.738  1.00  0.00     0.042 A 
ATOM     79  C   UNL A   1      32.644  25.145  23.804  1.00  0.00     0.175 A 
ATOM     80  C   UNL A   1      34.189  23.051  24.892  1.00  0.00     0.092 A 
ATOM     81  C   UNL A   1      33.298  24.239  22.967  1.00  0.00     0.163 A 
ATOM     82  O   UNL A   1      31.897  26.190  23.321  1.00  0.00    -0.485 OA
ATOM     83  C   UNL A   1      34.039  23.182  23.503  1.00  0.00     0.072 A 
ATOM     84  O   UNL A   1      33.238  24.299  21.600  1.00  0.00    -0.486 OA
ATOM     85  C   UNL A   1      31.572  26.044  21.934  1.00  0.00     0.271 C 
ATOM     86  C   UNL A   1      32.773  25.568  21.133  1.00  0.00     0.271 C 
BRANCH  80  87
ATOM     87  S   UNL A   1      35.123  21.638  25.453  1.00  0.00     0.262 S 
ATOM     88  O   UNL A   1      36.065  21.320  24.403  1.00  0.00    -0.201 OA
ATOM     89  O   UNL A   1      35.575  21.967  26.791  1.00  0.00    -0.201 OA
BRANCH  87  90
ATOM     90  N   UNL A   1      34.089  20.348  25.679  1.00  0.00    -0.277 N 
ATOM     91  H   UNL A   1      33.725  20.222  26.585  1.00  0.00     0.180 HD
BRANCH  90  92
ATOM     92  C   UNL A   1      33.682  19.414  24.686  1.00  0.00     0.087 A 
ATOM     93  C   UNL A   1      34.314  18.191  24.482  1.00  0.00     0.069 A 
ATOM     94  C   UNL A   1      32.553  19.726  23.916  1.00  0.00     0.147 A 
ATOM     95  C   UNL A   1      33.891  17.367  23.438  1.00  0.00     0.125 A 
ATOM     96  C   UNL A   1      32.124  18.896  22.883  1.00  0.00     0.044 A 
ATOM     97  F   UNL A   1      31.881  20.862  24.158  1.00  0.00    -0.205 F 
ATOM     98  F   UNL A   1      34.561  16.234  23.187  1.00  0.00    -0.207 F 
ATOM     99  C   UNL A   1      32.815  17.715  22.628  1.00  0.00     0.042 A 
ENDBRANCH  90  92
ENDBRANCH  87  90
ENDBRANCH  80  87
ENDBRANCH  75  77
ENDBRANCH  74  75
ENDBRANCH  73  74
ENDBRANCH   1  73
TORSDOF 17
ENDMDL
MODEL 2
REMARK VINA RESULT:     -12.0      3.198      8.047
REMARK SMILES O=C(OCCOC(=O)c1cc(S(=O)(=O)Nc2cc(F)ccc2F)cc2c1OCCO2)c1ccc(-c2c3nc(c(-c4c(F)cc(S(=O)(=O)[O-])cc4F)c4ccc([nH]4)c(-c4c(F)cc(S(=O)(=O)[O-])cc4F)c4nc(c(-c5c(F)cc(S(=O)(=O)[O-])cc5F)c5ccc2[nH]5)C=C4)C=C3)cc1
REMARK SMILES IDX 4 1 3 2 2 3 1 4 31 5 32 6 96 7 33 8 95 9 34 10 35 11 36 12
REMARK SMILES IDX 89 13 37 14 94 15 88 16 90 17 38 18 93 19 87 20 86 21 39 23
REMARK SMILES IDX 73 24 52 25 72 26 53 27 56 28 71 29 91 30 54 31 55 32 70 34
REMARK SMILES IDX 92 35 57 36 40 37 41 38 50 39 42 40 43 41 49 42 51 43 44 44
REMARK SMILES IDX 45 45 46 46 47 47 48 48 74 49 75 50 84 51 76 52 77 53 83 54
REMARK SMILES IDX 85 55 78 56 79 57 80 58 81 59 82 60 58 61 59 62 68 63 60 64
REMARK SMILES IDX 61 65 67 66 69 67 62 68 63 69 64 70 65 71 66 72 5 73 6 74
REMARK SMILES IDX 7 75 8 76 9 77 10 78 26 79 11 80 25 81 27 82 24 83 30 84
REMARK SMILES IDX 28 85 29 86 12 87 13 88 14 89 15 90 16 92 17 93 22 94 18 95
REMARK SMILES IDX 21 96 23 97 19 98 20 99
REMARK H PARENT 90 22 56 33 15 91
REMARK Flexibility Score: inf
ROOT
ATOM      1  C   UNL A   1      39.361  21.015  26.003  1.00  0.00     0.275 C 
ENDROOT
BRANCH   1   2
ATOM      2  O   UNL A   1      40.319  19.972  26.264  1.00  0.00    -0.458 OA
BRANCH   2   3
ATOM      3  C   UNL A   1      41.633  20.112  25.991  1.00  0.00     0.338 C 
ATOM      4  O   UNL A   1      42.233  19.262  25.344  1.00  0.00    -0.246 OA
BRANCH   3   5
ATOM      5  C   UNL A   1      42.306  21.395  26.360  1.00  0.00     0.060 A 
ATOM      6  C   UNL A   1      42.604  22.420  25.464  1.00  0.00     0.016 A 
ATOM      7  C   UNL A   1      42.572  21.608  27.721  1.00  0.00     0.016 A 
ATOM      8  C   UNL A   1      43.141  23.620  25.915  1.00  0.00     0.010 A 
ATOM      9  C   UNL A   1      43.069  22.823  28.189  1.00  0.00     0.010 A 
ATOM     10  C   UNL A   1      43.364  23.834  27.280  1.00  0.00    -0.014 A 
BRANCH  10  11
ATOM     11  C   UNL A   1      43.930  25.130  27.699  1.00  0.00     0.031 A 
ATOM     12  C   UNL A   1      45.377  25.404  27.463  1.00  0.00     0.074 A 
ATOM     13  C   UNL A   1      43.097  26.079  28.160  1.00  0.00     0.049 A 
ATOM     14  N   UNL A   1      46.012  26.538  27.552  1.00  0.00    -0.248 NA
ATOM     15  C   UNL A   1      46.216  24.263  27.063  1.00  0.00     0.031 C 
ATOM     16  C   UNL A   1      41.678  25.860  28.423  1.00  0.00     0.029 A 
ATOM     17  N   UNL A   1      43.285  27.401  28.454  1.00  0.00    -0.354 N 
ATOM     18  C   UNL A   1      47.318  26.260  27.179  1.00  0.00     0.074 A 
ATOM     19  C   UNL A   1      47.403  24.838  26.931  1.00  0.00     0.031 C 
ATOM     20  C   UNL A   1      41.112  27.013  28.804  1.00  0.00     0.029 A 
ATOM     21  C   UNL A   1      42.130  28.047  28.836  1.00  0.00     0.049 A 
ATOM     22  H   UNL A   1      44.161  27.848  28.399  1.00  0.00     0.167 HD
ATOM     23  C   UNL A   1      48.339  27.131  27.027  1.00  0.00     0.037 A 
ATOM     24  C   UNL A   1      41.914  29.334  29.165  1.00  0.00     0.037 A 
ATOM     25  C   UNL A   1      48.223  28.535  27.324  1.00  0.00     0.049 A 
ATOM     26  C   UNL A   1      43.075  30.273  29.029  1.00  0.00     0.074 A 
ATOM     27  C   UNL A   1      49.193  29.516  27.264  1.00  0.00     0.029 A 
ATOM     28  N   UNL A   1      47.052  29.153  27.751  1.00  0.00    -0.354 N 
ATOM     29  N   UNL A   1      44.300  30.001  28.642  1.00  0.00    -0.248 NA
ATOM     30  C   UNL A   1      42.834  31.683  29.344  1.00  0.00     0.031 C 
ATOM     31  C   UNL A   1      48.617  30.720  27.688  1.00  0.00     0.029 A 
ATOM     32  C   UNL A   1      47.277  30.502  27.968  1.00  0.00     0.049 A 
ATOM     33  H   UNL A   1      46.188  28.698  27.880  1.00  0.00     0.167 HD
ATOM     34  C   UNL A   1      44.981  31.207  28.662  1.00  0.00     0.074 A 
ATOM     35  C   UNL A   1      44.015  32.216  29.061  1.00  0.00     0.031 C 
ATOM     36  C   UNL A   1      46.284  31.462  28.387  1.00  0.00     0.037 A 
BRANCH  23  37
ATOM     37  C   UNL A   1      49.641  26.571  26.536  1.00  0.00     0.058 A 
ATOM     38  C   UNL A   1      50.529  25.916  27.407  1.00  0.00     0.135 A 
ATOM     39  C   UNL A   1      50.028  26.716  25.195  1.00  0.00     0.135 A 
ATOM     40  F   UNL A   1      50.224  25.780  28.708  1.00  0.00    -0.206 F 
ATOM     41  C   UNL A   1      51.762  25.444  26.971  1.00  0.00     0.059 A 
ATOM     42  C   UNL A   1      51.248  26.231  24.732  1.00  0.00     0.059 A 
ATOM     43  F   UNL A   1      49.226  27.349  24.325  1.00  0.00    -0.206 F 
ATOM     44  C   UNL A   1      52.114  25.607  25.631  1.00  0.00     0.060 A 
BRANCH  44  45
ATOM     45  S   UNL A   1      53.717  24.985  25.080  1.00  0.00     0.124 S 
ATOM     46  O   UNL A   1      53.495  23.542  25.105  1.00  0.00    -0.237 OA
ATOM     47  O   UNL A   1      53.843  25.583  23.755  1.00  0.00    -0.237 OA
ATOM     48  O   UNL A   1      54.643  25.495  26.086  1.00  0.00    -0.744 OA
ENDBRANCH  44  45
ENDBRANCH  23  37
BRANCH  24  49
ATOM     49  C   UNL A   1      40.571  29.784  29.628  1.00  0.00     0.058 A 
ATOM     50  C   UNL A   1      39.490  29.934  28.747  1.00  0.00     0.135 A 
ATOM     51  C   UNL A   1      40.334  30.050  30.989  1.00  0.00     0.135 A 
ATOM     52  F   UNL A   1      39.651  29.684  27.438  1.00  0.00    -0.206 F 
ATOM     53  C   UNL A   1      38.235  30.354  29.188  1.00  0.00     0.059 A 
ATOM     54  C   UNL A   1      39.084  30.441  31.458  1.00  0.00     0.059 A 
ATOM     55  F   UNL A   1      41.322  29.897  31.884  1.00  0.00    -0.206 F 
ATOM     56  C   UNL A   1      38.044  30.605  30.549  1.00  0.00     0.060 A 
BRANCH  56  57
ATOM     57  S   UNL A   1      36.404  31.106  31.121  1.00  0.00     0.124 S 
ATOM     58  O   UNL A   1      36.023  29.972  31.954  1.00  0.00    -0.237 OA
ATOM     59  O   UNL A   1      36.695  32.350  31.826  1.00  0.00    -0.237 OA
ATOM     60  O   UNL A   1      35.652  31.263  29.880  1.00  0.00    -0.744 OA
ENDBRANCH  56  57
ENDBRANCH  24  49
BRANCH  36  61
ATOM     61  C   UNL A   1      46.713  32.892  28.518  1.00  0.00     0.058 A 
ATOM     62  C   UNL A   1      46.623  33.783  27.437  1.00  0.00     0.135 A 
ATOM     63  C   UNL A   1      47.218  33.371  29.736  1.00  0.00     0.135 A 
ATOM     64  F   UNL A   1      46.157  33.363  26.251  1.00  0.00    -0.206 F 
ATOM     65  C   UNL A   1      47.060  35.095  27.548  1.00  0.00     0.059 A 
ATOM     66  C   UNL A   1      47.631  34.690  29.878  1.00  0.00     0.059 A 
ATOM     67  F   UNL A   1      47.313  32.556  30.798  1.00  0.00    -0.206 F 
ATOM     68  C   UNL A   1      47.566  35.538  28.773  1.00  0.00     0.060 A 
BRANCH  68  69
ATOM     69  S   UNL A   1      48.132  37.244  28.904  1.00  0.00     0.124 S 
ATOM     70  O   UNL A   1      49.259  37.107  29.823  1.00  0.00    -0.237 OA
ATOM     71  O   UNL A   1      48.474  37.569  27.523  1.00  0.00    -0.237 OA
ATOM     72  O   UNL A   1      46.968  37.946  29.438  1.00  0.00    -0.744 OA
ENDBRANCH  68  69
ENDBRANCH  36  61
ENDBRANCH  10  11
ENDBRANCH   3   5
ENDBRANCH   2   3
ENDBRANCH   1   2
BRANCH   1  73
ATOM     73  C   UNL A   1      38.070  20.648  25.254  1.00  0.00     0.275 C 
BRANCH  73  74
ATOM     74  O   UNL A   1      36.927  21.420  25.652  1.00  0.00    -0.458 OA
BRANCH  74  75
ATOM     75  C   UNL A   1      36.153  21.921  24.650  1.00  0.00     0.342 C 
ATOM     76  O   UNL A   1      36.527  22.310  23.556  1.00  0.00    -0.246 OA
BRANCH  75  77
ATOM     77  C   UNL A   1      34.729  21.787  25.021  1.00  0.00     0.107 A 
ATOM     78  C   UNL A   1      34.024  22.946  25.409  1.00  0.00     0.042 A 
ATOM     79  C   UNL A   1      34.091  20.544  24.952  1.00  0.00     0.175 A 
ATOM     80  C   UNL A   1      32.650  22.870  25.639  1.00  0.00     0.092 A 
ATOM     81  C   UNL A   1      32.727  20.472  25.246  1.00  0.00     0.163 A 
ATOM     82  O   UNL A   1      34.837  19.438  24.631  1.00  0.00    -0.485 OA
ATOM     83  C   UNL A   1      32.005  21.627  25.557  1.00  0.00     0.072 A 
ATOM     84  O   UNL A   1      32.014  19.304  25.222  1.00  0.00    -0.486 OA
ATOM     85  C   UNL A   1      34.029  18.306  24.287  1.00  0.00     0.271 C 
ATOM     86  C   UNL A   1      32.860  18.151  25.245  1.00  0.00     0.271 C 
BRANCH  80  87
ATOM     87  S   UNL A   1      31.611  24.274  26.002  1.00  0.00     0.262 S 
ATOM     88  O   UNL A   1      30.762  24.470  24.848  1.00  0.00    -0.201 OA
ATOM     89  O   UNL A   1      31.046  24.022  27.313  1.00  0.00    -0.201 OA
BRANCH  87  90
ATOM     90  N   UNL A   1      32.566  25.624  26.224  1.00  0.00    -0.277 N 
ATOM     91  H   UNL A   1      33.179  25.614  26.995  1.00  0.00     0.180 HD
BRANCH  90  92
ATOM     92  C   UNL A   1      32.579  26.788  25.406  1.00  0.00     0.087 A 
ATOM     93  C   UNL A   1      31.698  27.851  25.575  1.00  0.00     0.069 A 
ATOM     94  C   UNL A   1      33.567  26.882  24.417  1.00  0.00     0.147 A 
ATOM     95  C   UNL A   1      31.737  28.923  24.682  1.00  0.00     0.125 A 
ATOM     96  C   UNL A   1      33.614  27.958  23.533  1.00  0.00     0.044 A 
ATOM     97  F   UNL A   1      34.478  25.904  24.296  1.00  0.00    -0.205 F 
ATOM     98  F   UNL A   1      30.827  29.900  24.792  1.00  0.00    -0.207 F 
ATOM     99  C   UNL A   1      32.674  28.978  23.654  1.00  0.00     0.042 A 
ENDBRANCH  90  92
ENDBRANCH  87  90
ENDBRANCH  80  87
ENDBRANCH  75  77
ENDBRANCH  74  75
ENDBRANCH  73  74
ENDBRANCH   1  73
TORSDOF 17
ENDMDL
MODEL 3
REMARK VINA RESULT:     -12.0      4.556     10.812
REMARK SMILES O=C(OCCOC(=O)c1cc(S(=O)(=O)Nc2cc(F)ccc2F)cc2c1OCCO2)c1ccc(-c2c3nc(c(-c4c(F)cc(S(=O)(=O)[O-])cc4F)c4ccc([nH]4)c(-c4c(F)cc(S(=O)(=O)[O-])cc4F)c4nc(c(-c5c(F)cc(S(=O)(=O)[O-])cc5F)c5ccc2[nH]5)C=C4)C=C3)cc1
REMARK SMILES IDX 4 1 3 2 2 3 1 4 31 5 32 6 96 7 33 8 95 9 34 10 35 11 36 12
REMARK SMILES IDX 89 13 37 14 94 15 88 16 90 17 38 18 93 19 87 20 86 21 39 23
REMARK SMILES IDX 73 24 52 25 72 26 53 27 56 28 71 29 91 30 54 31 55 32 70 34
REMARK SMILES IDX 92 35 57 36 40 37 41 38 50 39 42 40 43 41 49 42 51 43 44 44
REMARK SMILES IDX 45 45 46 46 47 47 48 48 74 49 75 50 84 51 76 52 77 53 83 54
REMARK SMILES IDX 85 55 78 56 79 57 80 58 81 59 82 60 58 61 59 62 68 63 60 64
REMARK SMILES IDX 61 65 67 66 69 67 62 68 63 69 64 70 65 71 66 72 5 73 6 74
REMARK SMILES IDX 7 75 8 76 9 77 10 78 26 79 11 80 25 81 27 82 24 83 30 84
REMARK SMILES IDX 28 85 29 86 12 87 13 88 14 89 15 90 16 92 17 93 22 94 18 95
REMARK SMILES IDX 21 96 23 97 19 98 20 99
REMARK H PARENT 90 22 56 33 15 91
REMARK Flexibility Score: inf
ROOT
ATOM      1  C   UNL A   1      38.150  31.791  33.529  1.00  0.00     0.275 C 
ENDROOT
BRANCH   1   2
ATOM      2  O   UNL A   1      37.415  30.582  33.259  1.00  0.00    -0.458 OA
BRANCH   2   3
ATOM      3  C   UNL A   1      37.194  30.136  32.005  1.00  0.00     0.338 C 
ATOM      4  O   UNL A   1      36.064  30.134  31.531  1.00  0.00    -0.246 OA
BRANCH   3   5
ATOM      5  C   UNL A   1      38.371  29.787  31.153  1.00  0.00     0.060 A 
ATOM      6  C   UNL A   1      38.500  30.117  29.805  1.00  0.00     0.016 A 
ATOM      7  C   UNL A   1      39.454  29.159  31.787  1.00  0.00     0.016 A 
ATOM      8  C   UNL A   1      39.676  29.838  29.118  1.00  0.00     0.010 A 
ATOM      9  C   UNL A   1      40.653  28.915  31.119  1.00  0.00     0.010 A 
ATOM     10  C   UNL A   1      40.762  29.248  29.773  1.00  0.00    -0.014 A 
BRANCH  10  11
ATOM     11  C   UNL A   1      41.985  28.981  28.992  1.00  0.00     0.031 A 
ATOM     12  C   UNL A   1      43.020  30.047  28.870  1.00  0.00     0.074 A 
ATOM     13  C   UNL A   1      42.192  27.738  28.523  1.00  0.00     0.049 A 
ATOM     14  N   UNL A   1      44.241  29.944  28.425  1.00  0.00    -0.248 NA
ATOM     15  C   UNL A   1      42.645  31.398  29.318  1.00  0.00     0.031 C 
ATOM     16  C   UNL A   1      41.208  26.663  28.603  1.00  0.00     0.029 A 
ATOM     17  N   UNL A   1      43.276  27.147  27.933  1.00  0.00    -0.354 N 
ATOM     18  C   UNL A   1      44.795  31.206  28.576  1.00  0.00     0.074 A 
ATOM     19  C   UNL A   1      43.759  32.075  29.086  1.00  0.00     0.031 C 
ATOM     20  C   UNL A   1      41.741  25.534  28.116  1.00  0.00     0.029 A 
ATOM     21  C   UNL A   1      43.094  25.809  27.668  1.00  0.00     0.049 A 
ATOM     22  H   UNL A   1      44.105  27.633  27.719  1.00  0.00     0.167 HD
ATOM     23  C   UNL A   1      46.070  31.583  28.337  1.00  0.00     0.037 A 
ATOM     24  C   UNL A   1      43.930  24.899  27.133  1.00  0.00     0.037 A 
ATOM     25  C   UNL A   1      47.062  30.695  27.789  1.00  0.00     0.049 A 
ATOM     26  C   UNL A   1      45.327  25.355  26.837  1.00  0.00     0.074 A 
ATOM     27  C   UNL A   1      48.374  30.965  27.450  1.00  0.00     0.029 A 
ATOM     28  N   UNL A   1      46.837  29.355  27.489  1.00  0.00    -0.354 N 
ATOM     29  N   UNL A   1      45.849  26.547  27.017  1.00  0.00    -0.248 NA
ATOM     30  C   UNL A   1      46.254  24.359  26.296  1.00  0.00     0.031 C 
ATOM     31  C   UNL A   1      48.930  29.797  26.914  1.00  0.00     0.029 A 
ATOM     32  C   UNL A   1      47.982  28.786  26.961  1.00  0.00     0.049 A 
ATOM     33  H   UNL A   1      45.986  28.881  27.633  1.00  0.00     0.167 HD
ATOM     34  C   UNL A   1      47.170  26.448  26.614  1.00  0.00     0.074 A 
ATOM     35  C   UNL A   1      47.375  25.064  26.220  1.00  0.00     0.031 C 
ATOM     36  C   UNL A   1      48.127  27.407  26.563  1.00  0.00     0.037 A 
BRANCH  23  37
ATOM     37  C   UNL A   1      46.428  33.004  28.660  1.00  0.00     0.058 A 
ATOM     38  C   UNL A   1      46.936  33.361  29.921  1.00  0.00     0.135 A 
ATOM     39  C   UNL A   1      46.234  34.028  27.720  1.00  0.00     0.135 A 
ATOM     40  F   UNL A   1      47.109  32.426  30.870  1.00  0.00    -0.206 F 
ATOM     41  C   UNL A   1      47.216  34.683  30.246  1.00  0.00     0.059 A 
ATOM     42  C   UNL A   1      46.530  35.355  28.017  1.00  0.00     0.059 A 
ATOM     43  F   UNL A   1      45.735  33.745  26.507  1.00  0.00    -0.206 F 
ATOM     44  C   UNL A   1      47.009  35.675  29.287  1.00  0.00     0.060 A 
BRANCH  44  45
ATOM     45  S   UNL A   1      47.382  37.386  29.724  1.00  0.00     0.124 S 
ATOM     46  O   UNL A   1      48.688  37.570  29.097  1.00  0.00    -0.237 OA
ATOM     47  O   UNL A   1      46.277  38.113  29.109  1.00  0.00    -0.237 OA
ATOM     48  O   UNL A   1      47.385  37.372  31.184  1.00  0.00    -0.744 OA
ENDBRANCH  44  45
ENDBRANCH  23  37
BRANCH  24  49
ATOM     49  C   UNL A   1      43.469  23.507  26.869  1.00  0.00     0.058 A 
ATOM     50  C   UNL A   1      43.215  23.040  25.572  1.00  0.00     0.135 A 
ATOM     51  C   UNL A   1      43.298  22.597  27.927  1.00  0.00     0.135 A 
ATOM     52  F   UNL A   1      43.371  23.859  24.520  1.00  0.00    -0.206 F 
ATOM     53  C   UNL A   1      42.785  21.735  25.332  1.00  0.00     0.059 A 
ATOM     54  C   UNL A   1      42.899  21.281  27.712  1.00  0.00     0.059 A 
ATOM     55  F   UNL A   1      43.554  22.977  29.189  1.00  0.00    -0.206 F 
ATOM     56  C   UNL A   1      42.630  20.862  26.412  1.00  0.00     0.060 A 
BRANCH  56  57
ATOM     57  S   UNL A   1      42.115  19.160  26.091  1.00  0.00     0.124 S 
ATOM     58  O   UNL A   1      42.487  18.500  27.338  1.00  0.00    -0.237 OA
ATOM     59  O   UNL A   1      40.685  19.315  25.850  1.00  0.00    -0.237 OA
ATOM     60  O   UNL A   1      42.902  18.789  24.918  1.00  0.00    -0.744 OA
ENDBRANCH  56  57
ENDBRANCH  24  49
BRANCH  36  61
ATOM     61  C   UNL A   1      49.468  26.967  26.058  1.00  0.00     0.058 A 
ATOM     62  C   UNL A   1      49.832  27.131  24.712  1.00  0.00     0.135 A 
ATOM     63  C   UNL A   1      50.396  26.378  26.931  1.00  0.00     0.135 A 
ATOM     64  F   UNL A   1      48.971  27.679  23.841  1.00  0.00    -0.206 F 
ATOM     65  C   UNL A   1      51.058  26.685  24.239  1.00  0.00     0.059 A 
ATOM     66  C   UNL A   1      51.640  25.954  26.485  1.00  0.00     0.059 A 
ATOM     67  F   UNL A   1      50.094  26.211  28.228  1.00  0.00    -0.206 F 
ATOM     68  C   UNL A   1      51.954  26.094  25.133  1.00  0.00     0.060 A 
BRANCH  68  69
ATOM     69  S   UNL A   1      53.542  25.517  24.506  1.00  0.00     0.124 S 
ATOM     70  O   UNL A   1      54.475  26.274  25.335  1.00  0.00    -0.237 OA
ATOM     71  O   UNL A   1      53.480  24.083  24.766  1.00  0.00    -0.237 OA
ATOM     72  O   UNL A   1      53.506  25.895  23.096  1.00  0.00    -0.744 OA
ENDBRANCH  68  69
ENDBRANCH  36  61
ENDBRANCH  10  11
ENDBRANCH   3   5
ENDBRANCH   2   3
ENDBRANCH   1   2
BRANCH   1  73
ATOM     73  C   UNL A   1      37.903  33.011  32.628  1.00  0.00     0.275 C 
BRANCH  73  74
ATOM     74  O   UNL A   1      37.002  33.977  33.189  1.00  0.00    -0.458 OA
BRANCH  74  75
ATOM     75  C   UNL A   1      35.684  33.634  33.217  1.00  0.00     0.342 C 
ATOM     76  O   UNL A   1      35.107  33.002  34.086  1.00  0.00    -0.246 OA
BRANCH  75  77
ATOM     77  C   UNL A   1      34.989  34.284  32.086  1.00  0.00     0.107 A 
ATOM     78  C   UNL A   1      34.922  33.596  30.855  1.00  0.00     0.042 A 
ATOM     79  C   UNL A   1      34.381  35.533  32.248  1.00  0.00     0.175 A 
ATOM     80  C   UNL A   1      34.162  34.127  29.813  1.00  0.00     0.092 A 
ATOM     81  C   UNL A   1      33.676  36.081  31.174  1.00  0.00     0.163 A 
ATOM     82  O   UNL A   1      34.530  36.188  33.444  1.00  0.00    -0.485 OA
ATOM     83  C   UNL A   1      33.539  35.373  29.977  1.00  0.00     0.072 A 
ATOM     84  O   UNL A   1      33.058  37.302  31.225  1.00  0.00    -0.486 OA
ATOM     85  C   UNL A   1      33.619  37.282  33.595  1.00  0.00     0.271 C 
ATOM     86  C   UNL A   1      33.523  38.099  32.317  1.00  0.00     0.271 C 
BRANCH  80  87
ATOM     87  S   UNL A   1      33.878  33.304  28.255  1.00  0.00     0.262 S 
ATOM     88  O   UNL A   1      32.641  33.834  27.726  1.00  0.00    -0.201 OA
ATOM     89  O   UNL A   1      35.118  33.418  27.514  1.00  0.00    -0.201 OA
BRANCH  87  90
ATOM     90  N   UNL A   1      33.712  31.665  28.520  1.00  0.00    -0.277 N 
ATOM     91  H   UNL A   1      33.769  31.356  29.452  1.00  0.00     0.180 HD
BRANCH  90  92
ATOM     92  C   UNL A   1      33.494  30.672  27.524  1.00  0.00     0.087 A 
ATOM     93  C   UNL A   1      32.331  30.592  26.764  1.00  0.00     0.069 A 
ATOM     94  C   UNL A   1      34.532  29.765  27.266  1.00  0.00     0.147 A 
ATOM     95  C   UNL A   1      32.175  29.542  25.858  1.00  0.00     0.125 A 
ATOM     96  C   UNL A   1      34.380  28.725  26.352  1.00  0.00     0.044 A 
ATOM     97  F   UNL A   1      35.692  29.881  27.930  1.00  0.00    -0.205 F 
ATOM     98  F   UNL A   1      31.017  29.417  25.196  1.00  0.00    -0.207 F 
ATOM     99  C   UNL A   1      33.180  28.600  25.657  1.00  0.00     0.042 A 
ENDBRANCH  90  92
ENDBRANCH  87  90
ENDBRANCH  80  87
ENDBRANCH  75  77
ENDBRANCH  74  75
ENDBRANCH  73  74
ENDBRANCH   1  73
TORSDOF 17
ENDMDL
