MODEL 1
REMARK VINA RESULT:     -10.7      0.000      0.000
REMARK SMILES CC1(C)[C@H](C(=O)OCCOC(=O)c2ccc(-c3c4nc(c(-c5c(F)cc(S(=O)(=O)[O-])cc5F)c5ccc([nH]5)c(-c5c(F)cc(S(=O)(=O)[O-])cc5F)c5nc(c(-c6c(F)cc(S(=O)(=O)[O-])cc6F)c6ccc3[nH]6)C=C5)C=C4)cc2)[C@@H]1C(=O)Nc1ccon1
REMARK SMILES IDX 9 1 8 2 7 3 5 4 6 5 4 6 1 7 2 8 3 9 79 10 80 11 81 12 82 13
REMARK SMILES IDX 83 15 84 16 87 17 85 18 86 19 10 20 11 21 12 22 13 23 14 24
REMARK SMILES IDX 78 25 15 26 77 27 16 28 17 29 18 30 71 31 19 32 76 33 70 34
REMARK SMILES IDX 72 35 20 36 75 37 69 38 68 39 21 41 55 42 34 43 54 44 35 45
REMARK SMILES IDX 38 46 53 47 73 48 36 49 37 50 52 52 74 53 39 54 22 55 23 56
REMARK SMILES IDX 32 57 24 58 25 59 31 60 33 61 26 62 27 63 28 64 29 65 30 66
REMARK SMILES IDX 56 67 57 68 66 69 58 70 59 71 65 72 67 73 60 74 61 75 62 76
REMARK SMILES IDX 63 77 64 78 40 79 41 80 50 81 42 82 43 83 49 84 51 85 44 86
REMARK SMILES IDX 45 87 46 88 47 89 48 90
REMARK H PARENT 82 14 72 40 38 51
REMARK Flexibility Score: inf
ROOT
ATOM      1  C   UNL A   1      33.570  28.774  25.862  1.00  0.00     0.275 C 
ENDROOT
BRANCH   1   2
ATOM      2  C   UNL A   1      32.224  28.045  25.720  1.00  0.00     0.274 C 
BRANCH   2   3
ATOM      3  O   UNL A   1      32.128  26.875  26.552  1.00  0.00    -0.462 OA
BRANCH   3   4
ATOM      4  C   UNL A   1      31.247  25.945  26.105  1.00  0.00     0.310 C 
ATOM      5  O   UNL A   1      30.079  25.872  26.446  1.00  0.00    -0.252 OA
BRANCH   4   6
ATOM      6  C   UNL A   1      31.758  24.993  25.087  1.00  0.00     0.118 C 
ATOM      7  C   UNL A   1      33.608  24.499  23.416  1.00  0.00     0.013 C 
ATOM      8  C   UNL A   1      33.176  24.532  24.868  1.00  0.00    -0.009 C 
ATOM      9  C   UNL A   1      34.291  24.969  25.788  1.00  0.00     0.013 C 
ATOM     10  C   UNL A   1      32.091  23.549  25.358  1.00  0.00     0.100 C 
BRANCH  10  11
ATOM     11  C   UNL A   1      32.174  22.942  26.707  1.00  0.00     0.230 C 
ATOM     12  O   UNL A   1      31.527  23.444  27.624  1.00  0.00    -0.274 OA
ATOM     13  N   UNL A   1      32.941  21.838  26.951  1.00  0.00    -0.308 N 
ATOM     14  H   UNL A   1      32.773  21.418  27.824  1.00  0.00     0.171 HD
BRANCH  13  15
ATOM     15  C   UNL A   1      33.905  21.206  26.203  1.00  0.00     0.175 A 
ATOM     16  C   UNL A   1      35.282  21.476  26.051  1.00  0.00     0.092 A 
ATOM     17  N   UNL A   1      33.551  20.140  25.476  1.00  0.00    -0.062 NA
ATOM     18  C   UNL A   1      35.695  20.603  25.078  1.00  0.00     0.233 A 
ATOM     19  O   UNL A   1      34.665  19.795  24.733  1.00  0.00    -0.363 OA
ENDBRANCH  13  15
ENDBRANCH  10  11
ENDBRANCH   4   6
ENDBRANCH   3   4
ENDBRANCH   2   3
ENDBRANCH   1   2
BRANCH   1  20
ATOM     20  O   UNL A   1      34.147  28.654  27.177  1.00  0.00    -0.458 OA
BRANCH  20  21
ATOM     21  C   UNL A   1      34.553  29.821  27.734  1.00  0.00     0.338 C 
ATOM     22  O   UNL A   1      33.855  30.788  27.995  1.00  0.00    -0.246 OA
BRANCH  21  23
ATOM     23  C   UNL A   1      35.964  29.732  28.154  1.00  0.00     0.060 A 
ATOM     24  C   UNL A   1      36.943  29.946  27.180  1.00  0.00     0.016 A 
ATOM     25  C   UNL A   1      36.328  29.333  29.437  1.00  0.00     0.016 A 
ATOM     26  C   UNL A   1      38.289  29.762  27.467  1.00  0.00     0.010 A 
ATOM     27  C   UNL A   1      37.683  29.128  29.726  1.00  0.00     0.010 A 
ATOM     28  C   UNL A   1      38.666  29.326  28.737  1.00  0.00    -0.014 A 
BRANCH  28  29
ATOM     29  C   UNL A   1      40.075  28.950  28.984  1.00  0.00     0.031 A 
ATOM     30  C   UNL A   1      41.009  29.981  29.550  1.00  0.00     0.074 A 
ATOM     31  C   UNL A   1      40.501  27.696  28.744  1.00  0.00     0.049 A 
ATOM     32  N   UNL A   1      42.306  29.936  29.686  1.00  0.00    -0.248 NA
ATOM     33  C   UNL A   1      40.394  31.230  30.025  1.00  0.00     0.031 C 
ATOM     34  C   UNL A   1      39.658  26.588  28.294  1.00  0.00     0.029 A 
ATOM     35  N   UNL A   1      41.755  27.149  28.833  1.00  0.00    -0.354 N 
ATOM     36  C   UNL A   1      42.671  31.165  30.223  1.00  0.00     0.074 A 
ATOM     37  C   UNL A   1      41.457  31.932  30.392  1.00  0.00     0.031 C 
ATOM     38  C   UNL A   1      40.424  25.497  28.126  1.00  0.00     0.029 A 
ATOM     39  C   UNL A   1      41.816  25.847  28.396  1.00  0.00     0.049 A 
ATOM     40  H   UNL A   1      42.537  27.640  29.178  1.00  0.00     0.167 HD
ATOM     41  C   UNL A   1      43.910  31.608  30.537  1.00  0.00     0.037 A 
ATOM     42  C   UNL A   1      42.882  25.049  28.187  1.00  0.00     0.037 A 
ATOM     43  C   UNL A   1      45.103  30.819  30.377  1.00  0.00     0.049 A 
ATOM     44  C   UNL A   1      44.259  25.588  28.469  1.00  0.00     0.074 A 
ATOM     45  C   UNL A   1      46.413  31.172  30.645  1.00  0.00     0.029 A 
ATOM     46  N   UNL A   1      45.128  29.511  29.910  1.00  0.00    -0.354 N 
ATOM     47  N   UNL A   1      44.604  26.771  28.924  1.00  0.00    -0.248 NA
ATOM     48  C   UNL A   1      45.394  24.693  28.201  1.00  0.00     0.031 C 
ATOM     49  C   UNL A   1      47.233  30.092  30.301  1.00  0.00     0.029 A 
ATOM     50  C   UNL A   1      46.430  29.048  29.870  1.00  0.00     0.049 A 
ATOM     51  H   UNL A   1      44.335  28.992  29.646  1.00  0.00     0.167 HD
ATOM     52  C   UNL A   1      45.989  26.751  29.027  1.00  0.00     0.074 A 
ATOM     53  C   UNL A   1      46.420  25.439  28.587  1.00  0.00     0.031 C 
ATOM     54  C   UNL A   1      46.830  27.727  29.451  1.00  0.00     0.037 A 
BRANCH  41  55
ATOM     55  C   UNL A   1      44.041  33.021  31.031  1.00  0.00     0.058 A 
ATOM     56  C   UNL A   1      44.073  34.118  30.156  1.00  0.00     0.135 A 
ATOM     57  C   UNL A   1      44.118  33.282  32.410  1.00  0.00     0.135 A 
ATOM     58  F   UNL A   1      44.026  33.924  28.828  1.00  0.00    -0.206 F 
ATOM     59  C   UNL A   1      44.203  35.420  30.628  1.00  0.00     0.059 A 
ATOM     60  C   UNL A   1      44.223  34.577  32.905  1.00  0.00     0.059 A 
ATOM     61  F   UNL A   1      44.098  32.269  33.291  1.00  0.00    -0.206 F 
ATOM     62  C   UNL A   1      44.280  35.640  32.004  1.00  0.00     0.060 A 
BRANCH  62  63
ATOM     63  S   UNL A   1      44.449  37.335  32.603  1.00  0.00     0.124 S 
ATOM     64  O   UNL A   1      43.174  37.530  33.286  1.00  0.00    -0.237 OA
ATOM     65  O   UNL A   1      45.622  37.247  33.466  1.00  0.00    -0.237 OA
ATOM     66  O   UNL A   1      44.631  38.111  31.380  1.00  0.00    -0.744 OA
ENDBRANCH  62  63
ENDBRANCH  41  55
BRANCH  42  67
ATOM     67  C   UNL A   1      42.688  23.678  27.644  1.00  0.00     0.058 A 
ATOM     68  C   UNL A   1      42.773  23.424  26.268  1.00  0.00     0.135 A 
ATOM     69  C   UNL A   1      42.427  22.591  28.495  1.00  0.00     0.135 A 
ATOM     70  F   UNL A   1      43.010  24.430  25.414  1.00  0.00    -0.206 F 
ATOM     71  C   UNL A   1      42.598  22.143  25.752  1.00  0.00     0.059 A 
ATOM     72  C   UNL A   1      42.275  21.298  28.005  1.00  0.00     0.059 A 
ATOM     73  F   UNL A   1      42.345  22.779  29.822  1.00  0.00    -0.206 F 
ATOM     74  C   UNL A   1      42.353  21.085  26.630  1.00  0.00     0.060 A 
BRANCH  74  75
ATOM     75  S   UNL A   1      42.184  19.418  25.955  1.00  0.00     0.124 S 
ATOM     76  O   UNL A   1      42.721  18.607  27.041  1.00  0.00    -0.237 OA
ATOM     77  O   UNL A   1      40.744  19.322  25.736  1.00  0.00    -0.237 OA
ATOM     78  O   UNL A   1      42.993  19.465  24.741  1.00  0.00    -0.744 OA
ENDBRANCH  74  75
ENDBRANCH  42  67
BRANCH  54  79
ATOM     79  C   UNL A   1      48.294  27.401  29.521  1.00  0.00     0.058 A 
ATOM     80  C   UNL A   1      49.175  27.723  28.479  1.00  0.00     0.135 A 
ATOM     81  C   UNL A   1      48.832  26.832  30.688  1.00  0.00     0.135 A 
ATOM     82  F   UNL A   1      48.709  28.262  27.342  1.00  0.00    -0.206 F 
ATOM     83  C   UNL A   1      50.542  27.486  28.587  1.00  0.00     0.059 A 
ATOM     84  C   UNL A   1      50.197  26.608  30.826  1.00  0.00     0.059 A 
ATOM     85  F   UNL A   1      48.030  26.513  31.716  1.00  0.00    -0.206 F 
ATOM     86  C   UNL A   1      51.044  26.933  29.768  1.00  0.00     0.060 A 
BRANCH  86  87
ATOM     87  S   UNL A   1      52.825  26.686  29.921  1.00  0.00     0.124 S 
ATOM     88  O   UNL A   1      52.898  25.755  31.042  1.00  0.00    -0.237 OA
ATOM     89  O   UNL A   1      53.178  26.135  28.616  1.00  0.00    -0.237 OA
ATOM     90  O   UNL A   1      53.334  28.028  30.185  1.00  0.00    -0.744 OA
ENDBRANCH  86  87
ENDBRANCH  54  79
ENDBRANCH  28  29
ENDBRANCH  21  23
ENDBRANCH  20  21
ENDBRANCH   1  20
TORSDOF 16
ENDMDL
MODEL 2
REMARK VINA RESULT:     -10.6      2.562      4.078
REMARK SMILES CC1(C)[C@H](C(=O)OCCOC(=O)c2ccc(-c3c4nc(c(-c5c(F)cc(S(=O)(=O)[O-])cc5F)c5ccc([nH]5)c(-c5c(F)cc(S(=O)(=O)[O-])cc5F)c5nc(c(-c6c(F)cc(S(=O)(=O)[O-])cc6F)c6ccc3[nH]6)C=C5)C=C4)cc2)[C@@H]1C(=O)Nc1ccon1
REMARK SMILES IDX 9 1 8 2 7 3 5 4 6 5 4 6 1 7 2 8 3 9 79 10 80 11 81 12 82 13
REMARK SMILES IDX 83 15 84 16 87 17 85 18 86 19 10 20 11 21 12 22 13 23 14 24
REMARK SMILES IDX 78 25 15 26 77 27 16 28 17 29 18 30 71 31 19 32 76 33 70 34
REMARK SMILES IDX 72 35 20 36 75 37 69 38 68 39 21 41 55 42 34 43 54 44 35 45
REMARK SMILES IDX 38 46 53 47 73 48 36 49 37 50 52 52 74 53 39 54 22 55 23 56
REMARK SMILES IDX 32 57 24 58 25 59 31 60 33 61 26 62 27 63 28 64 29 65 30 66
REMARK SMILES IDX 56 67 57 68 66 69 58 70 59 71 65 72 67 73 60 74 61 75 62 76
REMARK SMILES IDX 63 77 64 78 40 79 41 80 50 81 42 82 43 83 49 84 51 85 44 86
REMARK SMILES IDX 45 87 46 88 47 89 48 90
REMARK H PARENT 82 14 72 40 38 51
REMARK Flexibility Score: inf
ROOT
ATOM      1  C   UNL A   1      32.932  30.572  26.923  1.00  0.00     0.275 C 
ENDROOT
BRANCH   1   2
ATOM      2  C   UNL A   1      31.623  29.773  26.805  1.00  0.00     0.274 C 
BRANCH   2   3
ATOM      3  O   UNL A   1      31.570  28.954  25.623  1.00  0.00    -0.462 OA
BRANCH   3   4
ATOM      4  C   UNL A   1      30.927  29.529  24.575  1.00  0.00     0.310 C 
ATOM      5  O   UNL A   1      30.371  30.613  24.610  1.00  0.00    -0.252 OA
BRANCH   4   6
ATOM      6  C   UNL A   1      30.966  28.785  23.291  1.00  0.00     0.118 C 
ATOM      7  C   UNL A   1      31.826  26.718  22.089  1.00  0.00     0.013 C 
ATOM      8  C   UNL A   1      30.828  27.300  23.069  1.00  0.00    -0.009 C 
ATOM      9  C   UNL A   1      30.533  26.362  24.214  1.00  0.00     0.013 C 
ATOM     10  C   UNL A   1      29.750  28.281  22.558  1.00  0.00     0.100 C 
BRANCH  10  11
ATOM     11  C   UNL A   1      28.378  28.256  23.118  1.00  0.00     0.230 C 
ATOM     12  O   UNL A   1      27.921  27.188  23.518  1.00  0.00    -0.274 OA
ATOM     13  N   UNL A   1      27.619  29.388  23.206  1.00  0.00    -0.308 N 
ATOM     14  H   UNL A   1      26.811  29.287  23.758  1.00  0.00     0.171 HD
BRANCH  13  15
ATOM     15  C   UNL A   1      27.773  30.642  22.666  1.00  0.00     0.175 A 
ATOM     16  C   UNL A   1      28.330  31.058  21.437  1.00  0.00     0.092 A 
ATOM     17  N   UNL A   1      27.335  31.696  23.366  1.00  0.00    -0.062 NA
ATOM     18  C   UNL A   1      28.334  32.427  21.511  1.00  0.00     0.233 A 
ATOM     19  O   UNL A   1      27.735  32.816  22.660  1.00  0.00    -0.363 OA
ENDBRANCH  13  15
ENDBRANCH  10  11
ENDBRANCH   4   6
ENDBRANCH   3   4
ENDBRANCH   2   3
ENDBRANCH   1   2
BRANCH   1  20
ATOM     20  O   UNL A   1      33.957  29.879  27.663  1.00  0.00    -0.458 OA
BRANCH  20  21
ATOM     21  C   UNL A   1      34.822  30.681  28.331  1.00  0.00     0.338 C 
ATOM     22  O   UNL A   1      34.552  31.712  28.925  1.00  0.00    -0.246 OA
BRANCH  21  23
ATOM     23  C   UNL A   1      36.157  30.059  28.400  1.00  0.00     0.060 A 
ATOM     24  C   UNL A   1      36.567  29.542  29.632  1.00  0.00     0.016 A 
ATOM     25  C   UNL A   1      37.039  30.084  27.323  1.00  0.00     0.016 A 
ATOM     26  C   UNL A   1      37.853  29.050  29.809  1.00  0.00     0.010 A 
ATOM     27  C   UNL A   1      38.343  29.606  27.502  1.00  0.00     0.010 A 
ATOM     28  C   UNL A   1      38.759  29.103  28.750  1.00  0.00    -0.014 A 
BRANCH  28  29
ATOM     29  C   UNL A   1      40.177  28.757  28.992  1.00  0.00     0.031 A 
ATOM     30  C   UNL A   1      41.090  29.805  29.559  1.00  0.00     0.074 A 
ATOM     31  C   UNL A   1      40.629  27.514  28.744  1.00  0.00     0.049 A 
ATOM     32  N   UNL A   1      42.388  29.788  29.691  1.00  0.00    -0.248 NA
ATOM     33  C   UNL A   1      40.449  31.039  30.041  1.00  0.00     0.031 C 
ATOM     34  C   UNL A   1      39.808  26.390  28.292  1.00  0.00     0.029 A 
ATOM     35  N   UNL A   1      41.895  26.993  28.827  1.00  0.00    -0.354 N 
ATOM     36  C   UNL A   1      42.728  31.022  30.233  1.00  0.00     0.074 A 
ATOM     37  C   UNL A   1      41.498  31.762  30.408  1.00  0.00     0.031 C 
ATOM     38  C   UNL A   1      40.597  25.316  28.117  1.00  0.00     0.029 A 
ATOM     39  C   UNL A   1      41.982  25.695  28.383  1.00  0.00     0.049 A 
ATOM     40  H   UNL A   1      42.667  27.500  29.172  1.00  0.00     0.167 HD
ATOM     41  C   UNL A   1      43.958  31.490  30.544  1.00  0.00     0.037 A 
ATOM     42  C   UNL A   1      43.065  24.921  28.167  1.00  0.00     0.037 A 
ATOM     43  C   UNL A   1      45.168  30.728  30.377  1.00  0.00     0.049 A 
ATOM     44  C   UNL A   1      44.431  25.489  28.448  1.00  0.00     0.074 A 
ATOM     45  C   UNL A   1      46.471  31.108  30.642  1.00  0.00     0.029 A 
ATOM     46  N   UNL A   1      45.219  29.424  29.903  1.00  0.00    -0.354 N 
ATOM     47  N   UNL A   1      44.751  26.677  28.907  1.00  0.00    -0.248 NA
ATOM     48  C   UNL A   1      45.584  24.620  28.172  1.00  0.00     0.031 C 
ATOM     49  C   UNL A   1      47.313  30.048  30.291  1.00  0.00     0.029 A 
ATOM     50  C   UNL A   1      46.531  28.988  29.857  1.00  0.00     0.049 A 
ATOM     51  H   UNL A   1      44.436  28.888  29.640  1.00  0.00     0.167 HD
ATOM     52  C   UNL A   1      46.137  26.686  29.005  1.00  0.00     0.074 A 
ATOM     53  C   UNL A   1      46.595  25.386  28.558  1.00  0.00     0.031 C 
ATOM     54  C   UNL A   1      46.957  27.678  29.432  1.00  0.00     0.037 A 
BRANCH  41  55
ATOM     55  C   UNL A   1      44.060  32.903  31.045  1.00  0.00     0.058 A 
ATOM     56  C   UNL A   1      44.044  33.214  32.413  1.00  0.00     0.135 A 
ATOM     57  C   UNL A   1      44.193  33.966  30.135  1.00  0.00     0.135 A 
ATOM     58  F   UNL A   1      43.896  32.239  33.325  1.00  0.00    -0.206 F 
ATOM     59  C   UNL A   1      44.131  34.528  32.861  1.00  0.00     0.059 A 
ATOM     60  C   UNL A   1      44.307  35.285  30.561  1.00  0.00     0.059 A 
ATOM     61  F   UNL A   1      44.207  33.726  28.814  1.00  0.00    -0.206 F 
ATOM     62  C   UNL A   1      44.259  35.558  31.927  1.00  0.00     0.060 A 
BRANCH  62  63
ATOM     63  S   UNL A   1      44.369  37.259  32.523  1.00  0.00     0.124 S 
ATOM     64  O   UNL A   1      43.341  37.270  33.559  1.00  0.00    -0.237 OA
ATOM     65  O   UNL A   1      45.747  37.336  32.997  1.00  0.00    -0.237 OA
ATOM     66  O   UNL A   1      44.072  38.055  31.336  1.00  0.00    -0.744 OA
ENDBRANCH  62  63
ENDBRANCH  41  55
BRANCH  42  67
ATOM     67  C   UNL A   1      42.899  23.549  27.618  1.00  0.00     0.058 A 
ATOM     68  C   UNL A   1      42.552  22.473  28.447  1.00  0.00     0.135 A 
ATOM     69  C   UNL A   1      43.072  23.290  26.249  1.00  0.00     0.135 A 
ATOM     70  F   UNL A   1      42.385  22.668  29.764  1.00  0.00    -0.206 F 
ATOM     71  C   UNL A   1      42.390  21.187  27.941  1.00  0.00     0.059 A 
ATOM     72  C   UNL A   1      42.890  22.018  25.715  1.00  0.00     0.059 A 
ATOM     73  F   UNL A   1      43.397  24.287  25.410  1.00  0.00    -0.206 F 
ATOM     74  C   UNL A   1      42.557  20.970  26.572  1.00  0.00     0.060 A 
BRANCH  74  75
ATOM     75  S   UNL A   1      42.290  19.308  25.917  1.00  0.00     0.124 S 
ATOM     76  O   UNL A   1      40.849  19.310  25.695  1.00  0.00    -0.237 OA
ATOM     77  O   UNL A   1      43.122  19.315  24.718  1.00  0.00    -0.237 OA
ATOM     78  O   UNL A   1      42.764  18.443  26.994  1.00  0.00    -0.744 OA
ENDBRANCH  74  75
ENDBRANCH  42  67
BRANCH  54  79
ATOM     79  C   UNL A   1      48.429  27.384  29.495  1.00  0.00     0.058 A 
ATOM     80  C   UNL A   1      49.300  27.730  28.452  1.00  0.00     0.135 A 
ATOM     81  C   UNL A   1      48.983  26.822  30.658  1.00  0.00     0.135 A 
ATOM     82  F   UNL A   1      48.818  28.262  27.318  1.00  0.00    -0.206 F 
ATOM     83  C   UNL A   1      50.671  27.521  28.554  1.00  0.00     0.059 A 
ATOM     84  C   UNL A   1      50.353  26.627  30.791  1.00  0.00     0.059 A 
ATOM     85  F   UNL A   1      48.191  26.482  31.687  1.00  0.00    -0.206 F 
ATOM     86  C   UNL A   1      51.189  26.975  29.731  1.00  0.00     0.060 A 
BRANCH  86  87
ATOM     87  S   UNL A   1      52.976  26.766  29.877  1.00  0.00     0.124 S 
ATOM     88  O   UNL A   1      53.074  25.859  31.016  1.00  0.00    -0.237 OA
ATOM     89  O   UNL A   1      53.331  26.196  28.581  1.00  0.00    -0.237 OA
ATOM     90  O   UNL A   1      53.460  28.123  30.111  1.00  0.00    -0.744 OA
ENDBRANCH  86  87
ENDBRANCH  54  79
ENDBRANCH  28  29
ENDBRANCH  21  23
ENDBRANCH  20  21
ENDBRANCH   1  20
TORSDOF 16
ENDMDL
MODEL 3
REMARK VINA RESULT:     -10.6      1.345      2.191
REMARK SMILES CC1(C)[C@H](C(=O)OCCOC(=O)c2ccc(-c3c4nc(c(-c5c(F)cc(S(=O)(=O)[O-])cc5F)c5ccc([nH]5)c(-c5c(F)cc(S(=O)(=O)[O-])cc5F)c5nc(c(-c6c(F)cc(S(=O)(=O)[O-])cc6F)c6ccc3[nH]6)C=C5)C=C4)cc2)[C@@H]1C(=O)Nc1ccon1
REMARK SMILES IDX 9 1 8 2 7 3 5 4 6 5 4 6 1 7 2 8 3 9 79 10 80 11 81 12 82 13
REMARK SMILES IDX 83 15 84 16 87 17 85 18 86 19 10 20 11 21 12 22 13 23 14 24
REMARK SMILES IDX 78 25 15 26 77 27 16 28 17 29 18 30 71 31 19 32 76 33 70 34
REMARK SMILES IDX 72 35 20 36 75 37 69 38 68 39 21 41 55 42 34 43 54 44 35 45
REMARK SMILES IDX 38 46 53 47 73 48 36 49 37 50 52 52 74 53 39 54 22 55 23 56
REMARK SMILES IDX 32 57 24 58 25 59 31 60 33 61 26 62 27 63 28 64 29 65 30 66
REMARK SMILES IDX 56 67 57 68 66 69 58 70 59 71 65 72 67 73 60 74 61 75 62 76
REMARK SMILES IDX 63 77 64 78 40 79 41 80 50 81 42 82 43 83 49 84 51 85 44 86
REMARK SMILES IDX 45 87 46 88 47 89 48 90
REMARK H PARENT 82 14 72 40 38 51
REMARK Flexibility Score: inf
ROOT
ATOM      1  C   UNL A   1      32.563  30.724  26.959  1.00  0.00     0.275 C 
ENDROOT
BRANCH   1   2
ATOM      2  C   UNL A   1      31.933  30.027  25.743  1.00  0.00     0.274 C 
BRANCH   2   3
ATOM      3  O   UNL A   1      32.910  29.455  24.854  1.00  0.00    -0.462 OA
BRANCH   3   4
ATOM      4  C   UNL A   1      32.378  28.808  23.785  1.00  0.00     0.310 C 
ATOM      5  O   UNL A   1      31.664  29.325  22.944  1.00  0.00    -0.252 OA
BRANCH   4   6
ATOM      6  C   UNL A   1      32.755  27.381  23.628  1.00  0.00     0.118 C 
ATOM      7  C   UNL A   1      34.361  25.544  24.337  1.00  0.00     0.013 C 
ATOM      8  C   UNL A   1      33.164  26.400  24.697  1.00  0.00    -0.009 C 
ATOM      9  C   UNL A   1      33.151  26.785  26.157  1.00  0.00     0.013 C 
ATOM     10  C   UNL A   1      31.842  26.219  23.919  1.00  0.00     0.100 C 
BRANCH  10  11
ATOM     11  C   UNL A   1      30.536  26.326  24.611  1.00  0.00     0.230 C 
ATOM     12  O   UNL A   1      29.861  27.340  24.451  1.00  0.00    -0.274 OA
ATOM     13  N   UNL A   1      30.065  25.323  25.411  1.00  0.00    -0.308 N 
ATOM     14  H   UNL A   1      29.119  25.422  25.662  1.00  0.00     0.171 HD
BRANCH  13  15
ATOM     15  C   UNL A   1      30.667  24.203  25.931  1.00  0.00     0.175 A 
ATOM     16  C   UNL A   1      31.035  22.984  25.321  1.00  0.00     0.092 A 
ATOM     17  N   UNL A   1      30.995  24.200  27.229  1.00  0.00    -0.062 NA
ATOM     18  C   UNL A   1      31.466  22.200  26.361  1.00  0.00     0.233 A 
ATOM     19  O   UNL A   1      31.450  22.923  27.505  1.00  0.00    -0.363 OA
ENDBRANCH  13  15
ENDBRANCH  10  11
ENDBRANCH   4   6
ENDBRANCH   3   4
ENDBRANCH   2   3
ENDBRANCH   1   2
BRANCH   1  20
ATOM     20  O   UNL A   1      33.739  30.053  27.455  1.00  0.00    -0.458 OA
BRANCH  20  21
ATOM     21  C   UNL A   1      34.596  30.837  28.152  1.00  0.00     0.338 C 
ATOM     22  O   UNL A   1      34.323  31.863  28.754  1.00  0.00    -0.246 OA
BRANCH  21  23
ATOM     23  C   UNL A   1      35.925  30.204  28.239  1.00  0.00     0.060 A 
ATOM     24  C   UNL A   1      36.342  29.747  29.492  1.00  0.00     0.016 A 
ATOM     25  C   UNL A   1      36.795  30.161  27.153  1.00  0.00     0.016 A 
ATOM     26  C   UNL A   1      37.625  29.249  29.682  1.00  0.00     0.010 A 
ATOM     27  C   UNL A   1      38.095  29.676  27.343  1.00  0.00     0.010 A 
ATOM     28  C   UNL A   1      38.519  29.235  28.612  1.00  0.00    -0.014 A 
BRANCH  28  29
ATOM     29  C   UNL A   1      39.935  28.884  28.856  1.00  0.00     0.031 A 
ATOM     30  C   UNL A   1      40.857  29.938  29.396  1.00  0.00     0.074 A 
ATOM     31  C   UNL A   1      40.378  27.632  28.636  1.00  0.00     0.049 A 
ATOM     32  N   UNL A   1      42.156  29.915  29.524  1.00  0.00    -0.248 NA
ATOM     33  C   UNL A   1      40.227  31.187  29.853  1.00  0.00     0.031 C 
ATOM     34  C   UNL A   1      39.547  26.504  28.212  1.00  0.00     0.029 A 
ATOM     35  N   UNL A   1      41.640  27.105  28.726  1.00  0.00    -0.354 N 
ATOM     36  C   UNL A   1      42.507  31.158  30.037  1.00  0.00     0.074 A 
ATOM     37  C   UNL A   1      41.282  31.911  30.200  1.00  0.00     0.031 C 
ATOM     38  C   UNL A   1      40.328  25.422  28.058  1.00  0.00     0.029 A 
ATOM     39  C   UNL A   1      41.717  25.797  28.311  1.00  0.00     0.049 A 
ATOM     40  H   UNL A   1      42.417  27.613  29.056  1.00  0.00     0.167 HD
ATOM     41  C   UNL A   1      43.741  31.625  30.334  1.00  0.00     0.037 A 
ATOM     42  C   UNL A   1      42.793  25.010  28.109  1.00  0.00     0.037 A 
ATOM     43  C   UNL A   1      44.945  30.850  30.179  1.00  0.00     0.049 A 
ATOM     44  C   UNL A   1      44.164  25.574  28.372  1.00  0.00     0.074 A 
ATOM     45  C   UNL A   1      46.251  31.227  30.432  1.00  0.00     0.029 A 
ATOM     46  N   UNL A   1      44.985  29.535  29.736  1.00  0.00    -0.354 N 
ATOM     47  N   UNL A   1      44.494  26.770  28.804  1.00  0.00    -0.248 NA
ATOM     48  C   UNL A   1      45.310  24.691  28.113  1.00  0.00     0.031 C 
ATOM     49  C   UNL A   1      47.085  30.153  30.102  1.00  0.00     0.029 A 
ATOM     50  C   UNL A   1      46.294  29.090  29.695  1.00  0.00     0.049 A 
ATOM     51  H   UNL A   1      44.198  29.000  29.487  1.00  0.00     0.167 HD
ATOM     52  C   UNL A   1      45.881  26.772  28.897  1.00  0.00     0.074 A 
ATOM     53  C   UNL A   1      46.328  25.459  28.478  1.00  0.00     0.031 C 
ATOM     54  C   UNL A   1      46.710  27.768  29.298  1.00  0.00     0.037 A 
BRANCH  41  55
ATOM     55  C   UNL A   1      43.855  33.048  30.801  1.00  0.00     0.058 A 
ATOM     56  C   UNL A   1      43.672  33.409  32.146  1.00  0.00     0.135 A 
ATOM     57  C   UNL A   1      44.169  34.068  29.887  1.00  0.00     0.135 A 
ATOM     58  F   UNL A   1      43.347  32.477  33.057  1.00  0.00    -0.206 F 
ATOM     59  C   UNL A   1      43.772  34.732  32.563  1.00  0.00     0.059 A 
ATOM     60  C   UNL A   1      44.299  35.395  30.286  1.00  0.00     0.059 A 
ATOM     61  F   UNL A   1      44.348  33.780  28.588  1.00  0.00    -0.206 F 
ATOM     62  C   UNL A   1      44.084  35.719  31.625  1.00  0.00     0.060 A 
BRANCH  62  63
ATOM     63  S   UNL A   1      44.209  37.433  32.180  1.00  0.00     0.124 S 
ATOM     64  O   UNL A   1      45.630  37.530  32.502  1.00  0.00    -0.237 OA
ATOM     65  O   UNL A   1      43.775  38.176  31.002  1.00  0.00    -0.237 OA
ATOM     66  O   UNL A   1      43.302  37.488  33.322  1.00  0.00    -0.744 OA
ENDBRANCH  62  63
ENDBRANCH  41  55
BRANCH  42  67
ATOM     67  C   UNL A   1      42.616  23.627  27.592  1.00  0.00     0.058 A 
ATOM     68  C   UNL A   1      42.534  23.371  26.217  1.00  0.00     0.135 A 
ATOM     69  C   UNL A   1      42.538  22.531  28.467  1.00  0.00     0.135 A 
ATOM     70  F   UNL A   1      42.593  24.386  25.342  1.00  0.00    -0.206 F 
ATOM     71  C   UNL A   1      42.373  22.079  25.724  1.00  0.00     0.059 A 
ATOM     72  C   UNL A   1      42.404  21.228  27.998  1.00  0.00     0.059 A 
ATOM     73  F   UNL A   1      42.620  22.720  29.794  1.00  0.00    -0.206 F 
ATOM     74  C   UNL A   1      42.313  21.013  26.624  1.00  0.00     0.060 A 
BRANCH  74  75
ATOM     75  S   UNL A   1      42.161  19.335  25.972  1.00  0.00     0.124 S 
ATOM     76  O   UNL A   1      42.986  19.411  24.773  1.00  0.00    -0.237 OA
ATOM     77  O   UNL A   1      42.697  18.532  27.068  1.00  0.00    -0.237 OA
ATOM     78  O   UNL A   1      40.726  19.193  25.746  1.00  0.00    -0.744 OA
ENDBRANCH  74  75
ENDBRANCH  42  67
BRANCH  54  79
ATOM     79  C   UNL A   1      48.179  27.464  29.363  1.00  0.00     0.058 A 
ATOM     80  C   UNL A   1      49.046  27.767  28.303  1.00  0.00     0.135 A 
ATOM     81  C   UNL A   1      48.736  26.938  30.541  1.00  0.00     0.135 A 
ATOM     82  F   UNL A   1      48.561  28.264  27.154  1.00  0.00    -0.206 F 
ATOM     83  C   UNL A   1      50.417  27.551  28.404  1.00  0.00     0.059 A 
ATOM     84  C   UNL A   1      50.105  26.738  30.673  1.00  0.00     0.059 A 
ATOM     85  F   UNL A   1      47.948  26.641  31.586  1.00  0.00    -0.206 F 
ATOM     86  C   UNL A   1      50.938  27.042  29.597  1.00  0.00     0.060 A 
BRANCH  86  87
ATOM     87  S   UNL A   1      52.724  26.824  29.740  1.00  0.00     0.124 S 
ATOM     88  O   UNL A   1      52.817  25.889  30.855  1.00  0.00    -0.237 OA
ATOM     89  O   UNL A   1      53.079  26.287  28.430  1.00  0.00    -0.237 OA
ATOM     90  O   UNL A   1      53.211  28.174  30.009  1.00  0.00    -0.744 OA
ENDBRANCH  86  87
ENDBRANCH  54  79
ENDBRANCH  28  29
ENDBRANCH  21  23
ENDBRANCH  20  21
ENDBRANCH   1  20
TORSDOF 16
ENDMDL
