MODEL 1
REMARK VINA RESULT:     -12.8      0.000      0.000
REMARK SMILES O=C(OCCOC(=O)C1(Cc2ccccc2Cl)CCN(c2ncnc3[nH]ccc23)CC1)c1ccc(-c2c3nc(c(-c4c(F)cc(S(=O)(=O)[O-])cc4F)c4ccc([nH]4)c(-c4c(F)cc(S(=O)(=O)[O-])cc4F)c4nc(c(-c5c(F)cc(S(=O)(=O)[O-])cc5F)c5ccc2[nH]5)C=C4)C=C3)cc1
REMARK SMILES IDX 4 1 3 2 2 3 1 4 32 5 33 6 97 7 34 8 96 9 35 10 36 11 37 12
REMARK SMILES IDX 90 13 38 14 95 15 89 16 91 17 39 18 94 19 88 20 87 21 40 23
REMARK SMILES IDX 74 24 53 25 73 26 54 27 57 28 72 29 92 30 55 31 56 32 71 34
REMARK SMILES IDX 93 35 58 36 41 37 42 38 51 39 43 40 44 41 50 42 52 43 45 44
REMARK SMILES IDX 46 45 47 46 48 47 49 48 75 49 76 50 85 51 77 52 78 53 84 54
REMARK SMILES IDX 86 55 79 56 80 57 81 58 82 59 83 60 59 61 60 62 69 63 61 64
REMARK SMILES IDX 62 65 68 66 70 67 63 68 64 69 65 70 66 71 67 72 5 73 6 74
REMARK SMILES IDX 7 75 8 76 9 77 18 78 31 79 19 80 30 81 20 82 10 83 11 84
REMARK SMILES IDX 12 85 16 86 13 87 15 88 17 89 14 90 21 91 22 92 29 93 23 94
REMARK SMILES IDX 25 95 28 96 24 97 26 98 27 99
REMARK H PARENT 91 22 57 33 26 100
REMARK Flexibility Score: inf
ROOT
ATOM      1  C   UNL A   1      32.316  30.672  27.111  1.00  0.00     0.275 C 
ENDROOT
BRANCH   1   2
ATOM      2  O   UNL A   1      33.592  31.210  26.787  1.00  0.00    -0.458 OA
BRANCH   2   3
ATOM      3  C   UNL A   1      34.438  31.839  27.626  1.00  0.00     0.338 C 
ATOM      4  O   UNL A   1      34.088  32.935  28.067  1.00  0.00    -0.246 OA
BRANCH   3   5
ATOM      5  C   UNL A   1      35.775  31.290  28.056  1.00  0.00     0.060 A 
ATOM      6  C   UNL A   1      36.967  31.975  28.366  1.00  0.00     0.016 A 
ATOM      7  C   UNL A   1      35.773  29.914  28.264  1.00  0.00     0.016 A 
ATOM      8  C   UNL A   1      38.066  31.344  28.983  1.00  0.00     0.010 A 
ATOM      9  C   UNL A   1      36.847  29.296  28.897  1.00  0.00     0.010 A 
ATOM     10  C   UNL A   1      37.999  29.999  29.314  1.00  0.00    -0.014 A 
BRANCH  10  11
ATOM     11  C   UNL A   1      39.050  29.254  30.080  1.00  0.00     0.031 A 
ATOM     12  C   UNL A   1      39.351  29.764  31.464  1.00  0.00     0.074 A 
ATOM     13  C   UNL A   1      39.872  28.321  29.542  1.00  0.00     0.049 A 
ATOM     14  N   UNL A   1      40.416  29.597  32.197  1.00  0.00    -0.248 NA
ATOM     15  C   UNL A   1      38.368  30.709  32.031  1.00  0.00     0.031 C 
ATOM     16  C   UNL A   1      39.799  27.754  28.195  1.00  0.00     0.029 A 
ATOM     17  N   UNL A   1      41.002  27.724  30.066  1.00  0.00    -0.354 N 
ATOM     18  C   UNL A   1      40.231  30.468  33.258  1.00  0.00     0.074 A 
ATOM     19  C   UNL A   1      39.127  31.330  32.917  1.00  0.00     0.031 C 
ATOM     20  C   UNL A   1      40.869  26.966  27.976  1.00  0.00     0.029 A 
ATOM     21  C   UNL A   1      41.683  26.915  29.181  1.00  0.00     0.049 A 
ATOM     22  H   UNL A   1      41.296  27.865  30.995  1.00  0.00     0.167 HD
ATOM     23  C   UNL A   1      40.781  30.436  34.492  1.00  0.00     0.037 A 
ATOM     24  C   UNL A   1      42.812  26.189  29.330  1.00  0.00     0.037 A 
ATOM     25  C   UNL A   1      41.747  29.459  34.883  1.00  0.00     0.049 A 
ATOM     26  C   UNL A   1      43.442  26.130  30.699  1.00  0.00     0.074 A 
ATOM     27  C   UNL A   1      42.259  29.203  36.139  1.00  0.00     0.029 A 
ATOM     28  N   UNL A   1      42.319  28.546  34.011  1.00  0.00    -0.354 N 
ATOM     29  N   UNL A   1      43.142  26.828  31.768  1.00  0.00    -0.248 NA
ATOM     30  C   UNL A   1      44.509  25.141  30.907  1.00  0.00     0.031 C 
ATOM     31  C   UNL A   1      43.162  28.141  36.021  1.00  0.00     0.029 A 
ATOM     32  C   UNL A   1      43.181  27.717  34.699  1.00  0.00     0.049 A 
ATOM     33  H   UNL A   1      42.137  28.497  33.044  1.00  0.00     0.167 HD
ATOM     34  C   UNL A   1      43.918  26.302  32.795  1.00  0.00     0.074 A 
ATOM     35  C   UNL A   1      44.728  25.253  32.211  1.00  0.00     0.031 C 
ATOM     36  C   UNL A   1      43.936  26.642  34.107  1.00  0.00     0.037 A 
BRANCH  23  37
ATOM     37  C   UNL A   1      40.214  31.400  35.494  1.00  0.00     0.058 A 
ATOM     38  C   UNL A   1      40.946  32.535  35.899  1.00  0.00     0.135 A 
ATOM     39  C   UNL A   1      38.996  31.143  36.134  1.00  0.00     0.135 A 
ATOM     40  F   UNL A   1      42.128  32.822  35.327  1.00  0.00    -0.206 F 
ATOM     41  C   UNL A   1      40.543  33.315  36.973  1.00  0.00     0.059 A 
ATOM     42  C   UNL A   1      38.547  31.945  37.179  1.00  0.00     0.059 A 
ATOM     43  F   UNL A   1      38.253  30.085  35.776  1.00  0.00    -0.206 F 
ATOM     44  C   UNL A   1      39.346  33.003  37.615  1.00  0.00     0.060 A 
BRANCH  44  45
ATOM     45  S   UNL A   1      38.863  34.000  39.037  1.00  0.00     0.124 S 
ATOM     46  O   UNL A   1      39.921  33.679  39.989  1.00  0.00    -0.237 OA
ATOM     47  O   UNL A   1      38.888  35.352  38.495  1.00  0.00    -0.237 OA
ATOM     48  O   UNL A   1      37.536  33.484  39.373  1.00  0.00    -0.744 OA
ENDBRANCH  44  45
ENDBRANCH  23  37
BRANCH  24  49
ATOM     49  C   UNL A   1      43.339  25.338  28.221  1.00  0.00     0.058 A 
ATOM     50  C   UNL A   1      42.861  24.030  28.036  1.00  0.00     0.135 A 
ATOM     51  C   UNL A   1      44.338  25.788  27.343  1.00  0.00     0.135 A 
ATOM     52  F   UNL A   1      41.911  23.546  28.851  1.00  0.00    -0.206 F 
ATOM     53  C   UNL A   1      43.368  23.191  27.046  1.00  0.00     0.059 A 
ATOM     54  C   UNL A   1      44.850  24.973  26.330  1.00  0.00     0.059 A 
ATOM     55  F   UNL A   1      44.822  27.034  27.458  1.00  0.00    -0.206 F 
ATOM     56  C   UNL A   1      44.363  23.672  26.196  1.00  0.00     0.060 A 
BRANCH  56  57
ATOM     57  S   UNL A   1      44.979  22.579  24.892  1.00  0.00     0.124 S 
ATOM     58  O   UNL A   1      46.013  21.830  25.596  1.00  0.00    -0.237 OA
ATOM     59  O   UNL A   1      43.777  21.830  24.538  1.00  0.00    -0.237 OA
ATOM     60  O   UNL A   1      45.455  23.507  23.871  1.00  0.00    -0.744 OA
ENDBRANCH  56  57
ENDBRANCH  24  49
BRANCH  36  61
ATOM     61  C   UNL A   1      44.778  25.825  35.038  1.00  0.00     0.058 A 
ATOM     62  C   UNL A   1      46.047  26.251  35.452  1.00  0.00     0.135 A 
ATOM     63  C   UNL A   1      44.239  24.670  35.630  1.00  0.00     0.135 A 
ATOM     64  F   UNL A   1      46.604  27.345  34.908  1.00  0.00    -0.206 F 
ATOM     65  C   UNL A   1      46.753  25.563  36.431  1.00  0.00     0.059 A 
ATOM     66  C   UNL A   1      44.914  23.984  36.631  1.00  0.00     0.059 A 
ATOM     67  F   UNL A   1      43.023  24.231  35.271  1.00  0.00    -0.206 F 
ATOM     68  C   UNL A   1      46.171  24.440  37.025  1.00  0.00     0.060 A 
BRANCH  68  69
ATOM     69  S   UNL A   1      47.054  23.620  38.367  1.00  0.00     0.124 S 
ATOM     70  O   UNL A   1      48.320  23.287  37.725  1.00  0.00    -0.237 OA
ATOM     71  O   UNL A   1      47.114  24.666  39.384  1.00  0.00    -0.237 OA
ATOM     72  O   UNL A   1      46.196  22.485  38.695  1.00  0.00    -0.744 OA
ENDBRANCH  68  69
ENDBRANCH  36  61
ENDBRANCH  10  11
ENDBRANCH   3   5
ENDBRANCH   2   3
ENDBRANCH   1   2
BRANCH   1  73
ATOM     73  C   UNL A   1      32.164  29.185  26.780  1.00  0.00     0.274 C 
BRANCH  73  74
ATOM     74  O   UNL A   1      31.400  28.831  25.592  1.00  0.00    -0.462 OA
BRANCH  74  75
ATOM     75  C   UNL A   1      32.137  28.482  24.497  1.00  0.00     0.312 C 
ATOM     76  O   UNL A   1      32.939  29.258  23.982  1.00  0.00    -0.252 OA
BRANCH  75  77
ATOM     77  C   UNL A   1      31.754  27.132  23.827  1.00  0.00     0.075 C 
ATOM     78  C   UNL A   1      30.901  26.111  24.604  1.00  0.00     0.040 C 
ATOM     79  C   UNL A   1      33.102  26.444  23.418  1.00  0.00     0.040 C 
ATOM     80  C   UNL A   1      31.536  24.967  25.365  1.00  0.00     0.119 C 
ATOM     81  C   UNL A   1      33.731  25.626  24.569  1.00  0.00     0.119 C 
ATOM     82  N   UNL A   1      32.813  24.533  24.844  1.00  0.00    -0.356 N 
BRANCH  77  83
ATOM     83  C   UNL A   1      30.897  27.544  22.548  1.00  0.00     0.056 C 
BRANCH  83  84
ATOM     84  C   UNL A   1      29.776  28.565  22.819  1.00  0.00    -0.028 A 
ATOM     85  C   UNL A   1      30.010  29.937  22.584  1.00  0.00     0.005 A 
ATOM     86  C   UNL A   1      28.473  28.204  23.189  1.00  0.00     0.044 A 
ATOM     87  C   UNL A   1      28.960  30.860  22.523  1.00  0.00     0.000 A 
ATOM     88  C   UNL A   1      27.414  29.118  23.083  1.00  0.00     0.021 A 
ATOM     89  Cl  UNL A   1      28.117  26.658  23.872  1.00  0.00    -0.084 Cl
ATOM     90  C   UNL A   1      27.653  30.438  22.713  1.00  0.00     0.002 A 
ENDBRANCH  83  84
ENDBRANCH  77  83
BRANCH  82  91
ATOM     91  C   UNL A   1      33.280  23.450  25.608  1.00  0.00     0.141 A 
ATOM     92  N   UNL A   1      33.873  23.648  26.816  1.00  0.00    -0.219 NA
ATOM     93  C   UNL A   1      33.048  22.112  25.213  1.00  0.00     0.061 A 
ATOM     94  C   UNL A   1      34.193  22.568  27.567  1.00  0.00     0.226 A 
ATOM     95  C   UNL A   1      33.456  21.109  26.078  1.00  0.00     0.142 A 
ATOM     96  C   UNL A   1      32.448  21.461  24.096  1.00  0.00     0.033 A 
ATOM     97  N   UNL A   1      34.041  21.265  27.273  1.00  0.00    -0.218 NA
ATOM     98  N   UNL A   1      33.145  19.901  25.513  1.00  0.00    -0.346 N 
ATOM     99  C   UNL A   1      32.538  20.100  24.299  1.00  0.00     0.085 A 
ATOM    100  H   UNL A   1      33.330  19.022  25.917  1.00  0.00     0.167 HD
ENDBRANCH  82  91
ENDBRANCH  75  77
ENDBRANCH  74  75
ENDBRANCH  73  74
ENDBRANCH   1  73
TORSDOF 17
ENDMDL
MODEL 2
REMARK VINA RESULT:     -12.7      3.468      4.082
REMARK SMILES O=C(OCCOC(=O)C1(Cc2ccccc2Cl)CCN(c2ncnc3[nH]ccc23)CC1)c1ccc(-c2c3nc(c(-c4c(F)cc(S(=O)(=O)[O-])cc4F)c4ccc([nH]4)c(-c4c(F)cc(S(=O)(=O)[O-])cc4F)c4nc(c(-c5c(F)cc(S(=O)(=O)[O-])cc5F)c5ccc2[nH]5)C=C4)C=C3)cc1
REMARK SMILES IDX 4 1 3 2 2 3 1 4 32 5 33 6 97 7 34 8 96 9 35 10 36 11 37 12
REMARK SMILES IDX 90 13 38 14 95 15 89 16 91 17 39 18 94 19 88 20 87 21 40 23
REMARK SMILES IDX 74 24 53 25 73 26 54 27 57 28 72 29 92 30 55 31 56 32 71 34
REMARK SMILES IDX 93 35 58 36 41 37 42 38 51 39 43 40 44 41 50 42 52 43 45 44
REMARK SMILES IDX 46 45 47 46 48 47 49 48 75 49 76 50 85 51 77 52 78 53 84 54
REMARK SMILES IDX 86 55 79 56 80 57 81 58 82 59 83 60 59 61 60 62 69 63 61 64
REMARK SMILES IDX 62 65 68 66 70 67 63 68 64 69 65 70 66 71 67 72 5 73 6 74
REMARK SMILES IDX 7 75 8 76 9 77 18 78 31 79 19 80 30 81 20 82 10 83 11 84
REMARK SMILES IDX 12 85 16 86 13 87 15 88 17 89 14 90 21 91 22 92 29 93 23 94
REMARK SMILES IDX 25 95 28 96 24 97 26 98 27 99
REMARK H PARENT 91 22 57 33 26 100
REMARK Flexibility Score: inf
ROOT
ATOM      1  C   UNL A   1      32.875  30.242  27.135  1.00  0.00     0.275 C 
ENDROOT
BRANCH   1   2
ATOM      2  O   UNL A   1      33.872  31.218  27.406  1.00  0.00    -0.458 OA
BRANCH   2   3
ATOM      3  C   UNL A   1      34.785  31.185  28.397  1.00  0.00     0.338 C 
ATOM      4  O   UNL A   1      34.551  31.855  29.404  1.00  0.00    -0.246 OA
BRANCH   3   5
ATOM      5  C   UNL A   1      36.063  30.386  28.351  1.00  0.00     0.060 A 
ATOM      6  C   UNL A   1      37.032  30.303  27.332  1.00  0.00     0.016 A 
ATOM      7  C   UNL A   1      36.350  29.722  29.541  1.00  0.00     0.016 A 
ATOM      8  C   UNL A   1      38.292  29.702  27.529  1.00  0.00     0.010 A 
ATOM      9  C   UNL A   1      37.602  29.152  29.744  1.00  0.00     0.010 A 
ATOM     10  C   UNL A   1      38.620  29.167  28.765  1.00  0.00    -0.014 A 
BRANCH  10  11
ATOM     11  C   UNL A   1      39.965  28.616  29.127  1.00  0.00     0.031 A 
ATOM     12  C   UNL A   1      40.958  29.600  29.687  1.00  0.00     0.074 A 
ATOM     13  C   UNL A   1      40.402  27.378  28.790  1.00  0.00     0.049 A 
ATOM     14  N   UNL A   1      42.259  29.532  29.733  1.00  0.00    -0.248 NA
ATOM     15  C   UNL A   1      40.404  30.898  30.122  1.00  0.00     0.031 C 
ATOM     16  C   UNL A   1      39.623  26.308  28.167  1.00  0.00     0.029 A 
ATOM     17  N   UNL A   1      41.667  26.830  28.870  1.00  0.00    -0.354 N 
ATOM     18  C   UNL A   1      42.646  30.798  30.139  1.00  0.00     0.074 A 
ATOM     19  C   UNL A   1      41.487  31.651  30.042  1.00  0.00     0.031 C 
ATOM     20  C   UNL A   1      40.434  25.280  27.853  1.00  0.00     0.029 A 
ATOM     21  C   UNL A   1      41.785  25.580  28.300  1.00  0.00     0.049 A 
ATOM     22  H   UNL A   1      42.423  27.295  29.297  1.00  0.00     0.167 HD
ATOM     23  C   UNL A   1      43.795  31.189  30.733  1.00  0.00     0.037 A 
ATOM     24  C   UNL A   1      42.847  24.754  28.182  1.00  0.00     0.037 A 
ATOM     25  C   UNL A   1      44.875  30.291  30.992  1.00  0.00     0.049 A 
ATOM     26  C   UNL A   1      44.140  25.162  28.843  1.00  0.00     0.074 A 
ATOM     27  C   UNL A   1      46.020  30.505  31.733  1.00  0.00     0.029 A 
ATOM     28  N   UNL A   1      44.916  28.981  30.540  1.00  0.00    -0.354 N 
ATOM     29  N   UNL A   1      44.448  26.309  29.399  1.00  0.00    -0.248 NA
ATOM     30  C   UNL A   1      45.202  24.149  28.929  1.00  0.00     0.031 C 
ATOM     31  C   UNL A   1      46.767  29.324  31.711  1.00  0.00     0.029 A 
ATOM     32  C   UNL A   1      46.068  28.367  30.987  1.00  0.00     0.049 A 
ATOM     33  H   UNL A   1      44.226  28.553  29.983  1.00  0.00     0.167 HD
ATOM     34  C   UNL A   1      45.699  26.128  29.978  1.00  0.00     0.074 A 
ATOM     35  C   UNL A   1      46.107  24.773  29.672  1.00  0.00     0.031 C 
ATOM     36  C   UNL A   1      46.428  26.998  30.717  1.00  0.00     0.037 A 
BRANCH  23  37
ATOM     37  C   UNL A   1      43.827  32.599  31.248  1.00  0.00     0.058 A 
ATOM     38  C   UNL A   1      44.427  33.629  30.495  1.00  0.00     0.135 A 
ATOM     39  C   UNL A   1      43.363  32.909  32.532  1.00  0.00     0.135 A 
ATOM     40  F   UNL A   1      44.901  33.383  29.262  1.00  0.00    -0.206 F 
ATOM     41  C   UNL A   1      44.661  34.884  31.038  1.00  0.00     0.059 A 
ATOM     42  C   UNL A   1      43.541  34.179  33.075  1.00  0.00     0.059 A 
ATOM     43  F   UNL A   1      42.770  31.970  33.284  1.00  0.00    -0.206 F 
ATOM     44  C   UNL A   1      44.224  35.145  32.335  1.00  0.00     0.060 A 
BRANCH  44  45
ATOM     45  S   UNL A   1      44.580  36.765  33.040  1.00  0.00     0.124 S 
ATOM     46  O   UNL A   1      45.565  37.282  32.096  1.00  0.00    -0.237 OA
ATOM     47  O   UNL A   1      43.275  37.413  33.011  1.00  0.00    -0.237 OA
ATOM     48  O   UNL A   1      45.091  36.447  34.372  1.00  0.00    -0.744 OA
ENDBRANCH  44  45
ENDBRANCH  23  37
BRANCH  24  49
ATOM     49  C   UNL A   1      42.715  23.404  27.557  1.00  0.00     0.058 A 
ATOM     50  C   UNL A   1      42.155  22.335  28.278  1.00  0.00     0.135 A 
ATOM     51  C   UNL A   1      43.159  23.137  26.252  1.00  0.00     0.135 A 
ATOM     52  F   UNL A   1      41.719  22.532  29.532  1.00  0.00    -0.206 F 
ATOM     53  C   UNL A   1      42.064  21.052  27.745  1.00  0.00     0.059 A 
ATOM     54  C   UNL A   1      43.063  21.862  25.688  1.00  0.00     0.059 A 
ATOM     55  F   UNL A   1      43.687  24.120  25.508  1.00  0.00    -0.206 F 
ATOM     56  C   UNL A   1      42.521  20.824  26.447  1.00  0.00     0.060 A 
BRANCH  56  57
ATOM     57  S   UNL A   1      42.358  19.158  25.760  1.00  0.00     0.124 S 
ATOM     58  O   UNL A   1      42.914  18.339  26.832  1.00  0.00    -0.237 OA
ATOM     59  O   UNL A   1      40.915  19.056  25.562  1.00  0.00    -0.237 OA
ATOM     60  O   UNL A   1      43.149  19.219  24.536  1.00  0.00    -0.744 OA
ENDBRANCH  56  57
ENDBRANCH  24  49
BRANCH  36  61
ATOM     61  C   UNL A   1      47.700  26.507  31.339  1.00  0.00     0.058 A 
ATOM     62  C   UNL A   1      47.724  25.938  32.619  1.00  0.00     0.135 A 
ATOM     63  C   UNL A   1      48.880  26.479  30.577  1.00  0.00     0.135 A 
ATOM     64  F   UNL A   1      46.621  25.950  33.385  1.00  0.00    -0.206 F 
ATOM     65  C   UNL A   1      48.877  25.349  33.122  1.00  0.00     0.059 A 
ATOM     66  C   UNL A   1      50.035  25.869  31.048  1.00  0.00     0.059 A 
ATOM     67  F   UNL A   1      48.900  27.003  29.341  1.00  0.00    -0.206 F 
ATOM     68  C   UNL A   1      50.022  25.305  32.322  1.00  0.00     0.060 A 
BRANCH  68  69
ATOM     69  S   UNL A   1      51.478  24.444  32.949  1.00  0.00     0.124 S 
ATOM     70  O   UNL A   1      52.552  25.122  32.231  1.00  0.00    -0.237 OA
ATOM     71  O   UNL A   1      51.404  24.712  34.382  1.00  0.00    -0.237 OA
ATOM     72  O   UNL A   1      51.244  23.055  32.564  1.00  0.00    -0.744 OA
ENDBRANCH  68  69
ENDBRANCH  36  61
ENDBRANCH  10  11
ENDBRANCH   3   5
ENDBRANCH   2   3
ENDBRANCH   1   2
BRANCH   1  73
ATOM     73  C   UNL A   1      33.217  29.306  25.972  1.00  0.00     0.274 C 
BRANCH  73  74
ATOM     74  O   UNL A   1      32.120  28.831  25.142  1.00  0.00    -0.462 OA
BRANCH  74  75
ATOM     75  C   UNL A   1      32.476  28.309  23.931  1.00  0.00     0.312 C 
ATOM     76  O   UNL A   1      33.140  28.952  23.120  1.00  0.00    -0.252 OA
BRANCH  75  77
ATOM     77  C   UNL A   1      31.827  26.945  23.565  1.00  0.00     0.075 C 
ATOM     78  C   UNL A   1      31.008  26.182  24.625  1.00  0.00     0.040 C 
ATOM     79  C   UNL A   1      32.992  26.018  23.076  1.00  0.00     0.040 C 
ATOM     80  C   UNL A   1      31.627  25.083  25.461  1.00  0.00     0.119 C 
ATOM     81  C   UNL A   1      33.711  25.296  24.237  1.00  0.00     0.119 C 
ATOM     82  N   UNL A   1      32.733  24.398  24.830  1.00  0.00    -0.356 N 
BRANCH  77  83
ATOM     83  C   UNL A   1      30.814  27.284  22.382  1.00  0.00     0.056 C 
BRANCH  83  84
ATOM     84  C   UNL A   1      29.752  28.346  22.722  1.00  0.00    -0.028 A 
ATOM     85  C   UNL A   1      30.024  29.710  22.475  1.00  0.00     0.005 A 
ATOM     86  C   UNL A   1      28.460  28.035  23.170  1.00  0.00     0.044 A 
ATOM     87  C   UNL A   1      29.009  30.672  22.479  1.00  0.00     0.000 A 
ATOM     88  C   UNL A   1      27.433  28.989  23.129  1.00  0.00     0.021 A 
ATOM     89  Cl  UNL A   1      28.086  26.501  23.870  1.00  0.00    -0.084 Cl
ATOM     90  C   UNL A   1      27.700  30.301  22.747  1.00  0.00     0.002 A 
ENDBRANCH  83  84
ENDBRANCH  77  83
BRANCH  82  91
ATOM     91  C   UNL A   1      33.196  23.382  25.684  1.00  0.00     0.141 A 
ATOM     92  N   UNL A   1      33.754  23.680  26.889  1.00  0.00    -0.219 NA
ATOM     93  C   UNL A   1      32.994  22.015  25.385  1.00  0.00     0.061 A 
ATOM     94  C   UNL A   1      34.070  22.663  27.727  1.00  0.00     0.226 A 
ATOM     95  C   UNL A   1      33.394  21.085  26.332  1.00  0.00     0.142 A 
ATOM     96  C   UNL A   1      32.434  21.273  24.305  1.00  0.00     0.033 A 
ATOM     97  N   UNL A   1      33.945  21.340  27.526  1.00  0.00    -0.218 NA
ATOM     98  N   UNL A   1      33.115  19.834  25.851  1.00  0.00    -0.346 N 
ATOM     99  C   UNL A   1      32.538  19.932  24.611  1.00  0.00     0.085 A 
ATOM    100  H   UNL A   1      33.302  18.991  26.324  1.00  0.00     0.167 HD
ENDBRANCH  82  91
ENDBRANCH  75  77
ENDBRANCH  74  75
ENDBRANCH  73  74
ENDBRANCH   1  73
TORSDOF 17
ENDMDL
MODEL 3
REMARK VINA RESULT:     -12.5      5.261     11.187
REMARK SMILES O=C(OCCOC(=O)C1(Cc2ccccc2Cl)CCN(c2ncnc3[nH]ccc23)CC1)c1ccc(-c2c3nc(c(-c4c(F)cc(S(=O)(=O)[O-])cc4F)c4ccc([nH]4)c(-c4c(F)cc(S(=O)(=O)[O-])cc4F)c4nc(c(-c5c(F)cc(S(=O)(=O)[O-])cc5F)c5ccc2[nH]5)C=C4)C=C3)cc1
REMARK SMILES IDX 4 1 3 2 2 3 1 4 32 5 33 6 97 7 34 8 96 9 35 10 36 11 37 12
REMARK SMILES IDX 90 13 38 14 95 15 89 16 91 17 39 18 94 19 88 20 87 21 40 23
REMARK SMILES IDX 74 24 53 25 73 26 54 27 57 28 72 29 92 30 55 31 56 32 71 34
REMARK SMILES IDX 93 35 58 36 41 37 42 38 51 39 43 40 44 41 50 42 52 43 45 44
REMARK SMILES IDX 46 45 47 46 48 47 49 48 75 49 76 50 85 51 77 52 78 53 84 54
REMARK SMILES IDX 86 55 79 56 80 57 81 58 82 59 83 60 59 61 60 62 69 63 61 64
REMARK SMILES IDX 62 65 68 66 70 67 63 68 64 69 65 70 66 71 67 72 5 73 6 74
REMARK SMILES IDX 7 75 8 76 9 77 18 78 31 79 19 80 30 81 20 82 10 83 11 84
REMARK SMILES IDX 12 85 16 86 13 87 15 88 17 89 14 90 21 91 22 92 29 93 23 94
REMARK SMILES IDX 25 95 28 96 24 97 26 98 27 99
REMARK H PARENT 91 22 57 33 26 100
REMARK Flexibility Score: inf
ROOT
ATOM      1  C   UNL A   1      37.675  21.094  25.326  1.00  0.00     0.275 C 
ENDROOT
BRANCH   1   2
ATOM      2  O   UNL A   1      38.968  21.678  25.406  1.00  0.00    -0.458 OA
BRANCH   2   3
ATOM      3  C   UNL A   1      39.726  21.813  26.512  1.00  0.00     0.338 C 
ATOM      4  O   UNL A   1      40.138  20.781  27.045  1.00  0.00    -0.246 OA
BRANCH   3   5
ATOM      5  C   UNL A   1      40.099  23.135  27.133  1.00  0.00     0.060 A 
ATOM      6  C   UNL A   1      41.073  23.424  28.110  1.00  0.00     0.016 A 
ATOM      7  C   UNL A   1      39.440  24.223  26.568  1.00  0.00     0.016 A 
ATOM      8  C   UNL A   1      41.472  24.740  28.418  1.00  0.00     0.010 A 
ATOM      9  C   UNL A   1      39.852  25.521  26.852  1.00  0.00     0.010 A 
ATOM     10  C   UNL A   1      40.906  25.813  27.746  1.00  0.00    -0.014 A 
BRANCH  10  11
ATOM     11  C   UNL A   1      41.337  27.240  27.899  1.00  0.00     0.031 A 
ATOM     12  C   UNL A   1      42.771  27.542  27.558  1.00  0.00     0.074 A 
ATOM     13  C   UNL A   1      40.603  28.199  28.514  1.00  0.00     0.049 A 
ATOM     14  N   UNL A   1      43.522  28.540  27.932  1.00  0.00    -0.248 NA
ATOM     15  C   UNL A   1      43.490  26.492  26.807  1.00  0.00     0.031 C 
ATOM     16  C   UNL A   1      39.225  28.083  28.993  1.00  0.00     0.029 A 
ATOM     17  N   UNL A   1      40.959  29.474  28.907  1.00  0.00    -0.354 N 
ATOM     18  C   UNL A   1      44.791  28.181  27.508  1.00  0.00     0.074 A 
ATOM     19  C   UNL A   1      44.738  26.792  27.124  1.00  0.00     0.031 C 
ATOM     20  C   UNL A   1      38.888  29.194  29.676  1.00  0.00     0.029 A 
ATOM     21  C   UNL A   1      39.996  30.135  29.641  1.00  0.00     0.049 A 
ATOM     22  H   UNL A   1      41.829  29.878  28.682  1.00  0.00     0.167 HD
ATOM     23  C   UNL A   1      45.860  28.969  27.259  1.00  0.00     0.037 A 
ATOM     24  C   UNL A   1      39.991  31.368  30.193  1.00  0.00     0.037 A 
ATOM     25  C   UNL A   1      45.846  30.381  27.470  1.00  0.00     0.049 A 
ATOM     26  C   UNL A   1      41.169  32.270  29.924  1.00  0.00     0.074 A 
ATOM     27  C   UNL A   1      46.789  31.320  27.106  1.00  0.00     0.029 A 
ATOM     28  N   UNL A   1      44.802  31.061  28.078  1.00  0.00    -0.354 N 
ATOM     29  N   UNL A   1      42.310  31.976  29.349  1.00  0.00    -0.248 NA
ATOM     30  C   UNL A   1      41.037  33.683  30.307  1.00  0.00     0.031 C 
ATOM     31  C   UNL A   1      46.321  32.574  27.513  1.00  0.00     0.029 A 
ATOM     32  C   UNL A   1      45.072  32.414  28.098  1.00  0.00     0.049 A 
ATOM     33  H   UNL A   1      43.988  30.641  28.441  1.00  0.00     0.167 HD
ATOM     34  C   UNL A   1      42.993  33.181  29.222  1.00  0.00     0.074 A 
ATOM     35  C   UNL A   1      42.153  34.201  29.812  1.00  0.00     0.031 C 
ATOM     36  C   UNL A   1      44.195  33.420  28.643  1.00  0.00     0.037 A 
BRANCH  23  37
ATOM     37  C   UNL A   1      47.034  28.301  26.603  1.00  0.00     0.058 A 
ATOM     38  C   UNL A   1      48.161  27.916  27.357  1.00  0.00     0.135 A 
ATOM     39  C   UNL A   1      47.090  28.143  25.213  1.00  0.00     0.135 A 
ATOM     40  F   UNL A   1      48.166  28.059  28.694  1.00  0.00    -0.206 F 
ATOM     41  C   UNL A   1      49.336  27.501  26.748  1.00  0.00     0.059 A 
ATOM     42  C   UNL A   1      48.243  27.677  24.586  1.00  0.00     0.059 A 
ATOM     43  F   UNL A   1      46.040  28.479  24.450  1.00  0.00    -0.206 F 
ATOM     44  C   UNL A   1      49.371  27.397  25.359  1.00  0.00     0.060 A 
BRANCH  44  45
ATOM     45  S   UNL A   1      50.921  26.902  24.584  1.00  0.00     0.124 S 
ATOM     46  O   UNL A   1      51.759  28.068  24.841  1.00  0.00    -0.237 OA
ATOM     47  O   UNL A   1      51.269  25.696  25.324  1.00  0.00    -0.237 OA
ATOM     48  O   UNL A   1      50.546  26.692  23.187  1.00  0.00    -0.744 OA
ENDBRANCH  44  45
ENDBRANCH  23  37
BRANCH  24  49
ATOM     49  C   UNL A   1      38.791  31.890  30.913  1.00  0.00     0.058 A 
ATOM     50  C   UNL A   1      37.730  32.476  30.202  1.00  0.00     0.135 A 
ATOM     51  C   UNL A   1      38.680  31.844  32.312  1.00  0.00     0.135 A 
ATOM     52  F   UNL A   1      37.786  32.553  28.864  1.00  0.00    -0.206 F 
ATOM     53  C   UNL A   1      36.622  33.020  30.846  1.00  0.00     0.059 A 
ATOM     54  C   UNL A   1      37.570  32.367  32.980  1.00  0.00     0.059 A 
ATOM     55  F   UNL A   1      39.653  31.281  33.045  1.00  0.00    -0.206 F 
ATOM     56  C   UNL A   1      36.549  32.960  32.237  1.00  0.00     0.060 A 
BRANCH  56  57
ATOM     57  S   UNL A   1      35.081  33.638  33.050  1.00  0.00     0.124 S 
ATOM     58  O   UNL A   1      35.303  35.073  32.916  1.00  0.00    -0.237 OA
ATOM     59  O   UNL A   1      34.005  33.079  32.237  1.00  0.00    -0.237 OA
ATOM     60  O   UNL A   1      35.173  33.109  34.407  1.00  0.00    -0.744 OA
ENDBRANCH  56  57
ENDBRANCH  24  49
BRANCH  36  61
ATOM     61  C   UNL A   1      44.652  34.841  28.521  1.00  0.00     0.058 A 
ATOM     62  C   UNL A   1      45.523  35.419  29.454  1.00  0.00     0.135 A 
ATOM     63  C   UNL A   1      44.320  35.581  27.374  1.00  0.00     0.135 A 
ATOM     64  F   UNL A   1      45.861  34.751  30.568  1.00  0.00    -0.206 F 
ATOM     65  C   UNL A   1      46.059  36.684  29.249  1.00  0.00     0.059 A 
ATOM     66  C   UNL A   1      44.867  36.835  27.135  1.00  0.00     0.059 A 
ATOM     67  F   UNL A   1      43.497  35.063  26.449  1.00  0.00    -0.206 F 
ATOM     68  C   UNL A   1      45.737  37.377  28.079  1.00  0.00     0.060 A 
BRANCH  68  69
ATOM     69  S   UNL A   1      46.523  38.973  27.779  1.00  0.00     0.124 S 
ATOM     70  O   UNL A   1      47.927  38.657  28.011  1.00  0.00    -0.237 OA
ATOM     71  O   UNL A   1      46.153  39.244  26.392  1.00  0.00    -0.237 OA
ATOM     72  O   UNL A   1      45.902  39.849  28.768  1.00  0.00    -0.744 OA
ENDBRANCH  68  69
ENDBRANCH  36  61
ENDBRANCH  10  11
ENDBRANCH   3   5
ENDBRANCH   2   3
ENDBRANCH   1   2
BRANCH   1  73
ATOM     73  C   UNL A   1      36.595  22.039  24.792  1.00  0.00     0.274 C 
BRANCH  73  74
ATOM     74  O   UNL A   1      35.266  21.488  24.567  1.00  0.00    -0.462 OA
BRANCH  74  75
ATOM     75  C   UNL A   1      34.328  21.805  25.507  1.00  0.00     0.312 C 
ATOM     76  O   UNL A   1      34.479  21.523  26.694  1.00  0.00    -0.252 OA
BRANCH  75  77
ATOM     77  C   UNL A   1      32.981  22.356  24.959  1.00  0.00     0.075 C 
ATOM     78  C   UNL A   1      32.923  22.948  23.537  1.00  0.00     0.040 C 
ATOM     79  C   UNL A   1      32.507  23.453  25.973  1.00  0.00     0.040 C 
ATOM     80  C   UNL A   1      33.043  24.438  23.296  1.00  0.00     0.119 C 
ATOM     81  C   UNL A   1      33.123  24.841  25.687  1.00  0.00     0.119 C 
ATOM     82  N   UNL A   1      32.601  25.264  24.398  1.00  0.00    -0.356 N 
BRANCH  77  83
ATOM     83  C   UNL A   1      32.001  21.100  24.956  1.00  0.00     0.056 C 
BRANCH  83  84
ATOM     84  C   UNL A   1      32.558  19.844  24.261  1.00  0.00    -0.028 A 
ATOM     85  C   UNL A   1      33.284  18.894  25.013  1.00  0.00     0.005 A 
ATOM     86  C   UNL A   1      32.296  19.517  22.923  1.00  0.00     0.044 A 
ATOM     87  C   UNL A   1      33.549  17.613  24.516  1.00  0.00     0.000 A 
ATOM     88  C   UNL A   1      32.520  18.219  22.440  1.00  0.00     0.021 A 
ATOM     89  Cl  UNL A   1      31.768  20.704  21.784  1.00  0.00    -0.084 Cl
ATOM     90  C   UNL A   1      33.113  17.255  23.250  1.00  0.00     0.002 A 
ENDBRANCH  83  84
ENDBRANCH  77  83
BRANCH  82  91
ATOM     91  C   UNL A   1      32.727  26.617  24.041  1.00  0.00     0.141 A 
ATOM     92  N   UNL A   1      33.937  27.237  24.062  1.00  0.00    -0.219 NA
ATOM     93  C   UNL A   1      31.631  27.353  23.534  1.00  0.00     0.061 A 
ATOM     94  C   UNL A   1      34.026  28.505  23.592  1.00  0.00     0.226 A 
ATOM     95  C   UNL A   1      31.871  28.652  23.114  1.00  0.00     0.142 A 
ATOM     96  C   UNL A   1      30.247  27.104  23.301  1.00  0.00     0.033 A 
ATOM     97  N   UNL A   1      33.046  29.295  23.119  1.00  0.00    -0.218 NA
ATOM     98  N   UNL A   1      30.692  29.185  22.666  1.00  0.00    -0.346 N 
ATOM     99  C   UNL A   1      29.690  28.255  22.784  1.00  0.00     0.085 A 
ATOM    100  H   UNL A   1      30.580  30.097  22.315  1.00  0.00     0.167 HD
ENDBRANCH  82  91
ENDBRANCH  75  77
ENDBRANCH  74  75
ENDBRANCH  73  74
ENDBRANCH   1  73
TORSDOF 17
ENDMDL
