MODEL 1
REMARK VINA RESULT:     -11.5      0.000      0.000
REMARK SMILES CC[C@H](C(=O)OCCOC(=O)c1ccc(-c2c3nc(c(-c4c(F)cc(S(=O)(=O)[O-])cc4F)c4ccc([nH]4)c(-c4c(F)cc(S(=O)(=O)[O-])cc4F)c4nc(c(-c5c(F)cc(S(=O)(=O)[O-])cc5F)c5ccc2[nH]5)C=C4)C=C3)cc1)N1C(=O)c2ccc([N+](=O)[O-])cc2C1=O
REMARK SMILES IDX 8 1 7 2 6 3 4 4 5 5 3 6 2 7 1 8 78 9 79 10 90 11 80 12 81 13
REMARK SMILES IDX 89 14 91 15 82 16 88 17 83 18 84 19 85 20 86 21 87 22 9 23
REMARK SMILES IDX 10 24 11 25 12 26 13 27 77 28 14 29 76 30 15 31 16 32 17 33
REMARK SMILES IDX 70 34 18 35 75 36 69 37 71 38 19 39 74 40 68 41 67 42 20 44
REMARK SMILES IDX 54 45 33 46 53 47 34 48 37 49 52 50 72 51 35 52 36 53 51 55
REMARK SMILES IDX 73 56 38 57 21 58 22 59 31 60 23 61 24 62 30 63 32 64 25 65
REMARK SMILES IDX 26 66 27 67 28 68 29 69 55 70 56 71 65 72 57 73 58 74 64 75
REMARK SMILES IDX 66 76 59 77 60 78 61 79 62 80 63 81 39 82 40 83 49 84 41 85
REMARK SMILES IDX 42 86 48 87 50 88 43 89 44 90 45 91 46 92 47 93
REMARK H PARENT 71 43 37 54
REMARK Flexibility Score: inf
ROOT
ATOM      1  C   UNL A   1      32.756  28.921  27.623  1.00  0.00     0.275 C 
ENDROOT
BRANCH   1   2
ATOM      2  C   UNL A   1      32.182  28.504  26.265  1.00  0.00     0.274 C 
BRANCH   2   3
ATOM      3  O   UNL A   1      32.492  27.140  25.904  1.00  0.00    -0.461 OA
BRANCH   3   4
ATOM      4  C   UNL A   1      31.414  26.358  25.599  1.00  0.00     0.329 C 
ATOM      5  O   UNL A   1      30.669  25.871  26.438  1.00  0.00    -0.250 OA
BRANCH   4   6
ATOM      6  C   UNL A   1      31.276  26.150  24.077  1.00  0.00     0.203 C 
BRANCH   6   7
ATOM      7  C   UNL A   1      30.880  24.730  23.654  1.00  0.00     0.034 C 
ATOM      8  C   UNL A   1      31.651  23.596  24.314  1.00  0.00     0.007 C 
ENDBRANCH   6   7
BRANCH   6   9
ATOM      9  N   UNL A   1      30.405  27.191  23.501  1.00  0.00    -0.260 N 
ATOM     10  C   UNL A   1      29.035  27.208  23.578  1.00  0.00     0.262 C 
ATOM     11  C   UNL A   1      30.873  28.289  22.832  1.00  0.00     0.262 C 
ATOM     12  O   UNL A   1      28.268  26.351  23.955  1.00  0.00    -0.269 OA
ATOM     13  C   UNL A   1      28.607  28.515  23.075  1.00  0.00     0.053 A 
ATOM     14  C   UNL A   1      29.723  29.155  22.567  1.00  0.00     0.060 A 
ATOM     15  O   UNL A   1      32.018  28.565  22.527  1.00  0.00    -0.269 OA
ATOM     16  C   UNL A   1      27.371  29.132  23.134  1.00  0.00     0.022 A 
ATOM     17  C   UNL A   1      29.667  30.439  22.052  1.00  0.00     0.100 A 
ATOM     18  C   UNL A   1      27.280  30.442  22.646  1.00  0.00     0.086 A 
ATOM     19  C   UNL A   1      28.418  31.084  22.096  1.00  0.00     0.270 A 
BRANCH  19  20
ATOM     20  N   UNL A   1      28.292  32.450  21.567  1.00  0.00     0.062 N 
ATOM     21  O   UNL A   1      28.399  33.388  22.365  1.00  0.00    -0.258 OA
ATOM     22  O   UNL A   1      28.035  32.565  20.361  1.00  0.00    -0.258 OA
ENDBRANCH  19  20
ENDBRANCH   6   9
ENDBRANCH   4   6
ENDBRANCH   3   4
ENDBRANCH   2   3
ENDBRANCH   1   2
BRANCH   1  23
ATOM     23  O   UNL A   1      34.194  28.935  27.611  1.00  0.00    -0.458 OA
BRANCH  23  24
ATOM     24  C   UNL A   1      34.768  30.075  28.060  1.00  0.00     0.338 C 
ATOM     25  O   UNL A   1      34.208  31.115  28.361  1.00  0.00    -0.246 OA
BRANCH  24  26
ATOM     26  C   UNL A   1      36.187  29.814  28.339  1.00  0.00     0.060 A 
ATOM     27  C   UNL A   1      37.068  30.006  27.281  1.00  0.00     0.016 A 
ATOM     28  C   UNL A   1      36.652  29.337  29.564  1.00  0.00     0.016 A 
ATOM     29  C   UNL A   1      38.421  29.755  27.444  1.00  0.00     0.010 A 
ATOM     30  C   UNL A   1      38.023  29.065  29.721  1.00  0.00     0.010 A 
ATOM     31  C   UNL A   1      38.915  29.276  28.657  1.00  0.00    -0.014 A 
BRANCH  31  32
ATOM     32  C   UNL A   1      40.355  28.927  28.718  1.00  0.00     0.031 A 
ATOM     33  C   UNL A   1      41.326  29.909  29.305  1.00  0.00     0.074 A 
ATOM     34  C   UNL A   1      40.764  27.681  28.410  1.00  0.00     0.049 A 
ATOM     35  N   UNL A   1      42.627  29.830  29.393  1.00  0.00    -0.248 NA
ATOM     36  C   UNL A   1      40.751  31.127  29.897  1.00  0.00     0.031 C 
ATOM     37  C   UNL A   1      39.889  26.586  27.989  1.00  0.00     0.029 A 
ATOM     38  N   UNL A   1      42.014  27.115  28.440  1.00  0.00    -0.354 N 
ATOM     39  C   UNL A   1      43.035  31.008  30.006  1.00  0.00     0.074 A 
ATOM     40  C   UNL A   1      41.839  31.769  30.298  1.00  0.00     0.031 C 
ATOM     41  C   UNL A   1      40.626  25.475  27.825  1.00  0.00     0.029 A 
ATOM     42  C   UNL A   1      42.033  25.795  28.053  1.00  0.00     0.049 A 
ATOM     43  H   UNL A   1      42.821  27.607  28.712  1.00  0.00     0.167 HD
ATOM     44  C   UNL A   1      44.297  31.425  30.271  1.00  0.00     0.037 A 
ATOM     45  C   UNL A   1      43.072  24.957  27.866  1.00  0.00     0.037 A 
ATOM     46  C   UNL A   1      45.478  30.656  29.973  1.00  0.00     0.049 A 
ATOM     47  C   UNL A   1      44.473  25.480  28.059  1.00  0.00     0.074 A 
ATOM     48  C   UNL A   1      46.804  31.023  30.107  1.00  0.00     0.029 A 
ATOM     49  N   UNL A   1      45.470  29.355  29.489  1.00  0.00    -0.354 N 
ATOM     50  N   UNL A   1      44.862  26.653  28.502  1.00  0.00    -0.248 NA
ATOM     51  C   UNL A   1      45.577  24.584  27.685  1.00  0.00     0.031 C 
ATOM     52  C   UNL A   1      47.599  29.962  29.658  1.00  0.00     0.029 A 
ATOM     53  C   UNL A   1      46.768  28.916  29.289  1.00  0.00     0.049 A 
ATOM     54  H   UNL A   1      44.660  28.823  29.313  1.00  0.00     0.167 HD
ATOM     55  C   UNL A   1      46.253  26.632  28.465  1.00  0.00     0.074 A 
ATOM     56  C   UNL A   1      46.638  25.324  27.975  1.00  0.00     0.031 C 
ATOM     57  C   UNL A   1      47.131  27.612  28.794  1.00  0.00     0.037 A 
BRANCH  44  58
ATOM     58  C   UNL A   1      44.460  32.816  30.813  1.00  0.00     0.058 A 
ATOM     59  C   UNL A   1      44.559  33.082  32.187  1.00  0.00     0.135 A 
ATOM     60  C   UNL A   1      44.504  33.908  29.929  1.00  0.00     0.135 A 
ATOM     61  F   UNL A   1      44.496  32.079  33.077  1.00  0.00    -0.206 F 
ATOM     62  C   UNL A   1      44.667  34.385  32.668  1.00  0.00     0.059 A 
ATOM     63  C   UNL A   1      44.634  35.215  30.387  1.00  0.00     0.059 A 
ATOM     64  F   UNL A   1      44.406  33.708  28.606  1.00  0.00    -0.206 F 
ATOM     65  C   UNL A   1      44.695  35.445  31.758  1.00  0.00     0.060 A 
BRANCH  65  66
ATOM     66  S   UNL A   1      44.801  37.133  32.393  1.00  0.00     0.124 S 
ATOM     67  O   UNL A   1      45.436  37.823  31.275  1.00  0.00    -0.237 OA
ATOM     68  O   UNL A   1      43.401  37.467  32.633  1.00  0.00    -0.237 OA
ATOM     69  O   UNL A   1      45.623  36.994  33.591  1.00  0.00    -0.744 OA
ENDBRANCH  65  66
ENDBRANCH  44  58
BRANCH  45  70
ATOM     70  C   UNL A   1      42.843  23.557  27.415  1.00  0.00     0.058 A 
ATOM     71  C   UNL A   1      42.799  23.235  26.050  1.00  0.00     0.135 A 
ATOM     72  C   UNL A   1      42.654  22.513  28.335  1.00  0.00     0.135 A 
ATOM     73  F   UNL A   1      42.961  24.197  25.129  1.00  0.00    -0.206 F 
ATOM     74  C   UNL A   1      42.572  21.934  25.612  1.00  0.00     0.059 A 
ATOM     75  C   UNL A   1      42.454  21.198  27.924  1.00  0.00     0.059 A 
ATOM     76  F   UNL A   1      42.687  22.762  29.654  1.00  0.00    -0.206 F 
ATOM     77  C   UNL A   1      42.404  20.921  26.558  1.00  0.00     0.060 A 
BRANCH  77  78
ATOM     78  S   UNL A   1      42.169  19.223  25.987  1.00  0.00     0.124 S 
ATOM     79  O   UNL A   1      43.006  19.197  24.794  1.00  0.00    -0.237 OA
ATOM     80  O   UNL A   1      42.651  18.446  27.124  1.00  0.00    -0.237 OA
ATOM     81  O   UNL A   1      40.730  19.147  25.752  1.00  0.00    -0.744 OA
ENDBRANCH  77  78
ENDBRANCH  45  70
BRANCH  57  82
ATOM     82  C   UNL A   1      48.596  27.315  28.630  1.00  0.00     0.058 A 
ATOM     83  C   UNL A   1      49.279  27.642  27.448  1.00  0.00     0.135 A 
ATOM     84  C   UNL A   1      49.339  26.770  29.688  1.00  0.00     0.135 A 
ATOM     85  F   UNL A   1      48.613  28.160  26.403  1.00  0.00    -0.206 F 
ATOM     86  C   UNL A   1      50.647  27.430  27.318  1.00  0.00     0.059 A 
ATOM     87  C   UNL A   1      50.712  26.570  29.588  1.00  0.00     0.059 A 
ATOM     88  F   UNL A   1      48.735  26.447  30.843  1.00  0.00    -0.206 F 
ATOM     89  C   UNL A   1      51.357  26.898  28.396  1.00  0.00     0.060 A 
BRANCH  89  90
ATOM     90  S   UNL A   1      53.143  26.680  28.234  1.00  0.00     0.124 S 
ATOM     91  O   UNL A   1      53.521  26.327  29.598  1.00  0.00    -0.237 OA
ATOM     92  O   UNL A   1      53.239  25.604  27.251  1.00  0.00    -0.237 OA
ATOM     93  O   UNL A   1      53.604  27.986  27.771  1.00  0.00    -0.744 OA
ENDBRANCH  89  90
ENDBRANCH  57  82
ENDBRANCH  31  32
ENDBRANCH  24  26
ENDBRANCH  23  24
ENDBRANCH   1  23
TORSDOF 17
ENDMDL
MODEL 2
REMARK VINA RESULT:     -11.4      4.610     10.645
REMARK SMILES CC[C@H](C(=O)OCCOC(=O)c1ccc(-c2c3nc(c(-c4c(F)cc(S(=O)(=O)[O-])cc4F)c4ccc([nH]4)c(-c4c(F)cc(S(=O)(=O)[O-])cc4F)c4nc(c(-c5c(F)cc(S(=O)(=O)[O-])cc5F)c5ccc2[nH]5)C=C4)C=C3)cc1)N1C(=O)c2ccc([N+](=O)[O-])cc2C1=O
REMARK SMILES IDX 8 1 7 2 6 3 4 4 5 5 3 6 2 7 1 8 78 9 79 10 90 11 80 12 81 13
REMARK SMILES IDX 89 14 91 15 82 16 88 17 83 18 84 19 85 20 86 21 87 22 9 23
REMARK SMILES IDX 10 24 11 25 12 26 13 27 77 28 14 29 76 30 15 31 16 32 17 33
REMARK SMILES IDX 70 34 18 35 75 36 69 37 71 38 19 39 74 40 68 41 67 42 20 44
REMARK SMILES IDX 54 45 33 46 53 47 34 48 37 49 52 50 72 51 35 52 36 53 51 55
REMARK SMILES IDX 73 56 38 57 21 58 22 59 31 60 23 61 24 62 30 63 32 64 25 65
REMARK SMILES IDX 26 66 27 67 28 68 29 69 55 70 56 71 65 72 57 73 58 74 64 75
REMARK SMILES IDX 66 76 59 77 60 78 61 79 62 80 63 81 39 82 40 83 49 84 41 85
REMARK SMILES IDX 42 86 48 87 50 88 43 89 44 90 45 91 46 92 47 93
REMARK H PARENT 71 43 37 54
REMARK Flexibility Score: inf
ROOT
ATOM      1  C   UNL A   1      36.772  22.781  24.288  1.00  0.00     0.275 C 
ENDROOT
BRANCH   1   2
ATOM      2  C   UNL A   1      35.360  23.325  24.050  1.00  0.00     0.274 C 
BRANCH   2   3
ATOM      3  O   UNL A   1      34.801  22.935  22.776  1.00  0.00    -0.461 OA
BRANCH   3   4
ATOM      4  C   UNL A   1      33.531  23.378  22.535  1.00  0.00     0.329 C 
ATOM      5  O   UNL A   1      33.217  24.041  21.556  1.00  0.00    -0.250 OA
BRANCH   4   6
ATOM      6  C   UNL A   1      32.561  22.960  23.658  1.00  0.00     0.203 C 
BRANCH   6   7
ATOM      7  C   UNL A   1      31.183  23.630  23.602  1.00  0.00     0.034 C 
ATOM      8  C   UNL A   1      31.101  25.040  24.168  1.00  0.00     0.007 C 
ENDBRANCH   6   7
BRANCH   6   9
ATOM      9  N   UNL A   1      32.488  21.490  23.743  1.00  0.00    -0.260 N 
ATOM     10  C   UNL A   1      32.223  20.648  22.691  1.00  0.00     0.262 C 
ATOM     11  C   UNL A   1      32.702  20.783  24.895  1.00  0.00     0.262 C 
ATOM     12  O   UNL A   1      31.843  20.903  21.571  1.00  0.00    -0.269 OA
ATOM     13  C   UNL A   1      32.467  19.289  23.176  1.00  0.00     0.053 A 
ATOM     14  C   UNL A   1      32.706  19.364  24.537  1.00  0.00     0.060 A 
ATOM     15  O   UNL A   1      32.901  21.201  26.020  1.00  0.00    -0.269 OA
ATOM     16  C   UNL A   1      32.562  18.098  22.479  1.00  0.00     0.022 A 
ATOM     17  C   UNL A   1      33.019  18.248  25.294  1.00  0.00     0.100 A 
ATOM     18  C   UNL A   1      32.902  16.950  23.207  1.00  0.00     0.086 A 
ATOM     19  C   UNL A   1      33.115  17.024  24.607  1.00  0.00     0.270 A 
BRANCH  19  20
ATOM     20  N   UNL A   1      33.446  15.802  25.354  1.00  0.00     0.062 N 
ATOM     21  O   UNL A   1      34.629  15.443  25.374  1.00  0.00    -0.258 OA
ATOM     22  O   UNL A   1      32.504  15.185  25.871  1.00  0.00    -0.258 OA
ENDBRANCH  19  20
ENDBRANCH   6   9
ENDBRANCH   4   6
ENDBRANCH   3   4
ENDBRANCH   2   3
ENDBRANCH   1   2
BRANCH   1  23
ATOM     23  O   UNL A   1      37.612  23.749  24.939  1.00  0.00    -0.458 OA
BRANCH  23  24
ATOM     24  C   UNL A   1      38.553  23.239  25.766  1.00  0.00     0.338 C 
ATOM     25  O   UNL A   1      39.026  22.115  25.744  1.00  0.00    -0.246 OA
BRANCH  24  26
ATOM     26  C   UNL A   1      39.096  24.325  26.595  1.00  0.00     0.060 A 
ATOM     27  C   UNL A   1      38.669  24.363  27.917  1.00  0.00     0.016 A 
ATOM     28  C   UNL A   1      39.942  25.317  26.100  1.00  0.00     0.016 A 
ATOM     29  C   UNL A   1      39.105  25.370  28.764  1.00  0.00     0.010 A 
ATOM     30  C   UNL A   1      40.368  26.348  26.956  1.00  0.00     0.010 A 
ATOM     31  C   UNL A   1      39.949  26.376  28.297  1.00  0.00    -0.014 A 
BRANCH  31  32
ATOM     32  C   UNL A   1      40.282  27.477  29.232  1.00  0.00     0.031 A 
ATOM     33  C   UNL A   1      41.616  27.481  29.920  1.00  0.00     0.074 A 
ATOM     34  C   UNL A   1      39.473  28.548  29.334  1.00  0.00     0.049 A 
ATOM     35  N   UNL A   1      42.078  28.308  30.820  1.00  0.00    -0.248 NA
ATOM     36  C   UNL A   1      42.564  26.428  29.521  1.00  0.00     0.031 C 
ATOM     37  C   UNL A   1      38.230  28.740  28.585  1.00  0.00     0.029 A 
ATOM     38  N   UNL A   1      39.593  29.695  30.078  1.00  0.00    -0.354 N 
ATOM     39  C   UNL A   1      43.353  27.851  31.133  1.00  0.00     0.074 A 
ATOM     40  C   UNL A   1      43.603  26.694  30.300  1.00  0.00     0.031 C 
ATOM     41  C   UNL A   1      37.716  29.944  28.890  1.00  0.00     0.029 A 
ATOM     42  C   UNL A   1      38.548  30.576  29.910  1.00  0.00     0.049 A 
ATOM     43  H   UNL A   1      40.353  29.872  30.676  1.00  0.00     0.167 HD
ATOM     44  C   UNL A   1      44.219  28.340  32.052  1.00  0.00     0.037 A 
ATOM     45  C   UNL A   1      38.278  31.737  30.539  1.00  0.00     0.037 A 
ATOM     46  C   UNL A   1      43.955  29.493  32.873  1.00  0.00     0.049 A 
ATOM     47  C   UNL A   1      39.200  32.201  31.638  1.00  0.00     0.074 A 
ATOM     48  C   UNL A   1      44.717  30.013  33.904  1.00  0.00     0.029 A 
ATOM     49  N   UNL A   1      42.841  30.312  32.748  1.00  0.00    -0.354 N 
ATOM     50  N   UNL A   1      40.339  31.682  32.033  1.00  0.00    -0.248 NA
ATOM     51  C   UNL A   1      38.779  33.381  32.407  1.00  0.00     0.031 C 
ATOM     52  C   UNL A   1      44.040  31.118  34.434  1.00  0.00     0.029 A 
ATOM     53  C   UNL A   1      42.879  31.315  33.702  1.00  0.00     0.049 A 
ATOM     54  H   UNL A   1      42.127  30.196  32.080  1.00  0.00     0.167 HD
ATOM     55  C   UNL A   1      40.772  32.475  33.091  1.00  0.00     0.074 A 
ATOM     56  C   UNL A   1      39.783  33.520  33.263  1.00  0.00     0.031 C 
ATOM     57  C   UNL A   1      41.881  32.343  33.861  1.00  0.00     0.037 A 
BRANCH  44  58
ATOM     58  C   UNL A   1      45.481  27.560  32.288  1.00  0.00     0.058 A 
ATOM     59  C   UNL A   1      45.547  26.491  33.194  1.00  0.00     0.135 A 
ATOM     60  C   UNL A   1      46.654  27.906  31.595  1.00  0.00     0.135 A 
ATOM     61  F   UNL A   1      44.462  26.136  33.901  1.00  0.00    -0.206 F 
ATOM     62  C   UNL A   1      46.739  25.810  33.427  1.00  0.00     0.059 A 
ATOM     63  C   UNL A   1      47.849  27.225  31.796  1.00  0.00     0.059 A 
ATOM     64  F   UNL A   1      46.646  28.925  30.722  1.00  0.00    -0.206 F 
ATOM     65  C   UNL A   1      47.887  26.191  32.728  1.00  0.00     0.060 A 
BRANCH  65  66
ATOM     66  S   UNL A   1      49.436  25.325  33.062  1.00  0.00     0.124 S 
ATOM     67  O   UNL A   1      49.910  25.046  31.710  1.00  0.00    -0.237 OA
ATOM     68  O   UNL A   1      50.199  26.320  33.809  1.00  0.00    -0.237 OA
ATOM     69  O   UNL A   1      49.014  24.158  33.830  1.00  0.00    -0.744 OA
ENDBRANCH  65  66
ENDBRANCH  44  58
BRANCH  45  70
ATOM     70  C   UNL A   1      37.056  32.515  30.198  1.00  0.00     0.058 A 
ATOM     71  C   UNL A   1      37.095  33.538  29.238  1.00  0.00     0.135 A 
ATOM     72  C   UNL A   1      35.826  32.261  30.826  1.00  0.00     0.135 A 
ATOM     73  F   UNL A   1      38.248  33.831  28.617  1.00  0.00    -0.206 F 
ATOM     74  C   UNL A   1      35.965  34.284  28.918  1.00  0.00     0.059 A 
ATOM     75  C   UNL A   1      34.675  32.972  30.503  1.00  0.00     0.059 A 
ATOM     76  F   UNL A   1      35.730  31.292  31.751  1.00  0.00    -0.206 F 
ATOM     77  C   UNL A   1      34.757  33.990  29.554  1.00  0.00     0.060 A 
BRANCH  77  78
ATOM     78  S   UNL A   1      33.279  34.920  29.091  1.00  0.00     0.124 S 
ATOM     79  O   UNL A   1      32.565  34.986  30.360  1.00  0.00    -0.237 OA
ATOM     80  O   UNL A   1      33.844  36.177  28.609  1.00  0.00    -0.237 OA
ATOM     81  O   UNL A   1      32.667  34.083  28.063  1.00  0.00    -0.744 OA
ENDBRANCH  77  78
ENDBRANCH  45  70
BRANCH  57  82
ATOM     82  C   UNL A   1      42.086  33.344  34.963  1.00  0.00     0.058 A 
ATOM     83  C   UNL A   1      42.595  34.625  34.699  1.00  0.00     0.135 A 
ATOM     84  C   UNL A   1      41.698  33.050  36.280  1.00  0.00     0.135 A 
ATOM     85  F   UNL A   1      42.986  34.956  33.458  1.00  0.00    -0.206 F 
ATOM     86  C   UNL A   1      42.722  35.577  35.706  1.00  0.00     0.059 A 
ATOM     87  C   UNL A   1      41.796  33.994  37.297  1.00  0.00     0.059 A 
ATOM     88  F   UNL A   1      41.197  31.842  36.582  1.00  0.00    -0.206 F 
ATOM     89  C   UNL A   1      42.315  35.253  37.002  1.00  0.00     0.060 A 
BRANCH  89  90
ATOM     90  S   UNL A   1      42.434  36.517  38.287  1.00  0.00     0.124 S 
ATOM     91  O   UNL A   1      41.108  37.122  38.227  1.00  0.00    -0.237 OA
ATOM     92  O   UNL A   1      42.715  35.724  39.481  1.00  0.00    -0.237 OA
ATOM     93  O   UNL A   1      43.533  37.363  37.832  1.00  0.00    -0.744 OA
ENDBRANCH  89  90
ENDBRANCH  57  82
ENDBRANCH  31  32
ENDBRANCH  24  26
ENDBRANCH  23  24
ENDBRANCH   1  23
TORSDOF 17
ENDMDL
MODEL 3
REMARK VINA RESULT:     -11.4      2.533      4.512
REMARK SMILES CC[C@H](C(=O)OCCOC(=O)c1ccc(-c2c3nc(c(-c4c(F)cc(S(=O)(=O)[O-])cc4F)c4ccc([nH]4)c(-c4c(F)cc(S(=O)(=O)[O-])cc4F)c4nc(c(-c5c(F)cc(S(=O)(=O)[O-])cc5F)c5ccc2[nH]5)C=C4)C=C3)cc1)N1C(=O)c2ccc([N+](=O)[O-])cc2C1=O
REMARK SMILES IDX 8 1 7 2 6 3 4 4 5 5 3 6 2 7 1 8 78 9 79 10 90 11 80 12 81 13
REMARK SMILES IDX 89 14 91 15 82 16 88 17 83 18 84 19 85 20 86 21 87 22 9 23
REMARK SMILES IDX 10 24 11 25 12 26 13 27 77 28 14 29 76 30 15 31 16 32 17 33
REMARK SMILES IDX 70 34 18 35 75 36 69 37 71 38 19 39 74 40 68 41 67 42 20 44
REMARK SMILES IDX 54 45 33 46 53 47 34 48 37 49 52 50 72 51 35 52 36 53 51 55
REMARK SMILES IDX 73 56 38 57 21 58 22 59 31 60 23 61 24 62 30 63 32 64 25 65
REMARK SMILES IDX 26 66 27 67 28 68 29 69 55 70 56 71 65 72 57 73 58 74 64 75
REMARK SMILES IDX 66 76 59 77 60 78 61 79 62 80 63 81 39 82 40 83 49 84 41 85
REMARK SMILES IDX 42 86 48 87 50 88 43 89 44 90 45 91 46 92 47 93
REMARK H PARENT 71 43 37 54
REMARK Flexibility Score: inf
ROOT
ATOM      1  C   UNL A   1      32.369  28.828  27.619  1.00  0.00     0.275 C 
ENDROOT
BRANCH   1   2
ATOM      2  C   UNL A   1      31.812  27.712  26.730  1.00  0.00     0.274 C 
BRANCH   2   3
ATOM      3  O   UNL A   1      32.783  26.690  26.415  1.00  0.00    -0.461 OA
BRANCH   3   4
ATOM      4  C   UNL A   1      32.261  25.487  26.029  1.00  0.00     0.329 C 
ATOM      5  O   UNL A   1      31.683  24.722  26.789  1.00  0.00    -0.250 OA
BRANCH   4   6
ATOM      6  C   UNL A   1      32.514  25.212  24.533  1.00  0.00     0.203 C 
BRANCH   6   7
ATOM      7  C   UNL A   1      33.461  26.204  23.846  1.00  0.00     0.034 C 
ATOM      8  C   UNL A   1      33.457  26.189  22.324  1.00  0.00     0.007 C 
ENDBRANCH   6   7
BRANCH   6   9
ATOM      9  N   UNL A   1      32.907  23.805  24.337  1.00  0.00    -0.260 N 
ATOM     10  C   UNL A   1      34.102  23.254  24.728  1.00  0.00     0.262 C 
ATOM     11  C   UNL A   1      32.101  22.866  23.751  1.00  0.00     0.262 C 
ATOM     12  O   UNL A   1      35.106  23.791  25.136  1.00  0.00    -0.269 OA
ATOM     13  C   UNL A   1      33.973  21.808  24.539  1.00  0.00     0.053 A 
ATOM     14  C   UNL A   1      32.773  21.573  23.891  1.00  0.00     0.060 A 
ATOM     15  O   UNL A   1      31.008  23.013  23.238  1.00  0.00    -0.269 OA
ATOM     16  C   UNL A   1      34.786  20.777  24.973  1.00  0.00     0.022 A 
ATOM     17  C   UNL A   1      32.328  20.294  23.604  1.00  0.00     0.100 A 
ATOM     18  C   UNL A   1      34.356  19.467  24.722  1.00  0.00     0.086 A 
ATOM     19  C   UNL A   1      33.142  19.230  24.030  1.00  0.00     0.270 A 
BRANCH  19  20
ATOM     20  N   UNL A   1      32.724  17.847  23.757  1.00  0.00     0.062 N 
ATOM     21  O   UNL A   1      32.784  17.448  22.588  1.00  0.00    -0.258 OA
ATOM     22  O   UNL A   1      32.290  17.190  24.714  1.00  0.00    -0.258 OA
ENDBRANCH  19  20
ENDBRANCH   6   9
ENDBRANCH   4   6
ENDBRANCH   3   4
ENDBRANCH   2   3
ENDBRANCH   1   2
BRANCH   1  23
ATOM     23  O   UNL A   1      33.806  28.852  27.605  1.00  0.00    -0.458 OA
BRANCH  23  24
ATOM     24  C   UNL A   1      34.370  30.037  27.936  1.00  0.00     0.338 C 
ATOM     25  O   UNL A   1      33.802  31.097  28.130  1.00  0.00    -0.246 OA
BRANCH  24  26
ATOM     26  C   UNL A   1      35.791  29.816  28.240  1.00  0.00     0.060 A 
ATOM     27  C   UNL A   1      36.686  30.036  27.199  1.00  0.00     0.016 A 
ATOM     28  C   UNL A   1      36.248  29.350  29.473  1.00  0.00     0.016 A 
ATOM     29  C   UNL A   1      38.043  29.824  27.387  1.00  0.00     0.010 A 
ATOM     30  C   UNL A   1      37.622  29.117  29.655  1.00  0.00     0.010 A 
ATOM     31  C   UNL A   1      38.528  29.356  28.608  1.00  0.00    -0.014 A 
BRANCH  31  32
ATOM     32  C   UNL A   1      39.975  29.049  28.695  1.00  0.00     0.031 A 
ATOM     33  C   UNL A   1      40.908  30.062  29.293  1.00  0.00     0.074 A 
ATOM     34  C   UNL A   1      40.425  27.815  28.401  1.00  0.00     0.049 A 
ATOM     35  N   UNL A   1      42.209  30.021  29.403  1.00  0.00    -0.248 NA
ATOM     36  C   UNL A   1      40.289  31.266  29.868  1.00  0.00     0.031 C 
ATOM     37  C   UNL A   1      39.589  26.692  27.971  1.00  0.00     0.029 A 
ATOM     38  N   UNL A   1      41.690  27.285  28.455  1.00  0.00    -0.354 N 
ATOM     39  C   UNL A   1      42.573  31.213  30.016  1.00  0.00     0.074 A 
ATOM     40  C   UNL A   1      41.351  31.941  30.284  1.00  0.00     0.031 C 
ATOM     41  C   UNL A   1      40.361  25.602  27.826  1.00  0.00     0.029 A 
ATOM     42  C   UNL A   1      41.754  25.963  28.076  1.00  0.00     0.049 A 
ATOM     43  H   UNL A   1      42.478  27.801  28.738  1.00  0.00     0.167 HD
ATOM     44  C   UNL A   1      43.818  31.667  30.300  1.00  0.00     0.037 A 
ATOM     45  C   UNL A   1      42.819  25.155  27.911  1.00  0.00     0.037 A 
ATOM     46  C   UNL A   1      45.025  30.931  30.026  1.00  0.00     0.049 A 
ATOM     47  C   UNL A   1      44.201  25.719  28.124  1.00  0.00     0.074 A 
ATOM     48  C   UNL A   1      46.338  31.337  30.180  1.00  0.00     0.029 A 
ATOM     49  N   UNL A   1      45.062  29.628  29.550  1.00  0.00    -0.354 N 
ATOM     50  N   UNL A   1      44.549  26.904  28.567  1.00  0.00    -0.248 NA
ATOM     51  C   UNL A   1      45.336  24.853  27.773  1.00  0.00     0.031 C 
ATOM     52  C   UNL A   1      47.170  30.297  29.750  1.00  0.00     0.029 A 
ATOM     53  C   UNL A   1      46.375  29.225  29.374  1.00  0.00     0.049 A 
ATOM     54  H   UNL A   1      44.271  29.072  29.363  1.00  0.00     0.167 HD
ATOM     55  C   UNL A   1      45.940  26.923  28.553  1.00  0.00     0.074 A 
ATOM     56  C   UNL A   1      46.371  25.625  28.077  1.00  0.00     0.031 C 
ATOM     57  C   UNL A   1      46.785  27.930  28.891  1.00  0.00     0.037 A 
BRANCH  44  58
ATOM     58  C   UNL A   1      43.931  33.066  30.837  1.00  0.00     0.058 A 
ATOM     59  C   UNL A   1      43.985  33.342  32.212  1.00  0.00     0.135 A 
ATOM     60  C   UNL A   1      43.974  34.153  29.947  1.00  0.00     0.135 A 
ATOM     61  F   UNL A   1      43.922  32.343  33.106  1.00  0.00    -0.206 F 
ATOM     62  C   UNL A   1      44.048  34.650  32.686  1.00  0.00     0.059 A 
ATOM     63  C   UNL A   1      44.060  35.465  30.399  1.00  0.00     0.059 A 
ATOM     64  F   UNL A   1      43.918  33.943  28.623  1.00  0.00    -0.206 F 
ATOM     65  C   UNL A   1      44.077  35.705  31.771  1.00  0.00     0.060 A 
BRANCH  65  66
ATOM     66  S   UNL A   1      44.123  37.399  32.396  1.00  0.00     0.124 S 
ATOM     67  O   UNL A   1      45.507  37.503  32.847  1.00  0.00    -0.237 OA
ATOM     68  O   UNL A   1      43.781  38.181  31.213  1.00  0.00    -0.237 OA
ATOM     69  O   UNL A   1      43.118  37.397  33.455  1.00  0.00    -0.744 OA
ENDBRANCH  65  66
ENDBRANCH  44  58
BRANCH  45  70
ATOM     70  C   UNL A   1      42.638  23.746  27.464  1.00  0.00     0.058 A 
ATOM     71  C   UNL A   1      42.564  23.425  26.100  1.00  0.00     0.135 A 
ATOM     72  C   UNL A   1      42.525  22.694  28.386  1.00  0.00     0.135 A 
ATOM     73  F   UNL A   1      42.653  24.394  25.177  1.00  0.00    -0.206 F 
ATOM     74  C   UNL A   1      42.381  22.115  25.667  1.00  0.00     0.059 A 
ATOM     75  C   UNL A   1      42.371  21.373  27.979  1.00  0.00     0.059 A 
ATOM     76  F   UNL A   1      42.590  22.943  29.704  1.00  0.00    -0.206 F 
ATOM     77  C   UNL A   1      42.289  21.095  26.615  1.00  0.00     0.060 A 
BRANCH  77  78
ATOM     78  S   UNL A   1      42.111  19.389  26.046  1.00  0.00     0.124 S 
ATOM     79  O   UNL A   1      42.521  18.642  27.229  1.00  0.00    -0.237 OA
ATOM     80  O   UNL A   1      40.692  19.323  25.708  1.00  0.00    -0.237 OA
ATOM     81  O   UNL A   1      43.021  19.321  24.907  1.00  0.00    -0.744 OA
ENDBRANCH  77  78
ENDBRANCH  45  70
BRANCH  57  82
ATOM     82  C   UNL A   1      48.259  27.674  28.753  1.00  0.00     0.058 A 
ATOM     83  C   UNL A   1      48.993  27.062  29.782  1.00  0.00     0.135 A 
ATOM     84  C   UNL A   1      48.929  27.972  27.556  1.00  0.00     0.135 A 
ATOM     85  F   UNL A   1      48.402  26.762  30.949  1.00  0.00    -0.206 F 
ATOM     86  C   UNL A   1      50.343  26.764  29.631  1.00  0.00     0.059 A 
ATOM     87  C   UNL A   1      50.273  27.663  27.376  1.00  0.00     0.059 A 
ATOM     88  F   UNL A   1      48.270  28.550  26.539  1.00  0.00    -0.206 F 
ATOM     89  C   UNL A   1      50.974  27.064  28.422  1.00  0.00     0.060 A 
BRANCH  89  90
ATOM     90  S   UNL A   1      52.713  26.619  28.219  1.00  0.00     0.124 S 
ATOM     91  O   UNL A   1      52.623  25.486  27.305  1.00  0.00    -0.237 OA
ATOM     92  O   UNL A   1      53.285  27.841  27.660  1.00  0.00    -0.237 OA
ATOM     93  O   UNL A   1      53.143  26.299  29.578  1.00  0.00    -0.744 OA
ENDBRANCH  89  90
ENDBRANCH  57  82
ENDBRANCH  31  32
ENDBRANCH  24  26
ENDBRANCH  23  24
ENDBRANCH   1  23
TORSDOF 17
ENDMDL
