MODEL 1
REMARK VINA RESULT:     -12.2      0.000      0.000
REMARK SMILES CS(=O)(=O)c1ccc(-n2nc(C(F)(F)F)cc2-c2ccc(CC(=O)OCCOC(=O)c3ccc(-c4c5nc(c(-c6c(F)cc(S(=O)(=O)[O-])cc6F)c6ccc([nH]6)c(-c6c(F)cc(S(=O)(=O)[O-])cc6F)c6nc(c(-c7c(F)cc(S(=O)(=O)[O-])cc7F)c7ccc4[nH]7)C=C6)C=C5)cc3)cc2)cc1
REMARK SMILES IDX 26 1 25 2 23 3 24 4 22 5 21 6 18 7 19 8 98 9 20 10 97 11
REMARK SMILES IDX 17 12 9 13 10 14 11 15 16 16 8 17 5 18 6 19 100 20 7 21
REMARK SMILES IDX 99 22 2 23 1 24 3 25 4 26 12 27 13 28 14 29 15 30 27 31
REMARK SMILES IDX 28 32 29 33 30 34 31 35 32 36 96 37 33 38 95 39 34 40 35 41
REMARK SMILES IDX 36 42 89 43 37 44 94 45 88 46 90 47 38 48 93 49 87 50 86 51
REMARK SMILES IDX 39 53 73 54 52 55 72 56 53 57 56 58 71 59 91 60 54 61 55 62
REMARK SMILES IDX 70 64 92 65 57 66 40 67 41 68 50 69 42 70 43 71 49 72 51 73
REMARK SMILES IDX 44 74 45 75 46 76 47 77 48 78 74 79 75 80 84 81 76 82 77 83
REMARK SMILES IDX 83 84 85 85 78 86 79 87 80 88 81 89 82 90 58 91 59 92 68 93
REMARK SMILES IDX 60 94 61 95 67 96 69 97 62 98 63 99 64 100 65 101 66 102
REMARK H PARENT 90 52 56 63
REMARK Flexibility Score: inf
ROOT
ATOM      1  C   UNL A   1      40.209  21.433  27.105  1.00  0.00     0.274 C 
ENDROOT
BRANCH   1   2
ATOM      2  O   UNL A   1      40.195  22.863  27.308  1.00  0.00    -0.462 OA
BRANCH   2   3
ATOM      3  C   UNL A   1      39.462  23.585  26.417  1.00  0.00     0.310 C 
ATOM      4  O   UNL A   1      39.427  24.814  26.392  1.00  0.00    -0.252 OA
BRANCH   3   5
ATOM      5  C   UNL A   1      38.560  22.748  25.534  1.00  0.00     0.158 C 
BRANCH   5   6
ATOM      6  C   UNL A   1      37.182  23.277  25.216  1.00  0.00    -0.037 A 
ATOM      7  C   UNL A   1      34.593  24.211  24.582  1.00  0.00     0.000 A 
ATOM      8  C   UNL A   1      35.407  23.655  23.593  1.00  0.00     0.010 A 
ATOM      9  C   UNL A   1      35.099  24.346  25.879  1.00  0.00     0.010 A 
ATOM     10  C   UNL A   1      36.692  23.214  23.906  1.00  0.00     0.005 A 
ATOM     11  C   UNL A   1      36.377  23.866  26.197  1.00  0.00     0.005 A 
BRANCH   7  12
ATOM     12  C   UNL A   1      33.232  24.627  24.252  1.00  0.00     0.075 A 
ATOM     13  N   UNL A   1      32.231  23.788  23.765  1.00  0.00    -0.233 N 
ATOM     14  N   UNL A   1      31.164  24.493  23.304  1.00  0.00    -0.163 NA
ATOM     15  C   UNL A   1      31.431  25.778  23.601  1.00  0.00     0.167 A 
ATOM     16  C   UNL A   1      32.715  25.904  24.186  1.00  0.00     0.064 A 
BRANCH  13  17
ATOM     17  C   UNL A   1      32.217  22.367  23.730  1.00  0.00     0.065 A 
ATOM     18  C   UNL A   1      32.359  19.581  23.632  1.00  0.00     0.067 A 
ATOM     19  C   UNL A   1      32.409  20.237  24.865  1.00  0.00     0.022 A 
ATOM     20  C   UNL A   1      32.198  20.306  22.447  1.00  0.00     0.022 A 
ATOM     21  C   UNL A   1      32.343  21.628  24.913  1.00  0.00     0.030 A 
ATOM     22  C   UNL A   1      32.103  21.703  22.500  1.00  0.00     0.030 A 
BRANCH  18  23
ATOM     23  S   UNL A   1      32.534  17.813  23.657  1.00  0.00     0.175 S 
ATOM     24  C   UNL A   1      34.238  17.454  23.965  1.00  0.00     0.163 C 
ATOM     25  O   UNL A   1      32.211  17.354  22.319  1.00  0.00    -0.224 OA
ATOM     26  O   UNL A   1      31.777  17.334  24.802  1.00  0.00    -0.224 OA
ENDBRANCH  18  23
ENDBRANCH  13  17
BRANCH  15  27
ATOM     27  C   UNL A   1      30.469  26.905  23.334  1.00  0.00     0.435 C 
ATOM     28  F   UNL A   1      29.166  26.566  23.505  1.00  0.00    -0.164 F 
ATOM     29  F   UNL A   1      30.713  27.975  24.140  1.00  0.00    -0.164 F 
ATOM     30  F   UNL A   1      30.585  27.369  22.057  1.00  0.00    -0.164 F 
ENDBRANCH  15  27
ENDBRANCH   7  12
ENDBRANCH   5   6
ENDBRANCH   3   5
ENDBRANCH   2   3
ENDBRANCH   1   2
BRANCH   1  31
ATOM     31  C   UNL A   1      41.579  20.874  26.716  1.00  0.00     0.275 C 
BRANCH  31  32
ATOM     32  O   UNL A   1      42.133  21.501  25.557  1.00  0.00    -0.458 OA
BRANCH  32  33
ATOM     33  C   UNL A   1      43.452  21.765  25.689  1.00  0.00     0.338 C 
ATOM     34  O   UNL A   1      44.374  20.985  25.536  1.00  0.00    -0.246 OA
BRANCH  33  35
ATOM     35  C   UNL A   1      43.674  23.125  26.174  1.00  0.00     0.060 A 
ATOM     36  C   UNL A   1      44.314  23.275  27.409  1.00  0.00     0.016 A 
ATOM     37  C   UNL A   1      43.019  24.189  25.552  1.00  0.00     0.016 A 
ATOM     38  C   UNL A   1      44.189  24.465  28.094  1.00  0.00     0.010 A 
ATOM     39  C   UNL A   1      42.903  25.385  26.233  1.00  0.00     0.010 A 
ATOM     40  C   UNL A   1      43.431  25.489  27.525  1.00  0.00    -0.014 A 
BRANCH  40  41
ATOM     41  C   UNL A   1      43.239  26.697  28.311  1.00  0.00     0.031 A 
ATOM     42  C   UNL A   1      44.350  27.680  28.242  1.00  0.00     0.074 A 
ATOM     43  C   UNL A   1      42.066  26.959  28.918  1.00  0.00     0.049 A 
ATOM     44  N   UNL A   1      45.010  28.232  29.207  1.00  0.00    -0.248 NA
ATOM     45  C   UNL A   1      44.843  28.028  26.899  1.00  0.00     0.031 C 
ATOM     46  C   UNL A   1      40.820  26.196  28.786  1.00  0.00     0.029 A 
ATOM     47  N   UNL A   1      41.696  28.038  29.661  1.00  0.00    -0.354 N 
ATOM     48  C   UNL A   1      45.858  29.152  28.598  1.00  0.00     0.074 A 
ATOM     49  C   UNL A   1      45.824  28.879  27.185  1.00  0.00     0.031 C 
ATOM     50  C   UNL A   1      39.792  26.951  29.226  1.00  0.00     0.029 A 
ATOM     51  C   UNL A   1      40.321  28.191  29.769  1.00  0.00     0.049 A 
ATOM     52  H   UNL A   1      42.342  28.650  30.081  1.00  0.00     0.167 HD
ATOM     53  C   UNL A   1      46.351  30.234  29.259  1.00  0.00     0.037 A 
ATOM     54  C   UNL A   1      39.657  29.297  30.181  1.00  0.00     0.037 A 
ATOM     55  C   UNL A   1      46.298  30.069  30.684  1.00  0.00     0.049 A 
ATOM     56  C   UNL A   1      40.608  30.154  30.929  1.00  0.00     0.074 A 
ATOM     57  C   UNL A   1      46.865  29.192  31.587  1.00  0.00     0.029 A 
ATOM     58  N   UNL A   1      45.301  30.725  31.362  1.00  0.00    -0.354 N 
ATOM     59  N   UNL A   1      41.135  29.842  32.081  1.00  0.00    -0.248 NA
ATOM     60  C   UNL A   1      41.275  31.237  30.218  1.00  0.00     0.031 C 
ATOM     61  C   UNL A   1      45.917  29.066  32.641  1.00  0.00     0.029 A 
ATOM     62  C   UNL A   1      44.826  29.882  32.334  1.00  0.00     0.049 A 
ATOM     63  H   UNL A   1      44.983  31.639  31.182  1.00  0.00     0.167 HD
ATOM     64  C   UNL A   1      42.407  30.391  32.054  1.00  0.00     0.074 A 
ATOM     65  C   UNL A   1      42.382  31.348  30.956  1.00  0.00     0.031 C 
ATOM     66  C   UNL A   1      43.438  29.815  32.739  1.00  0.00     0.037 A 
BRANCH  53  67
ATOM     67  C   UNL A   1      46.539  31.579  28.602  1.00  0.00     0.058 A 
ATOM     68  C   UNL A   1      45.432  32.254  28.055  1.00  0.00     0.135 A 
ATOM     69  C   UNL A   1      47.808  32.090  28.243  1.00  0.00     0.135 A 
ATOM     70  F   UNL A   1      44.183  31.835  28.312  1.00  0.00    -0.206 F 
ATOM     71  C   UNL A   1      45.576  33.323  27.169  1.00  0.00     0.059 A 
ATOM     72  C   UNL A   1      47.974  33.189  27.412  1.00  0.00     0.059 A 
ATOM     73  F   UNL A   1      48.948  31.484  28.600  1.00  0.00    -0.206 F 
ATOM     74  C   UNL A   1      46.853  33.770  26.841  1.00  0.00     0.060 A 
BRANCH  74  75
ATOM     75  S   UNL A   1      47.057  35.057  25.597  1.00  0.00     0.124 S 
ATOM     76  O   UNL A   1      48.441  34.844  25.190  1.00  0.00    -0.237 OA
ATOM     77  O   UNL A   1      46.038  34.698  24.615  1.00  0.00    -0.237 OA
ATOM     78  O   UNL A   1      46.796  36.285  26.341  1.00  0.00    -0.744 OA
ENDBRANCH  74  75
ENDBRANCH  53  67
BRANCH  54  79
ATOM     79  C   UNL A   1      38.335  29.776  29.710  1.00  0.00     0.058 A 
ATOM     80  C   UNL A   1      37.335  30.175  30.610  1.00  0.00     0.135 A 
ATOM     81  C   UNL A   1      38.107  30.075  28.350  1.00  0.00     0.135 A 
ATOM     82  F   UNL A   1      37.488  29.961  31.925  1.00  0.00    -0.206 F 
ATOM     83  C   UNL A   1      36.184  30.849  30.190  1.00  0.00     0.059 A 
ATOM     84  C   UNL A   1      36.963  30.729  27.905  1.00  0.00     0.059 A 
ATOM     85  F   UNL A   1      39.036  29.811  27.418  1.00  0.00    -0.206 F 
ATOM     86  C   UNL A   1      36.013  31.132  28.835  1.00  0.00     0.060 A 
BRANCH  86  87
ATOM     87  S   UNL A   1      34.595  32.120  28.304  1.00  0.00     0.124 S 
ATOM     88  O   UNL A   1      34.011  32.515  29.581  1.00  0.00    -0.237 OA
ATOM     89  O   UNL A   1      35.233  33.183  27.537  1.00  0.00    -0.237 OA
ATOM     90  O   UNL A   1      33.800  31.178  27.520  1.00  0.00    -0.744 OA
ENDBRANCH  86  87
ENDBRANCH  54  79
BRANCH  66  91
ATOM     91  C   UNL A   1      43.094  28.835  33.828  1.00  0.00     0.058 A 
ATOM     92  C   UNL A   1      43.063  27.440  33.653  1.00  0.00     0.135 A 
ATOM     93  C   UNL A   1      42.928  29.322  35.135  1.00  0.00     0.135 A 
ATOM     94  F   UNL A   1      43.316  26.889  32.458  1.00  0.00    -0.206 F 
ATOM     95  C   UNL A   1      42.833  26.572  34.720  1.00  0.00     0.059 A 
ATOM     96  C   UNL A   1      42.730  28.472  36.220  1.00  0.00     0.059 A 
ATOM     97  F   UNL A   1      43.011  30.641  35.376  1.00  0.00    -0.206 F 
ATOM     98  C   UNL A   1      42.671  27.097  36.002  1.00  0.00     0.060 A 
BRANCH  98  99
ATOM     99  S   UNL A   1      42.474  25.963  37.393  1.00  0.00     0.124 S 
ATOM    100  O   UNL A   1      42.809  24.678  36.790  1.00  0.00    -0.237 OA
ATOM    101  O   UNL A   1      43.437  26.479  38.363  1.00  0.00    -0.237 OA
ATOM    102  O   UNL A   1      41.072  26.131  37.773  1.00  0.00    -0.744 OA
ENDBRANCH  98  99
ENDBRANCH  66  91
ENDBRANCH  40  41
ENDBRANCH  33  35
ENDBRANCH  32  33
ENDBRANCH  31  32
ENDBRANCH   1  31
TORSDOF 19
ENDMDL
MODEL 2
REMARK VINA RESULT:     -12.0      2.544      4.933
REMARK SMILES CS(=O)(=O)c1ccc(-n2nc(C(F)(F)F)cc2-c2ccc(CC(=O)OCCOC(=O)c3ccc(-c4c5nc(c(-c6c(F)cc(S(=O)(=O)[O-])cc6F)c6ccc([nH]6)c(-c6c(F)cc(S(=O)(=O)[O-])cc6F)c6nc(c(-c7c(F)cc(S(=O)(=O)[O-])cc7F)c7ccc4[nH]7)C=C6)C=C5)cc3)cc2)cc1
REMARK SMILES IDX 26 1 25 2 23 3 24 4 22 5 21 6 18 7 19 8 98 9 20 10 97 11
REMARK SMILES IDX 17 12 9 13 10 14 11 15 16 16 8 17 5 18 6 19 100 20 7 21
REMARK SMILES IDX 99 22 2 23 1 24 3 25 4 26 12 27 13 28 14 29 15 30 27 31
REMARK SMILES IDX 28 32 29 33 30 34 31 35 32 36 96 37 33 38 95 39 34 40 35 41
REMARK SMILES IDX 36 42 89 43 37 44 94 45 88 46 90 47 38 48 93 49 87 50 86 51
REMARK SMILES IDX 39 53 73 54 52 55 72 56 53 57 56 58 71 59 91 60 54 61 55 62
REMARK SMILES IDX 70 64 92 65 57 66 40 67 41 68 50 69 42 70 43 71 49 72 51 73
REMARK SMILES IDX 44 74 45 75 46 76 47 77 48 78 74 79 75 80 84 81 76 82 77 83
REMARK SMILES IDX 83 84 85 85 78 86 79 87 80 88 81 89 82 90 58 91 59 92 68 93
REMARK SMILES IDX 60 94 61 95 67 96 69 97 62 98 63 99 64 100 65 101 66 102
REMARK H PARENT 90 52 56 63
REMARK Flexibility Score: inf
ROOT
ATOM      1  C   UNL A   1      35.819  21.327  25.687  1.00  0.00     0.274 C 
ENDROOT
BRANCH   1   2
ATOM      2  O   UNL A   1      34.970  21.371  24.519  1.00  0.00    -0.462 OA
BRANCH   2   3
ATOM      3  C   UNL A   1      33.670  21.710  24.738  1.00  0.00     0.310 C 
ATOM      4  O   UNL A   1      32.727  21.277  24.078  1.00  0.00    -0.252 OA
BRANCH   3   5
ATOM      5  C   UNL A   1      33.479  22.792  25.781  1.00  0.00     0.158 C 
BRANCH   5   6
ATOM      6  C   UNL A   1      32.880  24.107  25.342  1.00  0.00    -0.037 A 
ATOM      7  C   UNL A   1      31.752  26.584  24.588  1.00  0.00     0.000 A 
ATOM      8  C   UNL A   1      31.184  25.831  25.618  1.00  0.00     0.010 A 
ATOM      9  C   UNL A   1      32.857  26.068  23.902  1.00  0.00     0.010 A 
ATOM     10  C   UNL A   1      31.731  24.599  25.972  1.00  0.00     0.005 A 
ATOM     11  C   UNL A   1      33.427  24.847  24.288  1.00  0.00     0.005 A 
BRANCH   7  12
ATOM     12  C   UNL A   1      31.198  27.894  24.257  1.00  0.00     0.075 A 
ATOM     13  N   UNL A   1      31.522  29.089  24.895  1.00  0.00    -0.233 N 
ATOM     14  N   UNL A   1      30.666  30.089  24.556  1.00  0.00    -0.163 NA
ATOM     15  C   UNL A   1      29.862  29.565  23.613  1.00  0.00     0.167 A 
ATOM     16  C   UNL A   1      30.157  28.196  23.403  1.00  0.00     0.064 A 
BRANCH  13  17
ATOM     17  C   UNL A   1      32.601  29.345  25.785  1.00  0.00     0.065 A 
ATOM     18  C   UNL A   1      34.799  29.929  27.403  1.00  0.00     0.067 A 
ATOM     19  C   UNL A   1      33.681  30.768  27.419  1.00  0.00     0.022 A 
ATOM     20  C   UNL A   1      34.811  28.777  26.612  1.00  0.00     0.022 A 
ATOM     21  C   UNL A   1      32.586  30.478  26.608  1.00  0.00     0.030 A 
ATOM     22  C   UNL A   1      33.697  28.472  25.818  1.00  0.00     0.030 A 
BRANCH  18  23
ATOM     23  S   UNL A   1      36.182  30.419  28.405  1.00  0.00     0.175 S 
ATOM     24  C   UNL A   1      37.614  29.598  27.767  1.00  0.00     0.163 C 
ATOM     25  O   UNL A   1      35.922  29.904  29.737  1.00  0.00    -0.224 OA
ATOM     26  O   UNL A   1      36.369  31.844  28.190  1.00  0.00    -0.224 OA
ENDBRANCH  18  23
ENDBRANCH  13  17
BRANCH  15  27
ATOM     27  C   UNL A   1      28.803  30.360  22.895  1.00  0.00     0.435 C 
ATOM     28  F   UNL A   1      29.297  31.242  21.991  1.00  0.00    -0.164 F 
ATOM     29  F   UNL A   1      27.933  29.551  22.230  1.00  0.00    -0.164 F 
ATOM     30  F   UNL A   1      28.044  31.083  23.768  1.00  0.00    -0.164 F 
ENDBRANCH  15  27
ENDBRANCH   7  12
ENDBRANCH   5   6
ENDBRANCH   3   5
ENDBRANCH   2   3
ENDBRANCH   1   2
BRANCH   1  31
ATOM     31  C   UNL A   1      37.307  21.511  25.380  1.00  0.00     0.275 C 
BRANCH  31  32
ATOM     32  O   UNL A   1      37.896  22.604  26.088  1.00  0.00    -0.458 OA
BRANCH  32  33
ATOM     33  C   UNL A   1      39.148  22.331  26.518  1.00  0.00     0.338 C 
ATOM     34  O   UNL A   1      39.620  21.232  26.747  1.00  0.00    -0.246 OA
BRANCH  33  35
ATOM     35  C   UNL A   1      39.887  23.556  26.810  1.00  0.00     0.060 A 
ATOM     36  C   UNL A   1      41.019  23.451  27.626  1.00  0.00     0.016 A 
ATOM     37  C   UNL A   1      39.309  24.792  26.512  1.00  0.00     0.016 A 
ATOM     38  C   UNL A   1      41.504  24.576  28.257  1.00  0.00     0.010 A 
ATOM     39  C   UNL A   1      39.802  25.921  27.135  1.00  0.00     0.010 A 
ATOM     40  C   UNL A   1      40.851  25.792  28.052  1.00  0.00    -0.014 A 
BRANCH  40  41
ATOM     41  C   UNL A   1      41.327  26.943  28.803  1.00  0.00     0.031 A 
ATOM     42  C   UNL A   1      42.537  27.602  28.250  1.00  0.00     0.074 A 
ATOM     43  C   UNL A   1      40.616  27.455  29.826  1.00  0.00     0.049 A 
ATOM     44  N   UNL A   1      43.652  27.885  28.841  1.00  0.00    -0.248 NA
ATOM     45  C   UNL A   1      42.521  27.914  26.811  1.00  0.00     0.031 C 
ATOM     46  C   UNL A   1      39.267  27.057  30.243  1.00  0.00     0.029 A 
ATOM     47  N   UNL A   1      40.885  28.531  30.615  1.00  0.00    -0.354 N 
ATOM     48  C   UNL A   1      44.398  28.595  27.904  1.00  0.00     0.074 A 
ATOM     49  C   UNL A   1      43.725  28.452  26.640  1.00  0.00     0.031 C 
ATOM     50  C   UNL A   1      38.750  28.019  31.036  1.00  0.00     0.029 A 
ATOM     51  C   UNL A   1      39.768  29.030  31.269  1.00  0.00     0.049 A 
ATOM     52  H   UNL A   1      41.785  28.918  30.712  1.00  0.00     0.167 HD
ATOM     53  C   UNL A   1      45.388  29.455  28.266  1.00  0.00     0.037 A 
ATOM     54  C   UNL A   1      39.653  30.236  31.876  1.00  0.00     0.037 A 
ATOM     55  C   UNL A   1      45.871  29.198  29.593  1.00  0.00     0.049 A 
ATOM     56  C   UNL A   1      41.018  30.752  32.137  1.00  0.00     0.074 A 
ATOM     57  C   UNL A   1      46.492  28.135  30.217  1.00  0.00     0.029 A 
ATOM     58  N   UNL A   1      45.450  30.037  30.594  1.00  0.00    -0.354 N 
ATOM     59  N   UNL A   1      41.857  30.224  32.985  1.00  0.00    -0.248 NA
ATOM     60  C   UNL A   1      41.608  31.674  31.177  1.00  0.00     0.031 C 
ATOM     61  C   UNL A   1      46.053  28.180  31.571  1.00  0.00     0.029 A 
ATOM     62  C   UNL A   1      45.197  29.275  31.706  1.00  0.00     0.049 A 
ATOM     63  H   UNL A   1      45.347  31.014  30.526  1.00  0.00     0.167 HD
ATOM     64  C   UNL A   1      43.107  30.421  32.420  1.00  0.00     0.074 A 
ATOM     65  C   UNL A   1      42.903  31.434  31.393  1.00  0.00     0.031 C 
ATOM     66  C   UNL A   1      44.129  29.543  32.645  1.00  0.00     0.037 A 
BRANCH  53  67
ATOM     67  C   UNL A   1      45.653  30.750  27.540  1.00  0.00     0.058 A 
ATOM     68  C   UNL A   1      46.938  31.020  27.032  1.00  0.00     0.135 A 
ATOM     69  C   UNL A   1      44.764  31.849  27.576  1.00  0.00     0.135 A 
ATOM     70  F   UNL A   1      47.866  30.052  26.976  1.00  0.00    -0.206 F 
ATOM     71  C   UNL A   1      47.329  32.303  26.644  1.00  0.00     0.059 A 
ATOM     72  C   UNL A   1      45.113  33.120  27.140  1.00  0.00     0.059 A 
ATOM     73  F   UNL A   1      43.549  31.765  28.133  1.00  0.00    -0.206 F 
ATOM     74  C   UNL A   1      46.413  33.349  26.720  1.00  0.00     0.060 A 
BRANCH  74  75
ATOM     75  S   UNL A   1      46.944  35.030  26.352  1.00  0.00     0.124 S 
ATOM     76  O   UNL A   1      47.828  35.303  27.480  1.00  0.00    -0.237 OA
ATOM     77  O   UNL A   1      47.593  34.870  25.054  1.00  0.00    -0.237 OA
ATOM     78  O   UNL A   1      45.692  35.780  26.332  1.00  0.00    -0.744 OA
ENDBRANCH  74  75
ENDBRANCH  53  67
BRANCH  54  79
ATOM     79  C   UNL A   1      38.437  31.080  31.968  1.00  0.00     0.058 A 
ATOM     80  C   UNL A   1      37.593  31.031  33.089  1.00  0.00     0.135 A 
ATOM     81  C   UNL A   1      38.203  32.129  31.055  1.00  0.00     0.135 A 
ATOM     82  F   UNL A   1      37.768  30.087  34.025  1.00  0.00    -0.206 F 
ATOM     83  C   UNL A   1      36.587  31.980  33.302  1.00  0.00     0.059 A 
ATOM     84  C   UNL A   1      37.198  33.075  31.236  1.00  0.00     0.059 A 
ATOM     85  F   UNL A   1      39.004  32.316  29.994  1.00  0.00    -0.206 F 
ATOM     86  C   UNL A   1      36.406  33.006  32.374  1.00  0.00     0.060 A 
BRANCH  86  87
ATOM     87  S   UNL A   1      35.200  34.309  32.713  1.00  0.00     0.124 S 
ATOM     88  O   UNL A   1      36.052  35.383  33.210  1.00  0.00    -0.237 OA
ATOM     89  O   UNL A   1      34.603  34.522  31.400  1.00  0.00    -0.237 OA
ATOM     90  O   UNL A   1      34.316  33.703  33.707  1.00  0.00    -0.744 OA
ENDBRANCH  86  87
ENDBRANCH  54  79
BRANCH  66  91
ATOM     91  C   UNL A   1      44.000  28.604  33.815  1.00  0.00     0.058 A 
ATOM     92  C   UNL A   1      44.350  28.937  35.136  1.00  0.00     0.135 A 
ATOM     93  C   UNL A   1      43.365  27.369  33.612  1.00  0.00     0.135 A 
ATOM     94  F   UNL A   1      44.865  30.139  35.431  1.00  0.00    -0.206 F 
ATOM     95  C   UNL A   1      44.120  28.063  36.197  1.00  0.00     0.059 A 
ATOM     96  C   UNL A   1      43.095  26.496  34.662  1.00  0.00     0.059 A 
ATOM     97  F   UNL A   1      42.949  27.022  32.382  1.00  0.00    -0.206 F 
ATOM     98  C   UNL A   1      43.488  26.844  35.952  1.00  0.00     0.060 A 
BRANCH  98  99
ATOM     99  S   UNL A   1      43.103  25.762  37.345  1.00  0.00     0.124 S 
ATOM    100  O   UNL A   1      44.058  24.675  37.161  1.00  0.00    -0.237 OA
ATOM    101  O   UNL A   1      43.344  26.629  38.496  1.00  0.00    -0.237 OA
ATOM    102  O   UNL A   1      41.702  25.410  37.125  1.00  0.00    -0.744 OA
ENDBRANCH  98  99
ENDBRANCH  66  91
ENDBRANCH  40  41
ENDBRANCH  33  35
ENDBRANCH  32  33
ENDBRANCH  31  32
ENDBRANCH   1  31
TORSDOF 19
ENDMDL
MODEL 3
REMARK VINA RESULT:     -12.0      3.209      9.206
REMARK SMILES CS(=O)(=O)c1ccc(-n2nc(C(F)(F)F)cc2-c2ccc(CC(=O)OCCOC(=O)c3ccc(-c4c5nc(c(-c6c(F)cc(S(=O)(=O)[O-])cc6F)c6ccc([nH]6)c(-c6c(F)cc(S(=O)(=O)[O-])cc6F)c6nc(c(-c7c(F)cc(S(=O)(=O)[O-])cc7F)c7ccc4[nH]7)C=C6)C=C5)cc3)cc2)cc1
REMARK SMILES IDX 26 1 25 2 23 3 24 4 22 5 21 6 18 7 19 8 98 9 20 10 97 11
REMARK SMILES IDX 17 12 9 13 10 14 11 15 16 16 8 17 5 18 6 19 100 20 7 21
REMARK SMILES IDX 99 22 2 23 1 24 3 25 4 26 12 27 13 28 14 29 15 30 27 31
REMARK SMILES IDX 28 32 29 33 30 34 31 35 32 36 96 37 33 38 95 39 34 40 35 41
REMARK SMILES IDX 36 42 89 43 37 44 94 45 88 46 90 47 38 48 93 49 87 50 86 51
REMARK SMILES IDX 39 53 73 54 52 55 72 56 53 57 56 58 71 59 91 60 54 61 55 62
REMARK SMILES IDX 70 64 92 65 57 66 40 67 41 68 50 69 42 70 43 71 49 72 51 73
REMARK SMILES IDX 44 74 45 75 46 76 47 77 48 78 74 79 75 80 84 81 76 82 77 83
REMARK SMILES IDX 83 84 85 85 78 86 79 87 80 88 81 89 82 90 58 91 59 92 68 93
REMARK SMILES IDX 60 94 61 95 67 96 69 97 62 98 63 99 64 100 65 101 66 102
REMARK H PARENT 90 52 56 63
REMARK Flexibility Score: inf
ROOT
ATOM      1  C   UNL A   1      31.866  29.151  26.403  1.00  0.00     0.274 C 
ENDROOT
BRANCH   1   2
ATOM      2  O   UNL A   1      31.897  28.884  24.984  1.00  0.00    -0.462 OA
BRANCH   2   3
ATOM      3  C   UNL A   1      32.694  27.854  24.588  1.00  0.00     0.310 C 
ATOM      4  O   UNL A   1      33.894  27.776  24.843  1.00  0.00    -0.252 OA
BRANCH   3   5
ATOM      5  C   UNL A   1      32.013  26.864  23.665  1.00  0.00     0.158 C 
BRANCH   5   6
ATOM      6  C   UNL A   1      32.297  25.394  23.862  1.00  0.00    -0.037 A 
ATOM      7  C   UNL A   1      32.894  22.658  24.221  1.00  0.00     0.000 A 
ATOM      8  C   UNL A   1      33.511  23.390  23.203  1.00  0.00     0.010 A 
ATOM      9  C   UNL A   1      31.939  23.288  25.026  1.00  0.00     0.010 A 
ATOM     10  C   UNL A   1      33.197  24.735  23.017  1.00  0.00     0.005 A 
ATOM     11  C   UNL A   1      31.656  24.650  24.858  1.00  0.00     0.005 A 
BRANCH   7  12
ATOM     12  C   UNL A   1      33.265  21.261  24.437  1.00  0.00     0.075 A 
ATOM     13  N   UNL A   1      34.543  20.810  24.762  1.00  0.00    -0.233 N 
ATOM     14  N   UNL A   1      34.645  19.460  24.641  1.00  0.00    -0.163 NA
ATOM     15  C   UNL A   1      33.403  19.033  24.349  1.00  0.00     0.167 A 
ATOM     16  C   UNL A   1      32.515  20.126  24.206  1.00  0.00     0.064 A 
BRANCH  13  17
ATOM     17  C   UNL A   1      35.659  21.574  25.199  1.00  0.00     0.065 A 
ATOM     18  C   UNL A   1      37.845  22.987  26.207  1.00  0.00     0.067 A 
ATOM     19  C   UNL A   1      38.054  21.855  25.416  1.00  0.00     0.022 A 
ATOM     20  C   UNL A   1      36.549  23.443  26.468  1.00  0.00     0.022 A 
ATOM     21  C   UNL A   1      36.963  21.147  24.916  1.00  0.00     0.030 A 
ATOM     22  C   UNL A   1      35.453  22.746  25.940  1.00  0.00     0.030 A 
BRANCH  18  23
ATOM     23  S   UNL A   1      39.290  23.780  26.870  1.00  0.00     0.175 S 
ATOM     24  C   UNL A   1      40.412  22.507  27.366  1.00  0.00     0.163 C 
ATOM     25  O   UNL A   1      38.855  24.488  28.061  1.00  0.00    -0.224 OA
ATOM     26  O   UNL A   1      39.912  24.501  25.772  1.00  0.00    -0.224 OA
ENDBRANCH  18  23
ENDBRANCH  13  17
BRANCH  15  27
ATOM     27  C   UNL A   1      33.042  17.578  24.205  1.00  0.00     0.435 C 
ATOM     28  F   UNL A   1      32.990  17.150  22.919  1.00  0.00    -0.164 F 
ATOM     29  F   UNL A   1      33.926  16.774  24.858  1.00  0.00    -0.164 F 
ATOM     30  F   UNL A   1      31.822  17.310  24.754  1.00  0.00    -0.164 F 
ENDBRANCH  15  27
ENDBRANCH   7  12
ENDBRANCH   5   6
ENDBRANCH   3   5
ENDBRANCH   2   3
ENDBRANCH   1   2
BRANCH   1  31
ATOM     31  C   UNL A   1      32.611  30.423  26.812  1.00  0.00     0.275 C 
BRANCH  31  32
ATOM     32  O   UNL A   1      34.028  30.246  26.887  1.00  0.00    -0.458 OA
BRANCH  32  33
ATOM     33  C   UNL A   1      34.647  31.268  27.518  1.00  0.00     0.338 C 
ATOM     34  O   UNL A   1      34.387  32.453  27.422  1.00  0.00    -0.246 OA
BRANCH  33  35
ATOM     35  C   UNL A   1      35.802  30.798  28.280  1.00  0.00     0.060 A 
ATOM     36  C   UNL A   1      36.654  31.765  28.825  1.00  0.00     0.016 A 
ATOM     37  C   UNL A   1      36.166  29.452  28.210  1.00  0.00     0.016 A 
ATOM     38  C   UNL A   1      37.936  31.408  29.186  1.00  0.00     0.010 A 
ATOM     39  C   UNL A   1      37.447  29.093  28.582  1.00  0.00     0.010 A 
ATOM     40  C   UNL A   1      38.339  30.085  29.003  1.00  0.00    -0.014 A 
BRANCH  40  41
ATOM     41  C   UNL A   1      39.724  29.759  29.305  1.00  0.00     0.031 A 
ATOM     42  C   UNL A   1      40.067  29.734  30.749  1.00  0.00     0.074 A 
ATOM     43  C   UNL A   1      40.574  29.353  28.342  1.00  0.00     0.049 A 
ATOM     44  N   UNL A   1      41.016  30.354  31.371  1.00  0.00    -0.248 NA
ATOM     45  C   UNL A   1      39.169  28.969  31.630  1.00  0.00     0.031 C 
ATOM     46  C   UNL A   1      40.240  29.056  26.945  1.00  0.00     0.029 A 
ATOM     47  N   UNL A   1      41.880  28.982  28.439  1.00  0.00    -0.354 N 
ATOM     48  C   UNL A   1      40.961  29.895  32.684  1.00  0.00     0.074 A 
ATOM     49  C   UNL A   1      39.725  29.170  32.821  1.00  0.00     0.031 C 
ATOM     50  C   UNL A   1      41.242  28.337  26.397  1.00  0.00     0.029 A 
ATOM     51  C   UNL A   1      42.323  28.227  27.362  1.00  0.00     0.049 A 
ATOM     52  H   UNL A   1      42.455  29.226  29.200  1.00  0.00     0.167 HD
ATOM     53  C   UNL A   1      42.040  29.930  33.511  1.00  0.00     0.037 A 
ATOM     54  C   UNL A   1      43.451  27.480  27.303  1.00  0.00     0.037 A 
ATOM     55  C   UNL A   1      43.030  30.872  33.071  1.00  0.00     0.049 A 
ATOM     56  C   UNL A   1      44.367  27.944  28.372  1.00  0.00     0.074 A 
ATOM     57  C   UNL A   1      43.062  32.239  32.884  1.00  0.00     0.029 A 
ATOM     58  N   UNL A   1      44.145  30.374  32.445  1.00  0.00    -0.354 N 
ATOM     59  N   UNL A   1      44.948  29.113  28.392  1.00  0.00    -0.248 NA
ATOM     60  C   UNL A   1      44.371  27.231  29.642  1.00  0.00     0.031 C 
ATOM     61  C   UNL A   1      43.968  32.454  31.806  1.00  0.00     0.029 A 
ATOM     62  C   UNL A   1      44.451  31.209  31.400  1.00  0.00     0.049 A 
ATOM     63  H   UNL A   1      44.637  29.560  32.699  1.00  0.00     0.167 HD
ATOM     64  C   UNL A   1      45.022  29.452  29.734  1.00  0.00     0.074 A 
ATOM     65  C   UNL A   1      44.787  28.207  30.453  1.00  0.00     0.031 C 
ATOM     66  C   UNL A   1      44.986  30.758  30.133  1.00  0.00     0.037 A 
BRANCH  53  67
ATOM     67  C   UNL A   1      42.340  28.842  34.513  1.00  0.00     0.058 A 
ATOM     68  C   UNL A   1      42.501  29.166  35.873  1.00  0.00     0.135 A 
ATOM     69  C   UNL A   1      42.752  27.543  34.138  1.00  0.00     0.135 A 
ATOM     70  F   UNL A   1      42.164  30.382  36.330  1.00  0.00    -0.206 F 
ATOM     71  C   UNL A   1      43.085  28.282  36.783  1.00  0.00     0.059 A 
ATOM     72  C   UNL A   1      43.280  26.627  35.038  1.00  0.00     0.059 A 
ATOM     73  F   UNL A   1      42.758  27.137  32.862  1.00  0.00    -0.206 F 
ATOM     74  C   UNL A   1      43.487  27.022  36.349  1.00  0.00     0.060 A 
BRANCH  74  75
ATOM     75  S   UNL A   1      44.363  25.926  37.478  1.00  0.00     0.124 S 
ATOM     76  O   UNL A   1      45.751  26.219  37.141  1.00  0.00    -0.237 OA
ATOM     77  O   UNL A   1      43.906  26.400  38.782  1.00  0.00    -0.237 OA
ATOM     78  O   UNL A   1      43.884  24.601  37.098  1.00  0.00    -0.744 OA
ENDBRANCH  74  75
ENDBRANCH  53  67
BRANCH  54  79
ATOM     79  C   UNL A   1      43.646  26.208  26.566  1.00  0.00     0.058 A 
ATOM     80  C   UNL A   1      44.520  26.120  25.472  1.00  0.00     0.135 A 
ATOM     81  C   UNL A   1      43.150  24.987  27.070  1.00  0.00     0.135 A 
ATOM     82  F   UNL A   1      45.066  27.230  24.954  1.00  0.00    -0.206 F 
ATOM     83  C   UNL A   1      44.898  24.891  24.921  1.00  0.00     0.059 A 
ATOM     84  C   UNL A   1      43.497  23.753  26.529  1.00  0.00     0.059 A 
ATOM     85  F   UNL A   1      42.373  24.954  28.164  1.00  0.00    -0.206 F 
ATOM     86  C   UNL A   1      44.389  23.712  25.465  1.00  0.00     0.060 A 
BRANCH  86  87
ATOM     87  S   UNL A   1      44.978  22.119  24.845  1.00  0.00     0.124 S 
ATOM     88  O   UNL A   1      46.421  22.248  25.014  1.00  0.00    -0.237 OA
ATOM     89  O   UNL A   1      44.311  21.178  25.736  1.00  0.00    -0.237 OA
ATOM     90  O   UNL A   1      44.511  22.101  23.460  1.00  0.00    -0.744 OA
ENDBRANCH  86  87
ENDBRANCH  54  79
BRANCH  66  91
ATOM     91  C   UNL A   1      45.270  31.815  29.100  1.00  0.00     0.058 A 
ATOM     92  C   UNL A   1      46.560  32.260  28.761  1.00  0.00     0.135 A 
ATOM     93  C   UNL A   1      44.202  32.292  28.324  1.00  0.00     0.135 A 
ATOM     94  F   UNL A   1      47.643  31.773  29.384  1.00  0.00    -0.206 F 
ATOM     95  C   UNL A   1      46.773  33.172  27.728  1.00  0.00     0.059 A 
ATOM     96  C   UNL A   1      44.395  33.176  27.266  1.00  0.00     0.059 A 
ATOM     97  F   UNL A   1      42.953  31.854  28.558  1.00  0.00    -0.206 F 
ATOM     98  C   UNL A   1      45.684  33.623  26.982  1.00  0.00     0.060 A 
BRANCH  98  99
ATOM     99  S   UNL A   1      45.978  34.725  25.583  1.00  0.00     0.124 S 
ATOM    100  O   UNL A   1      45.685  36.033  26.157  1.00  0.00    -0.237 OA
ATOM    101  O   UNL A   1      47.382  34.470  25.268  1.00  0.00    -0.237 OA
ATOM    102  O   UNL A   1      45.030  34.256  24.575  1.00  0.00    -0.744 OA
ENDBRANCH  98  99
ENDBRANCH  66  91
ENDBRANCH  40  41
ENDBRANCH  33  35
ENDBRANCH  32  33
ENDBRANCH  31  32
ENDBRANCH   1  31
TORSDOF 19
ENDMDL
