MODEL 1
REMARK VINA RESULT:     -11.3      0.000      0.000
REMARK SMILES O=C(OCCOC(=O)[C@H]1CC[C@H]2CCCC[C@@H]2[N@H+]1[C@@H]1CCCSC1)c1ccc(-c2c3nc(c(-c4c(F)cc(S(=O)(=O)[O-])cc4F)c4ccc([nH]4)c(-c4c(F)cc(S(=O)(=O)[O-])cc4F)c4nc(c(-c5c(F)cc(S(=O)(=O)[O-])cc5F)c5ccc2[nH]5)C=C4)C=C3)cc1
REMARK SMILES IDX 4 1 3 2 2 3 1 4 25 5 26 6 90 7 27 8 89 9 28 10 29 11 30 12
REMARK SMILES IDX 83 13 31 14 88 15 82 16 84 17 32 18 87 19 81 20 80 21 33 23
REMARK SMILES IDX 67 24 46 25 66 26 47 27 50 28 65 29 85 30 48 31 49 32 64 34
REMARK SMILES IDX 86 35 51 36 34 37 35 38 44 39 36 40 37 41 43 42 45 43 38 44
REMARK SMILES IDX 39 45 40 46 41 47 42 48 68 49 69 50 78 51 70 52 71 53 77 54
REMARK SMILES IDX 79 55 72 56 73 57 74 58 75 59 76 60 52 61 53 62 62 63 54 64
REMARK SMILES IDX 55 65 61 66 63 67 56 68 57 69 58 70 59 71 60 72 5 73 6 74
REMARK SMILES IDX 7 75 8 76 9 77 10 78 18 79 11 80 17 81 12 83 16 84 13 85
REMARK SMILES IDX 15 86 14 87 19 88 20 89 24 90 21 91 23 92 22 93
REMARK H PARENT 84 22 50 33 18 82
REMARK Flexibility Score: inf
ROOT
ATOM      1  C   UNL A   1      32.164  29.581  27.115  1.00  0.00     0.275 C 
ENDROOT
BRANCH   1   2
ATOM      2  O   UNL A   1      33.583  29.506  27.288  1.00  0.00    -0.458 OA
BRANCH   2   3
ATOM      3  C   UNL A   1      34.414  30.375  27.901  1.00  0.00     0.338 C 
ATOM      4  O   UNL A   1      34.031  31.537  28.036  1.00  0.00    -0.246 OA
BRANCH   3   5
ATOM      5  C   UNL A   1      35.789  30.015  28.379  1.00  0.00     0.060 A 
ATOM      6  C   UNL A   1      36.182  29.594  29.655  1.00  0.00     0.016 A 
ATOM      7  C   UNL A   1      36.785  30.111  27.411  1.00  0.00     0.016 A 
ATOM      8  C   UNL A   1      37.499  29.170  29.921  1.00  0.00     0.010 A 
ATOM      9  C   UNL A   1      38.076  29.652  27.661  1.00  0.00     0.010 A 
ATOM     10  C   UNL A   1      38.464  29.166  28.915  1.00  0.00    -0.014 A 
BRANCH  10  11
ATOM     11  C   UNL A   1      39.883  28.755  29.148  1.00  0.00     0.031 A 
ATOM     12  C   UNL A   1      40.861  29.787  29.664  1.00  0.00     0.074 A 
ATOM     13  C   UNL A   1      40.349  27.545  28.767  1.00  0.00     0.049 A 
ATOM     14  N   UNL A   1      42.167  29.739  29.731  1.00  0.00    -0.248 NA
ATOM     15  C   UNL A   1      40.295  31.088  30.062  1.00  0.00     0.031 C 
ATOM     16  C   UNL A   1      39.570  26.494  28.103  1.00  0.00     0.029 A 
ATOM     17  N   UNL A   1      41.617  27.015  28.828  1.00  0.00    -0.354 N 
ATOM     18  C   UNL A   1      42.558  31.014  30.124  1.00  0.00     0.074 A 
ATOM     19  C   UNL A   1      41.379  31.845  30.101  1.00  0.00     0.031 C 
ATOM     20  C   UNL A   1      40.376  25.453  27.820  1.00  0.00     0.029 A 
ATOM     21  C   UNL A   1      41.727  25.754  28.282  1.00  0.00     0.049 A 
ATOM     22  H   UNL A   1      42.379  27.494  29.226  1.00  0.00     0.167 HD
ATOM     23  C   UNL A   1      43.759  31.441  30.583  1.00  0.00     0.037 A 
ATOM     24  C   UNL A   1      42.793  24.934  28.182  1.00  0.00     0.037 A 
ATOM     25  C   UNL A   1      44.891  30.575  30.743  1.00  0.00     0.049 A 
ATOM     26  C   UNL A   1      44.108  25.378  28.776  1.00  0.00     0.074 A 
ATOM     27  C   UNL A   1      46.107  30.841  31.344  1.00  0.00     0.029 A 
ATOM     28  N   UNL A   1      44.927  29.254  30.321  1.00  0.00    -0.354 N 
ATOM     29  N   UNL A   1      44.430  26.542  29.288  1.00  0.00    -0.248 NA
ATOM     30  C   UNL A   1      45.194  24.386  28.817  1.00  0.00     0.031 C 
ATOM     31  C   UNL A   1      46.881  29.678  31.281  1.00  0.00     0.029 A 
ATOM     32  C   UNL A   1      46.137  28.684  30.665  1.00  0.00     0.049 A 
ATOM     33  H   UNL A   1      44.197  28.792  29.848  1.00  0.00     0.167 HD
ATOM     34  C   UNL A   1      45.729  26.405  29.766  1.00  0.00     0.074 A 
ATOM     35  C   UNL A   1      46.141  25.049  29.471  1.00  0.00     0.031 C 
ATOM     36  C   UNL A   1      46.506  27.314  30.404  1.00  0.00     0.037 A 
BRANCH  23  37
ATOM     37  C   UNL A   1      43.845  32.873  31.041  1.00  0.00     0.058 A 
ATOM     38  C   UNL A   1      44.325  33.881  30.185  1.00  0.00     0.135 A 
ATOM     39  C   UNL A   1      43.497  33.242  32.349  1.00  0.00     0.135 A 
ATOM     40  F   UNL A   1      44.675  33.588  28.921  1.00  0.00    -0.206 F 
ATOM     41  C   UNL A   1      44.543  35.178  30.632  1.00  0.00     0.059 A 
ATOM     42  C   UNL A   1      43.665  34.547  32.806  1.00  0.00     0.059 A 
ATOM     43  F   UNL A   1      43.015  32.327  33.206  1.00  0.00    -0.206 F 
ATOM     44  C   UNL A   1      44.220  35.499  31.950  1.00  0.00     0.060 A 
BRANCH  44  45
ATOM     45  S   UNL A   1      44.542  37.179  32.520  1.00  0.00     0.124 S 
ATOM     46  O   UNL A   1      43.811  37.967  31.531  1.00  0.00    -0.237 OA
ATOM     47  O   UNL A   1      43.983  37.171  33.863  1.00  0.00    -0.237 OA
ATOM     48  O   UNL A   1      46.001  37.284  32.449  1.00  0.00    -0.744 OA
ENDBRANCH  44  45
ENDBRANCH  23  37
BRANCH  24  49
ATOM     49  C   UNL A   1      42.653  23.571  27.597  1.00  0.00     0.058 A 
ATOM     50  C   UNL A   1      42.348  22.472  28.416  1.00  0.00     0.135 A 
ATOM     51  C   UNL A   1      42.833  23.330  26.227  1.00  0.00     0.135 A 
ATOM     52  F   UNL A   1      42.170  22.649  29.733  1.00  0.00    -0.206 F 
ATOM     53  C   UNL A   1      42.256  21.181  27.906  1.00  0.00     0.059 A 
ATOM     54  C   UNL A   1      42.728  22.048  25.689  1.00  0.00     0.059 A 
ATOM     55  F   UNL A   1      43.108  24.348  25.396  1.00  0.00    -0.206 F 
ATOM     56  C   UNL A   1      42.449  20.978  26.540  1.00  0.00     0.060 A 
BRANCH  56  57
ATOM     57  S   UNL A   1      42.295  19.297  25.891  1.00  0.00     0.124 S 
ATOM     58  O   UNL A   1      40.861  19.207  25.642  1.00  0.00    -0.237 OA
ATOM     59  O   UNL A   1      43.147  19.349  24.708  1.00  0.00    -0.237 OA
ATOM     60  O   UNL A   1      42.800  18.468  26.982  1.00  0.00    -0.744 OA
ENDBRANCH  56  57
ENDBRANCH  24  49
BRANCH  36  61
ATOM     61  C   UNL A   1      47.845  26.865  30.911  1.00  0.00     0.058 A 
ATOM     62  C   UNL A   1      47.996  26.248  32.160  1.00  0.00     0.135 A 
ATOM     63  C   UNL A   1      48.974  26.959  30.079  1.00  0.00     0.135 A 
ATOM     64  F   UNL A   1      46.948  26.141  32.992  1.00  0.00    -0.206 F 
ATOM     65  C   UNL A   1      49.223  25.741  32.572  1.00  0.00     0.059 A 
ATOM     66  C   UNL A   1      50.204  26.435  30.460  1.00  0.00     0.059 A 
ATOM     67  F   UNL A   1      48.877  27.533  28.869  1.00  0.00    -0.206 F 
ATOM     68  C   UNL A   1      50.319  25.829  31.709  1.00  0.00     0.060 A 
BRANCH  68  69
ATOM     69  S   UNL A   1      51.886  25.097  32.224  1.00  0.00     0.124 S 
ATOM     70  O   UNL A   1      52.796  25.598  31.198  1.00  0.00    -0.237 OA
ATOM     71  O   UNL A   1      52.068  25.657  33.560  1.00  0.00    -0.237 OA
ATOM     72  O   UNL A   1      51.621  23.663  32.184  1.00  0.00    -0.744 OA
ENDBRANCH  68  69
ENDBRANCH  36  61
ENDBRANCH  10  11
ENDBRANCH   3   5
ENDBRANCH   2   3
ENDBRANCH   1   2
BRANCH   1  73
ATOM     73  C   UNL A   1      31.406  28.289  27.427  1.00  0.00     0.274 C 
BRANCH  73  74
ATOM     74  O   UNL A   1      32.143  27.068  27.206  1.00  0.00    -0.458 OA
BRANCH  74  75
ATOM     75  C   UNL A   1      31.456  26.033  26.619  1.00  0.00     0.365 C 
ATOM     76  O   UNL A   1      30.233  26.003  26.521  1.00  0.00    -0.245 OA
BRANCH  75  77
ATOM     77  C   UNL A   1      32.395  24.860  26.233  1.00  0.00     0.295 C 
ATOM     78  C   UNL A   1      31.515  23.673  25.775  1.00  0.00     0.078 C 
ATOM     79  N   UNL A   1      33.519  25.196  25.308  1.00  0.00    -0.317 N 
ATOM     80  C   UNL A   1      32.268  22.603  24.983  1.00  0.00     0.016 C 
ATOM     81  C   UNL A   1      34.318  24.019  24.883  1.00  0.00     0.188 C 
ATOM     82  H   UNL A   1      34.123  25.745  25.919  1.00  0.00     0.349 HD
ATOM     83  C   UNL A   1      33.749  22.654  25.324  1.00  0.00     0.048 C 
ATOM     84  C   UNL A   1      35.765  24.101  25.393  1.00  0.00     0.065 C 
ATOM     85  C   UNL A   1      34.554  21.536  24.648  1.00  0.00     0.010 C 
ATOM     86  C   UNL A   1      36.642  22.960  24.882  1.00  0.00     0.006 C 
ATOM     87  C   UNL A   1      36.015  21.585  25.094  1.00  0.00     0.001 C 
BRANCH  79  88
ATOM     88  C   UNL A   1      33.263  26.194  24.232  1.00  0.00     0.195 C 
ATOM     89  C   UNL A   1      33.618  25.702  22.814  1.00  0.00     0.067 C 
ATOM     90  C   UNL A   1      33.986  27.547  24.493  1.00  0.00     0.134 C 
ATOM     91  C   UNL A   1      33.181  26.678  21.718  1.00  0.00     0.017 C 
ATOM     92  S   UNL A   1      33.433  28.871  23.378  1.00  0.00    -0.156 SA
ATOM     93  C   UNL A   1      33.824  28.054  21.816  1.00  0.00     0.070 C 
ENDBRANCH  79  88
ENDBRANCH  75  77
ENDBRANCH  74  75
ENDBRANCH  73  74
ENDBRANCH   1  73
TORSDOF 15
ENDMDL
MODEL 2
REMARK VINA RESULT:     -11.0      1.167      8.452
REMARK SMILES O=C(OCCOC(=O)[C@H]1CC[C@H]2CCCC[C@@H]2[N@H+]1[C@@H]1CCCSC1)c1ccc(-c2c3nc(c(-c4c(F)cc(S(=O)(=O)[O-])cc4F)c4ccc([nH]4)c(-c4c(F)cc(S(=O)(=O)[O-])cc4F)c4nc(c(-c5c(F)cc(S(=O)(=O)[O-])cc5F)c5ccc2[nH]5)C=C4)C=C3)cc1
REMARK SMILES IDX 4 1 3 2 2 3 1 4 25 5 26 6 90 7 27 8 89 9 28 10 29 11 30 12
REMARK SMILES IDX 83 13 31 14 88 15 82 16 84 17 32 18 87 19 81 20 80 21 33 23
REMARK SMILES IDX 67 24 46 25 66 26 47 27 50 28 65 29 85 30 48 31 49 32 64 34
REMARK SMILES IDX 86 35 51 36 34 37 35 38 44 39 36 40 37 41 43 42 45 43 38 44
REMARK SMILES IDX 39 45 40 46 41 47 42 48 68 49 69 50 78 51 70 52 71 53 77 54
REMARK SMILES IDX 79 55 72 56 73 57 74 58 75 59 76 60 52 61 53 62 62 63 54 64
REMARK SMILES IDX 55 65 61 66 63 67 56 68 57 69 58 70 59 71 60 72 5 73 6 74
REMARK SMILES IDX 7 75 8 76 9 77 10 78 18 79 11 80 17 81 12 83 16 84 13 85
REMARK SMILES IDX 15 86 14 87 19 88 20 89 24 90 21 91 23 92 22 93
REMARK H PARENT 84 22 50 33 18 82
REMARK Flexibility Score: inf
ROOT
ATOM      1  C   UNL A   1      32.196  28.522  27.628  1.00  0.00     0.275 C 
ENDROOT
BRANCH   1   2
ATOM      2  O   UNL A   1      33.584  28.783  27.396  1.00  0.00    -0.458 OA
BRANCH   2   3
ATOM      3  C   UNL A   1      34.339  29.819  27.818  1.00  0.00     0.338 C 
ATOM      4  O   UNL A   1      33.830  30.939  27.811  1.00  0.00    -0.246 OA
BRANCH   3   5
ATOM      5  C   UNL A   1      35.771  29.687  28.244  1.00  0.00     0.060 A 
ATOM      6  C   UNL A   1      36.273  29.306  29.494  1.00  0.00     0.016 A 
ATOM      7  C   UNL A   1      36.703  29.977  27.251  1.00  0.00     0.016 A 
ATOM      8  C   UNL A   1      37.652  29.107  29.707  1.00  0.00     0.010 A 
ATOM      9  C   UNL A   1      38.061  29.740  27.448  1.00  0.00     0.010 A 
ATOM     10  C   UNL A   1      38.568  29.294  28.674  1.00  0.00    -0.014 A 
BRANCH  10  11
ATOM     11  C   UNL A   1      40.044  29.126  28.853  1.00  0.00     0.031 A 
ATOM     12  C   UNL A   1      40.668  27.791  28.518  1.00  0.00     0.074 A 
ATOM     13  C   UNL A   1      40.804  30.074  29.446  1.00  0.00     0.049 A 
ATOM     14  N   UNL A   1      41.862  27.335  28.795  1.00  0.00    -0.248 NA
ATOM     15  C   UNL A   1      39.790  26.797  27.875  1.00  0.00     0.031 C 
ATOM     16  C   UNL A   1      40.323  31.354  29.976  1.00  0.00     0.029 A 
ATOM     17  N   UNL A   1      42.144  30.079  29.761  1.00  0.00    -0.354 N 
ATOM     18  C   UNL A   1      41.843  26.000  28.406  1.00  0.00     0.074 A 
ATOM     19  C   UNL A   1      40.480  25.683  28.050  1.00  0.00     0.031 C 
ATOM     20  C   UNL A   1      41.349  32.014  30.548  1.00  0.00     0.029 A 
ATOM     21  C   UNL A   1      42.561  31.212  30.425  1.00  0.00     0.049 A 
ATOM     22  H   UNL A   1      42.750  29.338  29.532  1.00  0.00     0.167 HD
ATOM     23  C   UNL A   1      42.874  25.139  28.236  1.00  0.00     0.037 A 
ATOM     24  C   UNL A   1      43.786  31.563  30.868  1.00  0.00     0.037 A 
ATOM     25  C   UNL A   1      44.245  25.503  28.451  1.00  0.00     0.049 A 
ATOM     26  C   UNL A   1      44.949  30.640  30.597  1.00  0.00     0.074 A 
ATOM     27  C   UNL A   1      45.388  24.783  28.162  1.00  0.00     0.029 A 
ATOM     28  N   UNL A   1      44.653  26.718  28.981  1.00  0.00    -0.354 N 
ATOM     29  N   UNL A   1      44.941  29.432  30.086  1.00  0.00    -0.248 NA
ATOM     30  C   UNL A   1      46.293  31.141  30.925  1.00  0.00     0.031 C 
ATOM     31  C   UNL A   1      46.491  25.563  28.525  1.00  0.00     0.029 A 
ATOM     32  C   UNL A   1      46.033  26.777  29.013  1.00  0.00     0.049 A 
ATOM     33  H   UNL A   1      44.049  27.433  29.288  1.00  0.00     0.167 HD
ATOM     34  C   UNL A   1      46.274  29.055  29.972  1.00  0.00     0.074 A 
ATOM     35  C   UNL A   1      47.064  30.156  30.482  1.00  0.00     0.031 C 
ATOM     36  C   UNL A   1      46.799  27.906  29.479  1.00  0.00     0.037 A 
BRANCH  23  37
ATOM     37  C   UNL A   1      42.542  23.774  27.692  1.00  0.00     0.058 A 
ATOM     38  C   UNL A   1      42.371  22.673  28.550  1.00  0.00     0.135 A 
ATOM     39  C   UNL A   1      42.441  23.545  26.311  1.00  0.00     0.135 A 
ATOM     40  F   UNL A   1      42.459  22.830  29.882  1.00  0.00    -0.206 F 
ATOM     41  C   UNL A   1      42.204  21.384  28.061  1.00  0.00     0.059 A 
ATOM     42  C   UNL A   1      42.228  22.267  25.799  1.00  0.00     0.059 A 
ATOM     43  F   UNL A   1      42.576  24.561  25.444  1.00  0.00    -0.206 F 
ATOM     44  C   UNL A   1      42.145  21.190  26.682  1.00  0.00     0.060 A 
BRANCH  44  45
ATOM     45  S   UNL A   1      41.961  19.504  26.067  1.00  0.00     0.124 S 
ATOM     46  O   UNL A   1      42.419  18.725  27.214  1.00  0.00    -0.237 OA
ATOM     47  O   UNL A   1      40.538  19.426  25.776  1.00  0.00    -0.237 OA
ATOM     48  O   UNL A   1      42.841  19.474  24.898  1.00  0.00    -0.744 OA
ENDBRANCH  44  45
ENDBRANCH  23  37
BRANCH  24  49
ATOM     49  C   UNL A   1      44.010  32.887  31.515  1.00  0.00     0.058 A 
ATOM     50  C   UNL A   1      44.233  34.033  30.734  1.00  0.00     0.135 A 
ATOM     51  C   UNL A   1      44.022  33.039  32.909  1.00  0.00     0.135 A 
ATOM     52  F   UNL A   1      44.235  33.940  29.396  1.00  0.00    -0.206 F 
ATOM     53  C   UNL A   1      44.491  35.273  31.309  1.00  0.00     0.059 A 
ATOM     54  C   UNL A   1      44.259  34.275  33.509  1.00  0.00     0.059 A 
ATOM     55  F   UNL A   1      43.795  31.980  33.702  1.00  0.00    -0.206 F 
ATOM     56  C   UNL A   1      44.503  35.385  32.699  1.00  0.00     0.060 A 
BRANCH  56  57
ATOM     57  S   UNL A   1      44.809  37.011  33.428  1.00  0.00     0.124 S 
ATOM     58  O   UNL A   1      43.452  37.495  33.651  1.00  0.00    -0.237 OA
ATOM     59  O   UNL A   1      45.570  36.669  34.624  1.00  0.00    -0.237 OA
ATOM     60  O   UNL A   1      45.564  37.708  32.390  1.00  0.00    -0.744 OA
ENDBRANCH  56  57
ENDBRANCH  24  49
BRANCH  36  61
ATOM     61  C   UNL A   1      48.293  27.801  29.376  1.00  0.00     0.058 A 
ATOM     62  C   UNL A   1      49.062  27.194  30.377  1.00  0.00     0.135 A 
ATOM     63  C   UNL A   1      48.944  28.220  28.204  1.00  0.00     0.135 A 
ATOM     64  F   UNL A   1      48.486  26.784  31.519  1.00  0.00    -0.206 F 
ATOM     65  C   UNL A   1      50.432  27.007  30.223  1.00  0.00     0.059 A 
ATOM     66  C   UNL A   1      50.307  28.019  28.017  1.00  0.00     0.059 A 
ATOM     67  F   UNL A   1      48.247  28.798  27.212  1.00  0.00    -0.206 F 
ATOM     68  C   UNL A   1      51.042  27.414  29.034  1.00  0.00     0.060 A 
BRANCH  68  69
ATOM     69  S   UNL A   1      52.805  27.095  28.814  1.00  0.00     0.124 S 
ATOM     70  O   UNL A   1      53.295  28.411  28.415  1.00  0.00    -0.237 OA
ATOM     71  O   UNL A   1      53.209  26.644  30.143  1.00  0.00    -0.237 OA
ATOM     72  O   UNL A   1      52.838  26.070  27.776  1.00  0.00    -0.744 OA
ENDBRANCH  68  69
ENDBRANCH  36  61
ENDBRANCH  10  11
ENDBRANCH   3   5
ENDBRANCH   2   3
ENDBRANCH   1   2
BRANCH   1  73
ATOM     73  C   UNL A   1      31.592  27.420  26.756  1.00  0.00     0.274 C 
BRANCH  73  74
ATOM     74  O   UNL A   1      31.803  26.071  27.224  1.00  0.00    -0.458 OA
BRANCH  74  75
ATOM     75  C   UNL A   1      31.108  25.079  26.576  1.00  0.00     0.365 C 
ATOM     76  O   UNL A   1      29.892  25.104  26.412  1.00  0.00    -0.245 OA
BRANCH  75  77
ATOM     77  C   UNL A   1      32.017  23.875  26.214  1.00  0.00     0.295 C 
ATOM     78  C   UNL A   1      31.106  22.680  25.847  1.00  0.00     0.078 C 
ATOM     79  N   UNL A   1      33.110  24.151  25.234  1.00  0.00    -0.317 N 
ATOM     80  C   UNL A   1      31.816  21.563  25.082  1.00  0.00     0.016 C 
ATOM     81  C   UNL A   1      33.878  22.943  24.838  1.00  0.00     0.188 C 
ATOM     82  H   UNL A   1      33.744  24.720  25.795  1.00  0.00     0.349 HD
ATOM     83  C   UNL A   1      33.309  21.609  25.366  1.00  0.00     0.048 C 
ATOM     84  C   UNL A   1      35.344  23.029  25.290  1.00  0.00     0.065 C 
ATOM     85  C   UNL A   1      34.075  20.449  24.716  1.00  0.00     0.010 C 
ATOM     86  C   UNL A   1      36.187  21.852  24.805  1.00  0.00     0.006 C 
ATOM     87  C   UNL A   1      35.551  20.499  25.106  1.00  0.00     0.001 C 
BRANCH  79  88
ATOM     88  C   UNL A   1      32.827  25.098  24.120  1.00  0.00     0.195 C 
ATOM     89  C   UNL A   1      32.780  24.442  22.725  1.00  0.00     0.067 C 
ATOM     90  C   UNL A   1      33.830  26.288  24.084  1.00  0.00     0.134 C 
ATOM     91  C   UNL A   1      32.314  25.405  21.629  1.00  0.00     0.017 C 
ATOM     92  S   UNL A   1      33.314  27.613  22.952  1.00  0.00    -0.156 SA
ATOM     93  C   UNL A   1      33.210  26.621  21.447  1.00  0.00     0.070 C 
ENDBRANCH  79  88
ENDBRANCH  75  77
ENDBRANCH  74  75
ENDBRANCH  73  74
ENDBRANCH   1  73
TORSDOF 15
ENDMDL
MODEL 3
REMARK VINA RESULT:     -10.9      3.019      9.485
REMARK SMILES O=C(OCCOC(=O)[C@H]1CC[C@H]2CCCC[C@@H]2[N@H+]1[C@@H]1CCCSC1)c1ccc(-c2c3nc(c(-c4c(F)cc(S(=O)(=O)[O-])cc4F)c4ccc([nH]4)c(-c4c(F)cc(S(=O)(=O)[O-])cc4F)c4nc(c(-c5c(F)cc(S(=O)(=O)[O-])cc5F)c5ccc2[nH]5)C=C4)C=C3)cc1
REMARK SMILES IDX 4 1 3 2 2 3 1 4 25 5 26 6 90 7 27 8 89 9 28 10 29 11 30 12
REMARK SMILES IDX 83 13 31 14 88 15 82 16 84 17 32 18 87 19 81 20 80 21 33 23
REMARK SMILES IDX 67 24 46 25 66 26 47 27 50 28 65 29 85 30 48 31 49 32 64 34
REMARK SMILES IDX 86 35 51 36 34 37 35 38 44 39 36 40 37 41 43 42 45 43 38 44
REMARK SMILES IDX 39 45 40 46 41 47 42 48 68 49 69 50 78 51 70 52 71 53 77 54
REMARK SMILES IDX 79 55 72 56 73 57 74 58 75 59 76 60 52 61 53 62 62 63 54 64
REMARK SMILES IDX 55 65 61 66 63 67 56 68 57 69 58 70 59 71 60 72 5 73 6 74
REMARK SMILES IDX 7 75 8 76 9 77 10 78 18 79 11 80 17 81 12 83 16 84 13 85
REMARK SMILES IDX 15 86 14 87 19 88 20 89 24 90 21 91 23 92 22 93
REMARK H PARENT 84 22 50 33 18 82
REMARK Flexibility Score: inf
ROOT
ATOM      1  C   UNL A   1      37.063  22.144  24.468  1.00  0.00     0.275 C 
ENDROOT
BRANCH   1   2
ATOM      2  O   UNL A   1      37.660  23.202  25.225  1.00  0.00    -0.458 OA
BRANCH   2   3
ATOM      3  C   UNL A   1      38.749  23.172  26.021  1.00  0.00     0.338 C 
ATOM      4  O   UNL A   1      39.262  22.077  26.249  1.00  0.00    -0.246 OA
BRANCH   3   5
ATOM      5  C   UNL A   1      39.332  24.386  26.680  1.00  0.00     0.060 A 
ATOM      6  C   UNL A   1      40.180  25.352  26.125  1.00  0.00     0.016 A 
ATOM      7  C   UNL A   1      38.964  24.560  28.011  1.00  0.00     0.016 A 
ATOM      8  C   UNL A   1      40.548  26.510  26.837  1.00  0.00     0.010 A 
ATOM      9  C   UNL A   1      39.292  25.723  28.702  1.00  0.00     0.010 A 
ATOM     10  C   UNL A   1      40.084  26.728  28.133  1.00  0.00    -0.014 A 
BRANCH  10  11
ATOM     11  C   UNL A   1      40.467  27.924  28.947  1.00  0.00     0.031 A 
ATOM     12  C   UNL A   1      41.751  27.877  29.745  1.00  0.00     0.074 A 
ATOM     13  C   UNL A   1      39.631  28.973  29.112  1.00  0.00     0.049 A 
ATOM     14  N   UNL A   1      42.178  28.680  30.685  1.00  0.00    -0.248 NA
ATOM     15  C   UNL A   1      42.620  26.707  29.524  1.00  0.00     0.031 C 
ATOM     16  C   UNL A   1      38.286  29.099  28.541  1.00  0.00     0.029 A 
ATOM     17  N   UNL A   1      39.768  30.116  29.867  1.00  0.00    -0.354 N 
ATOM     18  C   UNL A   1      43.325  28.075  31.187  1.00  0.00     0.074 A 
ATOM     19  C   UNL A   1      43.416  26.770  30.578  1.00  0.00     0.031 C 
ATOM     20  C   UNL A   1      37.726  30.247  28.967  1.00  0.00     0.029 A 
ATOM     21  C   UNL A   1      38.668  30.945  29.836  1.00  0.00     0.049 A 
ATOM     22  H   UNL A   1      40.580  30.322  30.383  1.00  0.00     0.167 HD
ATOM     23  C   UNL A   1      44.290  28.592  31.985  1.00  0.00     0.037 A 
ATOM     24  C   UNL A   1      38.455  32.137  30.431  1.00  0.00     0.037 A 
ATOM     25  C   UNL A   1      44.269  29.941  32.470  1.00  0.00     0.049 A 
ATOM     26  C   UNL A   1      39.567  32.750  31.247  1.00  0.00     0.074 A 
ATOM     27  C   UNL A   1      45.254  30.634  33.147  1.00  0.00     0.029 A 
ATOM     28  N   UNL A   1      43.206  30.815  32.293  1.00  0.00    -0.354 N 
ATOM     29  N   UNL A   1      40.720  32.228  31.593  1.00  0.00    -0.248 NA
ATOM     30  C   UNL A   1      39.369  34.129  31.721  1.00  0.00     0.031 C 
ATOM     31  C   UNL A   1      44.783  31.929  33.385  1.00  0.00     0.029 A 
ATOM     32  C   UNL A   1      43.517  32.048  32.833  1.00  0.00     0.049 A 
ATOM     33  H   UNL A   1      42.357  30.589  31.849  1.00  0.00     0.167 HD
ATOM     34  C   UNL A   1      41.408  33.231  32.267  1.00  0.00     0.074 A 
ATOM     35  C   UNL A   1      40.538  34.387  32.295  1.00  0.00     0.031 C 
ATOM     36  C   UNL A   1      42.653  33.201  32.804  1.00  0.00     0.037 A 
BRANCH  23  37
ATOM     37  C   UNL A   1      45.482  27.716  32.270  1.00  0.00     0.058 A 
ATOM     38  C   UNL A   1      45.503  26.862  33.389  1.00  0.00     0.135 A 
ATOM     39  C   UNL A   1      46.627  27.757  31.461  1.00  0.00     0.135 A 
ATOM     40  F   UNL A   1      44.437  26.782  34.202  1.00  0.00    -0.206 F 
ATOM     41  C   UNL A   1      46.644  26.154  33.745  1.00  0.00     0.059 A 
ATOM     42  C   UNL A   1      47.766  27.019  31.774  1.00  0.00     0.059 A 
ATOM     43  F   UNL A   1      46.657  28.538  30.369  1.00  0.00    -0.206 F 
ATOM     44  C   UNL A   1      47.775  26.248  32.937  1.00  0.00     0.060 A 
BRANCH  44  45
ATOM     45  S   UNL A   1      49.256  25.347  33.437  1.00  0.00     0.124 S 
ATOM     46  O   UNL A   1      49.634  24.694  32.187  1.00  0.00    -0.237 OA
ATOM     47  O   UNL A   1      50.138  26.412  33.888  1.00  0.00    -0.237 OA
ATOM     48  O   UNL A   1      48.766  24.453  34.488  1.00  0.00    -0.744 OA
ENDBRANCH  44  45
ENDBRANCH  23  37
BRANCH  24  49
ATOM     49  C   UNL A   1      37.189  32.888  30.198  1.00  0.00     0.058 A 
ATOM     50  C   UNL A   1      36.093  32.721  31.059  1.00  0.00     0.135 A 
ATOM     51  C   UNL A   1      37.037  33.767  29.115  1.00  0.00     0.135 A 
ATOM     52  F   UNL A   1      36.186  31.889  32.106  1.00  0.00    -0.206 F 
ATOM     53  C   UNL A   1      34.883  33.373  30.841  1.00  0.00     0.059 A 
ATOM     54  C   UNL A   1      35.841  34.447  28.887  1.00  0.00     0.059 A 
ATOM     55  F   UNL A   1      38.060  33.979  28.272  1.00  0.00    -0.206 F 
ATOM     56  C   UNL A   1      34.766  34.234  29.750  1.00  0.00     0.060 A 
BRANCH  56  57
ATOM     57  S   UNL A   1      33.196  35.097  29.501  1.00  0.00     0.124 S 
ATOM     58  O   UNL A   1      33.648  36.417  29.079  1.00  0.00    -0.237 OA
ATOM     59  O   UNL A   1      32.561  34.279  28.473  1.00  0.00    -0.237 OA
ATOM     60  O   UNL A   1      32.567  35.035  30.818  1.00  0.00    -0.744 OA
ENDBRANCH  56  57
ENDBRANCH  24  49
BRANCH  36  61
ATOM     61  C   UNL A   1      43.197  34.471  33.391  1.00  0.00     0.058 A 
ATOM     62  C   UNL A   1      43.939  35.382  32.627  1.00  0.00     0.135 A 
ATOM     63  C   UNL A   1      42.873  34.825  34.712  1.00  0.00     0.135 A 
ATOM     64  F   UNL A   1      44.279  35.085  31.363  1.00  0.00    -0.206 F 
ATOM     65  C   UNL A   1      44.346  36.603  33.153  1.00  0.00     0.059 A 
ATOM     66  C   UNL A   1      43.246  36.052  35.249  1.00  0.00     0.059 A 
ATOM     67  F   UNL A   1      42.155  33.990  35.480  1.00  0.00    -0.206 F 
ATOM     68  C   UNL A   1      43.985  36.933  34.462  1.00  0.00     0.060 A 
BRANCH  68  69
ATOM     69  S   UNL A   1      44.452  38.553  35.106  1.00  0.00     0.124 S 
ATOM     70  O   UNL A   1      44.232  38.376  36.537  1.00  0.00    -0.237 OA
ATOM     71  O   UNL A   1      45.847  38.664  34.687  1.00  0.00    -0.237 OA
ATOM     72  O   UNL A   1      43.530  39.464  34.435  1.00  0.00    -0.744 OA
ENDBRANCH  68  69
ENDBRANCH  36  61
ENDBRANCH  10  11
ENDBRANCH   3   5
ENDBRANCH   2   3
ENDBRANCH   1   2
BRANCH   1  73
ATOM     73  C   UNL A   1      36.268  22.595  23.241  1.00  0.00     0.274 C 
BRANCH  73  74
ATOM     74  O   UNL A   1      35.700  23.919  23.321  1.00  0.00    -0.458 OA
BRANCH  74  75
ATOM     75  C   UNL A   1      34.413  24.064  22.863  1.00  0.00     0.365 C 
ATOM     76  O   UNL A   1      33.908  23.328  22.021  1.00  0.00    -0.245 OA
BRANCH  75  77
ATOM     77  C   UNL A   1      33.738  25.343  23.426  1.00  0.00     0.295 C 
ATOM     78  C   UNL A   1      32.424  25.575  22.645  1.00  0.00     0.078 C 
ATOM     79  N   UNL A   1      33.601  25.411  24.912  1.00  0.00    -0.317 N 
ATOM     80  C   UNL A   1      31.446  26.531  23.330  1.00  0.00     0.016 C 
ATOM     81  C   UNL A   1      32.850  26.600  25.390  1.00  0.00     0.188 C 
ATOM     82  H   UNL A   1      34.570  25.553  25.197  1.00  0.00     0.349 HD
ATOM     83  C   UNL A   1      32.202  27.450  24.278  1.00  0.00     0.048 C 
ATOM     84  C   UNL A   1      33.739  27.535  26.225  1.00  0.00     0.065 C 
ATOM     85  C   UNL A   1      31.301  28.511  24.922  1.00  0.00     0.010 C 
ATOM     86  C   UNL A   1      32.970  28.711  26.823  1.00  0.00     0.006 C 
ATOM     87  C   UNL A   1      32.127  29.457  25.793  1.00  0.00     0.001 C 
BRANCH  79  88
ATOM     88  C   UNL A   1      33.297  24.150  25.644  1.00  0.00     0.195 C 
ATOM     89  C   UNL A   1      32.030  24.215  26.520  1.00  0.00     0.067 C 
ATOM     90  C   UNL A   1      34.491  23.670  26.519  1.00  0.00     0.134 C 
ATOM     91  C   UNL A   1      31.648  22.857  27.117  1.00  0.00     0.017 C 
ATOM     92  S   UNL A   1      34.267  21.983  27.156  1.00  0.00    -0.156 SA
ATOM     93  C   UNL A   1      32.709  22.256  28.027  1.00  0.00     0.070 C 
ENDBRANCH  79  88
ENDBRANCH  75  77
ENDBRANCH  74  75
ENDBRANCH  73  74
ENDBRANCH   1  73
TORSDOF 15
ENDMDL
