MODEL 1
REMARK VINA RESULT:     -13.1      0.000      0.000
REMARK SMILES Cc1nc2cc(S(=O)(=O)N3CCC(C(=O)OCCOC(=O)c4ccc(-c5c6nc(c(-c7c(F)cc(S(=O)(=O)[O-])cc7F)c7ccc([nH]7)c(-c7c(F)cc(S(=O)(=O)[O-])cc7F)c7nc(c(-c8c(F)cc(S(=O)(=O)[O-])cc8F)c8ccc5[nH]8)C=C7)C=C6)cc4)CC3)ccc2n1C1CCCC1
REMARK SMILES IDX 17 1 16 2 14 3 15 4 13 5 10 6 11 7 89 8 12 9 88 10 7 11 8 12
REMARK SMILES IDX 9 13 6 14 1 15 2 16 3 17 93 18 4 19 92 20 5 21 91 22 90 23
REMARK SMILES IDX 94 24 95 25 98 26 96 27 97 28 18 29 19 30 20 31 21 32 22 33
REMARK SMILES IDX 23 34 87 35 24 36 86 37 25 38 26 39 27 40 80 41 28 42 85 43
REMARK SMILES IDX 79 44 81 45 29 46 84 47 78 48 77 49 30 51 64 52 43 53 63 54
REMARK SMILES IDX 44 55 47 56 62 57 82 58 45 59 46 60 61 62 83 63 48 64 31 65
REMARK SMILES IDX 32 66 41 67 33 68 34 69 40 70 42 71 35 72 36 73 37 74 38 75
REMARK SMILES IDX 39 76 65 77 66 78 75 79 67 80 68 81 74 82 76 83 69 84 70 85
REMARK SMILES IDX 71 86 72 87 73 88 49 89 50 90 59 91 51 92 52 93 58 94 60 95
REMARK SMILES IDX 53 96 54 97 55 98 56 99 57 100
REMARK H PARENT 81 50 47 61
REMARK Flexibility Score: inf
ROOT
ATOM      1  C   UNL A   1      40.175  20.876  26.548  1.00  0.00     0.274 C 
ENDROOT
BRANCH   1   2
ATOM      2  O   UNL A   1      38.957  21.309  25.908  1.00  0.00    -0.462 OA
BRANCH   2   3
ATOM      3  C   UNL A   1      38.274  20.349  25.235  1.00  0.00     0.309 C 
ATOM      4  O   UNL A   1      38.755  19.293  24.845  1.00  0.00    -0.252 OA
BRANCH   3   5
ATOM      5  C   UNL A   1      36.804  20.670  25.086  1.00  0.00     0.102 C 
ATOM      6  N   UNL A   1      34.094  20.991  24.219  1.00  0.00    -0.198 NA
ATOM      7  C   UNL A   1      34.943  22.198  24.376  1.00  0.00     0.103 C 
ATOM      8  C   UNL A   1      34.510  19.773  24.955  1.00  0.00     0.103 C 
ATOM      9  C   UNL A   1      36.430  21.870  24.225  1.00  0.00     0.032 C 
ATOM     10  C   UNL A   1      35.979  19.464  24.675  1.00  0.00     0.032 C 
BRANCH   6  11
ATOM     11  S   UNL A   1      32.409  21.226  24.028  1.00  0.00     0.243 S 
ATOM     12  O   UNL A   1      31.761  20.573  25.150  1.00  0.00    -0.207 OA
ATOM     13  O   UNL A   1      32.086  20.863  22.667  1.00  0.00    -0.207 OA
BRANCH  11  14
ATOM     14  C   UNL A   1      32.049  22.968  24.174  1.00  0.00     0.085 A 
ATOM     15  C   UNL A   1      31.327  28.015  27.325  1.00  0.00     0.088 C 
ATOM     16  C   UNL A   1      31.446  26.854  26.405  1.00  0.00     0.106 A 
ATOM     17  N   UNL A   1      31.785  25.635  26.773  1.00  0.00    -0.233 NA
ATOM     18  N   UNL A   1      31.213  26.914  25.044  1.00  0.00    -0.325 N 
ATOM     19  C   UNL A   1      31.812  24.885  25.628  1.00  0.00     0.090 A 
ATOM     20  C   UNL A   1      31.428  25.649  24.530  1.00  0.00     0.068 A 
ATOM     21  C   UNL A   1      32.136  23.529  25.458  1.00  0.00     0.052 A 
ATOM     22  C   UNL A   1      31.336  25.104  23.246  1.00  0.00     0.030 A 
ATOM     23  C   UNL A   1      31.660  23.752  23.092  1.00  0.00     0.024 A 
BRANCH  18  24
ATOM     24  C   UNL A   1      30.774  28.085  24.308  1.00  0.00     0.089 C 
ATOM     25  C   UNL A   1      31.713  28.552  23.198  1.00  0.00     0.025 C 
ATOM     26  C   UNL A   1      29.420  27.899  23.618  1.00  0.00     0.025 C 
ATOM     27  C   UNL A   1      30.829  29.382  22.279  1.00  0.00     0.002 C 
ATOM     28  C   UNL A   1      29.391  28.932  22.501  1.00  0.00     0.002 C 
ENDBRANCH  18  24
ENDBRANCH  11  14
ENDBRANCH   6  11
ENDBRANCH   3   5
ENDBRANCH   2   3
ENDBRANCH   1   2
BRANCH   1  29
ATOM     29  C   UNL A   1      40.730  22.011  27.416  1.00  0.00     0.275 C 
BRANCH  29  30
ATOM     30  O   UNL A   1      42.151  22.109  27.212  1.00  0.00    -0.458 OA
BRANCH  30  31
ATOM     31  C   UNL A   1      42.576  22.939  26.226  1.00  0.00     0.338 C 
ATOM     32  O   UNL A   1      42.720  22.660  25.047  1.00  0.00    -0.246 OA
BRANCH  31  33
ATOM     33  C   UNL A   1      42.508  24.327  26.748  1.00  0.00     0.060 A 
ATOM     34  C   UNL A   1      43.145  24.700  27.934  1.00  0.00     0.016 A 
ATOM     35  C   UNL A   1      41.589  25.196  26.150  1.00  0.00     0.016 A 
ATOM     36  C   UNL A   1      42.715  25.840  28.612  1.00  0.00     0.010 A 
ATOM     37  C   UNL A   1      41.163  26.335  26.839  1.00  0.00     0.010 A 
ATOM     38  C   UNL A   1      41.651  26.614  28.117  1.00  0.00    -0.014 A 
BRANCH  38  39
ATOM     39  C   UNL A   1      41.325  27.888  28.782  1.00  0.00     0.031 A 
ATOM     40  C   UNL A   1      42.293  28.925  28.361  1.00  0.00     0.074 A 
ATOM     41  C   UNL A   1      40.328  28.230  29.634  1.00  0.00     0.049 A 
ATOM     42  N   UNL A   1      43.304  29.329  29.052  1.00  0.00    -0.248 NA
ATOM     43  C   UNL A   1      42.290  29.383  26.967  1.00  0.00     0.031 C 
ATOM     44  C   UNL A   1      39.191  27.445  30.101  1.00  0.00     0.029 A 
ATOM     45  N   UNL A   1      40.118  29.429  30.275  1.00  0.00    -0.354 N 
ATOM     46  C   UNL A   1      43.951  30.267  28.264  1.00  0.00     0.074 A 
ATOM     47  C   UNL A   1      43.399  30.125  26.943  1.00  0.00     0.031 C 
ATOM     48  C   UNL A   1      38.298  28.232  30.756  1.00  0.00     0.029 A 
ATOM     49  C   UNL A   1      38.885  29.552  30.931  1.00  0.00     0.049 A 
ATOM     50  H   UNL A   1      40.787  30.151  30.274  1.00  0.00     0.167 HD
ATOM     51  C   UNL A   1      44.718  31.230  28.842  1.00  0.00     0.037 A 
ATOM     52  C   UNL A   1      38.431  30.592  31.691  1.00  0.00     0.037 A 
ATOM     53  C   UNL A   1      45.059  30.866  30.197  1.00  0.00     0.049 A 
ATOM     54  C   UNL A   1      39.635  31.288  32.194  1.00  0.00     0.074 A 
ATOM     55  C   UNL A   1      45.763  29.836  30.788  1.00  0.00     0.029 A 
ATOM     56  N   UNL A   1      44.306  31.432  31.196  1.00  0.00    -0.354 N 
ATOM     57  N   UNL A   1      40.455  30.781  33.069  1.00  0.00    -0.248 NA
ATOM     58  C   UNL A   1      40.148  32.401  31.417  1.00  0.00     0.031 C 
ATOM     59  C   UNL A   1      45.076  29.560  32.007  1.00  0.00     0.029 A 
ATOM     60  C   UNL A   1      44.026  30.470  32.129  1.00  0.00     0.049 A 
ATOM     61  H   UNL A   1      44.017  32.373  31.235  1.00  0.00     0.167 HD
ATOM     62  C   UNL A   1      41.706  31.196  32.648  1.00  0.00     0.074 A 
ATOM     63  C   UNL A   1      41.447  32.269  31.689  1.00  0.00     0.031 C 
ATOM     64  C   UNL A   1      42.814  30.447  32.918  1.00  0.00     0.037 A 
BRANCH  51  65
ATOM     65  C   UNL A   1      44.793  32.657  28.351  1.00  0.00     0.058 A 
ATOM     66  C   UNL A   1      46.038  33.179  27.947  1.00  0.00     0.135 A 
ATOM     67  C   UNL A   1      43.774  33.613  28.546  1.00  0.00     0.135 A 
ATOM     68  F   UNL A   1      47.082  32.364  27.727  1.00  0.00    -0.206 F 
ATOM     69  C   UNL A   1      46.276  34.550  27.847  1.00  0.00     0.059 A 
ATOM     70  C   UNL A   1      43.973  34.980  28.401  1.00  0.00     0.059 A 
ATOM     71  F   UNL A   1      42.559  33.285  28.987  1.00  0.00    -0.206 F 
ATOM     72  C   UNL A   1      45.238  35.442  28.094  1.00  0.00     0.060 A 
BRANCH  72  73
ATOM     73  S   UNL A   1      45.563  37.211  28.075  1.00  0.00     0.124 S 
ATOM     74  O   UNL A   1      46.302  37.383  29.320  1.00  0.00    -0.237 OA
ATOM     75  O   UNL A   1      46.331  37.357  26.843  1.00  0.00    -0.237 OA
ATOM     76  O   UNL A   1      44.225  37.795  28.048  1.00  0.00    -0.744 OA
ENDBRANCH  72  73
ENDBRANCH  51  65
BRANCH  52  77
ATOM     77  C   UNL A   1      37.094  31.261  31.771  1.00  0.00     0.058 A 
ATOM     78  C   UNL A   1      36.597  31.752  33.002  1.00  0.00     0.135 A 
ATOM     79  C   UNL A   1      36.454  31.751  30.618  1.00  0.00     0.135 A 
ATOM     80  F   UNL A   1      37.143  31.348  34.159  1.00  0.00    -0.206 F 
ATOM     81  C   UNL A   1      35.600  32.733  33.081  1.00  0.00     0.059 A 
ATOM     82  C   UNL A   1      35.451  32.728  30.673  1.00  0.00     0.059 A 
ATOM     83  F   UNL A   1      36.864  31.363  29.402  1.00  0.00    -0.206 F 
ATOM     84  C   UNL A   1      35.054  33.242  31.906  1.00  0.00     0.060 A 
BRANCH  84  85
ATOM     85  S   UNL A   1      33.926  34.661  31.999  1.00  0.00     0.124 S 
ATOM     86  O   UNL A   1      34.820  35.736  32.417  1.00  0.00    -0.237 OA
ATOM     87  O   UNL A   1      33.427  34.748  30.631  1.00  0.00    -0.237 OA
ATOM     88  O   UNL A   1      32.939  34.247  32.993  1.00  0.00    -0.744 OA
ENDBRANCH  84  85
ENDBRANCH  52  77
BRANCH  64  89
ATOM     89  C   UNL A   1      42.716  29.397  33.994  1.00  0.00     0.058 A 
ATOM     90  C   UNL A   1      42.910  29.619  35.370  1.00  0.00     0.135 A 
ATOM     91  C   UNL A   1      42.273  28.122  33.608  1.00  0.00     0.135 A 
ATOM     92  F   UNL A   1      43.256  30.831  35.832  1.00  0.00    -0.206 F 
ATOM     93  C   UNL A   1      42.694  28.610  36.313  1.00  0.00     0.059 A 
ATOM     94  C   UNL A   1      42.022  27.112  34.531  1.00  0.00     0.059 A 
ATOM     95  F   UNL A   1      42.029  27.860  32.313  1.00  0.00    -0.206 F 
ATOM     96  C   UNL A   1      42.243  27.360  35.882  1.00  0.00     0.060 A 
BRANCH  96  97
ATOM     97  S   UNL A   1      41.879  26.080  37.104  1.00  0.00     0.124 S 
ATOM     98  O   UNL A   1      42.880  26.340  38.133  1.00  0.00    -0.237 OA
ATOM     99  O   UNL A   1      40.498  26.377  37.473  1.00  0.00    -0.237 OA
ATOM    100  O   UNL A   1      42.060  24.835  36.360  1.00  0.00    -0.744 OA
ENDBRANCH  96  97
ENDBRANCH  64  89
ENDBRANCH  38  39
ENDBRANCH  31  33
ENDBRANCH  30  31
ENDBRANCH  29  30
ENDBRANCH   1  29
TORSDOF 17
ENDMDL
MODEL 2
REMARK VINA RESULT:     -13.0      2.899      9.828
REMARK SMILES Cc1nc2cc(S(=O)(=O)N3CCC(C(=O)OCCOC(=O)c4ccc(-c5c6nc(c(-c7c(F)cc(S(=O)(=O)[O-])cc7F)c7ccc([nH]7)c(-c7c(F)cc(S(=O)(=O)[O-])cc7F)c7nc(c(-c8c(F)cc(S(=O)(=O)[O-])cc8F)c8ccc5[nH]8)C=C7)C=C6)cc4)CC3)ccc2n1C1CCCC1
REMARK SMILES IDX 17 1 16 2 14 3 15 4 13 5 10 6 11 7 89 8 12 9 88 10 7 11 8 12
REMARK SMILES IDX 9 13 6 14 1 15 2 16 3 17 93 18 4 19 92 20 5 21 91 22 90 23
REMARK SMILES IDX 94 24 95 25 98 26 96 27 97 28 18 29 19 30 20 31 21 32 22 33
REMARK SMILES IDX 23 34 87 35 24 36 86 37 25 38 26 39 27 40 80 41 28 42 85 43
REMARK SMILES IDX 79 44 81 45 29 46 84 47 78 48 77 49 30 51 64 52 43 53 63 54
REMARK SMILES IDX 44 55 47 56 62 57 82 58 45 59 46 60 61 62 83 63 48 64 31 65
REMARK SMILES IDX 32 66 41 67 33 68 34 69 40 70 42 71 35 72 36 73 37 74 38 75
REMARK SMILES IDX 39 76 65 77 66 78 75 79 67 80 68 81 74 82 76 83 69 84 70 85
REMARK SMILES IDX 71 86 72 87 73 88 49 89 50 90 59 91 51 92 52 93 58 94 60 95
REMARK SMILES IDX 53 96 54 97 55 98 56 99 57 100
REMARK H PARENT 81 50 47 61
REMARK Flexibility Score: inf
ROOT
ATOM      1  C   UNL A   1      34.719  32.649  27.928  1.00  0.00     0.274 C 
ENDROOT
BRANCH   1   2
ATOM      2  O   UNL A   1      33.820  31.562  27.625  1.00  0.00    -0.462 OA
BRANCH   2   3
ATOM      3  C   UNL A   1      34.411  30.399  27.252  1.00  0.00     0.309 C 
ATOM      4  O   UNL A   1      35.593  30.130  27.420  1.00  0.00    -0.252 OA
BRANCH   3   5
ATOM      5  C   UNL A   1      33.431  29.401  26.677  1.00  0.00     0.102 C 
ATOM      6  N   UNL A   1      31.939  27.077  25.920  1.00  0.00    -0.198 NA
ATOM      7  C   UNL A   1      32.715  27.799  24.881  1.00  0.00     0.103 C 
ATOM      8  C   UNL A   1      31.584  27.834  27.144  1.00  0.00     0.103 C 
ATOM      9  C   UNL A   1      33.891  28.571  25.485  1.00  0.00     0.032 C 
ATOM     10  C   UNL A   1      32.828  28.494  27.735  1.00  0.00     0.032 C 
BRANCH   6  11
ATOM     11  S   UNL A   1      30.803  25.909  25.392  1.00  0.00     0.243 S 
ATOM     12  O   UNL A   1      30.412  26.278  24.045  1.00  0.00    -0.207 OA
ATOM     13  O   UNL A   1      29.820  25.776  26.444  1.00  0.00    -0.207 OA
BRANCH  11  14
ATOM     14  C   UNL A   1      31.618  24.326  25.272  1.00  0.00     0.085 A 
ATOM     15  C   UNL A   1      36.488  20.837  25.098  1.00  0.00     0.088 C 
ATOM     16  C   UNL A   1      35.188  21.558  25.102  1.00  0.00     0.106 A 
ATOM     17  N   UNL A   1      35.052  22.861  25.247  1.00  0.00    -0.233 NA
ATOM     18  N   UNL A   1      33.960  20.944  24.952  1.00  0.00    -0.325 N 
ATOM     19  C   UNL A   1      33.705  23.105  25.229  1.00  0.00     0.090 A 
ATOM     20  C   UNL A   1      32.993  21.929  25.015  1.00  0.00     0.068 A 
ATOM     21  C   UNL A   1      33.018  24.323  25.369  1.00  0.00     0.052 A 
ATOM     22  C   UNL A   1      31.598  21.917  24.915  1.00  0.00     0.030 A 
ATOM     23  C   UNL A   1      30.929  23.136  25.055  1.00  0.00     0.024 A 
BRANCH  18  24
ATOM     24  C   UNL A   1      33.740  19.528  24.721  1.00  0.00     0.089 C 
ATOM     25  C   UNL A   1      33.029  18.782  25.847  1.00  0.00     0.025 C 
ATOM     26  C   UNL A   1      32.901  19.237  23.473  1.00  0.00     0.025 C 
ATOM     27  C   UNL A   1      32.456  17.542  25.177  1.00  0.00     0.002 C 
ATOM     28  C   UNL A   1      32.322  17.847  23.691  1.00  0.00     0.002 C 
ENDBRANCH  18  24
ENDBRANCH  11  14
ENDBRANCH   6  11
ENDBRANCH   3   5
ENDBRANCH   2   3
ENDBRANCH   1   2
BRANCH   1  29
ATOM     29  C   UNL A   1      34.321  33.287  29.264  1.00  0.00     0.275 C 
BRANCH  29  30
ATOM     30  O   UNL A   1      35.450  33.261  30.154  1.00  0.00    -0.458 OA
BRANCH  30  31
ATOM     31  C   UNL A   1      35.321  32.529  31.290  1.00  0.00     0.338 C 
ATOM     32  O   UNL A   1      34.320  32.423  31.981  1.00  0.00    -0.246 OA
BRANCH  31  33
ATOM     33  C   UNL A   1      36.484  31.611  31.366  1.00  0.00     0.060 A 
ATOM     34  C   UNL A   1      37.766  32.071  31.677  1.00  0.00     0.016 A 
ATOM     35  C   UNL A   1      36.311  30.310  30.884  1.00  0.00     0.016 A 
ATOM     36  C   UNL A   1      38.874  31.303  31.317  1.00  0.00     0.010 A 
ATOM     37  C   UNL A   1      37.428  29.550  30.524  1.00  0.00     0.010 A 
ATOM     38  C   UNL A   1      38.714  30.079  30.647  1.00  0.00    -0.014 A 
BRANCH  38  39
ATOM     39  C   UNL A   1      39.897  29.231  30.417  1.00  0.00     0.031 A 
ATOM     40  C   UNL A   1      40.534  28.911  31.713  1.00  0.00     0.074 A 
ATOM     41  C   UNL A   1      40.429  28.716  29.281  1.00  0.00     0.049 A 
ATOM     42  N   UNL A   1      41.584  29.486  32.192  1.00  0.00    -0.248 NA
ATOM     43  C   UNL A   1      39.822  28.058  32.670  1.00  0.00     0.031 C 
ATOM     44  C   UNL A   1      39.933  28.774  27.911  1.00  0.00     0.029 A 
ATOM     45  N   UNL A   1      41.583  27.982  29.127  1.00  0.00    -0.354 N 
ATOM     46  C   UNL A   1      41.801  28.908  33.432  1.00  0.00     0.074 A 
ATOM     47  C   UNL A   1      40.599  28.182  33.748  1.00  0.00     0.031 C 
ATOM     48  C   UNL A   1      40.635  27.931  27.108  1.00  0.00     0.029 A 
ATOM     49  C   UNL A   1      41.766  27.410  27.861  1.00  0.00     0.049 A 
ATOM     50  H   UNL A   1      42.234  27.867  29.855  1.00  0.00     0.167 HD
ATOM     51  C   UNL A   1      43.050  28.899  33.972  1.00  0.00     0.037 A 
ATOM     52  C   UNL A   1      42.832  26.688  27.406  1.00  0.00     0.037 A 
ATOM     53  C   UNL A   1      43.894  29.871  33.319  1.00  0.00     0.049 A 
ATOM     54  C   UNL A   1      43.989  27.100  28.230  1.00  0.00     0.074 A 
ATOM     55  C   UNL A   1      43.878  31.244  33.175  1.00  0.00     0.029 A 
ATOM     56  N   UNL A   1      44.745  29.399  32.351  1.00  0.00    -0.354 N 
ATOM     57  N   UNL A   1      44.540  28.277  28.172  1.00  0.00    -0.248 NA
ATOM     58  C   UNL A   1      44.283  26.321  29.419  1.00  0.00     0.031 C 
ATOM     59  C   UNL A   1      44.377  31.492  31.861  1.00  0.00     0.029 A 
ATOM     60  C   UNL A   1      44.726  30.267  31.292  1.00  0.00     0.049 A 
ATOM     61  H   UNL A   1      45.281  28.574  32.408  1.00  0.00     0.167 HD
ATOM     62  C   UNL A   1      44.870  28.568  29.484  1.00  0.00     0.074 A 
ATOM     63  C   UNL A   1      44.780  27.290  30.189  1.00  0.00     0.031 C 
ATOM     64  C   UNL A   1      44.920  29.860  29.918  1.00  0.00     0.037 A 
BRANCH  51  65
ATOM     65  C   UNL A   1      43.618  27.745  34.764  1.00  0.00     0.058 A 
ATOM     66  C   UNL A   1      44.149  27.989  36.047  1.00  0.00     0.135 A 
ATOM     67  C   UNL A   1      43.941  26.489  34.209  1.00  0.00     0.135 A 
ATOM     68  F   UNL A   1      43.905  29.150  36.678  1.00  0.00    -0.206 F 
ATOM     69  C   UNL A   1      45.014  27.097  36.680  1.00  0.00     0.059 A 
ATOM     70  C   UNL A   1      44.758  25.562  34.842  1.00  0.00     0.059 A 
ATOM     71  F   UNL A   1      43.567  26.132  32.980  1.00  0.00    -0.206 F 
ATOM     72  C   UNL A   1      45.325  25.893  36.058  1.00  0.00     0.060 A 
BRANCH  72  73
ATOM     73  S   UNL A   1      46.525  24.787  36.815  1.00  0.00     0.124 S 
ATOM     74  O   UNL A   1      47.753  25.563  36.693  1.00  0.00    -0.237 OA
ATOM     75  O   UNL A   1      45.985  24.641  38.162  1.00  0.00    -0.237 OA
ATOM     76  O   UNL A   1      46.449  23.591  35.981  1.00  0.00    -0.744 OA
ENDBRANCH  72  73
ENDBRANCH  51  65
BRANCH  52  77
ATOM     77  C   UNL A   1      42.914  25.448  26.570  1.00  0.00     0.058 A 
ATOM     78  C   UNL A   1      43.742  25.396  25.423  1.00  0.00     0.135 A 
ATOM     79  C   UNL A   1      42.487  24.205  27.067  1.00  0.00     0.135 A 
ATOM     80  F   UNL A   1      44.206  26.529  24.874  1.00  0.00    -0.206 F 
ATOM     81  C   UNL A   1      44.191  24.192  24.865  1.00  0.00     0.059 A 
ATOM     82  C   UNL A   1      42.919  22.987  26.522  1.00  0.00     0.059 A 
ATOM     83  F   UNL A   1      41.716  24.144  28.164  1.00  0.00    -0.206 F 
ATOM     84  C   UNL A   1      43.801  22.988  25.444  1.00  0.00     0.060 A 
BRANCH  84  85
ATOM     85  S   UNL A   1      44.554  21.443  24.862  1.00  0.00     0.124 S 
ATOM     86  O   UNL A   1      45.834  21.442  25.564  1.00  0.00    -0.237 OA
ATOM     87  O   UNL A   1      43.588  20.443  25.304  1.00  0.00    -0.237 OA
ATOM     88  O   UNL A   1      44.635  21.627  23.415  1.00  0.00    -0.744 OA
ENDBRANCH  84  85
ENDBRANCH  52  77
BRANCH  64  89
ATOM     89  C   UNL A   1      45.002  30.953  28.884  1.00  0.00     0.058 A 
ATOM     90  C   UNL A   1      46.190  31.450  28.315  1.00  0.00     0.135 A 
ATOM     91  C   UNL A   1      43.792  31.429  28.355  1.00  0.00     0.135 A 
ATOM     92  F   UNL A   1      47.388  30.989  28.706  1.00  0.00    -0.206 F 
ATOM     93  C   UNL A   1      46.169  32.392  27.282  1.00  0.00     0.059 A 
ATOM     94  C   UNL A   1      43.747  32.343  27.307  1.00  0.00     0.059 A 
ATOM     95  F   UNL A   1      42.624  30.962  28.827  1.00  0.00    -0.206 F 
ATOM     96  C   UNL A   1      44.941  32.827  26.780  1.00  0.00     0.060 A 
BRANCH  96  97
ATOM     97  S   UNL A   1      44.909  33.978  25.388  1.00  0.00     0.124 S 
ATOM     98  O   UNL A   1      44.092  35.069  25.907  1.00  0.00    -0.237 OA
ATOM     99  O   UNL A   1      46.324  34.281  25.196  1.00  0.00    -0.237 OA
ATOM    100  O   UNL A   1      44.298  33.198  24.313  1.00  0.00    -0.744 OA
ENDBRANCH  96  97
ENDBRANCH  64  89
ENDBRANCH  38  39
ENDBRANCH  31  33
ENDBRANCH  30  31
ENDBRANCH  29  30
ENDBRANCH   1  29
TORSDOF 17
ENDMDL
MODEL 3
REMARK VINA RESULT:     -12.2      1.725      2.610
REMARK SMILES Cc1nc2cc(S(=O)(=O)N3CCC(C(=O)OCCOC(=O)c4ccc(-c5c6nc(c(-c7c(F)cc(S(=O)(=O)[O-])cc7F)c7ccc([nH]7)c(-c7c(F)cc(S(=O)(=O)[O-])cc7F)c7nc(c(-c8c(F)cc(S(=O)(=O)[O-])cc8F)c8ccc5[nH]8)C=C7)C=C6)cc4)CC3)ccc2n1C1CCCC1
REMARK SMILES IDX 17 1 16 2 14 3 15 4 13 5 10 6 11 7 89 8 12 9 88 10 7 11 8 12
REMARK SMILES IDX 9 13 6 14 1 15 2 16 3 17 93 18 4 19 92 20 5 21 91 22 90 23
REMARK SMILES IDX 94 24 95 25 98 26 96 27 97 28 18 29 19 30 20 31 21 32 22 33
REMARK SMILES IDX 23 34 87 35 24 36 86 37 25 38 26 39 27 40 80 41 28 42 85 43
REMARK SMILES IDX 79 44 81 45 29 46 84 47 78 48 77 49 30 51 64 52 43 53 63 54
REMARK SMILES IDX 44 55 47 56 62 57 82 58 45 59 46 60 61 62 83 63 48 64 31 65
REMARK SMILES IDX 32 66 41 67 33 68 34 69 40 70 42 71 35 72 36 73 37 74 38 75
REMARK SMILES IDX 39 76 65 77 66 78 75 79 67 80 68 81 74 82 76 83 69 84 70 85
REMARK SMILES IDX 71 86 72 87 73 88 49 89 50 90 59 91 51 92 52 93 58 94 60 95
REMARK SMILES IDX 53 96 54 97 55 98 56 99 57 100
REMARK H PARENT 81 50 47 61
REMARK Flexibility Score: inf
ROOT
ATOM      1  C   UNL A   1      41.769  21.343  26.623  1.00  0.00     0.274 C 
ENDROOT
BRANCH   1   2
ATOM      2  O   UNL A   1      40.820  21.776  27.619  1.00  0.00    -0.462 OA
BRANCH   2   3
ATOM      3  C   UNL A   1      40.258  22.992  27.407  1.00  0.00     0.309 C 
ATOM      4  O   UNL A   1      40.638  24.037  27.919  1.00  0.00    -0.252 OA
BRANCH   3   5
ATOM      5  C   UNL A   1      39.147  22.954  26.382  1.00  0.00     0.102 C 
ATOM      6  N   UNL A   1      36.660  22.809  24.970  1.00  0.00    -0.198 NA
ATOM      7  C   UNL A   1      37.636  21.702  24.816  1.00  0.00     0.103 C 
ATOM      8  C   UNL A   1      37.189  24.115  25.432  1.00  0.00     0.103 C 
ATOM      9  C   UNL A   1      38.564  21.590  26.027  1.00  0.00     0.032 C 
ATOM     10  C   UNL A   1      38.025  23.927  26.696  1.00  0.00     0.032 C 
BRANCH   6  11
ATOM     11  S   UNL A   1      35.346  22.866  23.873  1.00  0.00     0.243 S 
ATOM     12  O   UNL A   1      34.496  21.729  24.171  1.00  0.00    -0.207 OA
ATOM     13  O   UNL A   1      35.908  23.050  22.554  1.00  0.00    -0.207 OA
BRANCH  11  14
ATOM     14  C   UNL A   1      34.379  24.329  24.207  1.00  0.00     0.085 A 
ATOM     15  C   UNL A   1      31.056  29.022  22.518  1.00  0.00     0.088 C 
ATOM     16  C   UNL A   1      31.876  27.927  23.099  1.00  0.00     0.106 A 
ATOM     17  N   UNL A   1      32.439  26.959  22.403  1.00  0.00    -0.233 NA
ATOM     18  N   UNL A   1      32.146  27.790  24.447  1.00  0.00    -0.325 N 
ATOM     19  C   UNL A   1      33.063  26.150  23.314  1.00  0.00     0.090 A 
ATOM     20  C   UNL A   1      32.924  26.659  24.602  1.00  0.00     0.068 A 
ATOM     21  C   UNL A   1      33.790  24.966  23.104  1.00  0.00     0.052 A 
ATOM     22  C   UNL A   1      33.507  26.036  25.710  1.00  0.00     0.030 A 
ATOM     23  C   UNL A   1      34.228  24.859  25.486  1.00  0.00     0.024 A 
BRANCH  18  24
ATOM     24  C   UNL A   1      31.726  28.703  25.494  1.00  0.00     0.089 C 
ATOM     25  C   UNL A   1      32.788  29.034  26.541  1.00  0.00     0.025 C 
ATOM     26  C   UNL A   1      31.264  30.064  24.967  1.00  0.00     0.025 C 
ATOM     27  C   UNL A   1      32.318  30.343  27.155  1.00  0.00     0.002 C 
ATOM     28  C   UNL A   1      31.404  31.020  26.142  1.00  0.00     0.002 C 
ENDBRANCH  18  24
ENDBRANCH  11  14
ENDBRANCH   6  11
ENDBRANCH   3   5
ENDBRANCH   2   3
ENDBRANCH   1   2
BRANCH   1  29
ATOM     29  C   UNL A   1      43.033  22.206  26.709  1.00  0.00     0.275 C 
BRANCH  29  30
ATOM     30  O   UNL A   1      43.093  23.071  25.562  1.00  0.00    -0.458 OA
BRANCH  30  31
ATOM     31  C   UNL A   1      44.194  23.855  25.440  1.00  0.00     0.338 C 
ATOM     32  O   UNL A   1      45.205  23.600  24.805  1.00  0.00    -0.246 OA
BRANCH  31  33
ATOM     33  C   UNL A   1      43.833  25.213  25.917  1.00  0.00     0.060 A 
ATOM     34  C   UNL A   1      44.382  25.754  27.082  1.00  0.00     0.016 A 
ATOM     35  C   UNL A   1      42.747  25.845  25.302  1.00  0.00     0.016 A 
ATOM     36  C   UNL A   1      43.722  26.799  27.728  1.00  0.00     0.010 A 
ATOM     37  C   UNL A   1      42.091  26.890  25.959  1.00  0.00     0.010 A 
ATOM     38  C   UNL A   1      42.515  27.310  27.221  1.00  0.00    -0.014 A 
BRANCH  38  39
ATOM     39  C   UNL A   1      41.927  28.507  27.848  1.00  0.00     0.031 A 
ATOM     40  C   UNL A   1      42.879  29.635  27.746  1.00  0.00     0.074 A 
ATOM     41  C   UNL A   1      40.722  28.719  28.433  1.00  0.00     0.049 A 
ATOM     42  N   UNL A   1      43.647  30.054  28.694  1.00  0.00    -0.248 NA
ATOM     43  C   UNL A   1      43.189  30.193  26.425  1.00  0.00     0.031 C 
ATOM     44  C   UNL A   1      39.574  27.827  28.549  1.00  0.00     0.029 A 
ATOM     45  N   UNL A   1      40.259  29.850  29.063  1.00  0.00    -0.354 N 
ATOM     46  C   UNL A   1      44.391  31.088  28.150  1.00  0.00     0.074 A 
ATOM     47  C   UNL A   1      44.203  31.007  26.726  1.00  0.00     0.031 C 
ATOM     48  C   UNL A   1      38.483  28.503  28.995  1.00  0.00     0.029 A 
ATOM     49  C   UNL A   1      38.895  29.842  29.387  1.00  0.00     0.049 A 
ATOM     50  H   UNL A   1      40.844  30.613  29.272  1.00  0.00     0.167 HD
ATOM     51  C   UNL A   1      44.905  32.055  28.957  1.00  0.00     0.037 A 
ATOM     52  C   UNL A   1      38.180  30.791  30.059  1.00  0.00     0.037 A 
ATOM     53  C   UNL A   1      44.923  31.616  30.332  1.00  0.00     0.049 A 
ATOM     54  C   UNL A   1      39.156  31.527  30.892  1.00  0.00     0.074 A 
ATOM     55  C   UNL A   1      45.539  30.594  31.027  1.00  0.00     0.029 A 
ATOM     56  N   UNL A   1      43.899  32.055  31.134  1.00  0.00    -0.354 N 
ATOM     57  N   UNL A   1      39.769  31.013  31.918  1.00  0.00    -0.248 NA
ATOM     58  C   UNL A   1      39.753  32.726  30.334  1.00  0.00     0.031 C 
ATOM     59  C   UNL A   1      44.593  30.184  32.013  1.00  0.00     0.029 A 
ATOM     60  C   UNL A   1      43.474  31.011  31.910  1.00  0.00     0.049 A 
ATOM     61  H   UNL A   1      43.532  32.969  31.148  1.00  0.00     0.167 HD
ATOM     62  C   UNL A   1      41.046  31.541  31.856  1.00  0.00     0.074 A 
ATOM     63  C   UNL A   1      40.948  32.661  30.922  1.00  0.00     0.031 C 
ATOM     64  C   UNL A   1      42.109  30.849  32.359  1.00  0.00     0.037 A 
BRANCH  51  65
ATOM     65  C   UNL A   1      44.982  33.516  28.579  1.00  0.00     0.058 A 
ATOM     66  C   UNL A   1      46.228  34.173  28.630  1.00  0.00     0.135 A 
ATOM     67  C   UNL A   1      43.859  34.363  28.470  1.00  0.00     0.135 A 
ATOM     68  F   UNL A   1      47.368  33.470  28.730  1.00  0.00    -0.206 F 
ATOM     69  C   UNL A   1      46.338  35.563  28.672  1.00  0.00     0.059 A 
ATOM     70  C   UNL A   1      43.947  35.749  28.457  1.00  0.00     0.059 A 
ATOM     71  F   UNL A   1      42.609  33.899  28.472  1.00  0.00    -0.206 F 
ATOM     72  C   UNL A   1      45.187  36.340  28.603  1.00  0.00     0.060 A 
BRANCH  72  73
ATOM     73  S   UNL A   1      45.310  38.127  28.768  1.00  0.00     0.124 S 
ATOM     74  O   UNL A   1      46.443  38.257  29.676  1.00  0.00    -0.237 OA
ATOM     75  O   UNL A   1      45.541  38.536  27.387  1.00  0.00    -0.237 OA
ATOM     76  O   UNL A   1      44.011  38.502  29.320  1.00  0.00    -0.744 OA
ENDBRANCH  72  73
ENDBRANCH  51  65
BRANCH  52  77
ATOM     77  C   UNL A   1      36.814  31.361  29.830  1.00  0.00     0.058 A 
ATOM     78  C   UNL A   1      36.143  32.078  30.849  1.00  0.00     0.135 A 
ATOM     79  C   UNL A   1      36.305  31.533  28.531  1.00  0.00     0.135 A 
ATOM     80  F   UNL A   1      36.555  31.985  32.123  1.00  0.00    -0.206 F 
ATOM     81  C   UNL A   1      35.101  32.976  30.585  1.00  0.00     0.059 A 
ATOM     82  C   UNL A   1      35.260  32.422  28.243  1.00  0.00     0.059 A 
ATOM     83  F   UNL A   1      36.884  30.913  27.491  1.00  0.00    -0.206 F 
ATOM     84  C   UNL A   1      34.687  33.168  29.270  1.00  0.00     0.060 A 
BRANCH  84  85
ATOM     85  S   UNL A   1      33.494  34.486  28.904  1.00  0.00     0.124 S 
ATOM     86  O   UNL A   1      32.591  33.829  27.964  1.00  0.00    -0.237 OA
ATOM     87  O   UNL A   1      32.936  34.772  30.222  1.00  0.00    -0.237 OA
ATOM     88  O   UNL A   1      34.321  35.548  28.339  1.00  0.00    -0.744 OA
ENDBRANCH  84  85
ENDBRANCH  52  77
BRANCH  64  89
ATOM     89  C   UNL A   1      41.831  29.719  33.316  1.00  0.00     0.058 A 
ATOM     90  C   UNL A   1      41.527  28.395  32.949  1.00  0.00     0.135 A 
ATOM     91  C   UNL A   1      42.012  29.976  34.685  1.00  0.00     0.135 A 
ATOM     92  F   UNL A   1      41.416  28.045  31.657  1.00  0.00    -0.206 F 
ATOM     93  C   UNL A   1      41.389  27.383  33.903  1.00  0.00     0.059 A 
ATOM     94  C   UNL A   1      41.910  28.979  35.648  1.00  0.00     0.059 A 
ATOM     95  F   UNL A   1      42.345  31.212  35.096  1.00  0.00    -0.206 F 
ATOM     96  C   UNL A   1      41.590  27.684  35.251  1.00  0.00     0.060 A 
BRANCH  96  97
ATOM     97  S   UNL A   1      41.498  26.362  36.479  1.00  0.00     0.124 S 
ATOM     98  O   UNL A   1      40.578  26.919  37.465  1.00  0.00    -0.237 OA
ATOM     99  O   UNL A   1      40.988  25.239  35.698  1.00  0.00    -0.237 OA
ATOM    100  O   UNL A   1      42.881  26.217  36.930  1.00  0.00    -0.744 OA
ENDBRANCH  96  97
ENDBRANCH  64  89
ENDBRANCH  38  39
ENDBRANCH  31  33
ENDBRANCH  30  31
ENDBRANCH  29  30
ENDBRANCH   1  29
TORSDOF 17
ENDMDL
