MODEL 1
REMARK VINA RESULT:      -9.7      0.000      0.000
REMARK SMILES Cc1ccc(-c2noc(CCC(=O)OCCOC(=O)c3ccc(-c4c5nc(c(-c6c(F)cc(S(=O)(=O)[O-])cc6F)c6ccc([nH]6)c(-c6c(F)cc(S(=O)(=O)[O-])cc6F)c6nc(c(-c7c(F)cc(S(=O)(=O)[O-])cc7F)c7ccc4[nH]7)C=C6)C=C5)cc3)n2)cc1C
REMARK SMILES IDX 15 1 14 2 12 3 13 4 11 5 10 6 9 7 6 8 7 9 86 10 8 11 5 12
REMARK SMILES IDX 1 13 2 14 3 15 88 16 4 17 87 18 89 19 16 20 17 21 18 22
REMARK SMILES IDX 19 23 20 24 21 25 85 26 22 27 84 28 23 29 24 30 25 31 78 32
REMARK SMILES IDX 26 33 83 34 77 35 79 36 27 37 82 38 76 39 75 40 28 42 62 43
REMARK SMILES IDX 41 44 61 45 42 46 45 47 60 48 80 49 43 50 44 51 59 53 81 54
REMARK SMILES IDX 46 55 29 56 30 57 39 58 31 59 32 60 38 61 40 62 33 63 34 64
REMARK SMILES IDX 35 65 36 66 37 67 63 68 64 69 73 70 65 71 66 72 72 73 74 74
REMARK SMILES IDX 67 75 68 76 69 77 70 78 71 79 47 80 48 81 57 82 49 83 50 84
REMARK SMILES IDX 56 85 58 86 51 87 52 88 53 89 54 90 55 91
REMARK H PARENT 79 41 45 52
REMARK Flexibility Score: inf
ROOT
ATOM      1  C   UNL A   1      35.178  33.784  29.266  1.00  0.00     0.274 C 
ENDROOT
BRANCH   1   2
ATOM      2  O   UNL A   1      34.318  34.825  29.769  1.00  0.00    -0.462 OA
BRANCH   2   3
ATOM      3  C   UNL A   1      33.721  34.599  30.965  1.00  0.00     0.306 C 
ATOM      4  O   UNL A   1      32.767  35.227  31.403  1.00  0.00    -0.252 OA
BRANCH   3   5
ATOM      5  C   UNL A   1      34.406  33.505  31.747  1.00  0.00     0.132 C 
BRANCH   5   6
ATOM      6  C   UNL A   1      34.706  33.869  33.195  1.00  0.00     0.112 C 
BRANCH   6   7
ATOM      7  C   UNL A   1      35.822  33.068  33.745  1.00  0.00     0.227 A 
ATOM      8  C   UNL A   1      37.417  31.782  34.133  1.00  0.00     0.202 A 
ATOM      9  N   UNL A   1      37.231  32.397  35.309  1.00  0.00    -0.057 NA
ATOM     10  N   UNL A   1      36.550  32.160  33.140  1.00  0.00    -0.191 NA
ATOM     11  O   UNL A   1      36.168  33.268  35.049  1.00  0.00    -0.339 OA
BRANCH   8  12
ATOM     12  C   UNL A   1      38.474  30.832  33.880  1.00  0.00     0.023 A 
ATOM     13  C   UNL A   1      41.715  28.135  32.971  1.00  0.00     0.044 C 
ATOM     14  C   UNL A   1      40.559  29.044  33.284  1.00  0.00    -0.048 A 
ATOM     15  C   UNL A   1      40.819  30.262  33.934  1.00  0.00     0.004 A 
ATOM     16  C   UNL A   1      39.233  28.714  32.936  1.00  0.00    -0.047 A 
ATOM     17  C   UNL A   1      39.786  31.149  34.231  1.00  0.00     0.012 A 
ATOM     18  C   UNL A   1      38.200  29.620  33.237  1.00  0.00     0.015 A 
ATOM     19  C   UNL A   1      38.856  27.436  32.237  1.00  0.00     0.044 C 
ENDBRANCH   8  12
ENDBRANCH   6   7
ENDBRANCH   5   6
ENDBRANCH   3   5
ENDBRANCH   2   3
ENDBRANCH   1   2
BRANCH   1  20
ATOM     20  C   UNL A   1      34.472  32.943  28.201  1.00  0.00     0.275 C 
BRANCH  20  21
ATOM     21  O   UNL A   1      34.071  31.665  28.728  1.00  0.00    -0.458 OA
BRANCH  21  22
ATOM     22  C   UNL A   1      34.335  30.602  27.934  1.00  0.00     0.338 C 
ATOM     23  O   UNL A   1      33.625  30.141  27.059  1.00  0.00    -0.246 OA
BRANCH  22  24
ATOM     24  C   UNL A   1      35.706  30.133  28.180  1.00  0.00     0.060 A 
ATOM     25  C   UNL A   1      36.076  29.819  29.491  1.00  0.00     0.016 A 
ATOM     26  C   UNL A   1      36.636  30.071  27.142  1.00  0.00     0.016 A 
ATOM     27  C   UNL A   1      37.387  29.444  29.773  1.00  0.00     0.010 A 
ATOM     28  C   UNL A   1      37.951  29.690  27.427  1.00  0.00     0.010 A 
ATOM     29  C   UNL A   1      38.336  29.385  28.744  1.00  0.00    -0.014 A 
BRANCH  29  30
ATOM     30  C   UNL A   1      39.743  29.040  29.054  1.00  0.00     0.031 A 
ATOM     31  C   UNL A   1      40.630  30.052  29.720  1.00  0.00     0.074 A 
ATOM     32  C   UNL A   1      40.215  27.818  28.747  1.00  0.00     0.049 A 
ATOM     33  N   UNL A   1      41.903  29.972  30.010  1.00  0.00    -0.248 NA
ATOM     34  C   UNL A   1      39.999  31.323  30.110  1.00  0.00     0.031 C 
ATOM     35  C   UNL A   1      39.434  26.740  28.140  1.00  0.00     0.029 A 
ATOM     36  N   UNL A   1      41.467  27.280  28.901  1.00  0.00    -0.354 N 
ATOM     37  C   UNL A   1      42.231  31.183  30.607  1.00  0.00     0.074 A 
ATOM     38  C   UNL A   1      41.028  31.988  30.616  1.00  0.00     0.031 C 
ATOM     39  C   UNL A   1      40.224  25.665  27.981  1.00  0.00     0.029 A 
ATOM     40  C   UNL A   1      41.574  25.993  28.431  1.00  0.00     0.049 A 
ATOM     41  H   UNL A   1      42.217  27.767  29.312  1.00  0.00     0.167 HD
ATOM     42  C   UNL A   1      43.426  31.582  31.105  1.00  0.00     0.037 A 
ATOM     43  C   UNL A   1      42.645  25.180  28.351  1.00  0.00     0.037 A 
ATOM     44  C   UNL A   1      44.619  30.776  31.089  1.00  0.00     0.049 A 
ATOM     45  C   UNL A   1      43.979  25.675  28.842  1.00  0.00     0.074 A 
ATOM     46  C   UNL A   1      45.880  31.089  31.567  1.00  0.00     0.029 A 
ATOM     47  N   UNL A   1      44.700  29.493  30.565  1.00  0.00    -0.354 N 
ATOM     48  N   UNL A   1      44.279  26.826  29.395  1.00  0.00    -0.248 NA
ATOM     49  C   UNL A   1      45.122  24.764  28.688  1.00  0.00     0.031 C 
ATOM     50  C   UNL A   1      46.731  30.010  31.297  1.00  0.00     0.029 A 
ATOM     51  C   UNL A   1      45.992  29.009  30.689  1.00  0.00     0.049 A 
ATOM     52  H   UNL A   1      43.948  29.000  30.162  1.00  0.00     0.167 HD
ATOM     53  C   UNL A   1      45.640  26.769  29.677  1.00  0.00     0.074 A 
ATOM     54  C   UNL A   1      46.102  25.468  29.239  1.00  0.00     0.031 C 
ATOM     55  C   UNL A   1      46.433  27.708  30.250  1.00  0.00     0.037 A 
BRANCH  42  56
ATOM     56  C   UNL A   1      43.501  32.969  31.682  1.00  0.00     0.058 A 
ATOM     57  C   UNL A   1      43.625  34.103  30.864  1.00  0.00     0.135 A 
ATOM     58  C   UNL A   1      43.451  33.165  33.072  1.00  0.00     0.135 A 
ATOM     59  F   UNL A   1      43.694  33.969  29.530  1.00  0.00    -0.206 F 
ATOM     60  C   UNL A   1      43.735  35.380  31.405  1.00  0.00     0.059 A 
ATOM     61  C   UNL A   1      43.535  34.436  33.633  1.00  0.00     0.059 A 
ATOM     62  F   UNL A   1      43.332  32.115  33.900  1.00  0.00    -0.206 F 
ATOM     63  C   UNL A   1      43.698  35.536  32.792  1.00  0.00     0.060 A 
BRANCH  63  64
ATOM     64  S   UNL A   1      43.872  37.194  33.482  1.00  0.00     0.124 S 
ATOM     65  O   UNL A   1      45.020  37.020  34.367  1.00  0.00    -0.237 OA
ATOM     66  O   UNL A   1      44.106  38.009  32.294  1.00  0.00    -0.237 OA
ATOM     67  O   UNL A   1      42.594  37.420  34.150  1.00  0.00    -0.744 OA
ENDBRANCH  63  64
ENDBRANCH  42  56
BRANCH  43  68
ATOM     68  C   UNL A   1      42.498  23.817  27.782  1.00  0.00     0.058 A 
ATOM     69  C   UNL A   1      42.426  22.692  28.617  1.00  0.00     0.135 A 
ATOM     70  C   UNL A   1      42.409  23.611  26.397  1.00  0.00     0.135 A 
ATOM     71  F   UNL A   1      42.517  22.839  29.948  1.00  0.00    -0.206 F 
ATOM     72  C   UNL A   1      42.274  21.410  28.101  1.00  0.00     0.059 A 
ATOM     73  C   UNL A   1      42.236  22.340  25.857  1.00  0.00     0.059 A 
ATOM     74  F   UNL A   1      42.464  24.655  25.556  1.00  0.00    -0.206 F 
ATOM     75  C   UNL A   1      42.177  21.245  26.717  1.00  0.00     0.060 A 
BRANCH  75  76
ATOM     76  S   UNL A   1      41.921  19.582  26.058  1.00  0.00     0.124 S 
ATOM     77  O   UNL A   1      42.844  19.569  24.930  1.00  0.00    -0.237 OA
ATOM     78  O   UNL A   1      42.286  18.741  27.193  1.00  0.00    -0.237 OA
ATOM     79  O   UNL A   1      40.502  19.575  25.715  1.00  0.00    -0.744 OA
ENDBRANCH  75  76
ENDBRANCH  43  68
BRANCH  55  80
ATOM     80  C   UNL A   1      47.876  27.351  30.465  1.00  0.00     0.058 A 
ATOM     81  C   UNL A   1      48.835  27.521  29.454  1.00  0.00     0.135 A 
ATOM     82  C   UNL A   1      48.312  26.873  31.711  1.00  0.00     0.135 A 
ATOM     83  F   UNL A   1      48.467  27.967  28.243  1.00  0.00    -0.206 F 
ATOM     84  C   UNL A   1      50.175  27.214  29.667  1.00  0.00     0.059 A 
ATOM     85  C   UNL A   1      49.651  26.581  31.952  1.00  0.00     0.059 A 
ATOM     86  F   UNL A   1      47.435  26.700  32.713  1.00  0.00    -0.206 F 
ATOM     87  C   UNL A   1      50.574  26.745  30.920  1.00  0.00     0.060 A 
BRANCH  87  88
ATOM     88  S   UNL A   1      52.321  26.384  31.197  1.00  0.00     0.124 S 
ATOM     89  O   UNL A   1      52.253  25.078  31.843  1.00  0.00    -0.237 OA
ATOM     90  O   UNL A   1      52.863  26.394  29.842  1.00  0.00    -0.237 OA
ATOM     91  O   UNL A   1      52.763  27.485  32.050  1.00  0.00    -0.744 OA
ENDBRANCH  87  88
ENDBRANCH  55  80
ENDBRANCH  29  30
ENDBRANCH  22  24
ENDBRANCH  21  22
ENDBRANCH  20  21
ENDBRANCH   1  20
TORSDOF 17
ENDMDL
MODEL 2
REMARK VINA RESULT:      -9.5      4.222     12.033
REMARK SMILES Cc1ccc(-c2noc(CCC(=O)OCCOC(=O)c3ccc(-c4c5nc(c(-c6c(F)cc(S(=O)(=O)[O-])cc6F)c6ccc([nH]6)c(-c6c(F)cc(S(=O)(=O)[O-])cc6F)c6nc(c(-c7c(F)cc(S(=O)(=O)[O-])cc7F)c7ccc4[nH]7)C=C6)C=C5)cc3)n2)cc1C
REMARK SMILES IDX 15 1 14 2 12 3 13 4 11 5 10 6 9 7 6 8 7 9 86 10 8 11 5 12
REMARK SMILES IDX 1 13 2 14 3 15 88 16 4 17 87 18 89 19 16 20 17 21 18 22
REMARK SMILES IDX 19 23 20 24 21 25 85 26 22 27 84 28 23 29 24 30 25 31 78 32
REMARK SMILES IDX 26 33 83 34 77 35 79 36 27 37 82 38 76 39 75 40 28 42 62 43
REMARK SMILES IDX 41 44 61 45 42 46 45 47 60 48 80 49 43 50 44 51 59 53 81 54
REMARK SMILES IDX 46 55 29 56 30 57 39 58 31 59 32 60 38 61 40 62 33 63 34 64
REMARK SMILES IDX 35 65 36 66 37 67 63 68 64 69 73 70 65 71 66 72 72 73 74 74
REMARK SMILES IDX 67 75 68 76 69 77 70 78 71 79 47 80 48 81 57 82 49 83 50 84
REMARK SMILES IDX 56 85 58 86 51 87 52 88 53 89 54 90 55 91
REMARK H PARENT 79 41 45 52
REMARK Flexibility Score: inf
ROOT
ATOM      1  C   UNL A   1      42.547  21.125  26.293  1.00  0.00     0.274 C 
ENDROOT
BRANCH   1   2
ATOM      2  O   UNL A   1      42.603  20.104  25.278  1.00  0.00    -0.462 OA
BRANCH   2   3
ATOM      3  C   UNL A   1      43.640  19.234  25.344  1.00  0.00     0.306 C 
ATOM      4  O   UNL A   1      43.866  18.480  26.281  1.00  0.00    -0.252 OA
BRANCH   3   5
ATOM      5  C   UNL A   1      44.546  19.332  24.141  1.00  0.00     0.132 C 
BRANCH   5   6
ATOM      6  C   UNL A   1      45.926  19.898  24.445  1.00  0.00     0.112 C 
BRANCH   6   7
ATOM      7  C   UNL A   1      45.866  21.329  24.817  1.00  0.00     0.227 A 
ATOM      8  C   UNL A   1      45.816  23.202  25.733  1.00  0.00     0.202 A 
ATOM      9  N   UNL A   1      45.732  23.500  24.429  1.00  0.00    -0.057 NA
ATOM     10  N   UNL A   1      45.885  21.861  26.016  1.00  0.00    -0.191 NA
ATOM     11  O   UNL A   1      45.775  22.246  23.812  1.00  0.00    -0.339 OA
BRANCH   8  12
ATOM     12  C   UNL A   1      45.889  24.191  26.782  1.00  0.00     0.023 A 
ATOM     13  C   UNL A   1      46.326  27.111  29.926  1.00  0.00     0.044 C 
ATOM     14  C   UNL A   1      46.143  26.077  28.851  1.00  0.00    -0.048 A 
ATOM     15  C   UNL A   1      46.667  26.335  27.573  1.00  0.00     0.004 A 
ATOM     16  C   UNL A   1      45.474  24.859  29.091  1.00  0.00    -0.047 A 
ATOM     17  C   UNL A   1      46.541  25.400  26.546  1.00  0.00     0.012 A 
ATOM     18  C   UNL A   1      45.357  23.923  28.048  1.00  0.00     0.015 A 
ATOM     19  C   UNL A   1      44.882  24.492  30.425  1.00  0.00     0.044 C 
ENDBRANCH   8  12
ENDBRANCH   6   7
ENDBRANCH   5   6
ENDBRANCH   3   5
ENDBRANCH   2   3
ENDBRANCH   1   2
BRANCH   1  20
ATOM     20  C   UNL A   1      42.223  22.494  25.691  1.00  0.00     0.275 C 
BRANCH  20  21
ATOM     21  O   UNL A   1      42.109  23.499  26.715  1.00  0.00    -0.458 OA
BRANCH  21  22
ATOM     22  C   UNL A   1      42.261  24.775  26.293  1.00  0.00     0.338 C 
ATOM     23  O   UNL A   1      42.376  25.164  25.144  1.00  0.00    -0.246 OA
BRANCH  22  24
ATOM     24  C   UNL A   1      42.130  25.690  27.435  1.00  0.00     0.060 A 
ATOM     25  C   UNL A   1      41.154  25.415  28.399  1.00  0.00     0.016 A 
ATOM     26  C   UNL A   1      42.909  26.844  27.519  1.00  0.00     0.016 A 
ATOM     27  C   UNL A   1      40.951  26.300  29.454  1.00  0.00     0.010 A 
ATOM     28  C   UNL A   1      42.705  27.729  28.581  1.00  0.00     0.010 A 
ATOM     29  C   UNL A   1      41.719  27.468  29.548  1.00  0.00    -0.014 A 
BRANCH  29  30
ATOM     30  C   UNL A   1      41.463  28.436  30.641  1.00  0.00     0.031 A 
ATOM     31  C   UNL A   1      42.319  28.413  31.874  1.00  0.00     0.074 A 
ATOM     32  C   UNL A   1      40.473  29.338  30.516  1.00  0.00     0.049 A 
ATOM     33  N   UNL A   1      42.215  29.124  32.966  1.00  0.00    -0.248 NA
ATOM     34  C   UNL A   1      43.442  27.461  31.876  1.00  0.00     0.031 C 
ATOM     35  C   UNL A   1      39.606  29.484  29.347  1.00  0.00     0.029 A 
ATOM     36  N   UNL A   1      40.026  30.300  31.386  1.00  0.00    -0.354 N 
ATOM     37  C   UNL A   1      43.250  28.702  33.792  1.00  0.00     0.074 A 
ATOM     38  C   UNL A   1      43.956  27.656  33.083  1.00  0.00     0.031 C 
ATOM     39  C   UNL A   1      38.736  30.483  29.569  1.00  0.00     0.029 A 
ATOM     40  C   UNL A   1      38.954  31.016  30.911  1.00  0.00     0.049 A 
ATOM     41  H   UNL A   1      40.437  30.463  32.266  1.00  0.00     0.167 HD
ATOM     42  C   UNL A   1      43.581  29.151  35.027  1.00  0.00     0.037 A 
ATOM     43  C   UNL A   1      38.218  31.977  31.502  1.00  0.00     0.037 A 
ATOM     44  C   UNL A   1      42.871  30.190  35.727  1.00  0.00     0.049 A 
ATOM     45  C   UNL A   1      38.559  32.405  32.903  1.00  0.00     0.074 A 
ATOM     46  C   UNL A   1      43.126  30.715  36.982  1.00  0.00     0.029 A 
ATOM     47  N   UNL A   1      41.763  30.863  35.231  1.00  0.00    -0.354 N 
ATOM     48  N   UNL A   1      39.533  31.991  33.678  1.00  0.00    -0.248 NA
ATOM     49  C   UNL A   1      37.694  33.424  33.514  1.00  0.00     0.031 C 
ATOM     50  C   UNL A   1      42.149  31.679  37.260  1.00  0.00     0.029 A 
ATOM     51  C   UNL A   1      41.310  31.784  36.162  1.00  0.00     0.049 A 
ATOM     52  H   UNL A   1      41.357  30.707  34.348  1.00  0.00     0.167 HD
ATOM     53  C   UNL A   1      39.413  32.715  34.860  1.00  0.00     0.074 A 
ATOM     54  C   UNL A   1      38.276  33.597  34.694  1.00  0.00     0.031 C 
ATOM     55  C   UNL A   1      40.177  32.657  35.978  1.00  0.00     0.037 A 
BRANCH  42  56
ATOM     56  C   UNL A   1      44.749  28.491  35.706  1.00  0.00     0.058 A 
ATOM     57  C   UNL A   1      46.058  28.979  35.564  1.00  0.00     0.135 A 
ATOM     58  C   UNL A   1      44.557  27.354  36.508  1.00  0.00     0.135 A 
ATOM     59  F   UNL A   1      46.298  30.053  34.795  1.00  0.00    -0.206 F 
ATOM     60  C   UNL A   1      47.139  28.341  36.162  1.00  0.00     0.059 A 
ATOM     61  C   UNL A   1      45.622  26.714  37.136  1.00  0.00     0.059 A 
ATOM     62  F   UNL A   1      43.325  26.847  36.679  1.00  0.00    -0.206 F 
ATOM     63  C   UNL A   1      46.912  27.203  36.939  1.00  0.00     0.060 A 
BRANCH  63  64
ATOM     64  S   UNL A   1      48.327  26.366  37.684  1.00  0.00     0.124 S 
ATOM     65  O   UNL A   1      48.858  27.412  38.553  1.00  0.00    -0.237 OA
ATOM     66  O   UNL A   1      47.703  25.234  38.363  1.00  0.00    -0.237 OA
ATOM     67  O   UNL A   1      49.160  26.020  36.536  1.00  0.00    -0.744 OA
ENDBRANCH  63  64
ENDBRANCH  42  56
BRANCH  43  68
ATOM     68  C   UNL A   1      37.085  32.596  30.768  1.00  0.00     0.058 A 
ATOM     69  C   UNL A   1      35.771  32.144  30.959  1.00  0.00     0.135 A 
ATOM     70  C   UNL A   1      37.289  33.661  29.876  1.00  0.00     0.135 A 
ATOM     71  F   UNL A   1      35.529  31.122  31.794  1.00  0.00    -0.206 F 
ATOM     72  C   UNL A   1      34.698  32.723  30.290  1.00  0.00     0.059 A 
ATOM     73  C   UNL A   1      36.229  34.270  29.212  1.00  0.00     0.059 A 
ATOM     74  F   UNL A   1      38.526  34.135  29.666  1.00  0.00    -0.206 F 
ATOM     75  C   UNL A   1      34.937  33.789  29.419  1.00  0.00     0.060 A 
BRANCH  75  76
ATOM     76  S   UNL A   1      33.531  34.572  28.600  1.00  0.00     0.124 S 
ATOM     77  O   UNL A   1      33.082  33.508  27.708  1.00  0.00    -0.237 OA
ATOM     78  O   UNL A   1      32.651  34.878  29.723  1.00  0.00    -0.237 OA
ATOM     79  O   UNL A   1      34.129  35.734  27.948  1.00  0.00    -0.744 OA
ENDBRANCH  75  76
ENDBRANCH  43  68
BRANCH  55  80
ATOM     80  C   UNL A   1      39.829  33.594  37.099  1.00  0.00     0.058 A 
ATOM     81  C   UNL A   1      38.900  33.242  38.090  1.00  0.00     0.135 A 
ATOM     82  C   UNL A   1      40.464  34.841  37.206  1.00  0.00     0.135 A 
ATOM     83  F   UNL A   1      38.259  32.064  38.029  1.00  0.00    -0.206 F 
ATOM     84  C   UNL A   1      38.601  34.103  39.142  1.00  0.00     0.059 A 
ATOM     85  C   UNL A   1      40.196  35.708  38.261  1.00  0.00     0.059 A 
ATOM     86  F   UNL A   1      41.366  35.221  36.287  1.00  0.00    -0.206 F 
ATOM     87  C   UNL A   1      39.255  35.334  39.219  1.00  0.00     0.060 A 
BRANCH  87  88
ATOM     88  S   UNL A   1      38.885  36.429  40.607  1.00  0.00     0.124 S 
ATOM     89  O   UNL A   1      37.849  35.677  41.306  1.00  0.00    -0.237 OA
ATOM     90  O   UNL A   1      40.173  36.518  41.289  1.00  0.00    -0.237 OA
ATOM     91  O   UNL A   1      38.441  37.659  39.958  1.00  0.00    -0.744 OA
ENDBRANCH  87  88
ENDBRANCH  55  80
ENDBRANCH  29  30
ENDBRANCH  22  24
ENDBRANCH  21  22
ENDBRANCH  20  21
ENDBRANCH   1  20
TORSDOF 17
ENDMDL
MODEL 3
REMARK VINA RESULT:      -9.4      6.337     10.056
REMARK SMILES Cc1ccc(-c2noc(CCC(=O)OCCOC(=O)c3ccc(-c4c5nc(c(-c6c(F)cc(S(=O)(=O)[O-])cc6F)c6ccc([nH]6)c(-c6c(F)cc(S(=O)(=O)[O-])cc6F)c6nc(c(-c7c(F)cc(S(=O)(=O)[O-])cc7F)c7ccc4[nH]7)C=C6)C=C5)cc3)n2)cc1C
REMARK SMILES IDX 15 1 14 2 12 3 13 4 11 5 10 6 9 7 6 8 7 9 86 10 8 11 5 12
REMARK SMILES IDX 1 13 2 14 3 15 88 16 4 17 87 18 89 19 16 20 17 21 18 22
REMARK SMILES IDX 19 23 20 24 21 25 85 26 22 27 84 28 23 29 24 30 25 31 78 32
REMARK SMILES IDX 26 33 83 34 77 35 79 36 27 37 82 38 76 39 75 40 28 42 62 43
REMARK SMILES IDX 41 44 61 45 42 46 45 47 60 48 80 49 43 50 44 51 59 53 81 54
REMARK SMILES IDX 46 55 29 56 30 57 39 58 31 59 32 60 38 61 40 62 33 63 34 64
REMARK SMILES IDX 35 65 36 66 37 67 63 68 64 69 73 70 65 71 66 72 72 73 74 74
REMARK SMILES IDX 67 75 68 76 69 77 70 78 71 79 47 80 48 81 57 82 49 83 50 84
REMARK SMILES IDX 56 85 58 86 51 87 52 88 53 89 54 90 55 91
REMARK H PARENT 79 41 45 52
REMARK Flexibility Score: inf
ROOT
ATOM      1  C   UNL A   1      43.118  18.584  26.012  1.00  0.00     0.274 C 
ENDROOT
BRANCH   1   2
ATOM      2  O   UNL A   1      43.991  18.887  24.907  1.00  0.00    -0.462 OA
BRANCH   2   3
ATOM      3  C   UNL A   1      45.322  18.894  25.163  1.00  0.00     0.306 C 
ATOM      4  O   UNL A   1      46.041  17.905  25.165  1.00  0.00    -0.252 OA
BRANCH   3   5
ATOM      5  C   UNL A   1      45.829  20.272  25.514  1.00  0.00     0.132 C 
BRANCH   5   6
ATOM      6  C   UNL A   1      45.923  21.221  24.328  1.00  0.00     0.112 C 
BRANCH   6   7
ATOM      7  C   UNL A   1      46.028  22.632  24.758  1.00  0.00     0.227 A 
ATOM      8  C   UNL A   1      46.414  24.468  25.672  1.00  0.00     0.202 A 
ATOM      9  N   UNL A   1      45.655  24.806  24.620  1.00  0.00    -0.057 NA
ATOM     10  N   UNL A   1      46.655  23.123  25.800  1.00  0.00    -0.191 NA
ATOM     11  O   UNL A   1      45.403  23.579  24.000  1.00  0.00    -0.339 OA
BRANCH   8  12
ATOM     12  C   UNL A   1      46.998  25.421  26.585  1.00  0.00     0.023 A 
ATOM     13  C   UNL A   1      48.929  28.261  29.195  1.00  0.00     0.044 C 
ATOM     14  C   UNL A   1      48.244  27.250  28.318  1.00  0.00    -0.048 A 
ATOM     15  C   UNL A   1      47.936  27.607  26.994  1.00  0.00     0.004 A 
ATOM     16  C   UNL A   1      47.912  25.960  28.781  1.00  0.00    -0.047 A 
ATOM     17  C   UNL A   1      47.318  26.701  26.134  1.00  0.00     0.012 A 
ATOM     18  C   UNL A   1      47.292  25.054  27.902  1.00  0.00     0.015 A 
ATOM     19  C   UNL A   1      48.202  25.485  30.179  1.00  0.00     0.044 C 
ENDBRANCH   8  12
ENDBRANCH   6   7
ENDBRANCH   5   6
ENDBRANCH   3   5
ENDBRANCH   2   3
ENDBRANCH   1   2
BRANCH   1  20
ATOM     20  C   UNL A   1      41.825  19.399  25.942  1.00  0.00     0.275 C 
BRANCH  20  21
ATOM     21  O   UNL A   1      42.099  20.789  25.691  1.00  0.00    -0.458 OA
BRANCH  21  22
ATOM     22  C   UNL A   1      41.208  21.659  26.218  1.00  0.00     0.338 C 
ATOM     23  O   UNL A   1      39.994  21.618  26.127  1.00  0.00    -0.246 OA
BRANCH  22  24
ATOM     24  C   UNL A   1      41.912  22.633  27.064  1.00  0.00     0.060 A 
ATOM     25  C   UNL A   1      43.304  22.545  27.160  1.00  0.00     0.016 A 
ATOM     26  C   UNL A   1      41.203  23.574  27.810  1.00  0.00     0.016 A 
ATOM     27  C   UNL A   1      43.997  23.402  28.011  1.00  0.00     0.010 A 
ATOM     28  C   UNL A   1      41.901  24.436  28.661  1.00  0.00     0.010 A 
ATOM     29  C   UNL A   1      43.300  24.347  28.774  1.00  0.00    -0.014 A 
BRANCH  29  30
ATOM     30  C   UNL A   1      44.033  25.221  29.721  1.00  0.00     0.031 A 
ATOM     31  C   UNL A   1      44.316  26.649  29.353  1.00  0.00     0.074 A 
ATOM     32  C   UNL A   1      44.431  24.733  30.910  1.00  0.00     0.049 A 
ATOM     33  N   UNL A   1      45.000  27.551  30.007  1.00  0.00    -0.248 NA
ATOM     34  C   UNL A   1      43.753  27.122  28.078  1.00  0.00     0.031 C 
ATOM     35  C   UNL A   1      44.173  23.376  31.394  1.00  0.00     0.029 A 
ATOM     36  N   UNL A   1      45.140  25.322  31.925  1.00  0.00    -0.354 N 
ATOM     37  C   UNL A   1      44.961  28.697  29.221  1.00  0.00     0.074 A 
ATOM     38  C   UNL A   1      44.205  28.368  28.032  1.00  0.00     0.031 C 
ATOM     39  C   UNL A   1      44.710  23.239  32.618  1.00  0.00     0.029 A 
ATOM     40  C   UNL A   1      45.387  24.481  32.983  1.00  0.00     0.049 A 
ATOM     41  H   UNL A   1      45.441  26.260  31.900  1.00  0.00     0.167 HD
ATOM     42  C   UNL A   1      45.504  29.913  29.474  1.00  0.00     0.037 A 
ATOM     43  C   UNL A   1      46.099  24.683  34.109  1.00  0.00     0.037 A 
ATOM     44  C   UNL A   1      46.257  30.231  30.660  1.00  0.00     0.049 A 
ATOM     45  C   UNL A   1      46.756  26.018  34.332  1.00  0.00     0.074 A 
ATOM     46  C   UNL A   1      46.850  31.432  31.009  1.00  0.00     0.029 A 
ATOM     47  N   UNL A   1      46.524  29.340  31.690  1.00  0.00    -0.354 N 
ATOM     48  N   UNL A   1      46.721  27.091  33.577  1.00  0.00    -0.248 NA
ATOM     49  C   UNL A   1      47.557  26.168  35.555  1.00  0.00     0.031 C 
ATOM     50  C   UNL A   1      47.507  31.256  32.234  1.00  0.00     0.029 A 
ATOM     51  C   UNL A   1      47.289  29.958  32.666  1.00  0.00     0.049 A 
ATOM     52  H   UNL A   1      46.216  28.405  31.722  1.00  0.00     0.167 HD
ATOM     53  C   UNL A   1      47.475  28.050  34.245  1.00  0.00     0.074 A 
ATOM     54  C   UNL A   1      47.948  27.433  35.466  1.00  0.00     0.031 C 
ATOM     55  C   UNL A   1      47.748  29.327  33.879  1.00  0.00     0.037 A 
BRANCH  42  56
ATOM     56  C   UNL A   1      45.322  30.976  28.428  1.00  0.00     0.058 A 
ATOM     57  C   UNL A   1      44.139  31.728  28.337  1.00  0.00     0.135 A 
ATOM     58  C   UNL A   1      46.342  31.246  27.501  1.00  0.00     0.135 A 
ATOM     59  F   UNL A   1      43.127  31.499  29.188  1.00  0.00    -0.206 F 
ATOM     60  C   UNL A   1      43.961  32.683  27.342  1.00  0.00     0.059 A 
ATOM     61  C   UNL A   1      46.194  32.213  26.512  1.00  0.00     0.059 A 
ATOM     62  F   UNL A   1      47.494  30.556  27.544  1.00  0.00    -0.206 F 
ATOM     63  C   UNL A   1      44.991  32.912  26.427  1.00  0.00     0.060 A 
BRANCH  63  64
ATOM     64  S   UNL A   1      44.736  34.132  25.121  1.00  0.00     0.124 S 
ATOM     65  O   UNL A   1      43.737  35.004  25.731  1.00  0.00    -0.237 OA
ATOM     66  O   UNL A   1      46.067  34.708  24.962  1.00  0.00    -0.237 OA
ATOM     67  O   UNL A   1      44.266  33.329  23.995  1.00  0.00    -0.744 OA
ENDBRANCH  63  64
ENDBRANCH  42  56
BRANCH  43  68
ATOM     68  C   UNL A   1      46.227  23.592  35.109  1.00  0.00     0.058 A 
ATOM     69  C   UNL A   1      45.248  23.401  36.094  1.00  0.00     0.135 A 
ATOM     70  C   UNL A   1      47.318  22.710  35.089  1.00  0.00     0.135 A 
ATOM     71  F   UNL A   1      44.191  24.226  36.158  1.00  0.00    -0.206 F 
ATOM     72  C   UNL A   1      45.346  22.375  37.028  1.00  0.00     0.059 A 
ATOM     73  C   UNL A   1      47.428  21.664  35.999  1.00  0.00     0.059 A 
ATOM     74  F   UNL A   1      48.277  22.847  34.160  1.00  0.00    -0.206 F 
ATOM     75  C   UNL A   1      46.441  21.509  36.970  1.00  0.00     0.060 A 
BRANCH  75  76
ATOM     76  S   UNL A   1      46.530  20.145  38.151  1.00  0.00     0.124 S 
ATOM     77  O   UNL A   1      46.074  20.789  39.377  1.00  0.00    -0.237 OA
ATOM     78  O   UNL A   1      45.618  19.168  37.564  1.00  0.00    -0.237 OA
ATOM     79  O   UNL A   1      47.940  19.769  38.120  1.00  0.00    -0.744 OA
ENDBRANCH  75  76
ENDBRANCH  43  68
BRANCH  55  80
ATOM     80  C   UNL A   1      48.571  30.152  34.827  1.00  0.00     0.058 A 
ATOM     81  C   UNL A   1      49.968  30.226  34.715  1.00  0.00     0.135 A 
ATOM     82  C   UNL A   1      47.951  30.912  35.831  1.00  0.00     0.135 A 
ATOM     83  F   UNL A   1      50.610  29.512  33.778  1.00  0.00    -0.206 F 
ATOM     84  C   UNL A   1      50.724  31.014  35.579  1.00  0.00     0.059 A 
ATOM     85  C   UNL A   1      48.684  31.723  36.691  1.00  0.00     0.059 A 
ATOM     86  F   UNL A   1      46.616  30.882  35.974  1.00  0.00    -0.206 F 
ATOM     87  C   UNL A   1      50.073  31.760  36.564  1.00  0.00     0.060 A 
BRANCH  87  88
ATOM     88  S   UNL A   1      51.059  32.806  37.656  1.00  0.00     0.124 S 
ATOM     89  O   UNL A   1      51.543  33.823  36.729  1.00  0.00    -0.237 OA
ATOM     90  O   UNL A   1      50.074  33.257  38.634  1.00  0.00    -0.237 OA
ATOM     91  O   UNL A   1      52.074  31.892  38.174  1.00  0.00    -0.744 OA
ENDBRANCH  87  88
ENDBRANCH  55  80
ENDBRANCH  29  30
ENDBRANCH  22  24
ENDBRANCH  21  22
ENDBRANCH  20  21
ENDBRANCH   1  20
TORSDOF 17
ENDMDL
