MODEL 1
REMARK VINA RESULT:     -12.3      0.000      0.000
REMARK SMILES O=C(OCCOC(=O)c1cc(NC(=O)c2cccs2)ccc1N1CCC[C@H](C[NH+]2CCCC2)C1)c1ccc(-c2c3nc(c(-c4c(F)cc(S(=O)(=O)[O-])cc4F)c4ccc([nH]4)c(-c4c(F)cc(S(=O)(=O)[O-])cc4F)c4nc(c(-c5c(F)cc(S(=O)(=O)[O-])cc5F)c5ccc2[nH]5)C=C4)C=C3)cc1
REMARK SMILES IDX 4 1 3 2 2 3 1 4 35 5 36 6 100 7 37 8 99 9 38 10 39 11 40 12
REMARK SMILES IDX 93 13 41 14 98 15 92 16 94 17 42 18 97 19 91 20 90 21 43 23
REMARK SMILES IDX 77 24 56 25 76 26 57 27 60 28 75 29 95 30 58 31 59 32 74 34
REMARK SMILES IDX 96 35 61 36 44 37 45 38 54 39 46 40 47 41 53 42 55 43 48 44
REMARK SMILES IDX 49 45 50 46 51 47 52 48 78 49 79 50 88 51 80 52 81 53 87 54
REMARK SMILES IDX 89 55 82 56 83 57 84 58 85 59 86 60 62 61 63 62 72 63 64 64
REMARK SMILES IDX 65 65 71 66 73 67 66 68 67 69 68 70 69 71 70 72 5 73 6 74
REMARK SMILES IDX 7 75 8 76 9 77 10 78 22 79 11 80 21 81 20 82 23 83 24 84
REMARK SMILES IDX 34 85 25 86 27 87 26 88 28 89 29 90 30 91 33 92 31 94 32 95
REMARK SMILES IDX 12 96 13 97 14 99 15 100 16 101 19 102 17 103 18 104
REMARK H PARENT 94 22 60 33 29 93 12 98
REMARK Flexibility Score: inf
ROOT
ATOM      1  C   UNL A   1      32.410  29.203  27.227  1.00  0.00     0.275 C 
ENDROOT
BRANCH   1   2
ATOM      2  O   UNL A   1      33.805  29.084  27.590  1.00  0.00    -0.458 OA
BRANCH   2   3
ATOM      3  C   UNL A   1      34.513  30.169  27.972  1.00  0.00     0.338 C 
ATOM      4  O   UNL A   1      33.988  31.256  28.180  1.00  0.00    -0.246 OA
BRANCH   3   5
ATOM      5  C   UNL A   1      35.954  29.899  28.271  1.00  0.00     0.060 A 
ATOM      6  C   UNL A   1      36.390  29.407  29.501  1.00  0.00     0.016 A 
ATOM      7  C   UNL A   1      36.898  30.083  27.249  1.00  0.00     0.016 A 
ATOM      8  C   UNL A   1      37.732  29.072  29.688  1.00  0.00     0.010 A 
ATOM      9  C   UNL A   1      38.245  29.747  27.428  1.00  0.00     0.010 A 
ATOM     10  C   UNL A   1      38.667  29.227  28.652  1.00  0.00    -0.014 A 
BRANCH  10  11
ATOM     11  C   UNL A   1      40.090  28.957  28.967  1.00  0.00     0.031 A 
ATOM     12  C   UNL A   1      40.660  27.671  28.491  1.00  0.00     0.074 A 
ATOM     13  C   UNL A   1      40.874  29.880  29.554  1.00  0.00     0.049 A 
ATOM     14  N   UNL A   1      41.908  27.314  28.412  1.00  0.00    -0.248 NA
ATOM     15  C   UNL A   1      39.691  26.643  28.083  1.00  0.00     0.031 C 
ATOM     16  C   UNL A   1      40.365  31.079  30.183  1.00  0.00     0.029 A 
ATOM     17  N   UNL A   1      42.233  30.008  29.683  1.00  0.00    -0.354 N 
ATOM     18  C   UNL A   1      41.880  25.999  27.982  1.00  0.00     0.074 A 
ATOM     19  C   UNL A   1      40.493  25.629  27.799  1.00  0.00     0.031 C 
ATOM     20  C   UNL A   1      41.373  31.912  30.480  1.00  0.00     0.029 A 
ATOM     21  C   UNL A   1      42.622  31.262  30.122  1.00  0.00     0.049 A 
ATOM     22  H   UNL A   1      42.867  29.283  29.484  1.00  0.00     0.167 HD
ATOM     23  C   UNL A   1      42.933  25.172  27.801  1.00  0.00     0.037 A 
ATOM     24  C   UNL A   1      43.849  31.820  30.194  1.00  0.00     0.037 A 
ATOM     25  C   UNL A   1      44.290  25.566  28.060  1.00  0.00     0.049 A 
ATOM     26  C   UNL A   1      45.009  30.924  29.853  1.00  0.00     0.074 A 
ATOM     27  C   UNL A   1      45.440  24.806  27.982  1.00  0.00     0.029 A 
ATOM     28  N   UNL A   1      44.674  26.840  28.469  1.00  0.00    -0.354 N 
ATOM     29  N   UNL A   1      44.979  29.688  29.408  1.00  0.00    -0.248 NA
ATOM     30  C   UNL A   1      46.358  31.458  30.067  1.00  0.00     0.031 C 
ATOM     31  C   UNL A   1      46.516  25.611  28.374  1.00  0.00     0.029 A 
ATOM     32  C   UNL A   1      46.045  26.888  28.648  1.00  0.00     0.049 A 
ATOM     33  H   UNL A   1      44.060  27.596  28.608  1.00  0.00     0.167 HD
ATOM     34  C   UNL A   1      46.301  29.279  29.333  1.00  0.00     0.074 A 
ATOM     35  C   UNL A   1      47.110  30.425  29.706  1.00  0.00     0.031 C 
ATOM     36  C   UNL A   1      46.802  28.056  29.027  1.00  0.00     0.037 A 
BRANCH  23  37
ATOM     37  C   UNL A   1      42.608  23.768  27.397  1.00  0.00     0.058 A 
ATOM     38  C   UNL A   1      42.467  22.742  28.345  1.00  0.00     0.135 A 
ATOM     39  C   UNL A   1      42.531  23.424  26.039  1.00  0.00     0.135 A 
ATOM     40  F   UNL A   1      42.582  23.012  29.656  1.00  0.00    -0.206 F 
ATOM     41  C   UNL A   1      42.293  21.418  27.960  1.00  0.00     0.059 A 
ATOM     42  C   UNL A   1      42.332  22.110  25.631  1.00  0.00     0.059 A 
ATOM     43  F   UNL A   1      42.688  24.363  25.094  1.00  0.00    -0.206 F 
ATOM     44  C   UNL A   1      42.233  21.112  26.599  1.00  0.00     0.060 A 
BRANCH  44  45
ATOM     45  S   UNL A   1      42.036  19.386  26.114  1.00  0.00     0.124 S 
ATOM     46  O   UNL A   1      40.607  19.327  25.820  1.00  0.00    -0.237 OA
ATOM     47  O   UNL A   1      42.925  19.285  24.960  1.00  0.00    -0.237 OA
ATOM     48  O   UNL A   1      42.466  18.650  27.297  1.00  0.00    -0.744 OA
ENDBRANCH  44  45
ENDBRANCH  23  37
BRANCH  24  49
ATOM     49  C   UNL A   1      44.054  33.251  30.581  1.00  0.00     0.058 A 
ATOM     50  C   UNL A   1      44.262  33.611  31.925  1.00  0.00     0.135 A 
ATOM     51  C   UNL A   1      44.040  34.293  29.640  1.00  0.00     0.135 A 
ATOM     52  F   UNL A   1      44.290  32.664  32.875  1.00  0.00    -0.206 F 
ATOM     53  C   UNL A   1      44.418  34.939  32.321  1.00  0.00     0.059 A 
ATOM     54  C   UNL A   1      44.228  35.626  30.006  1.00  0.00     0.059 A 
ATOM     55  F   UNL A   1      43.858  34.022  28.338  1.00  0.00    -0.206 F 
ATOM     56  C   UNL A   1      44.394  35.943  31.354  1.00  0.00     0.060 A 
BRANCH  56  57
ATOM     57  S   UNL A   1      44.621  37.663  31.867  1.00  0.00     0.124 S 
ATOM     58  O   UNL A   1      43.708  37.754  32.999  1.00  0.00    -0.237 OA
ATOM     59  O   UNL A   1      46.043  37.703  32.194  1.00  0.00    -0.237 OA
ATOM     60  O   UNL A   1      44.236  38.416  30.679  1.00  0.00    -0.744 OA
ENDBRANCH  56  57
ENDBRANCH  24  49
BRANCH  36  61
ATOM     61  C   UNL A   1      48.291  27.906  29.107  1.00  0.00     0.058 A 
ATOM     62  C   UNL A   1      48.922  27.524  30.301  1.00  0.00     0.135 A 
ATOM     63  C   UNL A   1      49.082  28.076  27.962  1.00  0.00     0.135 A 
ATOM     64  F   UNL A   1      48.203  27.357  31.423  1.00  0.00    -0.206 F 
ATOM     65  C   UNL A   1      50.295  27.333  30.361  1.00  0.00     0.059 A 
ATOM     66  C   UNL A   1      50.454  27.866  27.993  1.00  0.00     0.059 A 
ATOM     67  F   UNL A   1      48.517  28.432  26.797  1.00  0.00    -0.206 F 
ATOM     68  C   UNL A   1      51.052  27.503  29.200  1.00  0.00     0.060 A 
BRANCH  68  69
ATOM     69  S   UNL A   1      52.830  27.209  29.278  1.00  0.00     0.124 S 
ATOM     70  O   UNL A   1      52.918  26.242  30.367  1.00  0.00    -0.237 OA
ATOM     71  O   UNL A   1      53.120  26.691  27.944  1.00  0.00    -0.237 OA
ATOM     72  O   UNL A   1      53.380  28.531  29.564  1.00  0.00    -0.744 OA
ENDBRANCH  68  69
ENDBRANCH  36  61
ENDBRANCH  10  11
ENDBRANCH   3   5
ENDBRANCH   2   3
ENDBRANCH   1   2
BRANCH   1  73
ATOM     73  C   UNL A   1      32.038  29.522  25.778  1.00  0.00     0.275 C 
BRANCH  73  74
ATOM     74  O   UNL A   1      33.060  29.111  24.867  1.00  0.00    -0.458 OA
BRANCH  74  75
ATOM     75  C   UNL A   1      32.630  28.775  23.627  1.00  0.00     0.340 C 
ATOM     76  O   UNL A   1      33.069  29.202  22.562  1.00  0.00    -0.246 OA
BRANCH  75  77
ATOM     77  C   UNL A   1      31.582  27.744  23.689  1.00  0.00     0.085 A 
ATOM     78  C   UNL A   1      30.246  28.179  23.489  1.00  0.00     0.044 A 
ATOM     79  C   UNL A   1      31.888  26.411  23.993  1.00  0.00     0.051 A 
ATOM     80  C   UNL A   1      29.180  27.298  23.628  1.00  0.00     0.042 A 
ATOM     81  C   UNL A   1      30.794  25.581  24.250  1.00  0.00     0.029 A 
ATOM     82  C   UNL A   1      29.470  26.003  24.063  1.00  0.00     0.028 A 
BRANCH  79  83
ATOM     83  N   UNL A   1      33.157  25.878  24.045  1.00  0.00    -0.370 N 
ATOM     84  C   UNL A   1      33.870  25.514  22.822  1.00  0.00     0.116 C 
ATOM     85  C   UNL A   1      33.913  25.795  25.280  1.00  0.00     0.126 C 
ATOM     86  C   UNL A   1      34.415  24.094  22.927  1.00  0.00     0.022 C 
ATOM     87  C   UNL A   1      34.386  24.339  25.467  1.00  0.00     0.064 C 
ATOM     88  C   UNL A   1      35.197  23.909  24.224  1.00  0.00     0.013 C 
BRANCH  87  89
ATOM     89  C   UNL A   1      33.148  23.458  25.776  1.00  0.00     0.267 C 
BRANCH  89  90
ATOM     90  N   UNL A   1      33.320  22.109  26.298  1.00  0.00    -0.335 N 
ATOM     91  C   UNL A   1      34.658  21.750  26.742  1.00  0.00     0.262 C 
ATOM     92  C   UNL A   1      32.817  21.021  25.458  1.00  0.00     0.262 C 
ATOM     93  H   UNL A   1      32.719  22.192  27.119  1.00  0.00     0.348 HD
ATOM     94  C   UNL A   1      35.231  20.915  25.618  1.00  0.00     0.067 C 
ATOM     95  C   UNL A   1      34.025  20.177  25.065  1.00  0.00     0.067 C 
ENDBRANCH  89  90
ENDBRANCH  87  89
ENDBRANCH  79  83
BRANCH  80  96
ATOM     96  N   UNL A   1      27.817  27.576  23.414  1.00  0.00    -0.321 N 
ATOM     97  C   UNL A   1      27.061  28.702  23.170  1.00  0.00     0.265 C 
ATOM     98  H   UNL A   1      27.264  26.762  23.446  1.00  0.00     0.170 HD
ATOM     99  O   UNL A   1      25.839  28.538  23.096  1.00  0.00    -0.268 OA
BRANCH  97 100
ATOM    100  C   UNL A   1      27.664  29.981  22.898  1.00  0.00     0.092 A 
ATOM    101  C   UNL A   1      28.047  30.940  23.815  1.00  0.00     0.025 A 
ATOM    102  S   UNL A   1      28.211  30.359  21.323  1.00  0.00    -0.139 S 
ATOM    103  C   UNL A   1      28.637  32.074  23.189  1.00  0.00     0.012 A 
ATOM    104  C   UNL A   1      28.751  31.905  21.826  1.00  0.00     0.065 A 
ENDBRANCH  97 100
ENDBRANCH  80  96
ENDBRANCH  75  77
ENDBRANCH  74  75
ENDBRANCH  73  74
ENDBRANCH   1  73
TORSDOF 19
ENDMDL
MODEL 2
REMARK VINA RESULT:     -12.0      4.087     10.108
REMARK SMILES O=C(OCCOC(=O)c1cc(NC(=O)c2cccs2)ccc1N1CCC[C@H](C[NH+]2CCCC2)C1)c1ccc(-c2c3nc(c(-c4c(F)cc(S(=O)(=O)[O-])cc4F)c4ccc([nH]4)c(-c4c(F)cc(S(=O)(=O)[O-])cc4F)c4nc(c(-c5c(F)cc(S(=O)(=O)[O-])cc5F)c5ccc2[nH]5)C=C4)C=C3)cc1
REMARK SMILES IDX 4 1 3 2 2 3 1 4 35 5 36 6 100 7 37 8 99 9 38 10 39 11 40 12
REMARK SMILES IDX 93 13 41 14 98 15 92 16 94 17 42 18 97 19 91 20 90 21 43 23
REMARK SMILES IDX 77 24 56 25 76 26 57 27 60 28 75 29 95 30 58 31 59 32 74 34
REMARK SMILES IDX 96 35 61 36 44 37 45 38 54 39 46 40 47 41 53 42 55 43 48 44
REMARK SMILES IDX 49 45 50 46 51 47 52 48 78 49 79 50 88 51 80 52 81 53 87 54
REMARK SMILES IDX 89 55 82 56 83 57 84 58 85 59 86 60 62 61 63 62 72 63 64 64
REMARK SMILES IDX 65 65 71 66 73 67 66 68 67 69 68 70 69 71 70 72 5 73 6 74
REMARK SMILES IDX 7 75 8 76 9 77 10 78 22 79 11 80 21 81 20 82 23 83 24 84
REMARK SMILES IDX 34 85 25 86 27 87 26 88 28 89 29 90 30 91 33 92 31 94 32 95
REMARK SMILES IDX 12 96 13 97 14 99 15 100 16 101 19 102 17 103 18 104
REMARK H PARENT 94 22 60 33 29 93 12 98
REMARK Flexibility Score: inf
ROOT
ATOM      1  C   UNL A   1      37.056  22.646  24.513  1.00  0.00     0.275 C 
ENDROOT
BRANCH   1   2
ATOM      2  O   UNL A   1      37.605  23.674  25.370  1.00  0.00    -0.458 OA
BRANCH   2   3
ATOM      3  C   UNL A   1      38.714  23.439  26.105  1.00  0.00     0.338 C 
ATOM      4  O   UNL A   1      39.370  22.411  25.993  1.00  0.00    -0.246 OA
BRANCH   3   5
ATOM      5  C   UNL A   1      39.160  24.593  26.946  1.00  0.00     0.060 A 
ATOM      6  C   UNL A   1      38.785  24.743  28.281  1.00  0.00     0.016 A 
ATOM      7  C   UNL A   1      40.047  25.527  26.389  1.00  0.00     0.016 A 
ATOM      8  C   UNL A   1      39.316  25.780  29.048  1.00  0.00     0.010 A 
ATOM      9  C   UNL A   1      40.586  26.569  27.153  1.00  0.00     0.010 A 
ATOM     10  C   UNL A   1      40.229  26.693  28.495  1.00  0.00    -0.014 A 
BRANCH  10  11
ATOM     11  C   UNL A   1      40.657  27.832  29.343  1.00  0.00     0.031 A 
ATOM     12  C   UNL A   1      39.670  28.918  29.572  1.00  0.00     0.074 A 
ATOM     13  C   UNL A   1      41.843  27.837  29.978  1.00  0.00     0.049 A 
ATOM     14  N   UNL A   1      39.701  29.872  30.456  1.00  0.00    -0.248 NA
ATOM     15  C   UNL A   1      38.516  28.950  28.662  1.00  0.00     0.031 C 
ATOM     16  C   UNL A   1      42.910  26.906  29.687  1.00  0.00     0.029 A 
ATOM     17  N   UNL A   1      42.347  28.580  31.014  1.00  0.00    -0.354 N 
ATOM     18  C   UNL A   1      38.588  30.649  30.186  1.00  0.00     0.074 A 
ATOM     19  C   UNL A   1      37.894  30.045  29.070  1.00  0.00     0.031 C 
ATOM     20  C   UNL A   1      43.874  26.997  30.615  1.00  0.00     0.029 A 
ATOM     21  C   UNL A   1      43.518  28.060  31.538  1.00  0.00     0.049 A 
ATOM     22  H   UNL A   1      41.920  29.400  31.351  1.00  0.00     0.167 HD
ATOM     23  C   UNL A   1      38.217  31.792  30.802  1.00  0.00     0.037 A 
ATOM     24  C   UNL A   1      44.199  28.395  32.655  1.00  0.00     0.037 A 
ATOM     25  C   UNL A   1      38.977  32.391  31.865  1.00  0.00     0.049 A 
ATOM     26  C   UNL A   1      43.689  29.591  33.413  1.00  0.00     0.074 A 
ATOM     27  C   UNL A   1      38.748  33.580  32.527  1.00  0.00     0.029 A 
ATOM     28  N   UNL A   1      40.135  31.842  32.408  1.00  0.00    -0.354 N 
ATOM     29  N   UNL A   1      42.611  30.304  33.177  1.00  0.00    -0.248 NA
ATOM     30  C   UNL A   1      44.494  30.066  34.542  1.00  0.00     0.031 C 
ATOM     31  C   UNL A   1      39.785  33.767  33.449  1.00  0.00     0.029 A 
ATOM     32  C   UNL A   1      40.634  32.669  33.398  1.00  0.00     0.049 A 
ATOM     33  H   UNL A   1      40.539  30.990  32.128  1.00  0.00     0.167 HD
ATOM     34  C   UNL A   1      42.632  31.340  34.098  1.00  0.00     0.074 A 
ATOM     35  C   UNL A   1      43.790  31.117  34.944  1.00  0.00     0.031 C 
ATOM     36  C   UNL A   1      41.797  32.403  34.209  1.00  0.00     0.037 A 
BRANCH  23  37
ATOM     37  C   UNL A   1      37.000  32.472  30.256  1.00  0.00     0.058 A 
ATOM     38  C   UNL A   1      37.090  33.458  29.260  1.00  0.00     0.135 A 
ATOM     39  C   UNL A   1      35.736  32.202  30.803  1.00  0.00     0.135 A 
ATOM     40  F   UNL A   1      38.284  33.787  28.741  1.00  0.00    -0.206 F 
ATOM     41  C   UNL A   1      35.974  34.176  28.848  1.00  0.00     0.059 A 
ATOM     42  C   UNL A   1      34.601  32.890  30.387  1.00  0.00     0.059 A 
ATOM     43  F   UNL A   1      35.602  31.289  31.777  1.00  0.00    -0.206 F 
ATOM     44  C   UNL A   1      34.734  33.888  29.423  1.00  0.00     0.060 A 
BRANCH  44  45
ATOM     45  S   UNL A   1      33.299  34.848  28.900  1.00  0.00     0.124 S 
ATOM     46  O   UNL A   1      32.576  35.000  30.158  1.00  0.00    -0.237 OA
ATOM     47  O   UNL A   1      33.915  36.061  28.370  1.00  0.00    -0.237 OA
ATOM     48  O   UNL A   1      32.662  33.989  27.907  1.00  0.00    -0.744 OA
ENDBRANCH  44  45
ENDBRANCH  23  37
BRANCH  24  49
ATOM     49  C   UNL A   1      45.390  27.620  33.126  1.00  0.00     0.058 A 
ATOM     50  C   UNL A   1      45.237  26.514  33.980  1.00  0.00     0.135 A 
ATOM     51  C   UNL A   1      46.701  27.959  32.753  1.00  0.00     0.135 A 
ATOM     52  F   UNL A   1      44.011  26.135  34.373  1.00  0.00    -0.206 F 
ATOM     53  C   UNL A   1      46.330  25.796  34.467  1.00  0.00     0.059 A 
ATOM     54  C   UNL A   1      47.808  27.236  33.198  1.00  0.00     0.059 A 
ATOM     55  F   UNL A   1      46.920  28.996  31.931  1.00  0.00    -0.206 F 
ATOM     56  C   UNL A   1      47.615  26.169  34.074  1.00  0.00     0.060 A 
BRANCH  56  57
ATOM     57  S   UNL A   1      49.029  25.221  34.685  1.00  0.00     0.124 S 
ATOM     58  O   UNL A   1      49.637  24.765  33.442  1.00  0.00    -0.237 OA
ATOM     59  O   UNL A   1      49.780  26.229  35.427  1.00  0.00    -0.237 OA
ATOM     60  O   UNL A   1      48.405  24.186  35.503  1.00  0.00    -0.744 OA
ENDBRANCH  56  57
ENDBRANCH  24  49
BRANCH  36  61
ATOM     61  C   UNL A   1      42.130  33.406  35.271  1.00  0.00     0.058 A 
ATOM     62  C   UNL A   1      42.944  34.515  34.996  1.00  0.00     0.135 A 
ATOM     63  C   UNL A   1      41.573  33.291  36.552  1.00  0.00     0.135 A 
ATOM     64  F   UNL A   1      43.504  34.661  33.785  1.00  0.00    -0.206 F 
ATOM     65  C   UNL A   1      43.210  35.472  35.966  1.00  0.00     0.059 A 
ATOM     66  C   UNL A   1      41.805  34.249  37.530  1.00  0.00     0.059 A 
ATOM     67  F   UNL A   1      40.781  32.249  36.854  1.00  0.00    -0.206 F 
ATOM     68  C   UNL A   1      42.632  35.331  37.229  1.00  0.00     0.060 A 
BRANCH  68  69
ATOM     69  S   UNL A   1      42.946  36.604  38.468  1.00  0.00     0.124 S 
ATOM     70  O   UNL A   1      43.339  35.799  39.620  1.00  0.00    -0.237 OA
ATOM     71  O   UNL A   1      44.010  37.388  37.847  1.00  0.00    -0.237 OA
ATOM     72  O   UNL A   1      41.660  37.287  38.586  1.00  0.00    -0.744 OA
ENDBRANCH  68  69
ENDBRANCH  36  61
ENDBRANCH  10  11
ENDBRANCH   3   5
ENDBRANCH   2   3
ENDBRANCH   1   2
BRANCH   1  73
ATOM     73  C   UNL A   1      36.125  21.590  25.111  1.00  0.00     0.275 C 
BRANCH  73  74
ATOM     74  O   UNL A   1      35.489  22.060  26.303  1.00  0.00    -0.458 OA
BRANCH  74  75
ATOM     75  C   UNL A   1      34.220  21.626  26.490  1.00  0.00     0.340 C 
ATOM     76  O   UNL A   1      33.742  21.201  27.540  1.00  0.00    -0.246 OA
BRANCH  75  77
ATOM     77  C   UNL A   1      33.416  21.791  25.270  1.00  0.00     0.085 A 
ATOM     78  C   UNL A   1      33.144  20.617  24.520  1.00  0.00     0.044 A 
ATOM     79  C   UNL A   1      32.992  23.056  24.841  1.00  0.00     0.051 A 
ATOM     80  C   UNL A   1      32.479  20.686  23.301  1.00  0.00     0.042 A 
ATOM     81  C   UNL A   1      32.441  23.109  23.559  1.00  0.00     0.029 A 
ATOM     82  C   UNL A   1      32.177  21.956  22.806  1.00  0.00     0.028 A 
BRANCH  79  83
ATOM     83  N   UNL A   1      33.075  24.216  25.581  1.00  0.00    -0.370 N 
ATOM     84  C   UNL A   1      32.162  24.462  26.695  1.00  0.00     0.116 C 
ATOM     85  C   UNL A   1      34.152  25.172  25.407  1.00  0.00     0.126 C 
ATOM     86  C   UNL A   1      31.528  25.842  26.568  1.00  0.00     0.022 C 
ATOM     87  C   UNL A   1      33.534  26.565  25.167  1.00  0.00     0.064 C 
ATOM     88  C   UNL A   1      32.595  26.909  26.344  1.00  0.00     0.013 C 
BRANCH  87  89
ATOM     89  C   UNL A   1      32.860  26.567  23.771  1.00  0.00     0.267 C 
BRANCH  89  90
ATOM     90  N   UNL A   1      32.477  27.825  23.143  1.00  0.00    -0.335 N 
ATOM     91  C   UNL A   1      32.602  29.022  23.960  1.00  0.00     0.262 C 
ATOM     92  C   UNL A   1      31.163  27.853  22.500  1.00  0.00     0.262 C 
ATOM     93  H   UNL A   1      33.196  27.852  22.419  1.00  0.00     0.348 HD
ATOM     94  C   UNL A   1      31.193  29.330  24.419  1.00  0.00     0.067 C 
ATOM     95  C   UNL A   1      30.329  28.883  23.255  1.00  0.00     0.067 C 
ENDBRANCH  89  90
ENDBRANCH  87  89
ENDBRANCH  79  83
BRANCH  80  96
ATOM     96  N   UNL A   1      32.102  19.608  22.479  1.00  0.00    -0.321 N 
ATOM     97  C   UNL A   1      32.279  18.241  22.493  1.00  0.00     0.265 C 
ATOM     98  H   UNL A   1      31.580  19.904  21.698  1.00  0.00     0.170 HD
ATOM     99  O   UNL A   1      31.832  17.620  21.525  1.00  0.00    -0.268 OA
BRANCH  97 100
ATOM    100  C   UNL A   1      32.849  17.557  23.624  1.00  0.00     0.092 A 
ATOM    101  C   UNL A   1      32.246  17.298  24.839  1.00  0.00     0.025 A 
ATOM    102  S   UNL A   1      34.346  16.744  23.476  1.00  0.00    -0.139 S 
ATOM    103  C   UNL A   1      33.101  16.574  25.717  1.00  0.00     0.012 A 
ATOM    104  C   UNL A   1      34.294  16.242  25.113  1.00  0.00     0.065 A 
ENDBRANCH  97 100
ENDBRANCH  80  96
ENDBRANCH  75  77
ENDBRANCH  74  75
ENDBRANCH  73  74
ENDBRANCH   1  73
TORSDOF 19
ENDMDL
MODEL 3
REMARK VINA RESULT:     -11.6      3.278      8.411
REMARK SMILES O=C(OCCOC(=O)c1cc(NC(=O)c2cccs2)ccc1N1CCC[C@H](C[NH+]2CCCC2)C1)c1ccc(-c2c3nc(c(-c4c(F)cc(S(=O)(=O)[O-])cc4F)c4ccc([nH]4)c(-c4c(F)cc(S(=O)(=O)[O-])cc4F)c4nc(c(-c5c(F)cc(S(=O)(=O)[O-])cc5F)c5ccc2[nH]5)C=C4)C=C3)cc1
REMARK SMILES IDX 4 1 3 2 2 3 1 4 35 5 36 6 100 7 37 8 99 9 38 10 39 11 40 12
REMARK SMILES IDX 93 13 41 14 98 15 92 16 94 17 42 18 97 19 91 20 90 21 43 23
REMARK SMILES IDX 77 24 56 25 76 26 57 27 60 28 75 29 95 30 58 31 59 32 74 34
REMARK SMILES IDX 96 35 61 36 44 37 45 38 54 39 46 40 47 41 53 42 55 43 48 44
REMARK SMILES IDX 49 45 50 46 51 47 52 48 78 49 79 50 88 51 80 52 81 53 87 54
REMARK SMILES IDX 89 55 82 56 83 57 84 58 85 59 86 60 62 61 63 62 72 63 64 64
REMARK SMILES IDX 65 65 71 66 73 67 66 68 67 69 68 70 69 71 70 72 5 73 6 74
REMARK SMILES IDX 7 75 8 76 9 77 10 78 22 79 11 80 21 81 20 82 23 83 24 84
REMARK SMILES IDX 34 85 25 86 27 87 26 88 28 89 29 90 30 91 33 92 31 94 32 95
REMARK SMILES IDX 12 96 13 97 14 99 15 100 16 101 19 102 17 103 18 104
REMARK H PARENT 94 22 60 33 29 93 12 98
REMARK Flexibility Score: inf
ROOT
ATOM      1  C   UNL A   1      37.748  21.433  25.217  1.00  0.00     0.275 C 
ENDROOT
BRANCH   1   2
ATOM      2  O   UNL A   1      38.506  22.561  25.712  1.00  0.00    -0.458 OA
BRANCH   2   3
ATOM      3  C   UNL A   1      39.481  22.385  26.631  1.00  0.00     0.338 C 
ATOM      4  O   UNL A   1      39.900  21.277  26.940  1.00  0.00    -0.246 OA
BRANCH   3   5
ATOM      5  C   UNL A   1      40.110  23.651  27.120  1.00  0.00     0.060 A 
ATOM      6  C   UNL A   1      39.727  24.910  26.660  1.00  0.00     0.016 A 
ATOM      7  C   UNL A   1      41.079  23.572  28.133  1.00  0.00     0.016 A 
ATOM      8  C   UNL A   1      40.272  26.062  27.228  1.00  0.00     0.010 A 
ATOM      9  C   UNL A   1      41.629  24.723  28.710  1.00  0.00     0.010 A 
ATOM     10  C   UNL A   1      41.217  25.979  28.264  1.00  0.00    -0.014 A 
BRANCH  10  11
ATOM     11  C   UNL A   1      41.832  27.244  28.734  1.00  0.00     0.031 A 
ATOM     12  C   UNL A   1      43.242  27.500  28.347  1.00  0.00     0.074 A 
ATOM     13  C   UNL A   1      41.118  28.182  29.382  1.00  0.00     0.049 A 
ATOM     14  N   UNL A   1      43.915  28.611  28.408  1.00  0.00    -0.248 NA
ATOM     15  C   UNL A   1      44.003  26.339  27.859  1.00  0.00     0.031 C 
ATOM     16  C   UNL A   1      39.799  27.948  29.929  1.00  0.00     0.029 A 
ATOM     17  N   UNL A   1      41.340  29.508  29.653  1.00  0.00    -0.354 N 
ATOM     18  C   UNL A   1      45.196  28.281  28.004  1.00  0.00     0.074 A 
ATOM     19  C   UNL A   1      45.202  26.870  27.683  1.00  0.00     0.031 C 
ATOM     20  C   UNL A   1      39.243  29.105  30.315  1.00  0.00     0.029 A 
ATOM     21  C   UNL A   1      40.210  30.168  30.105  1.00  0.00     0.049 A 
ATOM     22  H   UNL A   1      42.213  29.945  29.536  1.00  0.00     0.167 HD
ATOM     23  C   UNL A   1      46.275  29.091  27.953  1.00  0.00     0.037 A 
ATOM     24  C   UNL A   1      39.987  31.485  30.296  1.00  0.00     0.037 A 
ATOM     25  C   UNL A   1      46.235  30.473  28.347  1.00  0.00     0.049 A 
ATOM     26  C   UNL A   1      41.169  32.397  30.098  1.00  0.00     0.074 A 
ATOM     27  C   UNL A   1      47.270  31.384  28.407  1.00  0.00     0.029 A 
ATOM     28  N   UNL A   1      45.086  31.137  28.768  1.00  0.00    -0.354 N 
ATOM     29  N   UNL A   1      42.374  32.086  29.677  1.00  0.00    -0.248 NA
ATOM     30  C   UNL A   1      40.993  33.811  30.443  1.00  0.00     0.031 C 
ATOM     31  C   UNL A   1      46.754  32.590  28.895  1.00  0.00     0.029 A 
ATOM     32  C   UNL A   1      45.387  32.447  29.091  1.00  0.00     0.049 A 
ATOM     33  H   UNL A   1      44.192  30.732  28.826  1.00  0.00     0.167 HD
ATOM     34  C   UNL A   1      43.115  33.255  29.751  1.00  0.00     0.074 A 
ATOM     35  C   UNL A   1      42.202  34.297  30.185  1.00  0.00     0.031 C 
ATOM     36  C   UNL A   1      44.439  33.445  29.525  1.00  0.00     0.037 A 
BRANCH  23  37
ATOM     37  C   UNL A   1      47.565  28.450  27.545  1.00  0.00     0.058 A 
ATOM     38  C   UNL A   1      47.895  28.252  26.195  1.00  0.00     0.135 A 
ATOM     39  C   UNL A   1      48.439  27.942  28.518  1.00  0.00     0.135 A 
ATOM     40  F   UNL A   1      47.066  28.676  25.227  1.00  0.00    -0.206 F 
ATOM     41  C   UNL A   1      49.031  27.542  25.823  1.00  0.00     0.059 A 
ATOM     42  C   UNL A   1      49.595  27.251  28.169  1.00  0.00     0.059 A 
ATOM     43  F   UNL A   1      48.153  28.080  29.822  1.00  0.00    -0.206 F 
ATOM     44  C   UNL A   1      49.871  27.041  26.819  1.00  0.00     0.060 A 
BRANCH  44  45
ATOM     45  S   UNL A   1      51.327  26.098  26.323  1.00  0.00     0.124 S 
ATOM     46  O   UNL A   1      51.038  24.790  26.904  1.00  0.00    -0.237 OA
ATOM     47  O   UNL A   1      51.262  26.172  24.866  1.00  0.00    -0.237 OA
ATOM     48  O   UNL A   1      52.430  26.830  26.936  1.00  0.00    -0.744 OA
ENDBRANCH  44  45
ENDBRANCH  23  37
BRANCH  24  49
ATOM     49  C   UNL A   1      38.642  32.021  30.673  1.00  0.00     0.058 A 
ATOM     50  C   UNL A   1      37.670  32.284  29.692  1.00  0.00     0.135 A 
ATOM     51  C   UNL A   1      38.289  32.292  32.005  1.00  0.00     0.135 A 
ATOM     52  F   UNL A   1      37.941  32.045  28.400  1.00  0.00    -0.206 F 
ATOM     53  C   UNL A   1      36.421  32.820  30.009  1.00  0.00     0.059 A 
ATOM     54  C   UNL A   1      37.034  32.795  32.353  1.00  0.00     0.059 A 
ATOM     55  F   UNL A   1      39.162  32.054  32.996  1.00  0.00    -0.206 F 
ATOM     56  C   UNL A   1      36.114  33.077  31.344  1.00  0.00     0.060 A 
BRANCH  56  57
ATOM     57  S   UNL A   1      34.484  33.748  31.756  1.00  0.00     0.124 S 
ATOM     58  O   UNL A   1      33.930  32.684  32.583  1.00  0.00    -0.237 OA
ATOM     59  O   UNL A   1      34.825  34.983  32.455  1.00  0.00    -0.237 OA
ATOM     60  O   UNL A   1      33.860  33.927  30.450  1.00  0.00    -0.744 OA
ENDBRANCH  56  57
ENDBRANCH  24  49
BRANCH  36  61
ATOM     61  C   UNL A   1      44.966  34.826  29.765  1.00  0.00     0.058 A 
ATOM     62  C   UNL A   1      45.495  35.198  31.012  1.00  0.00     0.135 A 
ATOM     63  C   UNL A   1      45.007  35.760  28.721  1.00  0.00     0.135 A 
ATOM     64  F   UNL A   1      45.470  34.337  32.041  1.00  0.00    -0.206 F 
ATOM     65  C   UNL A   1      46.032  36.461  31.218  1.00  0.00     0.059 A 
ATOM     66  C   UNL A   1      45.562  37.020  28.899  1.00  0.00     0.059 A 
ATOM     67  F   UNL A   1      44.520  35.442  27.510  1.00  0.00    -0.206 F 
ATOM     68  C   UNL A   1      46.064  37.364  30.154  1.00  0.00     0.060 A 
BRANCH  68  69
ATOM     69  S   UNL A   1      46.805  38.987  30.421  1.00  0.00     0.124 S 
ATOM     70  O   UNL A   1      47.907  38.965  29.466  1.00  0.00    -0.237 OA
ATOM     71  O   UNL A   1      45.703  39.890  30.100  1.00  0.00    -0.237 OA
ATOM     72  O   UNL A   1      47.191  38.954  31.829  1.00  0.00    -0.744 OA
ENDBRANCH  68  69
ENDBRANCH  36  61
ENDBRANCH  10  11
ENDBRANCH   3   5
ENDBRANCH   2   3
ENDBRANCH   1   2
BRANCH   1  73
ATOM     73  C   UNL A   1      36.240  21.579  25.004  1.00  0.00     0.275 C 
BRANCH  73  74
ATOM     74  O   UNL A   1      35.602  22.177  26.135  1.00  0.00    -0.458 OA
BRANCH  74  75
ATOM     75  C   UNL A   1      34.362  21.708  26.415  1.00  0.00     0.340 C 
ATOM     76  O   UNL A   1      33.974  21.275  27.498  1.00  0.00    -0.246 OA
BRANCH  75  77
ATOM     77  C   UNL A   1      33.467  21.845  25.256  1.00  0.00     0.085 A 
ATOM     78  C   UNL A   1      33.221  20.671  24.498  1.00  0.00     0.044 A 
ATOM     79  C   UNL A   1      32.936  23.088  24.887  1.00  0.00     0.051 A 
ATOM     80  C   UNL A   1      32.471  20.720  23.328  1.00  0.00     0.042 A 
ATOM     81  C   UNL A   1      32.296  23.130  23.646  1.00  0.00     0.029 A 
ATOM     82  C   UNL A   1      32.055  21.977  22.885  1.00  0.00     0.028 A 
BRANCH  79  83
ATOM     83  N   UNL A   1      32.995  24.236  25.647  1.00  0.00    -0.370 N 
ATOM     84  C   UNL A   1      32.005  24.496  26.691  1.00  0.00     0.116 C 
ATOM     85  C   UNL A   1      34.109  25.161  25.571  1.00  0.00     0.126 C 
ATOM     86  C   UNL A   1      31.423  25.896  26.535  1.00  0.00     0.022 C 
ATOM     87  C   UNL A   1      33.552  26.574  25.303  1.00  0.00     0.064 C 
ATOM     88  C   UNL A   1      32.535  26.933  26.409  1.00  0.00     0.013 C 
BRANCH  87  89
ATOM     89  C   UNL A   1      32.989  26.613  23.859  1.00  0.00     0.267 C 
BRANCH  89  90
ATOM     90  N   UNL A   1      32.628  27.885  23.247  1.00  0.00    -0.335 N 
ATOM     91  C   UNL A   1      33.020  29.087  23.967  1.00  0.00     0.262 C 
ATOM     92  C   UNL A   1      31.228  28.036  22.847  1.00  0.00     0.262 C 
ATOM     93  H   UNL A   1      33.202  27.811  22.407  1.00  0.00     0.348 HD
ATOM     94  C   UNL A   1      31.756  29.560  24.653  1.00  0.00     0.067 C 
ATOM     95  C   UNL A   1      30.653  29.173  23.684  1.00  0.00     0.067 C 
ENDBRANCH  89  90
ENDBRANCH  87  89
ENDBRANCH  79  83
BRANCH  80  96
ATOM     96  N   UNL A   1      32.109  19.635  22.507  1.00  0.00    -0.321 N 
ATOM     97  C   UNL A   1      32.300  18.271  22.525  1.00  0.00     0.265 C 
ATOM     98  H   UNL A   1      31.588  19.924  21.723  1.00  0.00     0.170 HD
ATOM     99  O   UNL A   1      31.863  17.642  21.557  1.00  0.00    -0.268 OA
BRANCH  97 100
ATOM    100  C   UNL A   1      32.872  17.596  23.661  1.00  0.00     0.092 A 
ATOM    101  C   UNL A   1      32.265  17.333  24.874  1.00  0.00     0.025 A 
ATOM    102  S   UNL A   1      34.378  16.798  23.523  1.00  0.00    -0.139 S 
ATOM    103  C   UNL A   1      33.123  16.620  25.758  1.00  0.00     0.012 A 
ATOM    104  C   UNL A   1      34.323  16.299  25.161  1.00  0.00     0.065 A 
ENDBRANCH  97 100
ENDBRANCH  80  96
ENDBRANCH  75  77
ENDBRANCH  74  75
ENDBRANCH  73  74
ENDBRANCH   1  73
TORSDOF 19
ENDMDL
