MODEL 1
REMARK VINA RESULT:     -10.4      0.000      0.000
REMARK SMILES CSc1ccc(Cl)c(C(=O)N[C@@H](CO)C(=O)OCCOC(=O)c2ccc(-c3c4nc(c(-c5c(F)cc(S(=O)(=O)[O-])cc5F)c5ccc([nH]5)c(-c5c(F)cc(S(=O)(=O)[O-])cc5F)c5nc(c(-c6c(F)cc(S(=O)(=O)[O-])cc6F)c6ccc3[nH]6)C=C5)C=C4)cc2)c1
REMARK SMILES IDX 18 1 17 2 15 3 16 4 12 5 11 6 9 7 10 8 8 10 3 11 4 12 89 13
REMARK SMILES IDX 5 14 6 15 7 16 2 17 1 18 13 19 14 20 19 22 20 23 21 24 22 25
REMARK SMILES IDX 23 26 24 27 88 28 25 29 87 30 26 31 27 32 28 33 81 34 29 35
REMARK SMILES IDX 86 36 80 37 82 38 30 39 85 40 79 41 78 42 31 44 65 45 44 46
REMARK SMILES IDX 64 47 45 48 48 49 63 50 83 51 46 52 47 53 62 55 84 56 49 57
REMARK SMILES IDX 32 58 33 59 42 60 34 61 35 62 41 63 43 64 36 65 37 66 38 67
REMARK SMILES IDX 39 68 40 69 66 70 67 71 76 72 68 73 69 74 75 75 77 76 70 77
REMARK SMILES IDX 71 78 72 79 73 80 74 81 50 82 51 83 60 84 52 85 53 86 59 87
REMARK SMILES IDX 61 88 54 89 55 90 56 91 57 92 58 93
REMARK H PARENT 11 9 14 21 82 43 48 54
REMARK Flexibility Score: inf
ROOT
ATOM      1  C   UNL A   1      31.987  30.236  25.772  1.00  0.00     0.274 C 
ENDROOT
BRANCH   1   2
ATOM      2  O   UNL A   1      31.549  28.882  25.547  1.00  0.00    -0.460 OA
BRANCH   2   3
ATOM      3  C   UNL A   1      31.569  28.471  24.250  1.00  0.00     0.331 C 
ATOM      4  O   UNL A   1      30.963  29.018  23.334  1.00  0.00    -0.250 OA
BRANCH   3   5
ATOM      5  C   UNL A   1      32.365  27.179  24.036  1.00  0.00     0.218 C 
BRANCH   5   6
ATOM      6  N   UNL A   1      32.557  26.730  22.653  1.00  0.00    -0.337 N 
ATOM      7  C   UNL A   1      33.053  25.573  22.103  1.00  0.00     0.253 C 
ATOM      8  O   UNL A   1      33.360  25.607  20.911  1.00  0.00    -0.269 OA
ATOM      9  H   UNL A   1      32.272  27.392  21.982  1.00  0.00     0.164 HD
BRANCH   7  10
ATOM     10  C   UNL A   1      33.109  24.256  22.803  1.00  0.00     0.059 A 
ATOM     11  C   UNL A   1      34.652  22.631  23.837  1.00  0.00     0.008 A 
ATOM     12  C   UNL A   1      33.576  21.787  24.092  1.00  0.00     0.016 A 
ATOM     13  C   UNL A   1      34.413  23.832  23.147  1.00  0.00     0.030 A 
ATOM     14  C   UNL A   1      32.277  22.210  23.807  1.00  0.00     0.022 A 
ATOM     15  C   UNL A   1      32.039  23.468  23.233  1.00  0.00     0.053 A 
ATOM     16  Cl  UNL A   1      30.400  23.998  23.276  1.00  0.00    -0.083 Cl
BRANCH  11  17
ATOM     17  S   UNL A   1      36.319  22.287  24.374  1.00  0.00    -0.130 SA
ATOM     18  C   UNL A   1      36.704  23.722  25.428  1.00  0.00     0.091 C 
ENDBRANCH  11  17
ENDBRANCH   7  10
ENDBRANCH   5   6
BRANCH   5  19
ATOM     19  C   UNL A   1      33.741  27.420  24.684  1.00  0.00     0.193 C 
BRANCH  19  20
ATOM     20  O   UNL A   1      33.706  27.158  26.093  1.00  0.00    -0.394 OA
ATOM     21  H   UNL A   1      32.786  27.031  26.374  1.00  0.00     0.210 HD
ENDBRANCH  19  20
ENDBRANCH   5  19
ENDBRANCH   3   5
ENDBRANCH   2   3
ENDBRANCH   1   2
BRANCH   1  22
ATOM     22  C   UNL A   1      32.412  30.444  27.226  1.00  0.00     0.275 C 
BRANCH  22  23
ATOM     23  O   UNL A   1      33.717  29.899  27.481  1.00  0.00    -0.458 OA
BRANCH  23  24
ATOM     24  C   UNL A   1      34.531  30.712  28.195  1.00  0.00     0.338 C 
ATOM     25  O   UNL A   1      34.245  31.779  28.718  1.00  0.00    -0.246 OA
BRANCH  24  26
ATOM     26  C   UNL A   1      35.851  30.094  28.335  1.00  0.00     0.060 A 
ATOM     27  C   UNL A   1      36.252  29.640  29.592  1.00  0.00     0.016 A 
ATOM     28  C   UNL A   1      36.738  30.092  27.259  1.00  0.00     0.016 A 
ATOM     29  C   UNL A   1      37.567  29.227  29.794  1.00  0.00     0.010 A 
ATOM     30  C   UNL A   1      38.046  29.644  27.457  1.00  0.00     0.010 A 
ATOM     31  C   UNL A   1      38.481  29.238  28.732  1.00  0.00    -0.014 A 
BRANCH  31  32
ATOM     32  C   UNL A   1      39.910  28.897  28.954  1.00  0.00     0.031 A 
ATOM     33  C   UNL A   1      40.852  29.954  29.465  1.00  0.00     0.074 A 
ATOM     34  C   UNL A   1      40.371  27.658  28.697  1.00  0.00     0.049 A 
ATOM     35  N   UNL A   1      42.158  29.942  29.524  1.00  0.00    -0.248 NA
ATOM     36  C   UNL A   1      40.241  31.190  29.978  1.00  0.00     0.031 C 
ATOM     37  C   UNL A   1      39.556  26.522  28.265  1.00  0.00     0.029 A 
ATOM     38  N   UNL A   1      41.647  27.152  28.749  1.00  0.00    -0.354 N 
ATOM     39  C   UNL A   1      42.527  31.180  30.038  1.00  0.00     0.074 A 
ATOM     40  C   UNL A   1      41.307  31.916  30.288  1.00  0.00     0.031 C 
ATOM     41  C   UNL A   1      40.351  25.453  28.092  1.00  0.00     0.029 A 
ATOM     42  C   UNL A   1      41.737  25.847  28.326  1.00  0.00     0.049 A 
ATOM     43  H   UNL A   1      42.422  27.674  29.058  1.00  0.00     0.167 HD
ATOM     44  C   UNL A   1      43.771  31.661  30.270  1.00  0.00     0.037 A 
ATOM     45  C   UNL A   1      42.816  25.072  28.100  1.00  0.00     0.037 A 
ATOM     46  C   UNL A   1      44.980  30.917  30.033  1.00  0.00     0.049 A 
ATOM     47  C   UNL A   1      44.192  25.646  28.308  1.00  0.00     0.074 A 
ATOM     48  C   UNL A   1      46.292  31.330  30.192  1.00  0.00     0.029 A 
ATOM     49  N   UNL A   1      45.024  29.601  29.598  1.00  0.00    -0.354 N 
ATOM     50  N   UNL A   1      44.530  26.844  28.720  1.00  0.00    -0.248 NA
ATOM     51  C   UNL A   1      45.332  24.771  28.001  1.00  0.00     0.031 C 
ATOM     52  C   UNL A   1      47.130  30.269  29.837  1.00  0.00     0.029 A 
ATOM     53  C   UNL A   1      46.339  29.184  29.492  1.00  0.00     0.049 A 
ATOM     54  H   UNL A   1      44.237  29.047  29.395  1.00  0.00     0.167 HD
ATOM     55  C   UNL A   1      45.920  26.857  28.745  1.00  0.00     0.074 A 
ATOM     56  C   UNL A   1      46.361  25.548  28.313  1.00  0.00     0.031 C 
ATOM     57  C   UNL A   1      46.757  27.866  29.093  1.00  0.00     0.037 A 
BRANCH  44  58
ATOM     58  C   UNL A   1      43.896  33.069  30.776  1.00  0.00     0.058 A 
ATOM     59  C   UNL A   1      43.882  33.364  32.147  1.00  0.00     0.135 A 
ATOM     60  C   UNL A   1      44.096  34.129  29.877  1.00  0.00     0.135 A 
ATOM     61  F   UNL A   1      43.674  32.388  33.047  1.00  0.00    -0.206 F 
ATOM     62  C   UNL A   1      44.056  34.665  32.610  1.00  0.00     0.059 A 
ATOM     63  C   UNL A   1      44.294  35.434  30.318  1.00  0.00     0.059 A 
ATOM     64  F   UNL A   1      44.115  33.899  28.555  1.00  0.00    -0.206 F 
ATOM     65  C   UNL A   1      44.265  35.693  31.687  1.00  0.00     0.060 A 
BRANCH  65  66
ATOM     66  S   UNL A   1      44.529  37.370  32.302  1.00  0.00     0.124 S 
ATOM     67  O   UNL A   1      45.985  37.420  32.397  1.00  0.00    -0.237 OA
ATOM     68  O   UNL A   1      43.934  38.188  31.250  1.00  0.00    -0.237 OA
ATOM     69  O   UNL A   1      43.817  37.380  33.577  1.00  0.00    -0.744 OA
ENDBRANCH  65  66
ENDBRANCH  44  58
BRANCH  45  70
ATOM     70  C   UNL A   1      42.645  23.681  27.603  1.00  0.00     0.058 A 
ATOM     71  C   UNL A   1      42.511  23.418  26.232  1.00  0.00     0.135 A 
ATOM     72  C   UNL A   1      42.602  22.592  28.487  1.00  0.00     0.135 A 
ATOM     73  F   UNL A   1      42.537  24.429  25.350  1.00  0.00    -0.206 F 
ATOM     74  C   UNL A   1      42.319  22.125  25.755  1.00  0.00     0.059 A 
ATOM     75  C   UNL A   1      42.438  21.289  28.033  1.00  0.00     0.059 A 
ATOM     76  F   UNL A   1      42.738  22.791  29.807  1.00  0.00    -0.206 F 
ATOM     77  C   UNL A   1      42.282  21.067  26.664  1.00  0.00     0.060 A 
BRANCH  77  78
ATOM     78  S   UNL A   1      42.066  19.387  26.040  1.00  0.00     0.124 S 
ATOM     79  O   UNL A   1      42.534  18.594  27.170  1.00  0.00    -0.237 OA
ATOM     80  O   UNL A   1      40.631  19.337  25.774  1.00  0.00    -0.237 OA
ATOM     81  O   UNL A   1      42.915  19.362  24.852  1.00  0.00    -0.744 OA
ENDBRANCH  77  78
ENDBRANCH  45  70
BRANCH  57  82
ATOM     82  C   UNL A   1      48.230  27.580  29.087  1.00  0.00     0.058 A 
ATOM     83  C   UNL A   1      49.036  27.882  27.980  1.00  0.00     0.135 A 
ATOM     84  C   UNL A   1      48.852  27.072  30.239  1.00  0.00     0.135 A 
ATOM     85  F   UNL A   1      48.485  28.363  26.855  1.00  0.00    -0.206 F 
ATOM     86  C   UNL A   1      50.413  27.686  28.013  1.00  0.00     0.059 A 
ATOM     87  C   UNL A   1      50.228  26.885  30.300  1.00  0.00     0.059 A 
ATOM     88  F   UNL A   1      48.122  26.775  31.326  1.00  0.00    -0.206 F 
ATOM     89  C   UNL A   1      51.000  27.191  29.179  1.00  0.00     0.060 A 
BRANCH  89  90
ATOM     90  S   UNL A   1      52.794  26.995  29.233  1.00  0.00     0.124 S 
ATOM     91  O   UNL A   1      53.244  28.379  29.118  1.00  0.00    -0.237 OA
ATOM     92  O   UNL A   1      53.004  26.367  30.535  1.00  0.00    -0.237 OA
ATOM     93  O   UNL A   1      53.077  26.144  28.081  1.00  0.00    -0.744 OA
ENDBRANCH  89  90
ENDBRANCH  57  82
ENDBRANCH  31  32
ENDBRANCH  24  26
ENDBRANCH  23  24
ENDBRANCH  22  23
ENDBRANCH   1  22
TORSDOF 19
ENDMDL
MODEL 2
REMARK VINA RESULT:     -10.4      4.333     10.113
REMARK SMILES CSc1ccc(Cl)c(C(=O)N[C@@H](CO)C(=O)OCCOC(=O)c2ccc(-c3c4nc(c(-c5c(F)cc(S(=O)(=O)[O-])cc5F)c5ccc([nH]5)c(-c5c(F)cc(S(=O)(=O)[O-])cc5F)c5nc(c(-c6c(F)cc(S(=O)(=O)[O-])cc6F)c6ccc3[nH]6)C=C5)C=C4)cc2)c1
REMARK SMILES IDX 18 1 17 2 15 3 16 4 12 5 11 6 9 7 10 8 8 10 3 11 4 12 89 13
REMARK SMILES IDX 5 14 6 15 7 16 2 17 1 18 13 19 14 20 19 22 20 23 21 24 22 25
REMARK SMILES IDX 23 26 24 27 88 28 25 29 87 30 26 31 27 32 28 33 81 34 29 35
REMARK SMILES IDX 86 36 80 37 82 38 30 39 85 40 79 41 78 42 31 44 65 45 44 46
REMARK SMILES IDX 64 47 45 48 48 49 63 50 83 51 46 52 47 53 62 55 84 56 49 57
REMARK SMILES IDX 32 58 33 59 42 60 34 61 35 62 41 63 43 64 36 65 37 66 38 67
REMARK SMILES IDX 39 68 40 69 66 70 67 71 76 72 68 73 69 74 75 75 77 76 70 77
REMARK SMILES IDX 71 78 72 79 73 80 74 81 50 82 51 83 60 84 52 85 53 86 59 87
REMARK SMILES IDX 61 88 54 89 55 90 56 91 57 92 58 93
REMARK H PARENT 11 9 14 21 82 43 48 54
REMARK Flexibility Score: inf
ROOT
ATOM      1  C   UNL A   1      36.411  32.677  33.464  1.00  0.00     0.274 C 
ENDROOT
BRANCH   1   2
ATOM      2  O   UNL A   1      35.437  32.532  32.413  1.00  0.00    -0.460 OA
BRANCH   2   3
ATOM      3  C   UNL A   1      34.352  33.347  32.507  1.00  0.00     0.331 C 
ATOM      4  O   UNL A   1      33.350  33.102  33.173  1.00  0.00    -0.250 OA
BRANCH   3   5
ATOM      5  C   UNL A   1      34.449  34.590  31.618  1.00  0.00     0.218 C 
BRANCH   5   6
ATOM      6  N   UNL A   1      33.567  34.651  30.447  1.00  0.00    -0.337 N 
ATOM      7  C   UNL A   1      33.669  34.157  29.170  1.00  0.00     0.253 C 
ATOM      8  O   UNL A   1      32.900  34.621  28.327  1.00  0.00    -0.269 OA
ATOM      9  H   UNL A   1      32.731  35.146  30.611  1.00  0.00     0.164 HD
BRANCH   7  10
ATOM     10  C   UNL A   1      34.537  33.010  28.770  1.00  0.00     0.059 A 
ATOM     11  C   UNL A   1      34.520  30.829  27.616  1.00  0.00     0.008 A 
ATOM     12  C   UNL A   1      35.869  30.671  27.918  1.00  0.00     0.016 A 
ATOM     13  C   UNL A   1      33.856  31.972  28.092  1.00  0.00     0.030 A 
ATOM     14  C   UNL A   1      36.568  31.706  28.540  1.00  0.00     0.022 A 
ATOM     15  C   UNL A   1      35.922  32.898  28.899  1.00  0.00     0.053 A 
ATOM     16  Cl  UNL A   1      36.967  34.204  29.315  1.00  0.00    -0.083 Cl
BRANCH  11  17
ATOM     17  S   UNL A   1      33.594  29.673  26.619  1.00  0.00    -0.130 SA
ATOM     18  C   UNL A   1      31.950  30.453  26.526  1.00  0.00     0.091 C 
ENDBRANCH  11  17
ENDBRANCH   7  10
ENDBRANCH   5   6
BRANCH   5  19
ATOM     19  C   UNL A   1      34.148  35.789  32.538  1.00  0.00     0.193 C 
BRANCH  19  20
ATOM     20  O   UNL A   1      32.762  35.830  32.902  1.00  0.00    -0.394 OA
ATOM     21  H   UNL A   1      32.666  36.285  33.754  1.00  0.00     0.210 HD
ENDBRANCH  19  20
ENDBRANCH   5  19
ENDBRANCH   3   5
ENDBRANCH   2   3
ENDBRANCH   1   2
BRANCH   1  22
ATOM     22  C   UNL A   1      37.367  31.484  33.501  1.00  0.00     0.275 C 
BRANCH  22  23
ATOM     23  O   UNL A   1      36.997  30.479  32.542  1.00  0.00    -0.458 OA
BRANCH  23  24
ATOM     24  C   UNL A   1      37.681  29.317  32.660  1.00  0.00     0.338 C 
ATOM     25  O   UNL A   1      37.336  28.307  33.254  1.00  0.00    -0.246 OA
BRANCH  24  26
ATOM     26  C   UNL A   1      38.923  29.391  31.888  1.00  0.00     0.060 A 
ATOM     27  C   UNL A   1      38.855  29.711  30.531  1.00  0.00     0.016 A 
ATOM     28  C   UNL A   1      40.130  29.010  32.471  1.00  0.00     0.016 A 
ATOM     29  C   UNL A   1      39.990  29.600  29.733  1.00  0.00     0.010 A 
ATOM     30  C   UNL A   1      41.276  28.934  31.674  1.00  0.00     0.010 A 
ATOM     31  C   UNL A   1      41.210  29.197  30.294  1.00  0.00    -0.014 A 
BRANCH  31  32
ATOM     32  C   UNL A   1      42.405  28.977  29.439  1.00  0.00     0.031 A 
ATOM     33  C   UNL A   1      42.613  27.636  28.789  1.00  0.00     0.074 A 
ATOM     34  C   UNL A   1      43.305  29.961  29.247  1.00  0.00     0.049 A 
ATOM     35  N   UNL A   1      43.674  27.160  28.191  1.00  0.00    -0.248 NA
ATOM     36  C   UNL A   1      41.472  26.707  28.815  1.00  0.00     0.031 C 
ATOM     37  C   UNL A   1      43.193  31.327  29.759  1.00  0.00     0.029 A 
ATOM     38  N   UNL A   1      44.504  29.954  28.576  1.00  0.00    -0.354 N 
ATOM     39  C   UNL A   1      43.345  25.864  27.810  1.00  0.00     0.074 A 
ATOM     40  C   UNL A   1      41.981  25.631  28.230  1.00  0.00     0.031 C 
ATOM     41  C   UNL A   1      44.276  32.026  29.384  1.00  0.00     0.029 A 
ATOM     42  C   UNL A   1      45.193  31.140  28.673  1.00  0.00     0.049 A 
ATOM     43  H   UNL A   1      44.837  29.175  28.076  1.00  0.00     0.167 HD
ATOM     44  C   UNL A   1      44.117  24.951  27.175  1.00  0.00     0.037 A 
ATOM     45  C   UNL A   1      46.441  31.462  28.282  1.00  0.00     0.037 A 
ATOM     46  C   UNL A   1      45.469  25.195  26.746  1.00  0.00     0.049 A 
ATOM     47  C   UNL A   1      47.303  30.414  27.632  1.00  0.00     0.074 A 
ATOM     48  C   UNL A   1      46.352  24.320  26.135  1.00  0.00     0.029 A 
ATOM     49  N   UNL A   1      46.129  26.408  26.870  1.00  0.00    -0.354 N 
ATOM     50  N   UNL A   1      47.009  29.167  27.346  1.00  0.00    -0.248 NA
ATOM     51  C   UNL A   1      48.672  30.807  27.269  1.00  0.00     0.031 C 
ATOM     52  C   UNL A   1      47.552  25.000  25.906  1.00  0.00     0.029 A 
ATOM     53  C   UNL A   1      47.403  26.308  26.341  1.00  0.00     0.049 A 
ATOM     54  H   UNL A   1      45.747  27.220  27.275  1.00  0.00     0.167 HD
ATOM     55  C   UNL A   1      48.147  28.638  26.749  1.00  0.00     0.074 A 
ATOM     56  C   UNL A   1      49.133  29.697  26.708  1.00  0.00     0.031 C 
ATOM     57  C   UNL A   1      48.357  27.384  26.278  1.00  0.00     0.037 A 
BRANCH  44  58
ATOM     58  C   UNL A   1      43.536  23.587  26.933  1.00  0.00     0.058 A 
ATOM     59  C   UNL A   1      43.098  23.187  25.662  1.00  0.00     0.135 A 
ATOM     60  C   UNL A   1      43.474  22.649  27.976  1.00  0.00     0.135 A 
ATOM     61  F   UNL A   1      43.118  24.053  24.636  1.00  0.00    -0.206 F 
ATOM     62  C   UNL A   1      42.613  21.902  25.434  1.00  0.00     0.059 A 
ATOM     63  C   UNL A   1      43.014  21.352  27.767  1.00  0.00     0.059 A 
ATOM     64  F   UNL A   1      43.878  22.985  29.211  1.00  0.00    -0.206 F 
ATOM     65  C   UNL A   1      42.579  20.991  26.493  1.00  0.00     0.060 A 
BRANCH  65  66
ATOM     66  S   UNL A   1      41.985  19.315  26.175  1.00  0.00     0.124 S 
ATOM     67  O   UNL A   1      42.828  18.914  25.054  1.00  0.00    -0.237 OA
ATOM     68  O   UNL A   1      42.253  18.642  27.442  1.00  0.00    -0.237 OA
ATOM     69  O   UNL A   1      40.573  19.510  25.860  1.00  0.00    -0.744 OA
ENDBRANCH  65  66
ENDBRANCH  44  58
BRANCH  45  70
ATOM     70  C   UNL A   1      46.975  32.826  28.538  1.00  0.00     0.058 A 
ATOM     71  C   UNL A   1      46.843  33.843  27.581  1.00  0.00     0.135 A 
ATOM     72  C   UNL A   1      47.637  33.136  29.736  1.00  0.00     0.135 A 
ATOM     73  F   UNL A   1      46.226  33.590  26.416  1.00  0.00    -0.206 F 
ATOM     74  C   UNL A   1      47.366  35.114  27.793  1.00  0.00     0.059 A 
ATOM     75  C   UNL A   1      48.144  34.406  29.983  1.00  0.00     0.059 A 
ATOM     76  F   UNL A   1      47.777  32.201  30.688  1.00  0.00    -0.206 F 
ATOM     77  C   UNL A   1      48.016  35.385  28.998  1.00  0.00     0.060 A 
BRANCH  77  78
ATOM     78  S   UNL A   1      48.665  37.046  29.285  1.00  0.00     0.124 S 
ATOM     79  O   UNL A   1      47.519  37.872  28.929  1.00  0.00    -0.237 OA
ATOM     80  O   UNL A   1      49.008  37.004  30.703  1.00  0.00    -0.237 OA
ATOM     81  O   UNL A   1      49.806  37.118  28.376  1.00  0.00    -0.744 OA
ENDBRANCH  77  78
ENDBRANCH  45  70
BRANCH  57  82
ATOM     82  C   UNL A   1      49.675  27.100  25.618  1.00  0.00     0.058 A 
ATOM     83  C   UNL A   1      49.867  27.289  24.242  1.00  0.00     0.135 A 
ATOM     84  C   UNL A   1      50.780  26.712  26.392  1.00  0.00     0.135 A 
ATOM     85  F   UNL A   1      48.838  27.654  23.460  1.00  0.00    -0.206 F 
ATOM     86  C   UNL A   1      51.112  27.098  23.652  1.00  0.00     0.059 A 
ATOM     87  C   UNL A   1      52.037  26.532  25.828  1.00  0.00     0.059 A 
ATOM     88  F   UNL A   1      50.646  26.525  27.715  1.00  0.00    -0.206 F 
ATOM     89  C   UNL A   1      52.193  26.724  24.455  1.00  0.00     0.060 A 
BRANCH  89  90
ATOM     90  S   UNL A   1      53.818  26.536  23.691  1.00  0.00     0.124 S 
ATOM     91  O   UNL A   1      54.387  25.445  24.476  1.00  0.00    -0.237 OA
ATOM     92  O   UNL A   1      53.480  26.212  22.308  1.00  0.00    -0.237 OA
ATOM     93  O   UNL A   1      54.438  27.843  23.888  1.00  0.00    -0.744 OA
ENDBRANCH  89  90
ENDBRANCH  57  82
ENDBRANCH  31  32
ENDBRANCH  24  26
ENDBRANCH  23  24
ENDBRANCH  22  23
ENDBRANCH   1  22
TORSDOF 19
ENDMDL
MODEL 3
REMARK VINA RESULT:     -10.1      3.671      9.743
REMARK SMILES CSc1ccc(Cl)c(C(=O)N[C@@H](CO)C(=O)OCCOC(=O)c2ccc(-c3c4nc(c(-c5c(F)cc(S(=O)(=O)[O-])cc5F)c5ccc([nH]5)c(-c5c(F)cc(S(=O)(=O)[O-])cc5F)c5nc(c(-c6c(F)cc(S(=O)(=O)[O-])cc6F)c6ccc3[nH]6)C=C5)C=C4)cc2)c1
REMARK SMILES IDX 18 1 17 2 15 3 16 4 12 5 11 6 9 7 10 8 8 10 3 11 4 12 89 13
REMARK SMILES IDX 5 14 6 15 7 16 2 17 1 18 13 19 14 20 19 22 20 23 21 24 22 25
REMARK SMILES IDX 23 26 24 27 88 28 25 29 87 30 26 31 27 32 28 33 81 34 29 35
REMARK SMILES IDX 86 36 80 37 82 38 30 39 85 40 79 41 78 42 31 44 65 45 44 46
REMARK SMILES IDX 64 47 45 48 48 49 63 50 83 51 46 52 47 53 62 55 84 56 49 57
REMARK SMILES IDX 32 58 33 59 42 60 34 61 35 62 41 63 43 64 36 65 37 66 38 67
REMARK SMILES IDX 39 68 40 69 66 70 67 71 76 72 68 73 69 74 75 75 77 76 70 77
REMARK SMILES IDX 71 78 72 79 73 80 74 81 50 82 51 83 60 84 52 85 53 86 59 87
REMARK SMILES IDX 61 88 54 89 55 90 56 91 57 92 58 93
REMARK H PARENT 11 9 14 21 82 43 48 54
REMARK Flexibility Score: inf
ROOT
ATOM      1  C   UNL A   1      36.251  21.369  25.280  1.00  0.00     0.274 C 
ENDROOT
BRANCH   1   2
ATOM      2  O   UNL A   1      35.440  22.290  24.525  1.00  0.00    -0.460 OA
BRANCH   2   3
ATOM      3  C   UNL A   1      34.664  23.126  25.265  1.00  0.00     0.331 C 
ATOM      4  O   UNL A   1      34.775  23.294  26.476  1.00  0.00    -0.250 OA
BRANCH   3   5
ATOM      5  C   UNL A   1      33.551  23.797  24.455  1.00  0.00     0.218 C 
BRANCH   5   6
ATOM      6  N   UNL A   1      33.958  24.696  23.369  1.00  0.00    -0.337 N 
ATOM      7  C   UNL A   1      33.569  25.962  23.005  1.00  0.00     0.253 C 
ATOM      8  O   UNL A   1      33.880  26.339  21.874  1.00  0.00    -0.269 OA
ATOM      9  H   UNL A   1      34.650  24.314  22.782  1.00  0.00     0.164 HD
BRANCH   7  10
ATOM     10  C   UNL A   1      32.932  26.951  23.922  1.00  0.00     0.059 A 
ATOM     11  C   UNL A   1      33.361  28.392  25.880  1.00  0.00     0.008 A 
ATOM     12  C   UNL A   1      32.030  28.797  25.860  1.00  0.00     0.016 A 
ATOM     13  C   UNL A   1      33.784  27.433  24.944  1.00  0.00     0.030 A 
ATOM     14  C   UNL A   1      31.189  28.373  24.830  1.00  0.00     0.022 A 
ATOM     15  C   UNL A   1      31.658  27.513  23.826  1.00  0.00     0.053 A 
ATOM     16  Cl  UNL A   1      30.637  27.370  22.445  1.00  0.00    -0.083 Cl
BRANCH  11  17
ATOM     17  S   UNL A   1      34.573  29.056  27.009  1.00  0.00    -0.130 SA
ATOM     18  C   UNL A   1      33.962  30.747  27.304  1.00  0.00     0.091 C 
ENDBRANCH  11  17
ENDBRANCH   7  10
ENDBRANCH   5   6
BRANCH   5  19
ATOM     19  C   UNL A   1      32.707  22.649  23.869  1.00  0.00     0.193 C 
BRANCH  19  20
ATOM     20  O   UNL A   1      33.070  22.378  22.509  1.00  0.00    -0.394 OA
ATOM     21  H   UNL A   1      33.753  21.689  22.489  1.00  0.00     0.210 HD
ENDBRANCH  19  20
ENDBRANCH   5  19
ENDBRANCH   3   5
ENDBRANCH   2   3
ENDBRANCH   1   2
BRANCH   1  22
ATOM     22  C   UNL A   1      37.740  21.611  25.031  1.00  0.00     0.275 C 
BRANCH  22  23
ATOM     23  O   UNL A   1      38.138  22.933  25.431  1.00  0.00    -0.458 OA
BRANCH  23  24
ATOM     24  C   UNL A   1      39.320  22.985  26.088  1.00  0.00     0.338 C 
ATOM     25  O   UNL A   1      40.213  22.152  26.079  1.00  0.00    -0.246 OA
BRANCH  24  26
ATOM     26  C   UNL A   1      39.440  24.263  26.793  1.00  0.00     0.060 A 
ATOM     27  C   UNL A   1      40.259  25.256  26.253  1.00  0.00     0.016 A 
ATOM     28  C   UNL A   1      38.859  24.423  28.049  1.00  0.00     0.016 A 
ATOM     29  C   UNL A   1      40.543  26.400  26.993  1.00  0.00     0.010 A 
ATOM     30  C   UNL A   1      39.119  25.589  28.775  1.00  0.00     0.010 A 
ATOM     31  C   UNL A   1      39.987  26.572  28.268  1.00  0.00    -0.014 A 
BRANCH  31  32
ATOM     32  C   UNL A   1      40.360  27.738  29.110  1.00  0.00     0.031 A 
ATOM     33  C   UNL A   1      41.634  27.694  29.912  1.00  0.00     0.074 A 
ATOM     34  C   UNL A   1      39.570  28.827  29.170  1.00  0.00     0.049 A 
ATOM     35  N   UNL A   1      42.041  28.490  30.865  1.00  0.00    -0.248 NA
ATOM     36  C   UNL A   1      42.575  26.607  29.596  1.00  0.00     0.031 C 
ATOM     37  C   UNL A   1      38.346  29.031  28.394  1.00  0.00     0.029 A 
ATOM     38  N   UNL A   1      39.674  29.964  29.932  1.00  0.00    -0.354 N 
ATOM     39  C   UNL A   1      43.260  27.978  31.293  1.00  0.00     0.074 A 
ATOM     40  C   UNL A   1      43.536  26.810  30.486  1.00  0.00     0.031 C 
ATOM     41  C   UNL A   1      37.814  30.220  28.719  1.00  0.00     0.029 A 
ATOM     42  C   UNL A   1      38.614  30.826  29.778  1.00  0.00     0.049 A 
ATOM     43  H   UNL A   1      40.434  30.144  30.531  1.00  0.00     0.167 HD
ATOM     44  C   UNL A   1      44.070  28.437  32.276  1.00  0.00     0.037 A 
ATOM     45  C   UNL A   1      38.294  31.949  30.451  1.00  0.00     0.037 A 
ATOM     46  C   UNL A   1      43.796  29.609  33.065  1.00  0.00     0.049 A 
ATOM     47  C   UNL A   1      39.177  32.409  31.580  1.00  0.00     0.074 A 
ATOM     48  C   UNL A   1      44.530  30.133  34.116  1.00  0.00     0.029 A 
ATOM     49  N   UNL A   1      42.708  30.449  32.880  1.00  0.00    -0.354 N 
ATOM     50  N   UNL A   1      40.287  31.873  32.027  1.00  0.00    -0.248 NA
ATOM     51  C   UNL A   1      38.754  33.613  32.309  1.00  0.00     0.031 C 
ATOM     52  C   UNL A   1      43.876  31.279  34.577  1.00  0.00     0.029 A 
ATOM     53  C   UNL A   1      42.755  31.489  33.790  1.00  0.00     0.049 A 
ATOM     54  H   UNL A   1      42.006  30.322  32.201  1.00  0.00     0.167 HD
ATOM     55  C   UNL A   1      40.707  32.689  33.072  1.00  0.00     0.074 A 
ATOM     56  C   UNL A   1      39.737  33.756  33.188  1.00  0.00     0.031 C 
ATOM     57  C   UNL A   1      41.798  32.562  33.866  1.00  0.00     0.037 A 
BRANCH  44  58
ATOM     58  C   UNL A   1      45.314  27.655  32.583  1.00  0.00     0.058 A 
ATOM     59  C   UNL A   1      45.326  26.634  33.545  1.00  0.00     0.135 A 
ATOM     60  C   UNL A   1      46.495  27.890  31.859  1.00  0.00     0.135 A 
ATOM     61  F   UNL A   1      44.229  26.382  34.278  1.00  0.00    -0.206 F 
ATOM     62  C   UNL A   1      46.468  25.875  33.783  1.00  0.00     0.059 A 
ATOM     63  C   UNL A   1      47.642  27.130  32.064  1.00  0.00     0.059 A 
ATOM     64  F   UNL A   1      46.535  28.858  30.930  1.00  0.00    -0.206 F 
ATOM     65  C   UNL A   1      47.621  26.129  33.034  1.00  0.00     0.060 A 
BRANCH  65  66
ATOM     66  S   UNL A   1      49.085  25.112  33.324  1.00  0.00     0.124 S 
ATOM     67  O   UNL A   1      49.616  24.973  31.972  1.00  0.00    -0.237 OA
ATOM     68  O   UNL A   1      49.870  25.943  34.231  1.00  0.00    -0.237 OA
ATOM     69  O   UNL A   1      48.539  23.892  33.913  1.00  0.00    -0.744 OA
ENDBRANCH  65  66
ENDBRANCH  44  58
BRANCH  45  70
ATOM     70  C   UNL A   1      37.054  32.695  30.111  1.00  0.00     0.058 A 
ATOM     71  C   UNL A   1      35.810  32.298  30.624  1.00  0.00     0.135 A 
ATOM     72  C   UNL A   1      37.085  33.810  29.259  1.00  0.00     0.135 A 
ATOM     73  F   UNL A   1      35.730  31.232  31.435  1.00  0.00    -0.206 F 
ATOM     74  C   UNL A   1      34.638  32.967  30.289  1.00  0.00     0.059 A 
ATOM     75  C   UNL A   1      35.931  34.511  28.931  1.00  0.00     0.059 A 
ATOM     76  F   UNL A   1      38.252  34.237  28.752  1.00  0.00    -0.206 F 
ATOM     77  C   UNL A   1      34.708  34.072  29.440  1.00  0.00     0.060 A 
BRANCH  77  78
ATOM     78  S   UNL A   1      33.189  34.959  29.033  1.00  0.00     0.124 S 
ATOM     79  O   UNL A   1      33.716  36.209  28.499  1.00  0.00    -0.237 OA
ATOM     80  O   UNL A   1      32.558  34.066  28.066  1.00  0.00    -0.237 OA
ATOM     81  O   UNL A   1      32.507  35.056  30.321  1.00  0.00    -0.744 OA
ENDBRANCH  77  78
ENDBRANCH  45  70
BRANCH  57  82
ATOM     82  C   UNL A   1      42.043  33.634  34.888  1.00  0.00     0.058 A 
ATOM     83  C   UNL A   1      41.582  33.517  36.206  1.00  0.00     0.135 A 
ATOM     84  C   UNL A   1      42.822  34.755  34.557  1.00  0.00     0.135 A 
ATOM     85  F   UNL A   1      40.828  32.466  36.567  1.00  0.00    -0.206 F 
ATOM     86  C   UNL A   1      41.880  34.479  37.165  1.00  0.00     0.059 A 
ATOM     87  C   UNL A   1      43.147  35.720  35.503  1.00  0.00     0.059 A 
ATOM     88  F   UNL A   1      43.292  34.907  33.308  1.00  0.00    -0.206 F 
ATOM     89  C   UNL A   1      42.667  35.575  36.805  1.00  0.00     0.060 A 
BRANCH  89  90
ATOM     90  S   UNL A   1      43.099  36.788  38.071  1.00  0.00     0.124 S 
ATOM     91  O   UNL A   1      43.815  37.789  37.286  1.00  0.00    -0.237 OA
ATOM     92  O   UNL A   1      41.791  37.196  38.575  1.00  0.00    -0.237 OA
ATOM     93  O   UNL A   1      43.915  36.023  39.009  1.00  0.00    -0.744 OA
ENDBRANCH  89  90
ENDBRANCH  57  82
ENDBRANCH  31  32
ENDBRANCH  24  26
ENDBRANCH  23  24
ENDBRANCH  22  23
ENDBRANCH   1  22
TORSDOF 19
ENDMDL
