MODEL 1
REMARK VINA RESULT:     -10.9      0.000      0.000
REMARK SMILES CCCC[C@H](C(=O)OCCOC(=O)c1ccc(-c2c3nc(c(-c4c(F)cc(S(=O)(=O)[O-])cc4F)c4ccc([nH]4)c(-c4c(F)cc(S(=O)(=O)[O-])cc4F)c4nc(c(-c5c(F)cc(S(=O)(=O)[O-])cc5F)c5ccc2[nH]5)C=C4)C=C3)cc1)[C@]1(O)CCc2ccc(OC)cc21
REMARK SMILES IDX 9 1 8 2 6 3 7 4 5 5 4 6 3 7 2 8 1 9 80 10 82 11 91 12 83 13
REMARK SMILES IDX 84 14 90 15 85 16 87 17 86 18 81 19 88 21 89 22 10 23 11 24
REMARK SMILES IDX 12 25 13 26 14 27 15 28 79 29 16 30 78 31 17 32 18 33 19 34
REMARK SMILES IDX 72 35 20 36 77 37 71 38 73 39 21 40 76 41 70 42 69 43 22 45
REMARK SMILES IDX 56 46 35 47 55 48 36 49 39 50 54 51 74 52 37 53 38 54 53 56
REMARK SMILES IDX 75 57 40 58 23 59 24 60 33 61 25 62 26 63 32 64 34 65 27 66
REMARK SMILES IDX 28 67 29 68 30 69 31 70 57 71 58 72 67 73 59 74 60 75 66 76
REMARK SMILES IDX 68 77 61 78 62 79 63 80 64 81 65 82 41 83 42 84 51 85 43 86
REMARK SMILES IDX 44 87 50 88 52 89 45 90 46 91 47 92 48 93 49 94
REMARK H PARENT 81 20 73 44 39 55
REMARK Flexibility Score: inf
ROOT
ATOM      1  C   UNL A   1      38.398  21.511  25.636  1.00  0.00     0.274 C 
ENDROOT
BRANCH   1   2
ATOM      2  O   UNL A   1      37.266  22.431  25.533  1.00  0.00    -0.462 OA
BRANCH   2   3
ATOM      3  C   UNL A   1      36.564  22.552  24.373  1.00  0.00     0.312 C 
ATOM      4  O   UNL A   1      37.092  22.416  23.272  1.00  0.00    -0.252 OA
BRANCH   3   5
ATOM      5  C   UNL A   1      35.095  23.059  24.546  1.00  0.00     0.135 C 
BRANCH   5   6
ATOM      6  C   UNL A   1      34.624  23.856  23.251  1.00  0.00     0.019 C 
BRANCH   6   7
ATOM      7  C   UNL A   1      33.757  25.148  23.354  1.00  0.00     0.001 C 
BRANCH   7   8
ATOM      8  C   UNL A   1      32.508  25.204  22.471  1.00  0.00    -0.003 C 
ATOM      9  C   UNL A   1      31.330  24.503  23.133  1.00  0.00     0.004 C 
ENDBRANCH   7   8
ENDBRANCH   6   7
ENDBRANCH   5   6
BRANCH   5  10
ATOM     10  C   UNL A   1      34.046  22.041  25.062  1.00  0.00     0.104 C 
ATOM     11  C   UNL A   1      33.245  21.210  24.029  1.00  0.00     0.046 C 
ATOM     12  C   UNL A   1      32.903  22.599  25.884  1.00  0.00    -0.009 A 
ATOM     13  C   UNL A   1      32.052  20.650  24.838  1.00  0.00     0.039 C 
ATOM     14  C   UNL A   1      31.753  21.832  25.712  1.00  0.00    -0.042 A 
ATOM     15  C   UNL A   1      32.828  23.835  26.517  1.00  0.00     0.053 A 
ATOM     16  C   UNL A   1      30.530  22.302  26.172  1.00  0.00     0.008 A 
ATOM     17  C   UNL A   1      31.593  24.443  26.761  1.00  0.00     0.119 A 
ATOM     18  C   UNL A   1      30.449  23.622  26.686  1.00  0.00     0.047 A 
BRANCH  10  19
ATOM     19  O   UNL A   1      34.734  21.027  25.817  1.00  0.00    -0.384 OA
ATOM     20  H   UNL A   1      34.168  20.243  25.897  1.00  0.00     0.211 HD
ENDBRANCH  10  19
BRANCH  17  21
ATOM     21  O   UNL A   1      31.728  25.883  26.750  1.00  0.00    -0.497 OA
ATOM     22  C   UNL A   1      32.504  27.694  26.410  1.00  0.00     0.278 C 
ENDBRANCH  17  21
ENDBRANCH   5  10
ENDBRANCH   3   5
ENDBRANCH   2   3
ENDBRANCH   1   2
BRANCH   1  23
ATOM     23  C   UNL A   1      39.634  22.159  26.290  1.00  0.00     0.275 C 
BRANCH  23  24
ATOM     24  O   UNL A   1      39.572  23.594  26.105  1.00  0.00    -0.458 OA
BRANCH  24  25
ATOM     25  C   UNL A   1      40.711  24.156  26.560  1.00  0.00     0.338 C 
ATOM     26  O   UNL A   1      41.813  23.774  26.218  1.00  0.00    -0.246 OA
BRANCH  25  27
ATOM     27  C   UNL A   1      40.532  25.411  27.305  1.00  0.00     0.060 A 
ATOM     28  C   UNL A   1      42.079  26.268  27.598  1.00  0.00     0.016 A 
ATOM     29  C   UNL A   1      39.165  25.580  28.496  1.00  0.00     0.016 A 
ATOM     30  C   UNL A   1      42.312  27.253  29.078  1.00  0.00     0.010 A 
ATOM     31  C   UNL A   1      39.393  26.601  29.986  1.00  0.00     0.010 A 
ATOM     32  C   UNL A   1      40.976  27.467  30.262  1.00  0.00    -0.014 A 
BRANCH  32  33
ATOM     33  C   UNL A   1      41.032  28.671  31.160  1.00  0.00     0.031 A 
ATOM     34  C   UNL A   1      41.880  28.637  32.394  1.00  0.00     0.074 A 
ATOM     35  C   UNL A   1      40.158  29.692  30.966  1.00  0.00     0.049 A 
ATOM     36  N   UNL A   1      41.807  29.385  33.464  1.00  0.00    -0.248 NA
ATOM     37  C   UNL A   1      42.915  27.595  32.454  1.00  0.00     0.031 C 
ATOM     38  C   UNL A   1      39.232  29.857  29.839  1.00  0.00     0.029 A 
ATOM     39  N   UNL A   1      39.845  30.778  31.757  1.00  0.00    -0.354 N 
ATOM     40  C   UNL A   1      42.750  28.877  34.347  1.00  0.00     0.074 A 
ATOM     41  C   UNL A   1      43.350  27.726  33.700  1.00  0.00     0.031 C 
ATOM     42  C   UNL A   1      38.458  30.929  30.008  1.00  0.00     0.029 A 
ATOM     43  C   UNL A   1      38.766  31.508  31.292  1.00  0.00     0.049 A 
ATOM     44  H   UNL A   1      40.340  31.011  32.575  1.00  0.00     0.167 HD
ATOM     45  C   UNL A   1      43.091  29.342  35.575  1.00  0.00     0.037 A 
ATOM     46  C   UNL A   1      38.041  32.505  31.829  1.00  0.00     0.037 A 
ATOM     47  C   UNL A   1      42.501  30.513  36.177  1.00  0.00     0.049 A 
ATOM     48  C   UNL A   1      38.433  33.000  33.179  1.00  0.00     0.074 A 
ATOM     49  C   UNL A   1      42.821  31.120  37.380  1.00  0.00     0.029 A 
ATOM     50  N   UNL A   1      41.473  31.262  35.616  1.00  0.00    -0.354 N 
ATOM     51  N   UNL A   1      39.359  32.531  33.978  1.00  0.00    -0.248 NA
ATOM     52  C   UNL A   1      37.704  34.161  33.694  1.00  0.00     0.031 C 
ATOM     53  C   UNL A   1      41.962  32.209  37.564  1.00  0.00     0.029 A 
ATOM     54  C   UNL A   1      41.142  32.317  36.452  1.00  0.00     0.049 A 
ATOM     55  H   UNL A   1      41.043  31.072  34.751  1.00  0.00     0.167 HD
ATOM     56  C   UNL A   1      39.358  33.372  35.078  1.00  0.00     0.074 A 
ATOM     57  C   UNL A   1      38.341  34.376  34.836  1.00  0.00     0.031 C 
ATOM     58  C   UNL A   1      40.136  33.317  36.184  1.00  0.00     0.037 A 
BRANCH  45  59
ATOM     59  C   UNL A   1      44.152  28.590  36.336  1.00  0.00     0.058 A 
ATOM     60  C   UNL A   1      43.845  27.445  37.092  1.00  0.00     0.135 A 
ATOM     61  C   UNL A   1      45.494  29.005  36.306  1.00  0.00     0.135 A 
ATOM     62  F   UNL A   1      42.579  27.001  37.162  1.00  0.00    -0.206 F 
ATOM     63  C   UNL A   1      44.814  26.777  37.833  1.00  0.00     0.059 A 
ATOM     64  C   UNL A   1      46.487  28.329  37.010  1.00  0.00     0.059 A 
ATOM     65  F   UNL A   1      45.854  30.085  35.594  1.00  0.00    -0.206 F 
ATOM     66  C   UNL A   1      46.133  27.228  37.789  1.00  0.00     0.060 A 
BRANCH  66  67
ATOM     67  S   UNL A   1      47.373  26.350  38.762  1.00  0.00     0.124 S 
ATOM     68  O   UNL A   1      47.661  25.205  37.902  1.00  0.00    -0.237 OA
ATOM     69  O   UNL A   1      48.439  27.340  38.876  1.00  0.00    -0.237 OA
ATOM     70  O   UNL A   1      46.674  26.038  40.005  1.00  0.00    -0.744 OA
ENDBRANCH  66  67
ENDBRANCH  45  59
BRANCH  46  71
ATOM     71  C   UNL A   1      36.906  33.106  31.074  1.00  0.00     0.058 A 
ATOM     72  C   UNL A   1      35.583  32.873  31.479  1.00  0.00     0.135 A 
ATOM     73  C   UNL A   1      37.108  33.948  29.967  1.00  0.00     0.135 A 
ATOM     74  F   UNL A   1      35.338  32.091  32.540  1.00  0.00    -0.206 F 
ATOM     75  C   UNL A   1      34.502  33.418  30.795  1.00  0.00     0.059 A 
ATOM     76  C   UNL A   1      36.043  34.529  29.282  1.00  0.00     0.059 A 
ATOM     77  F   UNL A   1      38.354  34.242  29.563  1.00  0.00    -0.206 F 
ATOM     78  C   UNL A   1      34.741  34.242  29.695  1.00  0.00     0.060 A 
BRANCH  78  79
ATOM     79  S   UNL A   1      33.324  34.946  28.824  1.00  0.00     0.124 S 
ATOM     80  O   UNL A   1      32.353  35.079  29.905  1.00  0.00    -0.237 OA
ATOM     81  O   UNL A   1      33.874  36.194  28.305  1.00  0.00    -0.237 OA
ATOM     82  O   UNL A   1      33.011  33.938  27.815  1.00  0.00    -0.744 OA
ENDBRANCH  78  79
ENDBRANCH  46  71
BRANCH  58  83
ATOM     83  C   UNL A   1      39.954  34.415  37.186  1.00  0.00     0.058 A 
ATOM     84  C   UNL A   1      39.140  34.258  38.318  1.00  0.00     0.135 A 
ATOM     85  C   UNL A   1      40.635  35.632  37.023  1.00  0.00     0.135 A 
ATOM     86  F   UNL A   1      38.449  33.122  38.502  1.00  0.00    -0.206 F 
ATOM     87  C   UNL A   1      38.997  35.278  39.249  1.00  0.00     0.059 A 
ATOM     88  C   UNL A   1      40.534  36.651  37.959  1.00  0.00     0.059 A 
ATOM     89  F   UNL A   1      41.421  35.829  35.952  1.00  0.00    -0.206 F 
ATOM     90  C   UNL A   1      39.706  36.467  39.066  1.00  0.00     0.060 A 
BRANCH  90  91
ATOM     91  S   UNL A   1      39.562  37.755  40.319  1.00  0.00     0.124 S 
ATOM     92  O   UNL A   1      40.962  38.084  40.566  1.00  0.00    -0.237 OA
ATOM     93  O   UNL A   1      38.783  38.776  39.625  1.00  0.00    -0.237 OA
ATOM     94  O   UNL A   1      38.870  37.086  41.417  1.00  0.00    -0.744 OA
ENDBRANCH  90  91
ENDBRANCH  58  83
ENDBRANCH  32  33
ENDBRANCH  25  27
ENDBRANCH  24  25
ENDBRANCH  23  24
ENDBRANCH   1  23
TORSDOF 20
ENDMDL
MODEL 2
REMARK VINA RESULT:     -10.7      2.241      8.769
REMARK SMILES CCCC[C@H](C(=O)OCCOC(=O)c1ccc(-c2c3nc(c(-c4c(F)cc(S(=O)(=O)[O-])cc4F)c4ccc([nH]4)c(-c4c(F)cc(S(=O)(=O)[O-])cc4F)c4nc(c(-c5c(F)cc(S(=O)(=O)[O-])cc5F)c5ccc2[nH]5)C=C4)C=C3)cc1)[C@]1(O)CCc2ccc(OC)cc21
REMARK SMILES IDX 9 1 8 2 6 3 7 4 5 5 4 6 3 7 2 8 1 9 80 10 82 11 91 12 83 13
REMARK SMILES IDX 84 14 90 15 85 16 87 17 86 18 81 19 88 21 89 22 10 23 11 24
REMARK SMILES IDX 12 25 13 26 14 27 15 28 79 29 16 30 78 31 17 32 18 33 19 34
REMARK SMILES IDX 72 35 20 36 77 37 71 38 73 39 21 40 76 41 70 42 69 43 22 45
REMARK SMILES IDX 56 46 35 47 55 48 36 49 39 50 54 51 74 52 37 53 38 54 53 56
REMARK SMILES IDX 75 57 40 58 23 59 24 60 33 61 25 62 26 63 32 64 34 65 27 66
REMARK SMILES IDX 28 67 29 68 30 69 31 70 57 71 58 72 67 73 59 74 60 75 66 76
REMARK SMILES IDX 68 77 61 78 62 79 63 80 64 81 65 82 41 83 42 84 51 85 43 86
REMARK SMILES IDX 44 87 50 88 52 89 45 90 46 91 47 92 48 93 49 94
REMARK H PARENT 81 20 73 44 39 55
REMARK Flexibility Score: inf
ROOT
ATOM      1  C   UNL A   1      31.796  31.357  26.620  1.00  0.00     0.274 C 
ENDROOT
BRANCH   1   2
ATOM      2  O   UNL A   1      31.929  29.956  27.020  1.00  0.00    -0.462 OA
BRANCH   2   3
ATOM      3  C   UNL A   1      32.984  29.205  26.602  1.00  0.00     0.312 C 
ATOM      4  O   UNL A   1      34.147  29.573  26.748  1.00  0.00    -0.252 OA
BRANCH   3   5
ATOM      5  C   UNL A   1      32.599  27.942  25.765  1.00  0.00     0.135 C 
BRANCH   5   6
ATOM      6  C   UNL A   1      31.582  27.024  26.576  1.00  0.00     0.019 C 
BRANCH   6   7
ATOM      7  C   UNL A   1      31.631  25.468  26.488  1.00  0.00     0.001 C 
BRANCH   7   8
ATOM      8  C   UNL A   1      30.668  24.810  25.497  1.00  0.00    -0.003 C 
ATOM      9  C   UNL A   1      31.071  23.371  25.207  1.00  0.00     0.004 C 
ENDBRANCH   7   8
ENDBRANCH   6   7
ENDBRANCH   5   6
BRANCH   5  10
ATOM     10  C   UNL A   1      32.189  28.164  24.287  1.00  0.00     0.104 C 
ATOM     11  C   UNL A   1      30.683  28.228  23.933  1.00  0.00     0.046 C 
ATOM     12  C   UNL A   1      32.643  27.118  23.290  1.00  0.00    -0.009 A 
ATOM     13  C   UNL A   1      30.645  28.033  22.400  1.00  0.00     0.039 C 
ATOM     14  C   UNL A   1      31.732  27.010  22.242  1.00  0.00    -0.042 A 
ATOM     15  C   UNL A   1      33.642  26.164  23.446  1.00  0.00     0.053 A 
ATOM     16  C   UNL A   1      31.820  25.947  21.353  1.00  0.00     0.008 A 
ATOM     17  C   UNL A   1      33.604  24.961  22.733  1.00  0.00     0.119 A 
ATOM     18  C   UNL A   1      32.753  24.910  21.610  1.00  0.00     0.047 A 
BRANCH  10  19
ATOM     19  O   UNL A   1      32.664  29.460  23.877  1.00  0.00    -0.384 OA
ATOM     20  H   UNL A   1      33.553  29.608  24.237  1.00  0.00     0.211 HD
ENDBRANCH  10  19
BRANCH  17  21
ATOM     21  O   UNL A   1      34.241  23.905  23.489  1.00  0.00    -0.497 OA
ATOM     22  C   UNL A   1      34.482  22.178  24.467  1.00  0.00     0.278 C 
ENDBRANCH  17  21
ENDBRANCH   5  10
ENDBRANCH   3   5
ENDBRANCH   2   3
ENDBRANCH   1   2
BRANCH   1  23
ATOM     23  C   UNL A   1      32.791  32.280  27.351  1.00  0.00     0.275 C 
BRANCH  23  24
ATOM     24  O   UNL A   1      32.153  33.553  27.614  1.00  0.00    -0.458 OA
BRANCH  24  25
ATOM     25  C   UNL A   1      32.952  34.303  28.401  1.00  0.00     0.338 C 
ATOM     26  O   UNL A   1      32.586  35.349  28.899  1.00  0.00    -0.246 OA
BRANCH  25  27
ATOM     27  C   UNL A   1      34.207  33.657  28.812  1.00  0.00     0.060 A 
ATOM     28  C   UNL A   1      34.139  33.013  30.483  1.00  0.00     0.016 A 
ATOM     29  C   UNL A   1      35.795  34.225  28.126  1.00  0.00     0.016 A 
ATOM     30  C   UNL A   1      35.612  32.967  31.506  1.00  0.00     0.010 A 
ATOM     31  C   UNL A   1      37.295  34.155  29.155  1.00  0.00     0.010 A 
ATOM     32  C   UNL A   1      37.202  33.493  30.853  1.00  0.00    -0.014 A 
BRANCH  32  33
ATOM     33  C   UNL A   1      38.437  32.959  31.525  1.00  0.00     0.031 A 
ATOM     34  C   UNL A   1      39.110  31.738  30.978  1.00  0.00     0.074 A 
ATOM     35  C   UNL A   1      38.807  33.453  32.735  1.00  0.00     0.049 A 
ATOM     36  N   UNL A   1      39.937  30.918  31.572  1.00  0.00    -0.248 NA
ATOM     37  C   UNL A   1      38.773  31.362  29.597  1.00  0.00     0.031 C 
ATOM     38  C   UNL A   1      38.228  34.609  33.429  1.00  0.00     0.029 A 
ATOM     39  N   UNL A   1      39.734  33.001  33.652  1.00  0.00    -0.354 N 
ATOM     40  C   UNL A   1      40.184  29.901  30.660  1.00  0.00     0.074 A 
ATOM     41  C   UNL A   1      39.380  30.188  29.488  1.00  0.00     0.031 C 
ATOM     42  C   UNL A   1      38.772  34.765  34.636  1.00  0.00     0.029 A 
ATOM     43  C   UNL A   1      39.698  33.682  34.855  1.00  0.00     0.049 A 
ATOM     44  H   UNL A   1      40.359  32.264  33.468  1.00  0.00     0.167 HD
ATOM     45  C   UNL A   1      41.017  28.839  30.787  1.00  0.00     0.037 A 
ATOM     46  C   UNL A   1      40.286  33.462  36.044  1.00  0.00     0.037 A 
ATOM     47  C   UNL A   1      41.834  28.600  31.953  1.00  0.00     0.049 A 
ATOM     48  C   UNL A   1      41.197  32.289  36.162  1.00  0.00     0.074 A 
ATOM     49  C   UNL A   1      42.769  27.601  32.163  1.00  0.00     0.029 A 
ATOM     50  N   UNL A   1      41.818  29.376  33.107  1.00  0.00    -0.354 N 
ATOM     51  N   UNL A   1      41.449  31.364  35.270  1.00  0.00    -0.248 NA
ATOM     52  C   UNL A   1      41.916  32.135  37.429  1.00  0.00     0.031 C 
ATOM     53  C   UNL A   1      43.288  27.750  33.454  1.00  0.00     0.029 A 
ATOM     54  C   UNL A   1      42.719  28.873  34.032  1.00  0.00     0.049 A 
ATOM     55  H   UNL A   1      41.249  30.168  33.246  1.00  0.00     0.167 HD
ATOM     56  C   UNL A   1      42.396  30.538  35.850  1.00  0.00     0.074 A 
ATOM     57  C   UNL A   1      42.671  31.078  37.168  1.00  0.00     0.031 C 
ATOM     58  C   UNL A   1      42.988  29.437  35.333  1.00  0.00     0.037 A 
BRANCH  45  59
ATOM     59  C   UNL A   1      41.092  27.868  29.637  1.00  0.00     0.058 A 
ATOM     60  C   UNL A   1      40.094  26.902  29.423  1.00  0.00     0.135 A 
ATOM     61  C   UNL A   1      42.164  27.905  28.730  1.00  0.00     0.135 A 
ATOM     62  F   UNL A   1      39.046  26.815  30.258  1.00  0.00    -0.206 F 
ATOM     63  C   UNL A   1      40.185  25.975  28.390  1.00  0.00     0.059 A 
ATOM     64  C   UNL A   1      42.256  27.010  27.666  1.00  0.00     0.059 A 
ATOM     65  F   UNL A   1      43.144  28.810  28.875  1.00  0.00    -0.206 F 
ATOM     66  C   UNL A   1      41.272  26.034  27.518  1.00  0.00     0.060 A 
BRANCH  66  67
ATOM     67  S   UNL A   1      41.372  24.818  26.188  1.00  0.00     0.124 S 
ATOM     68  O   UNL A   1      40.035  24.231  26.228  1.00  0.00    -0.237 OA
ATOM     69  O   UNL A   1      41.662  25.651  25.025  1.00  0.00    -0.237 OA
ATOM     70  O   UNL A   1      42.455  23.937  26.611  1.00  0.00    -0.744 OA
ENDBRANCH  66  67
ENDBRANCH  45  59
BRANCH  46  71
ATOM     71  C   UNL A   1      40.049  34.387  37.188  1.00  0.00     0.058 A 
ATOM     72  C   UNL A   1      39.121  34.057  38.186  1.00  0.00     0.135 A 
ATOM     73  C   UNL A   1      40.760  35.591  37.333  1.00  0.00     0.135 A 
ATOM     74  F   UNL A   1      38.429  32.910  38.102  1.00  0.00    -0.206 F 
ATOM     75  C   UNL A   1      38.876  34.899  39.265  1.00  0.00     0.059 A 
ATOM     76  C   UNL A   1      40.553  36.438  38.419  1.00  0.00     0.059 A 
ATOM     77  F   UNL A   1      41.692  35.936  36.432  1.00  0.00    -0.206 F 
ATOM     78  C   UNL A   1      39.594  36.091  39.372  1.00  0.00     0.060 A 
BRANCH  78  79
ATOM     79  S   UNL A   1      39.267  37.168  40.784  1.00  0.00     0.124 S 
ATOM     80  O   UNL A   1      40.619  37.506  41.214  1.00  0.00    -0.237 OA
ATOM     81  O   UNL A   1      38.503  38.250  40.171  1.00  0.00    -0.237 OA
ATOM     82  O   UNL A   1      38.511  36.312  41.694  1.00  0.00    -0.744 OA
ENDBRANCH  78  79
ENDBRANCH  46  71
BRANCH  58  83
ATOM     83  C   UNL A   1      44.038  28.781  36.177  1.00  0.00     0.058 A 
ATOM     84  C   UNL A   1      43.754  27.667  36.980  1.00  0.00     0.135 A 
ATOM     85  C   UNL A   1      45.357  29.261  36.152  1.00  0.00     0.135 A 
ATOM     86  F   UNL A   1      42.501  27.189  37.056  1.00  0.00    -0.206 F 
ATOM     87  C   UNL A   1      44.742  27.056  37.742  1.00  0.00     0.059 A 
ATOM     88  C   UNL A   1      46.367  28.645  36.878  1.00  0.00     0.059 A 
ATOM     89  F   UNL A   1      45.675  30.329  35.402  1.00  0.00    -0.206 F 
ATOM     90  C   UNL A   1      46.048  27.547  37.676  1.00  0.00     0.060 A 
BRANCH  90  91
ATOM     91  S   UNL A   1      47.332  26.703  38.618  1.00  0.00     0.124 S 
ATOM     92  O   UNL A   1      48.413  26.628  37.642  1.00  0.00    -0.237 OA
ATOM     93  O   UNL A   1      47.547  27.617  39.736  1.00  0.00    -0.237 OA
ATOM     94  O   UNL A   1      46.712  25.428  38.970  1.00  0.00    -0.744 OA
ENDBRANCH  90  91
ENDBRANCH  58  83
ENDBRANCH  32  33
ENDBRANCH  25  27
ENDBRANCH  24  25
ENDBRANCH  23  24
ENDBRANCH   1  23
TORSDOF 20
ENDMDL
MODEL 3
REMARK VINA RESULT:     -10.5      6.454     10.865
REMARK SMILES CCCC[C@H](C(=O)OCCOC(=O)c1ccc(-c2c3nc(c(-c4c(F)cc(S(=O)(=O)[O-])cc4F)c4ccc([nH]4)c(-c4c(F)cc(S(=O)(=O)[O-])cc4F)c4nc(c(-c5c(F)cc(S(=O)(=O)[O-])cc5F)c5ccc2[nH]5)C=C4)C=C3)cc1)[C@]1(O)CCc2ccc(OC)cc21
REMARK SMILES IDX 9 1 8 2 6 3 7 4 5 5 4 6 3 7 2 8 1 9 80 10 82 11 91 12 83 13
REMARK SMILES IDX 84 14 90 15 85 16 87 17 86 18 81 19 88 21 89 22 10 23 11 24
REMARK SMILES IDX 12 25 13 26 14 27 15 28 79 29 16 30 78 31 17 32 18 33 19 34
REMARK SMILES IDX 72 35 20 36 77 37 71 38 73 39 21 40 76 41 70 42 69 43 22 45
REMARK SMILES IDX 56 46 35 47 55 48 36 49 39 50 54 51 74 52 37 53 38 54 53 56
REMARK SMILES IDX 75 57 40 58 23 59 24 60 33 61 25 62 26 63 32 64 34 65 27 66
REMARK SMILES IDX 28 67 29 68 30 69 31 70 57 71 58 72 67 73 59 74 60 75 66 76
REMARK SMILES IDX 68 77 61 78 62 79 63 80 64 81 65 82 41 83 42 84 51 85 43 86
REMARK SMILES IDX 44 87 50 88 52 89 45 90 46 91 47 92 48 93 49 94
REMARK H PARENT 81 20 73 44 39 55
REMARK Flexibility Score: inf
ROOT
ATOM      1  C   UNL A   1      37.807  21.122  24.849  1.00  0.00     0.274 C 
ENDROOT
BRANCH   1   2
ATOM      2  O   UNL A   1      37.488  22.542  24.708  1.00  0.00    -0.462 OA
BRANCH   2   3
ATOM      3  C   UNL A   1      36.410  22.949  23.983  1.00  0.00     0.312 C 
ATOM      4  O   UNL A   1      36.452  23.075  22.763  1.00  0.00    -0.252 OA
BRANCH   3   5
ATOM      5  C   UNL A   1      35.187  23.420  24.837  1.00  0.00     0.135 C 
BRANCH   5   6
ATOM      6  C   UNL A   1      34.535  24.727  24.203  1.00  0.00     0.019 C 
BRANCH   6   7
ATOM      7  C   UNL A   1      33.744  24.681  22.861  1.00  0.00     0.001 C 
BRANCH   7   8
ATOM      8  C   UNL A   1      32.439  25.479  22.809  1.00  0.00    -0.003 C 
ATOM      9  C   UNL A   1      31.231  24.581  23.035  1.00  0.00     0.004 C 
ENDBRANCH   7   8
ENDBRANCH   6   7
ENDBRANCH   5   6
BRANCH   5  10
ATOM     10  C   UNL A   1      34.147  22.347  25.246  1.00  0.00     0.104 C 
ATOM     11  C   UNL A   1      33.488  21.487  24.139  1.00  0.00     0.046 C 
ATOM     12  C   UNL A   1      32.907  22.838  25.962  1.00  0.00    -0.009 A 
ATOM     13  C   UNL A   1      32.255  20.860  24.830  1.00  0.00     0.039 C 
ATOM     14  C   UNL A   1      31.817  22.017  25.679  1.00  0.00    -0.042 A 
ATOM     15  C   UNL A   1      32.711  24.062  26.592  1.00  0.00     0.053 A 
ATOM     16  C   UNL A   1      30.535  22.421  26.025  1.00  0.00     0.008 A 
ATOM     17  C   UNL A   1      31.429  24.606  26.723  1.00  0.00     0.119 A 
ATOM     18  C   UNL A   1      30.340  23.730  26.537  1.00  0.00     0.047 A 
BRANCH  10  19
ATOM     19  O   UNL A   1      34.812  21.360  26.057  1.00  0.00    -0.384 OA
ATOM     20  H   UNL A   1      34.238  21.108  26.797  1.00  0.00     0.211 HD
ENDBRANCH  10  19
BRANCH  17  21
ATOM     21  O   UNL A   1      31.491  26.051  26.733  1.00  0.00    -0.497 OA
ATOM     22  C   UNL A   1      31.893  27.917  26.139  1.00  0.00     0.278 C 
ENDBRANCH  17  21
ENDBRANCH   5  10
ENDBRANCH   3   5
ENDBRANCH   2   3
ENDBRANCH   1   2
BRANCH   1  23
ATOM     23  C   UNL A   1      38.844  20.853  25.957  1.00  0.00     0.275 C 
BRANCH  23  24
ATOM     24  O   UNL A   1      39.593  19.658  25.628  1.00  0.00    -0.458 OA
BRANCH  24  25
ATOM     25  C   UNL A   1      40.859  19.782  26.074  1.00  0.00     0.338 C 
ATOM     26  O   UNL A   1      41.709  18.936  25.880  1.00  0.00    -0.246 OA
BRANCH  25  27
ATOM     27  C   UNL A   1      41.208  21.111  26.600  1.00  0.00     0.060 A 
ATOM     28  C   UNL A   1      42.009  22.150  25.379  1.00  0.00     0.016 A 
ATOM     29  C   UNL A   1      41.603  21.321  28.365  1.00  0.00     0.016 A 
ATOM     30  C   UNL A   1      43.233  23.364  25.874  1.00  0.00     0.010 A 
ATOM     31  C   UNL A   1      42.828  22.570  28.870  1.00  0.00     0.010 A 
ATOM     32  C   UNL A   1      43.628  23.619  27.608  1.00  0.00    -0.014 A 
BRANCH  32  33
ATOM     33  C   UNL A   1      44.225  24.943  27.995  1.00  0.00     0.031 A 
ATOM     34  C   UNL A   1      43.326  26.075  28.391  1.00  0.00     0.074 A 
ATOM     35  C   UNL A   1      45.546  25.171  27.779  1.00  0.00     0.049 A 
ATOM     36  N   UNL A   1      43.578  27.358  28.412  1.00  0.00    -0.248 NA
ATOM     37  C   UNL A   1      41.949  25.723  28.766  1.00  0.00     0.031 C 
ATOM     38  C   UNL A   1      46.551  24.190  27.351  1.00  0.00     0.029 A 
ATOM     39  N   UNL A   1      46.283  26.337  27.824  1.00  0.00    -0.354 N 
ATOM     40  C   UNL A   1      42.382  27.974  28.754  1.00  0.00     0.074 A 
ATOM     41  C   UNL A   1      41.394  26.921  28.887  1.00  0.00     0.031 C 
ATOM     42  C   UNL A   1      47.734  24.771  27.153  1.00  0.00     0.029 A 
ATOM     43  C   UNL A   1      47.580  26.189  27.366  1.00  0.00     0.049 A 
ATOM     44  H   UNL A   1      45.921  27.192  28.149  1.00  0.00     0.167 HD
ATOM     45  C   UNL A   1      42.141  29.293  28.955  1.00  0.00     0.037 A 
ATOM     46  C   UNL A   1      48.553  27.073  27.083  1.00  0.00     0.037 A 
ATOM     47  C   UNL A   1      43.156  30.314  28.852  1.00  0.00     0.049 A 
ATOM     48  C   UNL A   1      48.266  28.517  27.310  1.00  0.00     0.074 A 
ATOM     49  C   UNL A   1      43.045  31.671  29.106  1.00  0.00     0.029 A 
ATOM     50  N   UNL A   1      44.473  30.090  28.470  1.00  0.00    -0.354 N 
ATOM     51  N   UNL A   1      47.138  29.073  27.677  1.00  0.00    -0.248 NA
ATOM     52  C   UNL A   1      49.376  29.451  27.106  1.00  0.00     0.031 C 
ATOM     53  C   UNL A   1      44.281  32.270  28.840  1.00  0.00     0.029 A 
ATOM     54  C   UNL A   1      45.180  31.282  28.473  1.00  0.00     0.049 A 
ATOM     55  H   UNL A   1      44.849  29.212  28.231  1.00  0.00     0.167 HD
ATOM     56  C   UNL A   1      47.414  30.424  27.795  1.00  0.00     0.074 A 
ATOM     57  C   UNL A   1      48.814  30.597  27.462  1.00  0.00     0.031 C 
ATOM     58  C   UNL A   1      46.580  31.428  28.154  1.00  0.00     0.037 A 
BRANCH  45  59
ATOM     59  C   UNL A   1      40.735  29.700  29.313  1.00  0.00     0.058 A 
ATOM     60  C   UNL A   1      40.391  30.090  30.619  1.00  0.00     0.135 A 
ATOM     61  C   UNL A   1      39.718  29.711  28.344  1.00  0.00     0.135 A 
ATOM     62  F   UNL A   1      41.319  30.096  31.589  1.00  0.00    -0.206 F 
ATOM     63  C   UNL A   1      39.084  30.420  30.962  1.00  0.00     0.059 A 
ATOM     64  C   UNL A   1      38.410  30.075  28.657  1.00  0.00     0.059 A 
ATOM     65  F   UNL A   1      39.985  29.359  27.076  1.00  0.00    -0.206 F 
ATOM     66  C   UNL A   1      38.099  30.406  29.975  1.00  0.00     0.060 A 
BRANCH  66  67
ATOM     67  S   UNL A   1      36.409  30.833  30.444  1.00  0.00     0.124 S 
ATOM     68  O   UNL A   1      36.047  29.701  31.293  1.00  0.00    -0.237 OA
ATOM     69  O   UNL A   1      36.588  32.108  31.131  1.00  0.00    -0.237 OA
ATOM     70  O   UNL A   1      35.708  30.906  29.166  1.00  0.00    -0.744 OA
ENDBRANCH  66  67
ENDBRANCH  45  59
BRANCH  46  71
ATOM     71  C   UNL A   1      49.878  26.606  26.589  1.00  0.00     0.058 A 
ATOM     72  C   UNL A   1      50.849  26.146  27.489  1.00  0.00     0.135 A 
ATOM     73  C   UNL A   1      50.194  26.572  25.219  1.00  0.00     0.135 A 
ATOM     74  F   UNL A   1      50.591  26.141  28.805  1.00  0.00    -0.206 F 
ATOM     75  C   UNL A   1      52.096  25.705  27.060  1.00  0.00     0.059 A 
ATOM     76  C   UNL A   1      51.425  26.110  24.761  1.00  0.00     0.059 A 
ATOM     77  F   UNL A   1      49.286  26.959  24.309  1.00  0.00    -0.206 F 
ATOM     78  C   UNL A   1      52.377  25.694  25.692  1.00  0.00     0.060 A 
BRANCH  78  79
ATOM     79  S   UNL A   1      54.000  25.112  25.153  1.00  0.00     0.124 S 
ATOM     80  O   UNL A   1      54.824  25.422  26.317  1.00  0.00    -0.237 OA
ATOM     81  O   UNL A   1      53.749  23.695  24.909  1.00  0.00    -0.237 OA
ATOM     82  O   UNL A   1      54.266  25.909  23.960  1.00  0.00    -0.744 OA
ENDBRANCH  78  79
ENDBRANCH  46  71
BRANCH  58  83
ATOM     83  C   UNL A   1      47.185  32.795  28.263  1.00  0.00     0.058 A 
ATOM     84  C   UNL A   1      47.161  33.703  27.194  1.00  0.00     0.135 A 
ATOM     85  C   UNL A   1      47.767  33.208  29.472  1.00  0.00     0.135 A 
ATOM     86  F   UNL A   1      46.639  33.343  26.011  1.00  0.00    -0.206 F 
ATOM     87  C   UNL A   1      47.708  34.974  27.316  1.00  0.00     0.059 A 
ATOM     88  C   UNL A   1      48.288  34.485  29.626  1.00  0.00     0.059 A 
ATOM     89  F   UNL A   1      47.817  32.371  30.520  1.00  0.00    -0.206 F 
ATOM     90  C   UNL A   1      48.260  35.359  28.540  1.00  0.00     0.060 A 
BRANCH  90  91
ATOM     91  S   UNL A   1      48.904  37.035  28.703  1.00  0.00     0.124 S 
ATOM     92  O   UNL A   1      49.276  37.342  27.326  1.00  0.00    -0.237 OA
ATOM     93  O   UNL A   1      47.750  37.760  29.226  1.00  0.00    -0.237 OA
ATOM     94  O   UNL A   1      50.016  36.882  29.636  1.00  0.00    -0.744 OA
ENDBRANCH  90  91
ENDBRANCH  58  83
ENDBRANCH  32  33
ENDBRANCH  25  27
ENDBRANCH  24  25
ENDBRANCH  23  24
ENDBRANCH   1  23
TORSDOF 20
ENDMDL
