MODEL 1
REMARK VINA RESULT:     -10.3      0.000      0.000
REMARK SMILES C[C@@H](C(=O)OCCOC(=O)c1ccc(-c2c3nc(c(-c4c(F)cc(S(=O)(=O)[O-])cc4F)c4ccc([nH]4)c(-c4c(F)cc(S(=O)(=O)[O-])cc4F)c4nc(c(-c5c(F)cc(S(=O)(=O)[O-])cc5F)c5ccc2[nH]5)C=C4)C=C3)cc1)c1ccc(-c2ccccc2)cc1
REMARK SMILES IDX 7 1 6 2 5 3 3 4 4 5 2 6 1 7 77 8 78 9 88 10 79 11 87 12
REMARK SMILES IDX 80 13 81 14 82 15 86 16 83 17 85 18 84 19 8 20 9 21 10 22
REMARK SMILES IDX 11 23 12 24 76 25 13 26 75 27 14 28 15 29 16 30 69 31 17 32
REMARK SMILES IDX 74 33 68 34 70 35 18 36 73 37 67 38 66 39 19 41 53 42 32 43
REMARK SMILES IDX 52 44 33 45 36 46 51 47 71 48 34 49 35 50 50 52 72 53 37 54
REMARK SMILES IDX 20 55 21 56 30 57 22 58 23 59 29 60 31 61 24 62 25 63 26 64
REMARK SMILES IDX 27 65 28 66 54 67 55 68 64 69 56 70 57 71 63 72 65 73 58 74
REMARK SMILES IDX 59 75 60 76 61 77 62 78 38 79 39 80 48 81 40 82 41 83 47 84
REMARK SMILES IDX 49 85 42 86 43 87 44 88 45 89 46 90
REMARK H PARENT 70 40 36 51
REMARK Flexibility Score: inf
ROOT
ATOM      1  C   UNL A   1      33.670  32.986  27.972  1.00  0.00     0.275 C 
ENDROOT
BRANCH   1   2
ATOM      2  C   UNL A   1      33.875  34.350  28.624  1.00  0.00     0.274 C 
BRANCH   2   3
ATOM      3  O   UNL A   1      32.877  34.564  29.643  1.00  0.00    -0.462 OA
BRANCH   3   4
ATOM      4  C   UNL A   1      33.034  35.663  30.437  1.00  0.00     0.313 C 
ATOM      5  O   UNL A   1      33.117  36.807  30.004  1.00  0.00    -0.252 OA
BRANCH   4   6
ATOM      6  C   UNL A   1      33.173  35.299  31.925  1.00  0.00     0.126 C 
ATOM      7  C   UNL A   1      33.035  36.518  32.846  1.00  0.00     0.025 C 
BRANCH   6   8
ATOM      8  C   UNL A   1      34.420  34.457  32.203  1.00  0.00    -0.034 A 
ATOM      9  C   UNL A   1      35.615  35.094  32.579  1.00  0.00     0.005 A 
ATOM     10  C   UNL A   1      34.433  33.057  32.125  1.00  0.00     0.005 A 
ATOM     11  C   UNL A   1      36.771  34.359  32.882  1.00  0.00     0.009 A 
ATOM     12  C   UNL A   1      35.594  32.327  32.421  1.00  0.00     0.009 A 
ATOM     13  C   UNL A   1      36.784  32.958  32.814  1.00  0.00    -0.018 A 
BRANCH  13  14
ATOM     14  C   UNL A   1      37.977  32.170  33.191  1.00  0.00    -0.018 A 
ATOM     15  C   UNL A   1      39.148  32.793  33.658  1.00  0.00     0.009 A 
ATOM     16  C   UNL A   1      37.971  30.764  33.134  1.00  0.00     0.009 A 
ATOM     17  C   UNL A   1      40.257  32.045  34.067  1.00  0.00     0.001 A 
ATOM     18  C   UNL A   1      39.078  30.015  33.547  1.00  0.00     0.001 A 
ATOM     19  C   UNL A   1      40.219  30.656  34.019  1.00  0.00     0.000 A 
ENDBRANCH  13  14
ENDBRANCH   6   8
ENDBRANCH   4   6
ENDBRANCH   3   4
ENDBRANCH   2   3
ENDBRANCH   1   2
BRANCH   1  20
ATOM     20  O   UNL A   1      34.358  31.989  28.744  1.00  0.00    -0.458 OA
BRANCH  20  21
ATOM     21  C   UNL A   1      34.357  30.736  28.234  1.00  0.00     0.338 C 
ATOM     22  O   UNL A   1      33.415  30.127  27.762  1.00  0.00    -0.246 OA
BRANCH  21  23
ATOM     23  C   UNL A   1      35.717  30.185  28.332  1.00  0.00     0.060 A 
ATOM     24  C   UNL A   1      36.196  29.754  29.566  1.00  0.00     0.016 A 
ATOM     25  C   UNL A   1      36.553  30.187  27.214  1.00  0.00     0.016 A 
ATOM     26  C   UNL A   1      37.535  29.399  29.701  1.00  0.00     0.010 A 
ATOM     27  C   UNL A   1      37.879  29.756  27.340  1.00  0.00     0.010 A 
ATOM     28  C   UNL A   1      38.398  29.396  28.597  1.00  0.00    -0.014 A 
BRANCH  28  29
ATOM     29  C   UNL A   1      39.843  29.086  28.782  1.00  0.00     0.031 A 
ATOM     30  C   UNL A   1      40.735  30.056  29.516  1.00  0.00     0.074 A 
ATOM     31  C   UNL A   1      40.353  27.916  28.350  1.00  0.00     0.049 A 
ATOM     32  N   UNL A   1      42.035  30.030  29.671  1.00  0.00    -0.248 NA
ATOM     33  C   UNL A   1      40.084  31.220  30.140  1.00  0.00     0.031 C 
ATOM     34  C   UNL A   1      39.597  26.855  27.682  1.00  0.00     0.029 A 
ATOM     35  N   UNL A   1      41.622  27.400  28.450  1.00  0.00    -0.354 N 
ATOM     36  C   UNL A   1      42.364  31.205  30.338  1.00  0.00     0.074 A 
ATOM     37  C   UNL A   1      41.125  31.914  30.578  1.00  0.00     0.031 C 
ATOM     38  C   UNL A   1      40.389  25.784  27.521  1.00  0.00     0.029 A 
ATOM     39  C   UNL A   1      41.730  26.105  27.999  1.00  0.00     0.049 A 
ATOM     40  H   UNL A   1      42.383  27.908  28.811  1.00  0.00     0.167 HD
ATOM     41  C   UNL A   1      43.588  31.657  30.702  1.00  0.00     0.037 A 
ATOM     42  C   UNL A   1      42.787  25.271  27.977  1.00  0.00     0.037 A 
ATOM     43  C   UNL A   1      44.808  30.913  30.534  1.00  0.00     0.049 A 
ATOM     44  C   UNL A   1      44.126  25.768  28.444  1.00  0.00     0.074 A 
ATOM     45  C   UNL A   1      46.104  31.299  30.828  1.00  0.00     0.029 A 
ATOM     46  N   UNL A   1      44.878  29.611  30.061  1.00  0.00    -0.354 N 
ATOM     47  N   UNL A   1      44.437  26.925  28.974  1.00  0.00    -0.248 NA
ATOM     48  C   UNL A   1      45.266  24.854  28.279  1.00  0.00     0.031 C 
ATOM     49  C   UNL A   1      46.960  30.235  30.518  1.00  0.00     0.029 A 
ATOM     50  C   UNL A   1      46.193  29.179  30.057  1.00  0.00     0.049 A 
ATOM     51  H   UNL A   1      44.105  29.074  29.771  1.00  0.00     0.167 HD
ATOM     52  C   UNL A   1      45.810  26.890  29.183  1.00  0.00     0.074 A 
ATOM     53  C   UNL A   1      46.264  25.577  28.771  1.00  0.00     0.031 C 
ATOM     54  C   UNL A   1      46.626  27.868  29.646  1.00  0.00     0.037 A 
BRANCH  41  55
ATOM     55  C   UNL A   1      43.674  33.049  31.262  1.00  0.00     0.058 A 
ATOM     56  C   UNL A   1      43.790  34.180  30.443  1.00  0.00     0.135 A 
ATOM     57  C   UNL A   1      43.619  33.246  32.652  1.00  0.00     0.135 A 
ATOM     58  F   UNL A   1      43.867  34.046  29.110  1.00  0.00    -0.206 F 
ATOM     59  C   UNL A   1      43.872  35.461  30.984  1.00  0.00     0.059 A 
ATOM     60  C   UNL A   1      43.678  34.518  33.213  1.00  0.00     0.059 A 
ATOM     61  F   UNL A   1      43.508  32.196  33.480  1.00  0.00    -0.206 F 
ATOM     62  C   UNL A   1      43.821  35.619  32.370  1.00  0.00     0.060 A 
BRANCH  62  63
ATOM     63  S   UNL A   1      43.935  37.282  33.065  1.00  0.00     0.124 S 
ATOM     64  O   UNL A   1      42.777  37.304  33.954  1.00  0.00    -0.237 OA
ATOM     65  O   UNL A   1      45.238  37.262  33.724  1.00  0.00    -0.237 OA
ATOM     66  O   UNL A   1      43.844  38.146  31.893  1.00  0.00    -0.744 OA
ENDBRANCH  62  63
ENDBRANCH  41  55
BRANCH  42  67
ATOM     67  C   UNL A   1      42.620  23.870  27.510  1.00  0.00     0.058 A 
ATOM     68  C   UNL A   1      42.447  22.830  28.436  1.00  0.00     0.135 A 
ATOM     69  C   UNL A   1      42.607  23.541  26.147  1.00  0.00     0.135 A 
ATOM     70  F   UNL A   1      42.459  23.098  29.752  1.00  0.00    -0.206 F 
ATOM     71  C   UNL A   1      42.272  21.512  28.030  1.00  0.00     0.059 A 
ATOM     72  C   UNL A   1      42.410  22.234  25.714  1.00  0.00     0.059 A 
ATOM     73  F   UNL A   1      42.758  24.500  25.221  1.00  0.00    -0.206 F 
ATOM     74  C   UNL A   1      42.253  21.224  26.664  1.00  0.00     0.060 A 
BRANCH  74  75
ATOM     75  S   UNL A   1      41.955  19.524  26.129  1.00  0.00     0.124 S 
ATOM     76  O   UNL A   1      42.806  19.437  24.949  1.00  0.00    -0.237 OA
ATOM     77  O   UNL A   1      42.388  18.747  27.287  1.00  0.00    -0.237 OA
ATOM     78  O   UNL A   1      40.517  19.508  25.878  1.00  0.00    -0.744 OA
ENDBRANCH  74  75
ENDBRANCH  42  67
BRANCH  54  79
ATOM     79  C   UNL A   1      48.094  27.561  29.717  1.00  0.00     0.058 A 
ATOM     80  C   UNL A   1      48.968  27.959  28.692  1.00  0.00     0.135 A 
ATOM     81  C   UNL A   1      48.642  26.915  30.836  1.00  0.00     0.135 A 
ATOM     82  F   UNL A   1      48.490  28.576  27.600  1.00  0.00    -0.206 F 
ATOM     83  C   UNL A   1      50.333  27.712  28.766  1.00  0.00     0.059 A 
ATOM     84  C   UNL A   1      50.008  26.674  30.940  1.00  0.00     0.059 A 
ATOM     85  F   UNL A   1      47.849  26.524  31.846  1.00  0.00    -0.206 F 
ATOM     86  C   UNL A   1      50.845  27.066  29.894  1.00  0.00     0.060 A 
BRANCH  86  87
ATOM     87  S   UNL A   1      52.625  26.781  29.997  1.00  0.00     0.124 S 
ATOM     88  O   UNL A   1      52.895  26.149  28.710  1.00  0.00    -0.237 OA
ATOM     89  O   UNL A   1      53.154  28.132  30.163  1.00  0.00    -0.237 OA
ATOM     90  O   UNL A   1      52.761  25.914  31.164  1.00  0.00    -0.744 OA
ENDBRANCH  86  87
ENDBRANCH  54  79
ENDBRANCH  28  29
ENDBRANCH  21  23
ENDBRANCH  20  21
ENDBRANCH   1  20
TORSDOF 16
ENDMDL
MODEL 2
REMARK VINA RESULT:     -10.1      4.616     12.013
REMARK SMILES C[C@@H](C(=O)OCCOC(=O)c1ccc(-c2c3nc(c(-c4c(F)cc(S(=O)(=O)[O-])cc4F)c4ccc([nH]4)c(-c4c(F)cc(S(=O)(=O)[O-])cc4F)c4nc(c(-c5c(F)cc(S(=O)(=O)[O-])cc5F)c5ccc2[nH]5)C=C4)C=C3)cc1)c1ccc(-c2ccccc2)cc1
REMARK SMILES IDX 7 1 6 2 5 3 3 4 4 5 2 6 1 7 77 8 78 9 88 10 79 11 87 12
REMARK SMILES IDX 80 13 81 14 82 15 86 16 83 17 85 18 84 19 8 20 9 21 10 22
REMARK SMILES IDX 11 23 12 24 76 25 13 26 75 27 14 28 15 29 16 30 69 31 17 32
REMARK SMILES IDX 74 33 68 34 70 35 18 36 73 37 67 38 66 39 19 41 53 42 32 43
REMARK SMILES IDX 52 44 33 45 36 46 51 47 71 48 34 49 35 50 50 52 72 53 37 54
REMARK SMILES IDX 20 55 21 56 30 57 22 58 23 59 29 60 31 61 24 62 25 63 26 64
REMARK SMILES IDX 27 65 28 66 54 67 55 68 64 69 56 70 57 71 63 72 65 73 58 74
REMARK SMILES IDX 59 75 60 76 61 77 62 78 38 79 39 80 48 81 40 82 41 83 47 84
REMARK SMILES IDX 49 85 42 86 43 87 44 88 45 89 46 90
REMARK H PARENT 70 40 36 51
REMARK Flexibility Score: inf
ROOT
ATOM      1  C   UNL A   1      43.291  23.063  25.570  1.00  0.00     0.275 C 
ENDROOT
BRANCH   1   2
ATOM      2  C   UNL A   1      44.670  22.872  26.195  1.00  0.00     0.274 C 
BRANCH   2   3
ATOM      3  O   UNL A   1      45.530  23.975  25.842  1.00  0.00    -0.462 OA
BRANCH   3   4
ATOM      4  C   UNL A   1      46.247  24.545  26.852  1.00  0.00     0.313 C 
ATOM      5  O   UNL A   1      47.385  24.203  27.153  1.00  0.00    -0.252 OA
BRANCH   4   6
ATOM      6  C   UNL A   1      45.441  25.608  27.620  1.00  0.00     0.126 C 
ATOM      7  C   UNL A   1      45.954  27.032  27.369  1.00  0.00     0.025 C 
BRANCH   6   8
ATOM      8  C   UNL A   1      45.288  25.261  29.102  1.00  0.00    -0.034 A 
ATOM      9  C   UNL A   1      44.210  24.460  29.518  1.00  0.00     0.005 A 
ATOM     10  C   UNL A   1      46.191  25.687  30.086  1.00  0.00     0.005 A 
ATOM     11  C   UNL A   1      44.054  24.085  30.861  1.00  0.00     0.009 A 
ATOM     12  C   UNL A   1      46.026  25.316  31.429  1.00  0.00     0.009 A 
ATOM     13  C   UNL A   1      44.962  24.502  31.845  1.00  0.00    -0.018 A 
BRANCH  13  14
ATOM     14  C   UNL A   1      44.842  24.062  33.252  1.00  0.00    -0.018 A 
ATOM     15  C   UNL A   1      43.589  23.789  33.829  1.00  0.00     0.009 A 
ATOM     16  C   UNL A   1      45.980  23.862  34.054  1.00  0.00     0.009 A 
ATOM     17  C   UNL A   1      43.479  23.321  35.143  1.00  0.00     0.001 A 
ATOM     18  C   UNL A   1      45.873  23.389  35.366  1.00  0.00     0.001 A 
ATOM     19  C   UNL A   1      44.621  23.113  35.907  1.00  0.00     0.000 A 
ENDBRANCH  13  14
ENDBRANCH   6   8
ENDBRANCH   4   6
ENDBRANCH   3   4
ENDBRANCH   2   3
ENDBRANCH   1   2
BRANCH   1  20
ATOM     20  O   UNL A   1      42.536  23.985  26.372  1.00  0.00    -0.458 OA
BRANCH  20  21
ATOM     21  C   UNL A   1      42.351  25.217  25.848  1.00  0.00     0.338 C 
ATOM     22  O   UNL A   1      42.531  25.570  24.697  1.00  0.00    -0.246 OA
BRANCH  21  23
ATOM     23  C   UNL A   1      41.876  26.117  26.910  1.00  0.00     0.060 A 
ATOM     24  C   UNL A   1      42.246  27.459  26.889  1.00  0.00     0.016 A 
ATOM     25  C   UNL A   1      41.144  25.606  27.982  1.00  0.00     0.016 A 
ATOM     26  C   UNL A   1      41.952  28.274  27.978  1.00  0.00     0.010 A 
ATOM     27  C   UNL A   1      40.784  26.450  29.041  1.00  0.00     0.010 A 
ATOM     28  C   UNL A   1      41.221  27.786  29.070  1.00  0.00    -0.014 A 
BRANCH  28  29
ATOM     29  C   UNL A   1      40.985  28.656  30.257  1.00  0.00     0.031 A 
ATOM     30  C   UNL A   1      41.972  28.661  31.397  1.00  0.00     0.074 A 
ATOM     31  C   UNL A   1      39.925  29.487  30.296  1.00  0.00     0.049 A 
ATOM     32  N   UNL A   1      41.884  29.247  32.565  1.00  0.00    -0.248 NA
ATOM     33  C   UNL A   1      43.210  27.887  31.211  1.00  0.00     0.031 C 
ATOM     34  C   UNL A   1      38.924  29.637  29.238  1.00  0.00     0.029 A 
ATOM     35  N   UNL A   1      39.536  30.399  31.246  1.00  0.00    -0.354 N 
ATOM     36  C   UNL A   1      43.011  28.852  33.276  1.00  0.00     0.074 A 
ATOM     37  C   UNL A   1      43.781  27.991  32.403  1.00  0.00     0.031 C 
ATOM     38  C   UNL A   1      38.098  30.646  29.553  1.00  0.00     0.029 A 
ATOM     39  C   UNL A   1      38.457  31.164  30.870  1.00  0.00     0.049 A 
ATOM     40  H   UNL A   1      39.988  30.497  32.115  1.00  0.00     0.167 HD
ATOM     41  C   UNL A   1      43.363  29.165  34.546  1.00  0.00     0.037 A 
ATOM     42  C   UNL A   1      37.831  32.170  31.510  1.00  0.00     0.037 A 
ATOM     43  C   UNL A   1      42.638  30.084  35.383  1.00  0.00     0.049 A 
ATOM     44  C   UNL A   1      38.275  32.549  32.895  1.00  0.00     0.074 A 
ATOM     45  C   UNL A   1      42.885  30.436  36.698  1.00  0.00     0.029 A 
ATOM     46  N   UNL A   1      41.543  30.828  34.971  1.00  0.00    -0.354 N 
ATOM     47  N   UNL A   1      39.282  32.086  33.594  1.00  0.00    -0.248 NA
ATOM     48  C   UNL A   1      37.475  33.567  33.591  1.00  0.00     0.031 C 
ATOM     49  C   UNL A   1      41.929  31.382  37.087  1.00  0.00     0.029 A 
ATOM     50  C   UNL A   1      41.104  31.638  36.005  1.00  0.00     0.049 A 
ATOM     51  H   UNL A   1      41.137  30.786  34.075  1.00  0.00     0.167 HD
ATOM     52  C   UNL A   1      39.222  32.736  34.821  1.00  0.00     0.074 A 
ATOM     53  C   UNL A   1      38.112  33.664  34.751  1.00  0.00     0.031 C 
ATOM     54  C   UNL A   1      39.999  32.558  35.917  1.00  0.00     0.037 A 
BRANCH  41  55
ATOM     55  C   UNL A   1      44.554  28.459  35.130  1.00  0.00     0.058 A 
ATOM     56  C   UNL A   1      45.865  28.908  34.928  1.00  0.00     0.135 A 
ATOM     57  C   UNL A   1      44.365  27.316  35.927  1.00  0.00     0.135 A 
ATOM     58  F   UNL A   1      46.102  29.982  34.159  1.00  0.00    -0.206 F 
ATOM     59  C   UNL A   1      46.955  28.235  35.476  1.00  0.00     0.059 A 
ATOM     60  C   UNL A   1      45.437  26.640  36.501  1.00  0.00     0.059 A 
ATOM     61  F   UNL A   1      43.129  26.845  36.151  1.00  0.00    -0.206 F 
ATOM     62  C   UNL A   1      46.730  27.099  36.257  1.00  0.00     0.060 A 
BRANCH  62  63
ATOM     63  S   UNL A   1      48.147  26.227  36.959  1.00  0.00     0.124 S 
ATOM     64  O   UNL A   1      48.826  25.759  35.754  1.00  0.00    -0.237 OA
ATOM     65  O   UNL A   1      48.832  27.282  37.702  1.00  0.00    -0.237 OA
ATOM     66  O   UNL A   1      47.533  25.187  37.778  1.00  0.00    -0.744 OA
ENDBRANCH  62  63
ENDBRANCH  41  55
BRANCH  42  67
ATOM     67  C   UNL A   1      36.725  32.904  30.841  1.00  0.00     0.058 A 
ATOM     68  C   UNL A   1      35.390  32.630  31.176  1.00  0.00     0.135 A 
ATOM     69  C   UNL A   1      36.969  33.895  29.881  1.00  0.00     0.135 A 
ATOM     70  F   UNL A   1      35.109  31.683  32.085  1.00  0.00    -0.206 F 
ATOM     71  C   UNL A   1      34.334  33.310  30.580  1.00  0.00     0.059 A 
ATOM     72  C   UNL A   1      35.931  34.607  29.288  1.00  0.00     0.059 A 
ATOM     73  F   UNL A   1      38.228  34.202  29.534  1.00  0.00    -0.206 F 
ATOM     74  C   UNL A   1      34.615  34.300  29.637  1.00  0.00     0.060 A 
BRANCH  74  75
ATOM     75  S   UNL A   1      33.251  35.236  28.912  1.00  0.00     0.124 S 
ATOM     76  O   UNL A   1      32.658  34.245  28.022  1.00  0.00    -0.237 OA
ATOM     77  O   UNL A   1      32.458  35.598  30.083  1.00  0.00    -0.237 OA
ATOM     78  O   UNL A   1      33.930  36.351  28.258  1.00  0.00    -0.744 OA
ENDBRANCH  74  75
ENDBRANCH  42  67
BRANCH  54  79
ATOM     79  C   UNL A   1      39.666  33.371  37.134  1.00  0.00     0.058 A 
ATOM     80  C   UNL A   1      38.706  32.931  38.059  1.00  0.00     0.135 A 
ATOM     81  C   UNL A   1      40.346  34.568  37.408  1.00  0.00     0.135 A 
ATOM     82  F   UNL A   1      38.028  31.794  37.838  1.00  0.00    -0.206 F 
ATOM     83  C   UNL A   1      38.417  33.659  39.207  1.00  0.00     0.059 A 
ATOM     84  C   UNL A   1      40.085  35.304  38.561  1.00  0.00     0.059 A 
ATOM     85  F   UNL A   1      41.279  35.026  36.559  1.00  0.00    -0.206 F 
ATOM     86  C   UNL A   1      39.111  34.846  39.449  1.00  0.00     0.060 A 
BRANCH  86  87
ATOM     87  S   UNL A   1      38.755  35.767  40.961  1.00  0.00     0.124 S 
ATOM     88  O   UNL A   1      38.582  37.121  40.444  1.00  0.00    -0.237 OA
ATOM     89  O   UNL A   1      37.543  35.117  41.451  1.00  0.00    -0.237 OA
ATOM     90  O   UNL A   1      39.947  35.553  41.776  1.00  0.00    -0.744 OA
ENDBRANCH  86  87
ENDBRANCH  54  79
ENDBRANCH  28  29
ENDBRANCH  21  23
ENDBRANCH  20  21
ENDBRANCH   1  20
TORSDOF 16
ENDMDL
MODEL 3
REMARK VINA RESULT:     -10.1      2.545      4.322
REMARK SMILES C[C@@H](C(=O)OCCOC(=O)c1ccc(-c2c3nc(c(-c4c(F)cc(S(=O)(=O)[O-])cc4F)c4ccc([nH]4)c(-c4c(F)cc(S(=O)(=O)[O-])cc4F)c4nc(c(-c5c(F)cc(S(=O)(=O)[O-])cc5F)c5ccc2[nH]5)C=C4)C=C3)cc1)c1ccc(-c2ccccc2)cc1
REMARK SMILES IDX 7 1 6 2 5 3 3 4 4 5 2 6 1 7 77 8 78 9 88 10 79 11 87 12
REMARK SMILES IDX 80 13 81 14 82 15 86 16 83 17 85 18 84 19 8 20 9 21 10 22
REMARK SMILES IDX 11 23 12 24 76 25 13 26 75 27 14 28 15 29 16 30 69 31 17 32
REMARK SMILES IDX 74 33 68 34 70 35 18 36 73 37 67 38 66 39 19 41 53 42 32 43
REMARK SMILES IDX 52 44 33 45 36 46 51 47 71 48 34 49 35 50 50 52 72 53 37 54
REMARK SMILES IDX 20 55 21 56 30 57 22 58 23 59 29 60 31 61 24 62 25 63 26 64
REMARK SMILES IDX 27 65 28 66 54 67 55 68 64 69 56 70 57 71 63 72 65 73 58 74
REMARK SMILES IDX 59 75 60 76 61 77 62 78 38 79 39 80 48 81 40 82 41 83 47 84
REMARK SMILES IDX 49 85 42 86 43 87 44 88 45 89 46 90
REMARK H PARENT 70 40 36 51
REMARK Flexibility Score: inf
ROOT
ATOM      1  C   UNL A   1      35.038  32.354  31.728  1.00  0.00     0.275 C 
ENDROOT
BRANCH   1   2
ATOM      2  C   UNL A   1      35.722  33.571  32.344  1.00  0.00     0.274 C 
BRANCH   2   3
ATOM      3  O   UNL A   1      36.642  33.152  33.372  1.00  0.00    -0.462 OA
BRANCH   3   4
ATOM      4  C   UNL A   1      37.888  33.707  33.346  1.00  0.00     0.313 C 
ATOM      5  O   UNL A   1      38.139  34.832  33.763  1.00  0.00    -0.252 OA
BRANCH   4   6
ATOM      6  C   UNL A   1      38.924  32.795  32.666  1.00  0.00     0.126 C 
ATOM      7  C   UNL A   1      39.744  31.980  33.675  1.00  0.00     0.025 C 
BRANCH   6   8
ATOM      8  C   UNL A   1      39.778  33.547  31.644  1.00  0.00    -0.034 A 
ATOM      9  C   UNL A   1      39.256  33.811  30.366  1.00  0.00     0.005 A 
ATOM     10  C   UNL A   1      41.068  34.019  31.922  1.00  0.00     0.005 A 
ATOM     11  C   UNL A   1      39.989  34.532  29.412  1.00  0.00     0.009 A 
ATOM     12  C   UNL A   1      41.801  34.733  30.962  1.00  0.00     0.009 A 
ATOM     13  C   UNL A   1      41.276  35.013  29.691  1.00  0.00    -0.018 A 
BRANCH  13  14
ATOM     14  C   UNL A   1      42.033  35.828  28.716  1.00  0.00    -0.018 A 
ATOM     15  C   UNL A   1      42.731  36.982  29.113  1.00  0.00     0.009 A 
ATOM     16  C   UNL A   1      42.116  35.455  27.362  1.00  0.00     0.009 A 
ATOM     17  C   UNL A   1      43.492  37.721  28.201  1.00  0.00     0.001 A 
ATOM     18  C   UNL A   1      42.880  36.191  26.450  1.00  0.00     0.001 A 
ATOM     19  C   UNL A   1      43.573  37.321  26.872  1.00  0.00     0.000 A 
ENDBRANCH  13  14
ENDBRANCH   6   8
ENDBRANCH   4   6
ENDBRANCH   3   4
ENDBRANCH   2   3
ENDBRANCH   1   2
BRANCH   1  20
ATOM     20  O   UNL A   1      36.041  31.435  31.268  1.00  0.00    -0.458 OA
BRANCH  20  21
ATOM     21  C   UNL A   1      36.004  31.122  29.952  1.00  0.00     0.338 C 
ATOM     22  O   UNL A   1      35.097  31.327  29.166  1.00  0.00    -0.246 OA
BRANCH  21  23
ATOM     23  C   UNL A   1      37.271  30.471  29.584  1.00  0.00     0.060 A 
ATOM     24  C   UNL A   1      38.129  30.026  30.585  1.00  0.00     0.016 A 
ATOM     25  C   UNL A   1      37.651  30.393  28.244  1.00  0.00     0.016 A 
ATOM     26  C   UNL A   1      39.403  29.574  30.252  1.00  0.00     0.010 A 
ATOM     27  C   UNL A   1      38.904  29.866  27.910  1.00  0.00     0.010 A 
ATOM     28  C   UNL A   1      39.812  29.488  28.915  1.00  0.00    -0.014 A 
BRANCH  28  29
ATOM     29  C   UNL A   1      41.206  29.074  28.588  1.00  0.00     0.031 A 
ATOM     30  C   UNL A   1      42.352  30.024  28.827  1.00  0.00     0.074 A 
ATOM     31  C   UNL A   1      41.462  27.830  28.134  1.00  0.00     0.049 A 
ATOM     32  N   UNL A   1      43.612  29.901  28.494  1.00  0.00    -0.248 NA
ATOM     33  C   UNL A   1      42.037  31.290  29.510  1.00  0.00     0.031 C 
ATOM     34  C   UNL A   1      40.461  26.784  27.917  1.00  0.00     0.029 A 
ATOM     35  N   UNL A   1      42.650  27.219  27.817  1.00  0.00    -0.354 N 
ATOM     36  C   UNL A   1      44.221  31.098  28.855  1.00  0.00     0.074 A 
ATOM     37  C   UNL A   1      43.197  31.929  29.452  1.00  0.00     0.031 C 
ATOM     38  C   UNL A   1      41.084  25.638  27.598  1.00  0.00     0.029 A 
ATOM     39  C   UNL A   1      42.520  25.885  27.508  1.00  0.00     0.049 A 
ATOM     40  H   UNL A   1      43.514  27.690  27.813  1.00  0.00     0.167 HD
ATOM     41  C   UNL A   1      45.512  31.474  28.688  1.00  0.00     0.037 A 
ATOM     42  C   UNL A   1      43.452  24.965  27.194  1.00  0.00     0.037 A 
ATOM     43  C   UNL A   1      46.544  30.616  28.168  1.00  0.00     0.049 A 
ATOM     44  C   UNL A   1      44.890  25.385  27.074  1.00  0.00     0.074 A 
ATOM     45  C   UNL A   1      47.872  30.915  27.918  1.00  0.00     0.029 A 
ATOM     46  N   UNL A   1      46.371  29.277  27.854  1.00  0.00    -0.354 N 
ATOM     47  N   UNL A   1      45.430  26.554  27.318  1.00  0.00    -0.248 NA
ATOM     48  C   UNL A   1      45.841  24.366  26.606  1.00  0.00     0.031 C 
ATOM     49  C   UNL A   1      48.499  29.759  27.438  1.00  0.00     0.029 A 
ATOM     50  C   UNL A   1      47.567  28.735  27.414  1.00  0.00     0.049 A 
ATOM     51  H   UNL A   1      45.522  28.784  27.931  1.00  0.00     0.167 HD
ATOM     52  C   UNL A   1      46.778  26.419  27.008  1.00  0.00     0.074 A 
ATOM     53  C   UNL A   1      46.982  25.042  26.610  1.00  0.00     0.031 C 
ATOM     54  C   UNL A   1      47.753  27.361  27.024  1.00  0.00     0.037 A 
BRANCH  41  55
ATOM     55  C   UNL A   1      45.867  32.897  29.015  1.00  0.00     0.058 A 
ATOM     56  C   UNL A   1      45.778  33.928  28.070  1.00  0.00     0.135 A 
ATOM     57  C   UNL A   1      46.286  33.231  30.314  1.00  0.00     0.135 A 
ATOM     58  F   UNL A   1      45.401  33.660  26.810  1.00  0.00    -0.206 F 
ATOM     59  C   UNL A   1      46.115  35.240  28.393  1.00  0.00     0.059 A 
ATOM     60  C   UNL A   1      46.608  34.538  30.665  1.00  0.00     0.059 A 
ATOM     61  F   UNL A   1      46.389  32.281  31.256  1.00  0.00    -0.206 F 
ATOM     62  C   UNL A   1      46.535  35.533  29.693  1.00  0.00     0.060 A 
BRANCH  62  63
ATOM     63  S   UNL A   1      46.977  37.235  30.104  1.00  0.00     0.124 S 
ATOM     64  O   UNL A   1      48.290  37.054  30.716  1.00  0.00    -0.237 OA
ATOM     65  O   UNL A   1      46.971  37.889  28.798  1.00  0.00    -0.237 OA
ATOM     66  O   UNL A   1      45.913  37.651  31.013  1.00  0.00    -0.744 OA
ENDBRANCH  62  63
ENDBRANCH  41  55
BRANCH  42  67
ATOM     67  C   UNL A   1      43.056  23.547  26.983  1.00  0.00     0.058 A 
ATOM     68  C   UNL A   1      42.956  23.026  25.684  1.00  0.00     0.135 A 
ATOM     69  C   UNL A   1      42.793  22.685  28.056  1.00  0.00     0.135 A 
ATOM     70  F   UNL A   1      43.193  23.818  24.626  1.00  0.00    -0.206 F 
ATOM     71  C   UNL A   1      42.604  21.701  25.454  1.00  0.00     0.059 A 
ATOM     72  C   UNL A   1      42.463  21.349  27.854  1.00  0.00     0.059 A 
ATOM     73  F   UNL A   1      42.886  23.133  29.318  1.00  0.00    -0.206 F 
ATOM     74  C   UNL A   1      42.361  20.869  26.548  1.00  0.00     0.060 A 
BRANCH  74  75
ATOM     75  S   UNL A   1      41.973  19.128  26.258  1.00  0.00     0.124 S 
ATOM     76  O   UNL A   1      40.559  19.198  25.913  1.00  0.00    -0.237 OA
ATOM     77  O   UNL A   1      42.880  18.778  25.169  1.00  0.00    -0.237 OA
ATOM     78  O   UNL A   1      42.283  18.506  27.542  1.00  0.00    -0.744 OA
ENDBRANCH  74  75
ENDBRANCH  42  67
BRANCH  54  79
ATOM     79  C   UNL A   1      49.124  26.938  26.583  1.00  0.00     0.058 A 
ATOM     80  C   UNL A   1      50.060  26.441  27.505  1.00  0.00     0.135 A 
ATOM     81  C   UNL A   1      49.489  26.976  25.229  1.00  0.00     0.135 A 
ATOM     82  F   UNL A   1      49.757  26.390  28.812  1.00  0.00    -0.206 F 
ATOM     83  C   UNL A   1      51.318  26.012  27.101  1.00  0.00     0.059 A 
ATOM     84  C   UNL A   1      50.737  26.534  24.800  1.00  0.00     0.059 A 
ATOM     85  F   UNL A   1      48.626  27.433  24.309  1.00  0.00    -0.206 F 
ATOM     86  C   UNL A   1      51.650  26.065  25.746  1.00  0.00     0.060 A 
BRANCH  86  87
ATOM     87  S   UNL A   1      53.274  25.472  25.226  1.00  0.00     0.124 S 
ATOM     88  O   UNL A   1      54.154  26.189  26.143  1.00  0.00    -0.237 OA
ATOM     89  O   UNL A   1      53.171  24.032  25.443  1.00  0.00    -0.237 OA
ATOM     90  O   UNL A   1      53.353  25.884  23.828  1.00  0.00    -0.744 OA
ENDBRANCH  86  87
ENDBRANCH  54  79
ENDBRANCH  28  29
ENDBRANCH  21  23
ENDBRANCH  20  21
ENDBRANCH   1  20
TORSDOF 16
ENDMDL
