MODEL 1
REMARK VINA RESULT:      -9.9      0.000      0.000
REMARK SMILES [NH3+][C@H](CC[S@@](=O)[O-])C(=O)OCCOC(=O)c1ccc(-c2c3nc(c(-c4c(F)cc(S(=O)(=O)[O-])cc4F)c4ccc([nH]4)c(-c4c(F)cc(S(=O)(=O)[O-])cc4F)c4nc(c(-c5c(F)cc(S(=O)(=O)[O-])cc5F)c5ccc2[nH]5)C=C4)C=C3)cc1
REMARK SMILES IDX 11 1 10 2 8 3 9 4 2 5 1 6 3 10 4 11 5 12 6 13 7 14 12 15
REMARK SMILES IDX 13 16 14 17 15 18 16 19 17 20 81 21 18 22 80 23 19 24 20 25
REMARK SMILES IDX 21 26 74 27 22 28 79 29 73 30 75 31 23 32 78 33 72 34 71 35
REMARK SMILES IDX 24 37 58 38 37 39 57 40 38 41 41 42 56 43 76 44 39 45 40 46
REMARK SMILES IDX 55 48 77 49 42 50 25 51 26 52 35 53 27 54 28 55 34 56 36 57
REMARK SMILES IDX 29 58 30 59 31 60 32 61 33 62 59 63 60 64 69 65 61 66 62 67
REMARK SMILES IDX 68 68 70 69 63 70 64 71 65 72 66 73 67 74 43 75 44 76 53 77
REMARK SMILES IDX 45 78 46 79 52 80 54 81 47 82 48 83 49 84 50 85 51 86
REMARK H PARENT 1 7 1 8 1 9 75 36 41 47
REMARK Flexibility Score: inf
ROOT
ATOM      1  C   UNL A   1      41.612  21.378  26.255  1.00  0.00     0.274 C 
ENDROOT
BRANCH   1   2
ATOM      2  O   UNL A   1      42.541  20.730  25.362  1.00  0.00    -0.458 OA
BRANCH   2   3
ATOM      3  C   UNL A   1      42.965  19.492  25.738  1.00  0.00     0.364 C 
ATOM      4  O   UNL A   1      42.319  18.746  26.465  1.00  0.00    -0.245 OA
BRANCH   3   5
ATOM      5  C   UNL A   1      44.305  19.086  25.066  1.00  0.00     0.292 C 
BRANCH   5   6
ATOM      6  N   UNL A   1      45.104  18.267  25.988  1.00  0.00    -0.346 N 
ATOM      7  H   UNL A   1      46.071  18.592  25.982  1.00  0.00     0.345 HD
ATOM      8  H   UNL A   1      45.072  17.291  25.692  1.00  0.00     0.345 HD
ATOM      9  H   UNL A   1      44.725  18.349  26.931  1.00  0.00     0.345 HD
ENDBRANCH   5   6
BRANCH   5  10
ATOM     10  C   UNL A   1      45.085  20.173  24.312  1.00  0.00     0.090 C 
BRANCH  10  11
ATOM     11  C   UNL A   1      45.703  21.284  25.151  1.00  0.00     0.096 C 
BRANCH  11  12
ATOM     12  S   UNL A   1      45.300  22.942  24.475  1.00  0.00    -0.055 S 
ATOM     13  O   UNL A   1      46.529  23.496  23.827  1.00  0.00    -0.275 OA
ATOM     14  O   UNL A   1      44.424  22.377  23.257  1.00  0.00    -0.772 OA
ENDBRANCH  11  12
ENDBRANCH  10  11
ENDBRANCH   5  10
ENDBRANCH   3   5
ENDBRANCH   2   3
ENDBRANCH   1   2
BRANCH   1  15
ATOM     15  C   UNL A   1      42.056  22.813  26.569  1.00  0.00     0.275 C 
BRANCH  15  16
ATOM     16  O   UNL A   1      40.965  23.752  26.528  1.00  0.00    -0.458 OA
BRANCH  16  17
ATOM     17  C   UNL A   1      41.323  25.024  26.234  1.00  0.00     0.338 C 
ATOM     18  O   UNL A   1      41.512  25.497  25.125  1.00  0.00    -0.246 OA
BRANCH  17  19
ATOM     19  C   UNL A   1      41.365  25.846  27.453  1.00  0.00     0.060 A 
ATOM     20  C   UNL A   1      40.291  25.747  28.338  1.00  0.00     0.016 A 
ATOM     21  C   UNL A   1      42.357  26.806  27.655  1.00  0.00     0.016 A 
ATOM     22  C   UNL A   1      40.160  26.643  29.389  1.00  0.00     0.010 A 
ATOM     23  C   UNL A   1      42.250  27.680  28.746  1.00  0.00     0.010 A 
ATOM     24  C   UNL A   1      41.138  27.620  29.605  1.00  0.00    -0.014 A 
BRANCH  24  25
ATOM     25  C   UNL A   1      40.955  28.582  30.718  1.00  0.00     0.031 A 
ATOM     26  C   UNL A   1      41.884  28.557  31.898  1.00  0.00     0.074 A 
ATOM     27  C   UNL A   1      39.993  29.522  30.632  1.00  0.00     0.049 A 
ATOM     28  N   UNL A   1      41.834  29.257  33.001  1.00  0.00    -0.248 NA
ATOM     29  C   UNL A   1      43.020  27.624  31.829  1.00  0.00     0.031 C 
ATOM     30  C   UNL A   1      39.073  29.689  29.504  1.00  0.00     0.029 A 
ATOM     31  N   UNL A   1      39.639  30.523  31.500  1.00  0.00    -0.354 N 
ATOM     32  C   UNL A   1      42.904  28.826  33.774  1.00  0.00     0.074 A 
ATOM     33  C   UNL A   1      43.590  27.802  33.012  1.00  0.00     0.031 C 
ATOM     34  C   UNL A   1      38.278  30.744  29.739  1.00  0.00     0.029 A 
ATOM     35  C   UNL A   1      38.587  31.288  31.055  1.00  0.00     0.049 A 
ATOM     36  H   UNL A   1      40.095  30.678  32.358  1.00  0.00     0.167 HD
ATOM     37  C   UNL A   1      43.278  29.246  35.006  1.00  0.00     0.037 A 
ATOM     38  C   UNL A   1      37.924  32.294  31.657  1.00  0.00     0.037 A 
ATOM     39  C   UNL A   1      42.610  30.286  35.743  1.00  0.00     0.049 A 
ATOM     40  C   UNL A   1      38.333  32.714  33.038  1.00  0.00     0.074 A 
ATOM     41  C   UNL A   1      42.901  30.774  37.005  1.00  0.00     0.029 A 
ATOM     42  N   UNL A   1      41.521  31.009  35.277  1.00  0.00    -0.354 N 
ATOM     43  N   UNL A   1      39.308  32.253  33.784  1.00  0.00    -0.248 NA
ATOM     44  C   UNL A   1      37.540  33.777  33.672  1.00  0.00     0.031 C 
ATOM     45  C   UNL A   1      41.974  31.778  37.311  1.00  0.00     0.029 A 
ATOM     46  C   UNL A   1      41.124  31.933  36.228  1.00  0.00     0.049 A 
ATOM     47  H   UNL A   1      41.095  30.884  34.399  1.00  0.00     0.167 HD
ATOM     48  C   UNL A   1      39.249  32.970  34.972  1.00  0.00     0.074 A 
ATOM     49  C   UNL A   1      38.153  33.908  34.840  1.00  0.00     0.031 C 
ATOM     50  C   UNL A   1      40.027  32.856  36.076  1.00  0.00     0.037 A 
BRANCH  37  51
ATOM     51  C   UNL A   1      44.443  28.549  35.648  1.00  0.00     0.058 A 
ATOM     52  C   UNL A   1      44.274  27.421  36.465  1.00  0.00     0.135 A 
ATOM     53  C   UNL A   1      45.751  29.011  35.428  1.00  0.00     0.135 A 
ATOM     54  F   UNL A   1      43.044  26.951  36.722  1.00  0.00    -0.206 F 
ATOM     55  C   UNL A   1      45.360  26.788  37.063  1.00  0.00     0.059 A 
ATOM     56  C   UNL A   1      46.853  28.384  36.001  1.00  0.00     0.059 A 
ATOM     57  F   UNL A   1      45.966  30.089  34.658  1.00  0.00    -0.206 F 
ATOM     58  C   UNL A   1      46.646  27.282  36.830  1.00  0.00     0.060 A 
BRANCH  58  59
ATOM     59  S   UNL A   1      48.050  26.464  37.620  1.00  0.00     0.124 S 
ATOM     60  O   UNL A   1      48.959  27.587  37.828  1.00  0.00    -0.237 OA
ATOM     61  O   UNL A   1      47.450  25.903  38.827  1.00  0.00    -0.237 OA
ATOM     62  O   UNL A   1      48.476  25.486  36.624  1.00  0.00    -0.744 OA
ENDBRANCH  58  59
ENDBRANCH  37  51
BRANCH  38  63
ATOM     63  C   UNL A   1      36.783  32.941  30.962  1.00  0.00     0.058 A 
ATOM     64  C   UNL A   1      35.460  32.605  31.277  1.00  0.00     0.135 A 
ATOM     65  C   UNL A   1      36.996  33.934  29.994  1.00  0.00     0.135 A 
ATOM     66  F   UNL A   1      35.208  31.654  32.189  1.00  0.00    -0.206 F 
ATOM     67  C   UNL A   1      34.383  33.229  30.654  1.00  0.00     0.059 A 
ATOM     68  C   UNL A   1      35.937  34.588  29.374  1.00  0.00     0.059 A 
ATOM     69  F   UNL A   1      38.246  34.299  29.668  1.00  0.00    -0.206 F 
ATOM     70  C   UNL A   1      34.633  34.223  29.705  1.00  0.00     0.060 A 
BRANCH  70  71
ATOM     71  S   UNL A   1      33.236  35.080  28.946  1.00  0.00     0.124 S 
ATOM     72  O   UNL A   1      32.411  35.382  30.111  1.00  0.00    -0.237 OA
ATOM     73  O   UNL A   1      33.880  36.223  28.308  1.00  0.00    -0.237 OA
ATOM     74  O   UNL A   1      32.693  34.083  28.028  1.00  0.00    -0.744 OA
ENDBRANCH  70  71
ENDBRANCH  38  63
BRANCH  50  75
ATOM     75  C   UNL A   1      39.726  33.777  37.220  1.00  0.00     0.058 A 
ATOM     76  C   UNL A   1      38.885  33.381  38.272  1.00  0.00     0.135 A 
ATOM     77  C   UNL A   1      40.315  35.049  37.288  1.00  0.00     0.135 A 
ATOM     78  F   UNL A   1      38.292  32.177  38.246  1.00  0.00    -0.206 F 
ATOM     79  C   UNL A   1      38.627  34.223  39.348  1.00  0.00     0.059 A 
ATOM     80  C   UNL A   1      40.083  35.900  38.364  1.00  0.00     0.059 A 
ATOM     81  F   UNL A   1      41.131  35.468  36.309  1.00  0.00    -0.206 F 
ATOM     82  C   UNL A   1      39.230  35.482  39.384  1.00  0.00     0.060 A 
BRANCH  82  83
ATOM     83  S   UNL A   1      38.918  36.556  40.801  1.00  0.00     0.124 S 
ATOM     84  O   UNL A   1      37.903  35.799  41.525  1.00  0.00    -0.237 OA
ATOM     85  O   UNL A   1      40.230  36.629  41.439  1.00  0.00    -0.237 OA
ATOM     86  O   UNL A   1      38.458  37.798  40.187  1.00  0.00    -0.744 OA
ENDBRANCH  82  83
ENDBRANCH  50  75
ENDBRANCH  24  25
ENDBRANCH  17  19
ENDBRANCH  16  17
ENDBRANCH  15  16
ENDBRANCH   1  15
TORSDOF 18
ENDMDL
MODEL 2
REMARK VINA RESULT:      -9.7      6.260     14.023
REMARK SMILES [NH3+][C@H](CC[S@@](=O)[O-])C(=O)OCCOC(=O)c1ccc(-c2c3nc(c(-c4c(F)cc(S(=O)(=O)[O-])cc4F)c4ccc([nH]4)c(-c4c(F)cc(S(=O)(=O)[O-])cc4F)c4nc(c(-c5c(F)cc(S(=O)(=O)[O-])cc5F)c5ccc2[nH]5)C=C4)C=C3)cc1
REMARK SMILES IDX 11 1 10 2 8 3 9 4 2 5 1 6 3 10 4 11 5 12 6 13 7 14 12 15
REMARK SMILES IDX 13 16 14 17 15 18 16 19 17 20 81 21 18 22 80 23 19 24 20 25
REMARK SMILES IDX 21 26 74 27 22 28 79 29 73 30 75 31 23 32 78 33 72 34 71 35
REMARK SMILES IDX 24 37 58 38 37 39 57 40 38 41 41 42 56 43 76 44 39 45 40 46
REMARK SMILES IDX 55 48 77 49 42 50 25 51 26 52 35 53 27 54 28 55 34 56 36 57
REMARK SMILES IDX 29 58 30 59 31 60 32 61 33 62 59 63 60 64 69 65 61 66 62 67
REMARK SMILES IDX 68 68 70 69 63 70 64 71 65 72 66 73 67 74 43 75 44 76 53 77
REMARK SMILES IDX 45 78 46 79 52 80 54 81 47 82 48 83 49 84 50 85 51 86
REMARK H PARENT 1 7 1 8 1 9 75 36 41 47
REMARK Flexibility Score: inf
ROOT
ATOM      1  C   UNL A   1      35.342  33.729  30.595  1.00  0.00     0.274 C 
ENDROOT
BRANCH   1   2
ATOM      2  O   UNL A   1      33.932  33.785  30.299  1.00  0.00    -0.458 OA
BRANCH   2   3
ATOM      3  C   UNL A   1      33.598  34.264  29.069  1.00  0.00     0.364 C 
ATOM      4  O   UNL A   1      33.613  33.582  28.049  1.00  0.00    -0.245 OA
BRANCH   3   5
ATOM      5  C   UNL A   1      33.099  35.734  29.111  1.00  0.00     0.292 C 
BRANCH   5   6
ATOM      6  N   UNL A   1      34.028  36.603  28.374  1.00  0.00    -0.346 N 
ATOM      7  H   UNL A   1      33.918  36.446  27.372  1.00  0.00     0.345 HD
ATOM      8  H   UNL A   1      34.986  36.387  28.649  1.00  0.00     0.345 HD
ATOM      9  H   UNL A   1      33.824  37.579  28.588  1.00  0.00     0.345 HD
ENDBRANCH   5   6
BRANCH   5  10
ATOM     10  C   UNL A   1      32.617  36.287  30.460  1.00  0.00     0.090 C 
BRANCH  10  11
ATOM     11  C   UNL A   1      33.618  37.105  31.267  1.00  0.00     0.096 C 
BRANCH  11  12
ATOM     12  S   UNL A   1      33.524  36.708  33.056  1.00  0.00    -0.055 S 
ATOM     13  O   UNL A   1      34.028  37.888  33.825  1.00  0.00    -0.275 OA
ATOM     14  O   UNL A   1      31.927  36.830  33.134  1.00  0.00    -0.772 OA
ENDBRANCH  11  12
ENDBRANCH  10  11
ENDBRANCH   5  10
ENDBRANCH   3   5
ENDBRANCH   2   3
ENDBRANCH   1   2
BRANCH   1  15
ATOM     15  C   UNL A   1      35.708  32.418  31.301  1.00  0.00     0.275 C 
BRANCH  15  16
ATOM     16  O   UNL A   1      36.450  31.520  30.454  1.00  0.00    -0.458 OA
BRANCH  16  17
ATOM     17  C   UNL A   1      36.851  30.375  31.055  1.00  0.00     0.338 C 
ATOM     18  O   UNL A   1      36.278  29.776  31.951  1.00  0.00    -0.246 OA
BRANCH  17  19
ATOM     19  C   UNL A   1      38.064  29.848  30.412  1.00  0.00     0.060 A 
ATOM     20  C   UNL A   1      39.093  29.400  31.239  1.00  0.00     0.016 A 
ATOM     21  C   UNL A   1      38.254  29.927  29.032  1.00  0.00     0.016 A 
ATOM     22  C   UNL A   1      40.338  29.093  30.711  1.00  0.00     0.010 A 
ATOM     23  C   UNL A   1      39.497  29.570  28.492  1.00  0.00     0.010 A 
ATOM     24  C   UNL A   1      40.555  29.175  29.331  1.00  0.00    -0.014 A 
BRANCH  24  25
ATOM     25  C   UNL A   1      41.905  28.870  28.798  1.00  0.00     0.031 A 
ATOM     26  C   UNL A   1      42.226  27.489  28.300  1.00  0.00     0.074 A 
ATOM     27  C   UNL A   1      42.819  29.855  28.703  1.00  0.00     0.049 A 
ATOM     28  N   UNL A   1      43.367  27.010  27.879  1.00  0.00    -0.248 NA
ATOM     29  C   UNL A   1      41.118  26.521  28.267  1.00  0.00     0.031 C 
ATOM     30  C   UNL A   1      42.601  31.251  29.091  1.00  0.00     0.029 A 
ATOM     31  N   UNL A   1      44.107  29.838  28.234  1.00  0.00    -0.354 N 
ATOM     32  C   UNL A   1      43.128  25.678  27.568  1.00  0.00     0.074 A 
ATOM     33  C   UNL A   1      41.729  25.423  27.846  1.00  0.00     0.031 C 
ATOM     34  C   UNL A   1      43.708  31.959  28.823  1.00  0.00     0.029 A 
ATOM     35  C   UNL A   1      44.732  31.060  28.304  1.00  0.00     0.049 A 
ATOM     36  H   UNL A   1      44.542  29.028  27.882  1.00  0.00     0.167 HD
ATOM     37  C   UNL A   1      43.997  24.753  27.095  1.00  0.00     0.037 A 
ATOM     38  C   UNL A   1      46.000  31.410  28.013  1.00  0.00     0.037 A 
ATOM     39  C   UNL A   1      45.378  25.023  26.791  1.00  0.00     0.049 A 
ATOM     40  C   UNL A   1      46.955  30.359  27.528  1.00  0.00     0.074 A 
ATOM     41  C   UNL A   1      46.345  24.151  26.321  1.00  0.00     0.029 A 
ATOM     42  N   UNL A   1      45.986  26.264  26.914  1.00  0.00    -0.354 N 
ATOM     43  N   UNL A   1      46.731  29.088  27.298  1.00  0.00    -0.248 NA
ATOM     44  C   UNL A   1      48.340  30.782  27.280  1.00  0.00     0.031 C 
ATOM     45  C   UNL A   1      47.545  24.860  26.183  1.00  0.00     0.029 A 
ATOM     46  C   UNL A   1      47.316  26.180  26.539  1.00  0.00     0.049 A 
ATOM     47  H   UNL A   1      45.538  27.083  27.224  1.00  0.00     0.167 HD
ATOM     48  C   UNL A   1      47.944  28.559  26.878  1.00  0.00     0.074 A 
ATOM     49  C   UNL A   1      48.895  29.652  26.866  1.00  0.00     0.031 C 
ATOM     50  C   UNL A   1      48.245  27.281  26.538  1.00  0.00     0.037 A 
BRANCH  37  51
ATOM     51  C   UNL A   1      43.485  23.353  26.914  1.00  0.00     0.058 A 
ATOM     52  C   UNL A   1      43.365  22.463  27.991  1.00  0.00     0.135 A 
ATOM     53  C   UNL A   1      43.093  22.903  25.643  1.00  0.00     0.135 A 
ATOM     54  F   UNL A   1      43.744  22.838  29.223  1.00  0.00    -0.206 F 
ATOM     55  C   UNL A   1      42.897  21.164  27.811  1.00  0.00     0.059 A 
ATOM     56  C   UNL A   1      42.606  21.615  25.442  1.00  0.00     0.059 A 
ATOM     57  F   UNL A   1      43.192  23.715  24.578  1.00  0.00    -0.206 F 
ATOM     58  C   UNL A   1      42.527  20.747  26.531  1.00  0.00     0.060 A 
BRANCH  58  59
ATOM     59  S   UNL A   1      41.934  19.057  26.302  1.00  0.00     0.124 S 
ATOM     60  O   UNL A   1      42.929  18.524  25.377  1.00  0.00    -0.237 OA
ATOM     61  O   UNL A   1      41.979  18.520  27.659  1.00  0.00    -0.237 OA
ATOM     62  O   UNL A   1      40.595  19.239  25.750  1.00  0.00    -0.744 OA
ENDBRANCH  58  59
ENDBRANCH  37  51
BRANCH  38  63
ATOM     63  C   UNL A   1      46.439  32.815  28.212  1.00  0.00     0.058 A 
ATOM     64  C   UNL A   1      47.009  33.230  29.423  1.00  0.00     0.135 A 
ATOM     65  C   UNL A   1      46.327  33.760  27.180  1.00  0.00     0.135 A 
ATOM     66  F   UNL A   1      47.127  32.363  30.440  1.00  0.00    -0.206 F 
ATOM     67  C   UNL A   1      47.453  34.536  29.607  1.00  0.00     0.059 A 
ATOM     68  C   UNL A   1      46.784  35.064  27.333  1.00  0.00     0.059 A 
ATOM     69  F   UNL A   1      45.799  33.406  25.998  1.00  0.00    -0.206 F 
ATOM     70  C   UNL A   1      47.338  35.445  28.554  1.00  0.00     0.060 A 
BRANCH  70  71
ATOM     71  S   UNL A   1      47.976  37.121  28.771  1.00  0.00     0.124 S 
ATOM     72  O   UNL A   1      48.656  37.011  30.056  1.00  0.00    -0.237 OA
ATOM     73  O   UNL A   1      48.839  37.280  27.605  1.00  0.00    -0.237 OA
ATOM     74  O   UNL A   1      46.767  37.940  28.762  1.00  0.00    -0.744 OA
ENDBRANCH  70  71
ENDBRANCH  38  63
BRANCH  50  75
ATOM     75  C   UNL A   1      49.657  27.003  26.116  1.00  0.00     0.058 A 
ATOM     76  C   UNL A   1      50.045  27.089  24.770  1.00  0.00     0.135 A 
ATOM     77  C   UNL A   1      50.638  26.688  27.068  1.00  0.00     0.135 A 
ATOM     78  F   UNL A   1      49.139  27.379  23.823  1.00  0.00    -0.206 F 
ATOM     79  C   UNL A   1      51.359  26.859  24.380  1.00  0.00     0.059 A 
ATOM     80  C   UNL A   1      51.963  26.470  26.701  1.00  0.00     0.059 A 
ATOM     81  F   UNL A   1      50.316  26.600  28.368  1.00  0.00    -0.206 F 
ATOM     82  C   UNL A   1      52.311  26.548  25.353  1.00  0.00     0.060 A 
BRANCH  82  83
ATOM     83  S   UNL A   1      54.023  26.285  24.844  1.00  0.00     0.124 S 
ATOM     84  O   UNL A   1      53.869  26.036  23.414  1.00  0.00    -0.237 OA
ATOM     85  O   UNL A   1      54.659  27.550  25.201  1.00  0.00    -0.237 OA
ATOM     86  O   UNL A   1      54.439  25.135  25.642  1.00  0.00    -0.744 OA
ENDBRANCH  82  83
ENDBRANCH  50  75
ENDBRANCH  24  25
ENDBRANCH  17  19
ENDBRANCH  16  17
ENDBRANCH  15  16
ENDBRANCH   1  15
TORSDOF 18
ENDMDL
MODEL 3
REMARK VINA RESULT:      -9.6      6.062     14.137
REMARK SMILES [NH3+][C@H](CC[S@@](=O)[O-])C(=O)OCCOC(=O)c1ccc(-c2c3nc(c(-c4c(F)cc(S(=O)(=O)[O-])cc4F)c4ccc([nH]4)c(-c4c(F)cc(S(=O)(=O)[O-])cc4F)c4nc(c(-c5c(F)cc(S(=O)(=O)[O-])cc5F)c5ccc2[nH]5)C=C4)C=C3)cc1
REMARK SMILES IDX 11 1 10 2 8 3 9 4 2 5 1 6 3 10 4 11 5 12 6 13 7 14 12 15
REMARK SMILES IDX 13 16 14 17 15 18 16 19 17 20 81 21 18 22 80 23 19 24 20 25
REMARK SMILES IDX 21 26 74 27 22 28 79 29 73 30 75 31 23 32 78 33 72 34 71 35
REMARK SMILES IDX 24 37 58 38 37 39 57 40 38 41 41 42 56 43 76 44 39 45 40 46
REMARK SMILES IDX 55 48 77 49 42 50 25 51 26 52 35 53 27 54 28 55 34 56 36 57
REMARK SMILES IDX 29 58 30 59 31 60 32 61 33 62 59 63 60 64 69 65 61 66 62 67
REMARK SMILES IDX 68 68 70 69 63 70 64 71 65 72 66 73 67 74 43 75 44 76 53 77
REMARK SMILES IDX 45 78 46 79 52 80 54 81 47 82 48 83 49 84 50 85 51 86
REMARK H PARENT 1 7 1 8 1 9 75 36 41 47
REMARK Flexibility Score: inf
ROOT
ATOM      1  C   UNL A   1      36.448  33.355  33.756  1.00  0.00     0.274 C 
ENDROOT
BRANCH   1   2
ATOM      2  O   UNL A   1      35.115  33.350  34.307  1.00  0.00    -0.458 OA
BRANCH   2   3
ATOM      3  C   UNL A   1      34.116  33.713  33.458  1.00  0.00     0.364 C 
ATOM      4  O   UNL A   1      33.125  33.023  33.242  1.00  0.00    -0.245 OA
BRANCH   3   5
ATOM      5  C   UNL A   1      34.313  35.137  32.870  1.00  0.00     0.292 C 
BRANCH   5   6
ATOM      6  N   UNL A   1      34.052  36.150  33.903  1.00  0.00    -0.346 N 
ATOM      7  H   UNL A   1      33.072  36.107  34.181  1.00  0.00     0.345 HD
ATOM      8  H   UNL A   1      34.258  37.077  33.530  1.00  0.00     0.345 HD
ATOM      9  H   UNL A   1      34.643  35.970  34.713  1.00  0.00     0.345 HD
ENDBRANCH   5   6
BRANCH   5  10
ATOM     10  C   UNL A   1      33.701  35.433  31.492  1.00  0.00     0.090 C 
BRANCH  10  11
ATOM     11  C   UNL A   1      34.179  34.575  30.328  1.00  0.00     0.096 C 
BRANCH  11  12
ATOM     12  S   UNL A   1      33.528  35.191  28.727  1.00  0.00    -0.055 S 
ATOM     13  O   UNL A   1      32.695  34.110  28.113  1.00  0.00    -0.275 OA
ATOM     14  O   UNL A   1      32.464  36.189  29.393  1.00  0.00    -0.772 OA
ENDBRANCH  11  12
ENDBRANCH  10  11
ENDBRANCH   5  10
ENDBRANCH   3   5
ENDBRANCH   2   3
ENDBRANCH   1   2
BRANCH   1  15
ATOM     15  C   UNL A   1      36.730  32.062  32.981  1.00  0.00     0.275 C 
BRANCH  15  16
ATOM     16  O   UNL A   1      37.245  32.309  31.659  1.00  0.00    -0.458 OA
BRANCH  16  17
ATOM     17  C   UNL A   1      36.907  31.378  30.736  1.00  0.00     0.338 C 
ATOM     18  O   UNL A   1      35.789  31.142  30.305  1.00  0.00    -0.246 OA
BRANCH  17  19
ATOM     19  C   UNL A   1      38.106  30.715  30.203  1.00  0.00     0.060 A 
ATOM     20  C   UNL A   1      39.081  30.312  31.115  1.00  0.00     0.016 A 
ATOM     21  C   UNL A   1      38.344  30.622  28.832  1.00  0.00     0.016 A 
ATOM     22  C   UNL A   1      40.323  29.879  30.673  1.00  0.00     0.010 A 
ATOM     23  C   UNL A   1      39.581  30.138  28.384  1.00  0.00     0.010 A 
ATOM     24  C   UNL A   1      40.587  29.787  29.302  1.00  0.00    -0.014 A 
BRANCH  24  25
ATOM     25  C   UNL A   1      41.933  29.350  28.860  1.00  0.00     0.031 A 
ATOM     26  C   UNL A   1      43.085  30.314  28.880  1.00  0.00     0.074 A 
ATOM     27  C   UNL A   1      42.130  28.065  28.503  1.00  0.00     0.049 A 
ATOM     28  N   UNL A   1      44.309  30.144  28.454  1.00  0.00    -0.248 NA
ATOM     29  C   UNL A   1      42.828  31.643  29.457  1.00  0.00     0.031 C 
ATOM     30  C   UNL A   1      41.104  27.020  28.508  1.00  0.00     0.029 A 
ATOM     31  N   UNL A   1      43.263  27.417  28.084  1.00  0.00    -0.354 N 
ATOM     32  C   UNL A   1      44.959  31.352  28.675  1.00  0.00     0.074 A 
ATOM     33  C   UNL A   1      43.993  32.248  29.276  1.00  0.00     0.031 C 
ATOM     34  C   UNL A   1      41.660  25.858  28.134  1.00  0.00     0.029 A 
ATOM     35  C   UNL A   1      43.061  26.086  27.804  1.00  0.00     0.049 A 
ATOM     36  H   UNL A   1      44.137  27.861  27.993  1.00  0.00     0.167 HD
ATOM     37  C   UNL A   1      46.244  31.681  28.400  1.00  0.00     0.037 A 
ATOM     38  C   UNL A   1      43.904  25.161  27.306  1.00  0.00     0.037 A 
ATOM     39  C   UNL A   1      47.207  30.773  27.832  1.00  0.00     0.049 A 
ATOM     40  C   UNL A   1      45.312  25.561  26.972  1.00  0.00     0.074 A 
ATOM     41  C   UNL A   1      48.529  31.014  27.501  1.00  0.00     0.029 A 
ATOM     42  N   UNL A   1      46.953  29.445  27.523  1.00  0.00    -0.354 N 
ATOM     43  N   UNL A   1      45.895  26.725  27.127  1.00  0.00    -0.248 NA
ATOM     44  C   UNL A   1      46.172  24.529  26.377  1.00  0.00     0.031 C 
ATOM     45  C   UNL A   1      49.069  29.836  26.970  1.00  0.00     0.029 A 
ATOM     46  C   UNL A   1      48.090  28.855  26.998  1.00  0.00     0.049 A 
ATOM     47  H   UNL A   1      46.092  28.989  27.657  1.00  0.00     0.167 HD
ATOM     48  C   UNL A   1      47.190  26.567  26.652  1.00  0.00     0.074 A 
ATOM     49  C   UNL A   1      47.312  25.189  26.220  1.00  0.00     0.031 C 
ATOM     50  C   UNL A   1      48.187  27.482  26.572  1.00  0.00     0.037 A 
BRANCH  37  51
ATOM     51  C   UNL A   1      46.668  33.095  28.676  1.00  0.00     0.058 A 
ATOM     52  C   UNL A   1      46.517  34.113  27.724  1.00  0.00     0.135 A 
ATOM     53  C   UNL A   1      47.222  33.436  29.921  1.00  0.00     0.135 A 
ATOM     54  F   UNL A   1      46.011  33.836  26.512  1.00  0.00    -0.206 F 
ATOM     55  C   UNL A   1      46.922  35.419  27.987  1.00  0.00     0.059 A 
ATOM     56  C   UNL A   1      47.618  34.737  30.212  1.00  0.00     0.059 A 
ATOM     57  F   UNL A   1      47.392  32.496  30.865  1.00  0.00    -0.206 F 
ATOM     58  C   UNL A   1      47.478  35.720  29.232  1.00  0.00     0.060 A 
BRANCH  58  59
ATOM     59  S   UNL A   1      48.015  37.412  29.562  1.00  0.00     0.124 S 
ATOM     60  O   UNL A   1      46.952  38.182  28.923  1.00  0.00    -0.237 OA
ATOM     61  O   UNL A   1      48.040  37.458  31.020  1.00  0.00    -0.237 OA
ATOM     62  O   UNL A   1      49.321  37.485  28.914  1.00  0.00    -0.744 OA
ENDBRANCH  58  59
ENDBRANCH  37  51
BRANCH  38  63
ATOM     63  C   UNL A   1      43.418  23.780  27.060  1.00  0.00     0.058 A 
ATOM     64  C   UNL A   1      43.460  22.809  28.068  1.00  0.00     0.135 A 
ATOM     65  C   UNL A   1      42.869  23.417  25.820  1.00  0.00     0.135 A 
ATOM     66  F   UNL A   1      43.984  23.107  29.267  1.00  0.00    -0.206 F 
ATOM     67  C   UNL A   1      42.976  21.521  27.857  1.00  0.00     0.059 A 
ATOM     68  C   UNL A   1      42.360  22.144  25.592  1.00  0.00     0.059 A 
ATOM     69  F   UNL A   1      42.797  24.318  24.827  1.00  0.00    -0.206 F 
ATOM     70  C   UNL A   1      42.425  21.199  26.616  1.00  0.00     0.060 A 
BRANCH  70  71
ATOM     71  S   UNL A   1      41.737  19.548  26.364  1.00  0.00     0.124 S 
ATOM     72  O   UNL A   1      42.485  19.095  25.197  1.00  0.00    -0.237 OA
ATOM     73  O   UNL A   1      42.054  18.882  27.623  1.00  0.00    -0.237 OA
ATOM     74  O   UNL A   1      40.318  19.810  26.143  1.00  0.00    -0.744 OA
ENDBRANCH  70  71
ENDBRANCH  38  63
BRANCH  50  75
ATOM     75  C   UNL A   1      49.497  27.016  26.009  1.00  0.00     0.058 A 
ATOM     76  C   UNL A   1      49.798  27.166  24.646  1.00  0.00     0.135 A 
ATOM     77  C   UNL A   1      50.474  26.454  26.845  1.00  0.00     0.135 A 
ATOM     78  F   UNL A   1      48.891  27.690  23.808  1.00  0.00    -0.206 F 
ATOM     79  C   UNL A   1      51.022  26.761  24.128  1.00  0.00     0.059 A 
ATOM     80  C   UNL A   1      51.712  26.057  26.349  1.00  0.00     0.059 A 
ATOM     81  F   UNL A   1      50.233  26.297  28.155  1.00  0.00    -0.206 F 
ATOM     82  C   UNL A   1      51.973  26.205  24.987  1.00  0.00     0.060 A 
BRANCH  82  83
ATOM     83  S   UNL A   1      53.574  25.714  24.313  1.00  0.00     0.124 S 
ATOM     84  O   UNL A   1      54.478  26.621  25.012  1.00  0.00    -0.237 OA
ATOM     85  O   UNL A   1      53.664  24.308  24.700  1.00  0.00    -0.237 OA
ATOM     86  O   UNL A   1      53.424  25.954  22.881  1.00  0.00    -0.744 OA
ENDBRANCH  82  83
ENDBRANCH  50  75
ENDBRANCH  24  25
ENDBRANCH  17  19
ENDBRANCH  16  17
ENDBRANCH  15  16
ENDBRANCH   1  15
TORSDOF 18
ENDMDL
