MODEL 1
REMARK VINA RESULT:     -12.1      0.000      0.000
REMARK SMILES Cc1ccc(C)c(NC(=O)/C=C/C(=O)OCCOC(=O)c2ccc(-c3c4nc(c(-c5c(F)cc(S(=O)(=O)[O-])cc5F)c5ccc([nH]5)c(-c5c(F)cc(S(=O)(=O)[O-])cc5F)c5nc(c(-c6c(F)cc(S(=O)(=O)[O-])cc6F)c6ccc3[nH]6)C=C5)C=C4)cc2)c1
REMARK SMILES IDX 17 1 16 2 15 3 13 4 14 5 12 6 11 7 9 8 8 9 10 11 7 12 1 13
REMARK SMILES IDX 2 14 3 15 87 16 4 17 5 18 6 19 18 20 19 21 20 22 21 23 22 24
REMARK SMILES IDX 86 25 23 26 85 27 24 28 25 29 26 30 79 31 27 32 84 33 78 34
REMARK SMILES IDX 80 35 28 36 83 37 77 38 76 39 29 41 63 42 42 43 62 44 43 45
REMARK SMILES IDX 46 46 61 47 81 48 44 49 45 50 60 52 82 53 47 54 30 55 31 56
REMARK SMILES IDX 40 57 32 58 33 59 39 60 41 61 34 62 35 63 36 64 37 65 38 66
REMARK SMILES IDX 64 67 65 68 74 69 66 70 67 71 73 72 75 73 68 74 69 75 70 76
REMARK SMILES IDX 71 77 72 78 48 79 49 80 58 81 50 82 51 83 57 84 59 85 52 86
REMARK SMILES IDX 53 87 54 88 55 89 56 90
REMARK H PARENT 8 10 80 40 46 51
REMARK Flexibility Score: inf
ROOT
ATOM      1  C   UNL A   1      41.162  20.671  26.277  1.00  0.00     0.275 C 
ENDROOT
BRANCH   1   2
ATOM      2  C   UNL A   1      40.205  21.867  26.352  1.00  0.00     0.275 C 
BRANCH   2   3
ATOM      3  O   UNL A   1      38.904  21.423  25.950  1.00  0.00    -0.459 OA
BRANCH   3   4
ATOM      4  C   UNL A   1      37.844  22.428  26.003  1.00  0.00     0.331 C 
ATOM      5  O   UNL A   1      38.438  23.530  25.837  1.00  0.00    -0.247 OA
BRANCH   4   6
ATOM      6  C   UNL A   1      35.770  21.979  26.255  1.00  0.00     0.099 C 
ATOM      7  C   UNL A   1      34.452  22.482  26.067  1.00  0.00     0.079 C 
BRANCH   7   8
ATOM      8  C   UNL A   1      33.067  22.015  26.464  1.00  0.00     0.248 C 
ATOM      9  N   UNL A   1      32.386  20.981  25.852  1.00  0.00    -0.322 N 
ATOM     10  H   UNL A   1      31.532  20.764  26.292  1.00  0.00     0.170 HD
ATOM     11  O   UNL A   1      32.584  22.472  27.506  1.00  0.00    -0.270 OA
BRANCH   9  12
ATOM     12  C   UNL A   1      32.655  20.169  24.729  1.00  0.00     0.044 A 
ATOM     13  C   UNL A   1      34.366  16.848  23.845  1.00  0.00     0.044 C 
ATOM     14  C   UNL A   1      33.453  18.040  23.837  1.00  0.00    -0.049 A 
ATOM     15  C   UNL A   1      32.618  18.222  22.733  1.00  0.00     0.004 A 
ATOM     16  C   UNL A   1      33.406  18.988  24.879  1.00  0.00     0.029 A 
ATOM     17  C   UNL A   1      32.063  19.473  22.509  1.00  0.00     0.006 A 
ATOM     18  C   UNL A   1      32.279  20.498  23.436  1.00  0.00    -0.027 A 
ATOM     19  C   UNL A   1      32.607  21.869  22.899  1.00  0.00     0.046 C 
ENDBRANCH   9  12
ENDBRANCH   7   8
ENDBRANCH   4   6
ENDBRANCH   3   4
ENDBRANCH   2   3
ENDBRANCH   1   2
BRANCH   1  20
ATOM     20  O   UNL A   1      42.529  20.977  26.662  1.00  0.00    -0.458 OA
BRANCH  20  21
ATOM     21  C   UNL A   1      43.443  21.203  25.679  1.00  0.00     0.338 C 
ATOM     22  O   UNL A   1      43.800  20.385  24.853  1.00  0.00    -0.246 OA
BRANCH  21  23
ATOM     23  C   UNL A   1      44.027  22.554  25.817  1.00  0.00     0.060 A 
ATOM     24  C   UNL A   1      44.968  22.937  27.332  1.00  0.00     0.016 A 
ATOM     25  C   UNL A   1      43.051  23.844  24.987  1.00  0.00     0.016 A 
ATOM     26  C   UNL A   1      44.752  24.560  28.163  1.00  0.00     0.010 A 
ATOM     27  C   UNL A   1      42.904  25.485  25.776  1.00  0.00     0.010 A 
ATOM     28  C   UNL A   1      43.641  25.787  27.416  1.00  0.00    -0.014 A 
BRANCH  28  29
ATOM     29  C   UNL A   1      43.035  26.920  28.178  1.00  0.00     0.031 A 
ATOM     30  C   UNL A   1      43.978  28.035  28.016  1.00  0.00     0.074 A 
ATOM     31  C   UNL A   1      41.795  27.161  28.702  1.00  0.00     0.049 A 
ATOM     32  N   UNL A   1      45.100  28.146  28.654  1.00  0.00    -0.248 NA
ATOM     33  C   UNL A   1      43.910  28.823  26.773  1.00  0.00     0.031 C 
ATOM     34  C   UNL A   1      40.583  26.332  28.707  1.00  0.00     0.029 A 
ATOM     35  N   UNL A   1      41.328  28.306  29.335  1.00  0.00    -0.354 N 
ATOM     36  C   UNL A   1      45.675  29.253  28.062  1.00  0.00     0.074 A 
ATOM     37  C   UNL A   1      45.178  29.245  26.717  1.00  0.00     0.031 C 
ATOM     38  C   UNL A   1      39.505  27.062  29.111  1.00  0.00     0.029 A 
ATOM     39  C   UNL A   1      39.929  28.391  29.526  1.00  0.00     0.049 A 
ATOM     40  H   UNL A   1      41.937  29.019  29.635  1.00  0.00     0.167 HD
ATOM     41  C   UNL A   1      45.999  30.342  28.816  1.00  0.00     0.037 A 
ATOM     42  C   UNL A   1      39.197  29.457  30.003  1.00  0.00     0.037 A 
ATOM     43  C   UNL A   1      45.944  30.016  30.232  1.00  0.00     0.049 A 
ATOM     44  C   UNL A   1      40.145  30.323  30.748  1.00  0.00     0.074 A 
ATOM     45  C   UNL A   1      46.458  29.011  31.035  1.00  0.00     0.029 A 
ATOM     46  N   UNL A   1      44.917  30.573  30.954  1.00  0.00    -0.354 N 
ATOM     47  N   UNL A   1      40.716  29.977  31.865  1.00  0.00    -0.248 NA
ATOM     48  C   UNL A   1      40.810  31.370  29.995  1.00  0.00     0.031 C 
ATOM     49  C   UNL A   1      45.443  28.732  31.999  1.00  0.00     0.029 A 
ATOM     50  C   UNL A   1      44.401  29.638  31.811  1.00  0.00     0.049 A 
ATOM     51  H   UNL A   1      44.600  31.503  30.869  1.00  0.00     0.167 HD
ATOM     52  C   UNL A   1      42.033  30.372  31.703  1.00  0.00     0.074 A 
ATOM     53  C   UNL A   1      42.015  31.290  30.562  1.00  0.00     0.031 C 
ATOM     54  C   UNL A   1      43.041  29.671  32.300  1.00  0.00     0.037 A 
BRANCH  41  55
ATOM     55  C   UNL A   1      45.890  31.774  28.314  1.00  0.00     0.058 A 
ATOM     56  C   UNL A   1      47.030  32.594  28.420  1.00  0.00     0.135 A 
ATOM     57  C   UNL A   1      44.700  32.454  27.950  1.00  0.00     0.135 A 
ATOM     58  F   UNL A   1      48.217  32.068  28.763  1.00  0.00    -0.206 F 
ATOM     59  C   UNL A   1      46.976  33.977  28.249  1.00  0.00     0.059 A 
ATOM     60  C   UNL A   1      44.635  33.818  27.725  1.00  0.00     0.059 A 
ATOM     61  F   UNL A   1      43.501  31.876  27.862  1.00  0.00    -0.206 F 
ATOM     62  C   UNL A   1      45.769  34.580  27.905  1.00  0.00     0.060 A 
BRANCH  62  63
ATOM     63  S   UNL A   1      45.673  36.361  27.714  1.00  0.00     0.124 S 
ATOM     64  O   UNL A   1      44.247  36.595  27.900  1.00  0.00    -0.237 OA
ATOM     65  O   UNL A   1      46.549  36.820  28.787  1.00  0.00    -0.237 OA
ATOM     66  O   UNL A   1      46.180  36.581  26.361  1.00  0.00    -0.744 OA
ENDBRANCH  62  63
ENDBRANCH  41  55
BRANCH  42  67
ATOM     67  C   UNL A   1      37.824  30.004  29.680  1.00  0.00     0.058 A 
ATOM     68  C   UNL A   1      37.005  30.634  30.657  1.00  0.00     0.135 A 
ATOM     69  C   UNL A   1      37.436  30.237  28.351  1.00  0.00     0.135 A 
ATOM     70  F   UNL A   1      37.279  30.493  31.964  1.00  0.00    -0.206 F 
ATOM     71  C   UNL A   1      35.932  31.492  30.332  1.00  0.00     0.059 A 
ATOM     72  C   UNL A   1      36.372  31.084  28.002  1.00  0.00     0.059 A 
ATOM     73  F   UNL A   1      38.147  29.721  27.339  1.00  0.00    -0.206 F 
ATOM     74  C   UNL A   1      35.641  31.734  28.993  1.00  0.00     0.060 A 
BRANCH  74  75
ATOM     75  S   UNL A   1      34.403  32.988  28.541  1.00  0.00     0.124 S 
ATOM     76  O   UNL A   1      34.042  33.548  29.839  1.00  0.00    -0.237 OA
ATOM     77  O   UNL A   1      35.155  33.872  27.656  1.00  0.00    -0.237 OA
ATOM     78  O   UNL A   1      33.356  32.206  27.889  1.00  0.00    -0.744 OA
ENDBRANCH  74  75
ENDBRANCH  42  67
BRANCH  54  79
ATOM     79  C   UNL A   1      42.685  28.744  33.439  1.00  0.00     0.058 A 
ATOM     80  C   UNL A   1      42.637  27.337  33.374  1.00  0.00     0.135 A 
ATOM     81  C   UNL A   1      42.467  29.328  34.696  1.00  0.00     0.135 A 
ATOM     82  F   UNL A   1      42.929  26.687  32.238  1.00  0.00    -0.206 F 
ATOM     83  C   UNL A   1      42.336  26.558  34.497  1.00  0.00     0.059 A 
ATOM     84  C   UNL A   1      42.199  28.573  35.832  1.00  0.00     0.059 A 
ATOM     85  F   UNL A   1      42.546  30.662  34.838  1.00  0.00    -0.206 F 
ATOM     86  C   UNL A   1      42.114  27.188  35.723  1.00  0.00     0.060 A 
BRANCH  86  87
ATOM     87  S   UNL A   1      41.755  26.190  37.187  1.00  0.00     0.124 S 
ATOM     88  O   UNL A   1      40.488  26.754  37.639  1.00  0.00    -0.237 OA
ATOM     89  O   UNL A   1      41.688  24.838  36.640  1.00  0.00    -0.237 OA
ATOM     90  O   UNL A   1      42.897  26.443  38.062  1.00  0.00    -0.744 OA
ENDBRANCH  86  87
ENDBRANCH  54  79
ENDBRANCH  28  29
ENDBRANCH  21  23
ENDBRANCH  20  21
ENDBRANCH   1  20
TORSDOF 16
ENDMDL
MODEL 2
REMARK VINA RESULT:     -11.8      3.900      9.904
REMARK SMILES Cc1ccc(C)c(NC(=O)/C=C/C(=O)OCCOC(=O)c2ccc(-c3c4nc(c(-c5c(F)cc(S(=O)(=O)[O-])cc5F)c5ccc([nH]5)c(-c5c(F)cc(S(=O)(=O)[O-])cc5F)c5nc(c(-c6c(F)cc(S(=O)(=O)[O-])cc6F)c6ccc3[nH]6)C=C5)C=C4)cc2)c1
REMARK SMILES IDX 17 1 16 2 15 3 13 4 14 5 12 6 11 7 9 8 8 9 10 11 7 12 1 13
REMARK SMILES IDX 2 14 3 15 87 16 4 17 5 18 6 19 18 20 19 21 20 22 21 23 22 24
REMARK SMILES IDX 86 25 23 26 85 27 24 28 25 29 26 30 79 31 27 32 84 33 78 34
REMARK SMILES IDX 80 35 28 36 83 37 77 38 76 39 29 41 63 42 42 43 62 44 43 45
REMARK SMILES IDX 46 46 61 47 81 48 44 49 45 50 60 52 82 53 47 54 30 55 31 56
REMARK SMILES IDX 40 57 32 58 33 59 39 60 41 61 34 62 35 63 36 64 37 65 38 66
REMARK SMILES IDX 64 67 65 68 74 69 66 70 67 71 73 72 75 73 68 74 69 75 70 76
REMARK SMILES IDX 71 77 72 78 48 79 49 80 58 81 50 82 51 83 57 84 59 85 52 86
REMARK SMILES IDX 53 87 54 88 55 89 56 90
REMARK H PARENT 8 10 80 40 46 51
REMARK Flexibility Score: inf
ROOT
ATOM      1  C   UNL A   1      34.388  32.523  27.902  1.00  0.00     0.275 C 
ENDROOT
BRANCH   1   2
ATOM      2  C   UNL A   1      33.743  31.134  27.976  1.00  0.00     0.275 C 
BRANCH   2   3
ATOM      3  O   UNL A   1      33.570  30.651  26.639  1.00  0.00    -0.459 OA
BRANCH   3   4
ATOM      4  C   UNL A   1      34.090  29.311  26.373  1.00  0.00     0.331 C 
ATOM      5  O   UNL A   1      34.883  29.080  27.328  1.00  0.00    -0.247 OA
BRANCH   4   6
ATOM      6  C   UNL A   1      33.499  28.097  24.717  1.00  0.00     0.099 C 
ATOM      7  C   UNL A   1      33.620  27.933  23.309  1.00  0.00     0.079 C 
BRANCH   7   8
ATOM      8  C   UNL A   1      32.970  27.030  22.282  1.00  0.00     0.248 C 
ATOM      9  N   UNL A   1      31.625  27.048  21.967  1.00  0.00    -0.322 N 
ATOM     10  H   UNL A   1      31.393  26.448  21.221  1.00  0.00     0.170 HD
ATOM     11  O   UNL A   1      33.711  26.354  21.560  1.00  0.00    -0.270 OA
BRANCH   9  12
ATOM     12  C   UNL A   1      30.513  27.744  22.487  1.00  0.00     0.044 A 
ATOM     13  C   UNL A   1      28.906  31.228  22.363  1.00  0.00     0.044 C 
ATOM     14  C   UNL A   1      29.113  29.746  22.476  1.00  0.00    -0.049 A 
ATOM     15  C   UNL A   1      28.037  28.960  22.893  1.00  0.00     0.004 A 
ATOM     16  C   UNL A   1      30.339  29.110  22.195  1.00  0.00     0.029 A 
ATOM     17  C   UNL A   1      28.283  27.682  23.373  1.00  0.00     0.006 A 
ATOM     18  C   UNL A   1      29.586  27.177  23.348  1.00  0.00    -0.027 A 
ATOM     19  C   UNL A   1      30.073  26.435  24.569  1.00  0.00     0.046 C 
ENDBRANCH   9  12
ENDBRANCH   7   8
ENDBRANCH   4   6
ENDBRANCH   3   4
ENDBRANCH   2   3
ENDBRANCH   1   2
BRANCH   1  20
ATOM     20  O   UNL A   1      35.407  32.762  28.912  1.00  0.00    -0.458 OA
BRANCH  20  21
ATOM     21  C   UNL A   1      35.019  32.841  30.214  1.00  0.00     0.338 C 
ATOM     22  O   UNL A   1      34.043  33.441  30.620  1.00  0.00    -0.246 OA
BRANCH  21  23
ATOM     23  C   UNL A   1      36.013  32.184  31.090  1.00  0.00     0.060 A 
ATOM     24  C   UNL A   1      37.496  33.130  31.573  1.00  0.00     0.016 A 
ATOM     25  C   UNL A   1      36.107  30.385  30.843  1.00  0.00     0.016 A 
ATOM     26  C   UNL A   1      39.142  32.316  31.585  1.00  0.00     0.010 A 
ATOM     27  C   UNL A   1      37.736  29.564  30.935  1.00  0.00     0.010 A 
ATOM     28  C   UNL A   1      39.251  30.550  31.172  1.00  0.00    -0.014 A 
BRANCH  28  29
ATOM     29  C   UNL A   1      40.509  29.889  30.712  1.00  0.00     0.031 A 
ATOM     30  C   UNL A   1      41.235  29.554  31.944  1.00  0.00     0.074 A 
ATOM     31  C   UNL A   1      40.928  29.363  29.521  1.00  0.00     0.049 A 
ATOM     32  N   UNL A   1      41.893  30.407  32.664  1.00  0.00    -0.248 NA
ATOM     33  C   UNL A   1      40.845  28.330  32.665  1.00  0.00     0.031 C 
ATOM     34  C   UNL A   1      40.251  29.283  28.221  1.00  0.00     0.029 A 
ATOM     35  N   UNL A   1      42.114  28.697  29.236  1.00  0.00    -0.354 N 
ATOM     36  C   UNL A   1      42.261  29.655  33.761  1.00  0.00     0.074 A 
ATOM     37  C   UNL A   1      41.218  28.681  33.900  1.00  0.00     0.031 C 
ATOM     38  C   UNL A   1      40.928  28.453  27.378  1.00  0.00     0.029 A 
ATOM     39  C   UNL A   1      42.168  28.013  28.000  1.00  0.00     0.049 A 
ATOM     40  H   UNL A   1      42.875  28.701  29.861  1.00  0.00     0.167 HD
ATOM     41  C   UNL A   1      43.578  29.504  34.077  1.00  0.00     0.037 A 
ATOM     42  C   UNL A   1      43.159  27.178  27.530  1.00  0.00     0.037 A 
ATOM     43  C   UNL A   1      44.393  30.450  33.332  1.00  0.00     0.049 A 
ATOM     44  C   UNL A   1      44.385  27.495  28.305  1.00  0.00     0.074 A 
ATOM     45  C   UNL A   1      44.360  31.815  33.101  1.00  0.00     0.029 A 
ATOM     46  N   UNL A   1      45.192  29.929  32.342  1.00  0.00    -0.354 N 
ATOM     47  N   UNL A   1      45.031  28.622  28.208  1.00  0.00    -0.248 NA
ATOM     48  C   UNL A   1      44.603  26.745  29.528  1.00  0.00     0.031 C 
ATOM     49  C   UNL A   1      44.776  31.986  31.747  1.00  0.00     0.029 A 
ATOM     50  C   UNL A   1      45.140  30.741  31.241  1.00  0.00     0.049 A 
ATOM     51  H   UNL A   1      45.721  29.102  32.415  1.00  0.00     0.167 HD
ATOM     52  C   UNL A   1      45.312  28.959  29.521  1.00  0.00     0.074 A 
ATOM     53  C   UNL A   1      45.089  27.730  30.284  1.00  0.00     0.031 C 
ATOM     54  C   UNL A   1      45.382  30.271  29.894  1.00  0.00     0.037 A 
BRANCH  41  55
ATOM     55  C   UNL A   1      44.161  28.227  34.665  1.00  0.00     0.058 A 
ATOM     56  C   UNL A   1      44.912  28.335  35.852  1.00  0.00     0.135 A 
ATOM     57  C   UNL A   1      44.222  26.958  34.035  1.00  0.00     0.135 A 
ATOM     58  F   UNL A   1      44.937  29.488  36.538  1.00  0.00    -0.206 F 
ATOM     59  C   UNL A   1      45.709  27.295  36.331  1.00  0.00     0.059 A 
ATOM     60  C   UNL A   1      44.967  25.897  34.522  1.00  0.00     0.059 A 
ATOM     61  F   UNL A   1      43.641  26.668  32.871  1.00  0.00    -0.206 F 
ATOM     62  C   UNL A   1      45.732  26.080  35.652  1.00  0.00     0.060 A 
BRANCH  62  63
ATOM     63  S   UNL A   1      46.778  24.743  36.233  1.00  0.00     0.124 S 
ATOM     64  O   UNL A   1      48.036  25.441  36.468  1.00  0.00    -0.237 OA
ATOM     65  O   UNL A   1      46.054  24.298  37.419  1.00  0.00    -0.237 OA
ATOM     66  O   UNL A   1      46.774  23.803  35.114  1.00  0.00    -0.744 OA
ENDBRANCH  62  63
ENDBRANCH  41  55
BRANCH  42  67
ATOM     67  C   UNL A   1      43.148  25.925  26.682  1.00  0.00     0.058 A 
ATOM     68  C   UNL A   1      43.943  25.791  25.510  1.00  0.00     0.135 A 
ATOM     69  C   UNL A   1      42.639  24.718  27.187  1.00  0.00     0.135 A 
ATOM     70  F   UNL A   1      44.493  26.874  24.937  1.00  0.00    -0.206 F 
ATOM     71  C   UNL A   1      44.269  24.545  24.934  1.00  0.00     0.059 A 
ATOM     72  C   UNL A   1      42.948  23.466  26.630  1.00  0.00     0.059 A 
ATOM     73  F   UNL A   1      41.900  24.711  28.305  1.00  0.00    -0.206 F 
ATOM     74  C   UNL A   1      43.786  23.379  25.523  1.00  0.00     0.060 A 
BRANCH  74  75
ATOM     75  S   UNL A   1      44.351  21.756  24.929  1.00  0.00     0.124 S 
ATOM     76  O   UNL A   1      45.582  21.560  25.689  1.00  0.00    -0.237 OA
ATOM     77  O   UNL A   1      43.239  20.882  25.288  1.00  0.00    -0.237 OA
ATOM     78  O   UNL A   1      44.534  21.967  23.495  1.00  0.00    -0.744 OA
ENDBRANCH  74  75
ENDBRANCH  42  67
BRANCH  54  79
ATOM     79  C   UNL A   1      45.559  31.310  28.812  1.00  0.00     0.058 A 
ATOM     80  C   UNL A   1      44.540  31.817  27.981  1.00  0.00     0.135 A 
ATOM     81  C   UNL A   1      46.832  31.886  28.680  1.00  0.00     0.135 A 
ATOM     82  F   UNL A   1      43.273  31.397  28.104  1.00  0.00    -0.206 F 
ATOM     83  C   UNL A   1      44.794  32.813  27.030  1.00  0.00     0.059 A 
ATOM     84  C   UNL A   1      47.099  32.900  27.766  1.00  0.00     0.059 A 
ATOM     85  F   UNL A   1      47.836  31.483  29.476  1.00  0.00    -0.206 F 
ATOM     86  C   UNL A   1      46.080  33.346  26.929  1.00  0.00     0.060 A 
BRANCH  86  87
ATOM     87  S   UNL A   1      46.412  34.653  25.726  1.00  0.00     0.124 S 
ATOM     88  O   UNL A   1      46.218  35.860  26.522  1.00  0.00    -0.237 OA
ATOM     89  O   UNL A   1      47.787  34.373  25.324  1.00  0.00    -0.237 OA
ATOM     90  O   UNL A   1      45.410  34.424  24.687  1.00  0.00    -0.744 OA
ENDBRANCH  86  87
ENDBRANCH  54  79
ENDBRANCH  28  29
ENDBRANCH  21  23
ENDBRANCH  20  21
ENDBRANCH   1  20
TORSDOF 16
ENDMDL
MODEL 3
REMARK VINA RESULT:     -11.7      2.951      9.579
REMARK SMILES Cc1ccc(C)c(NC(=O)/C=C/C(=O)OCCOC(=O)c2ccc(-c3c4nc(c(-c5c(F)cc(S(=O)(=O)[O-])cc5F)c5ccc([nH]5)c(-c5c(F)cc(S(=O)(=O)[O-])cc5F)c5nc(c(-c6c(F)cc(S(=O)(=O)[O-])cc6F)c6ccc3[nH]6)C=C5)C=C4)cc2)c1
REMARK SMILES IDX 17 1 16 2 15 3 13 4 14 5 12 6 11 7 9 8 8 9 10 11 7 12 1 13
REMARK SMILES IDX 2 14 3 15 87 16 4 17 5 18 6 19 18 20 19 21 20 22 21 23 22 24
REMARK SMILES IDX 86 25 23 26 85 27 24 28 25 29 26 30 79 31 27 32 84 33 78 34
REMARK SMILES IDX 80 35 28 36 83 37 77 38 76 39 29 41 63 42 42 43 62 44 43 45
REMARK SMILES IDX 46 46 61 47 81 48 44 49 45 50 60 52 82 53 47 54 30 55 31 56
REMARK SMILES IDX 40 57 32 58 33 59 39 60 41 61 34 62 35 63 36 64 37 65 38 66
REMARK SMILES IDX 64 67 65 68 74 69 66 70 67 71 73 72 75 73 68 74 69 75 70 76
REMARK SMILES IDX 71 77 72 78 48 79 49 80 58 81 50 82 51 83 57 84 59 85 52 86
REMARK SMILES IDX 53 87 54 88 55 89 56 90
REMARK H PARENT 8 10 80 40 46 51
REMARK Flexibility Score: inf
ROOT
ATOM      1  C   UNL A   1      33.828  34.258  28.779  1.00  0.00     0.275 C 
ENDROOT
BRANCH   1   2
ATOM      2  C   UNL A   1      34.628  33.177  28.041  1.00  0.00     0.275 C 
BRANCH   2   3
ATOM      3  O   UNL A   1      33.732  32.114  27.698  1.00  0.00    -0.459 OA
BRANCH   3   4
ATOM      4  C   UNL A   1      34.344  30.800  27.515  1.00  0.00     0.331 C 
ATOM      5  O   UNL A   1      35.587  31.013  27.580  1.00  0.00    -0.247 OA
BRANCH   4   6
ATOM      6  C   UNL A   1      33.245  28.985  27.263  1.00  0.00     0.099 C 
ATOM      7  C   UNL A   1      33.153  27.793  26.492  1.00  0.00     0.079 C 
BRANCH   7   8
ATOM      8  C   UNL A   1      32.158  26.654  26.406  1.00  0.00     0.248 C 
ATOM      9  N   UNL A   1      32.403  25.450  25.772  1.00  0.00    -0.322 N 
ATOM     10  H   UNL A   1      31.673  24.798  25.884  1.00  0.00     0.170 HD
ATOM     11  O   UNL A   1      31.130  26.736  27.085  1.00  0.00    -0.270 OA
BRANCH   9  12
ATOM     12  C   UNL A   1      33.477  24.958  25.000  1.00  0.00     0.044 A 
ATOM     13  C   UNL A   1      37.086  23.722  25.434  1.00  0.00     0.044 C 
ATOM     14  C   UNL A   1      35.689  23.925  24.922  1.00  0.00    -0.049 A 
ATOM     15  C   UNL A   1      35.352  23.365  23.688  1.00  0.00     0.004 A 
ATOM     16  C   UNL A   1      34.708  24.662  25.615  1.00  0.00     0.029 A 
ATOM     17  C   UNL A   1      34.236  23.840  23.016  1.00  0.00     0.006 A 
ATOM     18  C   UNL A   1      33.425  24.804  23.623  1.00  0.00    -0.027 A 
ATOM     19  C   UNL A   1      32.946  25.954  22.771  1.00  0.00     0.046 C 
ENDBRANCH   9  12
ENDBRANCH   7   8
ENDBRANCH   4   6
ENDBRANCH   3   4
ENDBRANCH   2   3
ENDBRANCH   1   2
BRANCH   1  20
ATOM     20  O   UNL A   1      34.543  34.882  29.880  1.00  0.00    -0.458 OA
BRANCH  20  21
ATOM     21  C   UNL A   1      34.049  34.733  31.139  1.00  0.00     0.338 C 
ATOM     22  O   UNL A   1      32.980  35.164  31.528  1.00  0.00    -0.246 OA
BRANCH  21  23
ATOM     23  C   UNL A   1      35.041  34.067  32.008  1.00  0.00     0.060 A 
ATOM     24  C   UNL A   1      36.667  34.864  32.231  1.00  0.00     0.016 A 
ATOM     25  C   UNL A   1      34.897  32.254  32.001  1.00  0.00     0.016 A 
ATOM     26  C   UNL A   1      38.198  33.850  32.214  1.00  0.00     0.010 A 
ATOM     27  C   UNL A   1      36.419  31.246  32.065  1.00  0.00     0.010 A 
ATOM     28  C   UNL A   1      38.056  32.048  32.037  1.00  0.00    -0.014 A 
BRANCH  28  29
ATOM     29  C   UNL A   1      39.174  31.177  31.566  1.00  0.00     0.031 A 
ATOM     30  C   UNL A   1      39.908  30.808  32.784  1.00  0.00     0.074 A 
ATOM     31  C   UNL A   1      39.444  30.523  30.395  1.00  0.00     0.049 A 
ATOM     32  N   UNL A   1      40.723  31.592  33.416  1.00  0.00    -0.248 NA
ATOM     33  C   UNL A   1      39.379  29.702  33.602  1.00  0.00     0.031 C 
ATOM     34  C   UNL A   1      38.694  30.471  29.135  1.00  0.00     0.029 A 
ATOM     35  N   UNL A   1      40.501  29.669  30.103  1.00  0.00    -0.354 N 
ATOM     36  C   UNL A   1      41.034  30.858  34.543  1.00  0.00     0.074 A 
ATOM     37  C   UNL A   1      39.866  30.065  34.793  1.00  0.00     0.031 C 
ATOM     38  C   UNL A   1      39.192  29.499  28.320  1.00  0.00     0.029 A 
ATOM     39  C   UNL A   1      40.385  28.912  28.914  1.00  0.00     0.049 A 
ATOM     40  H   UNL A   1      41.287  29.593  30.691  1.00  0.00     0.167 HD
ATOM     41  C   UNL A   1      42.329  30.527  34.809  1.00  0.00     0.037 A 
ATOM     42  C   UNL A   1      41.213  27.910  28.457  1.00  0.00     0.037 A 
ATOM     43  C   UNL A   1      43.235  31.292  33.967  1.00  0.00     0.049 A 
ATOM     44  C   UNL A   1      42.512  28.082  29.153  1.00  0.00     0.074 A 
ATOM     45  C   UNL A   1      43.394  32.630  33.648  1.00  0.00     0.029 A 
ATOM     46  N   UNL A   1      43.892  30.598  32.980  1.00  0.00    -0.354 N 
ATOM     47  N   UNL A   1      43.313  29.089  28.953  1.00  0.00    -0.248 NA
ATOM     48  C   UNL A   1      42.682  27.380  30.412  1.00  0.00     0.031 C 
ATOM     49  C   UNL A   1      43.757  32.656  32.268  1.00  0.00     0.029 A 
ATOM     50  C   UNL A   1      43.902  31.341  31.830  1.00  0.00     0.049 A 
ATOM     51  H   UNL A   1      44.295  29.705  33.084  1.00  0.00     0.167 HD
ATOM     52  C   UNL A   1      43.712  29.456  30.226  1.00  0.00     0.074 A 
ATOM     53  C   UNL A   1      43.350  28.323  31.079  1.00  0.00     0.031 C 
ATOM     54  C   UNL A   1      43.998  30.761  30.508  1.00  0.00     0.037 A 
BRANCH  41  55
ATOM     55  C   UNL A   1      42.746  29.213  35.454  1.00  0.00     0.058 A 
ATOM     56  C   UNL A   1      43.574  29.275  36.592  1.00  0.00     0.135 A 
ATOM     57  C   UNL A   1      42.576  27.915  34.911  1.00  0.00     0.135 A 
ATOM     58  F   UNL A   1      43.816  30.450  37.194  1.00  0.00    -0.206 F 
ATOM     59  C   UNL A   1      44.232  28.155  37.101  1.00  0.00     0.059 A 
ATOM     60  C   UNL A   1      43.178  26.782  35.432  1.00  0.00     0.059 A 
ATOM     61  F   UNL A   1      41.888  27.648  33.800  1.00  0.00    -0.206 F 
ATOM     62  C   UNL A   1      44.029  26.912  36.507  1.00  0.00     0.060 A 
BRANCH  62  63
ATOM     63  S   UNL A   1      44.893  25.467  37.126  1.00  0.00     0.124 S 
ATOM     64  O   UNL A   1      44.694  25.604  38.564  1.00  0.00    -0.237 OA
ATOM     65  O   UNL A   1      44.163  24.385  36.473  1.00  0.00    -0.237 OA
ATOM     66  O   UNL A   1      46.262  25.665  36.655  1.00  0.00    -0.744 OA
ENDBRANCH  62  63
ENDBRANCH  41  55
BRANCH  42  67
ATOM     67  C   UNL A   1      40.969  26.625  27.695  1.00  0.00     0.058 A 
ATOM     68  C   UNL A   1      41.788  26.218  26.606  1.00  0.00     0.135 A 
ATOM     69  C   UNL A   1      40.161  25.612  28.233  1.00  0.00     0.135 A 
ATOM     70  F   UNL A   1      42.612  27.096  26.012  1.00  0.00    -0.206 F 
ATOM     71  C   UNL A   1      41.854  24.886  26.143  1.00  0.00     0.059 A 
ATOM     72  C   UNL A   1      40.207  24.280  27.789  1.00  0.00     0.059 A 
ATOM     73  F   UNL A   1      39.366  25.865  29.282  1.00  0.00    -0.206 F 
ATOM     74  C   UNL A   1      41.076  23.914  26.764  1.00  0.00     0.060 A 
BRANCH  74  75
ATOM     75  S   UNL A   1      41.288  22.161  26.329  1.00  0.00     0.124 S 
ATOM     76  O   UNL A   1      41.734  21.580  27.591  1.00  0.00    -0.237 OA
ATOM     77  O   UNL A   1      39.948  21.778  25.893  1.00  0.00    -0.237 OA
ATOM     78  O   UNL A   1      42.295  22.196  25.272  1.00  0.00    -0.744 OA
ENDBRANCH  74  75
ENDBRANCH  42  67
BRANCH  54  79
ATOM     79  C   UNL A   1      44.269  31.696  29.352  1.00  0.00     0.058 A 
ATOM     80  C   UNL A   1      43.379  32.666  28.850  1.00  0.00     0.135 A 
ATOM     81  C   UNL A   1      45.552  31.656  28.784  1.00  0.00     0.135 A 
ATOM     82  F   UNL A   1      42.168  32.844  29.396  1.00  0.00    -0.206 F 
ATOM     83  C   UNL A   1      43.737  33.517  27.797  1.00  0.00     0.059 A 
ATOM     84  C   UNL A   1      45.940  32.514  27.761  1.00  0.00     0.059 A 
ATOM     85  F   UNL A   1      46.465  30.788  29.251  1.00  0.00    -0.206 F 
ATOM     86  C   UNL A   1      45.021  33.430  27.257  1.00  0.00     0.060 A 
BRANCH  86  87
ATOM     87  S   UNL A   1      45.504  34.545  25.919  1.00  0.00     0.124 S 
ATOM     88  O   UNL A   1      45.439  35.850  26.568  1.00  0.00    -0.237 OA
ATOM     89  O   UNL A   1      46.842  34.070  25.579  1.00  0.00    -0.237 OA
ATOM     90  O   UNL A   1      44.489  34.308  24.894  1.00  0.00    -0.744 OA
ENDBRANCH  86  87
ENDBRANCH  54  79
ENDBRANCH  28  29
ENDBRANCH  21  23
ENDBRANCH  20  21
ENDBRANCH   1  20
TORSDOF 16
ENDMDL
