MODEL 1
REMARK VINA RESULT:     -11.0      0.000      0.000
REMARK SMILES O=C(CCC(=O)OCCOC(=O)c1ccc(-c2c3nc(c(-c4c(F)cc(S(=O)(=O)[O-])cc4F)c4ccc([nH]4)c(-c4c(F)cc(S(=O)(=O)[O-])cc4F)c4nc(c(-c5c(F)cc(S(=O)(=O)[O-])cc5F)c5ccc2[nH]5)C=C4)C=C3)cc1)Nc1ccc(Oc2ccccc2Cl)cc1
REMARK SMILES IDX 8 1 7 2 5 3 6 4 4 5 3 6 2 7 1 8 79 9 80 11 81 12 93 13 82 14
REMARK SMILES IDX 92 15 83 16 84 17 85 18 86 19 90 20 87 21 89 22 91 23 88 24
REMARK SMILES IDX 9 25 10 26 11 27 12 28 13 29 14 30 78 31 15 32 77 33 16 34
REMARK SMILES IDX 17 35 18 36 71 37 19 38 76 39 70 40 72 41 20 42 75 43 69 44
REMARK SMILES IDX 68 45 21 47 55 48 34 49 54 50 35 51 38 52 53 53 73 54 36 55
REMARK SMILES IDX 37 56 52 58 74 59 39 60 22 61 23 62 32 63 24 64 25 65 31 66
REMARK SMILES IDX 33 67 26 68 27 69 28 70 29 71 30 72 56 73 57 74 66 75 58 76
REMARK SMILES IDX 59 77 65 78 67 79 60 80 61 81 62 82 63 83 64 84 40 85 41 86
REMARK SMILES IDX 50 87 42 88 43 89 49 90 51 91 44 92 45 93 46 94 47 95 48 96
REMARK H PARENT 79 10 72 46 38 57
REMARK Flexibility Score: inf
ROOT
ATOM      1  C   UNL A   1      34.481  33.589  30.178  1.00  0.00     0.274 C 
ENDROOT
BRANCH   1   2
ATOM      2  O   UNL A   1      34.870  33.347  28.805  1.00  0.00    -0.462 OA
BRANCH   2   3
ATOM      3  C   UNL A   1      33.971  32.733  27.988  1.00  0.00     0.306 C 
ATOM      4  O   UNL A   1      32.911  33.230  27.633  1.00  0.00    -0.252 OA
BRANCH   3   5
ATOM      5  C   UNL A   1      34.392  31.317  27.629  1.00  0.00     0.132 C 
BRANCH   5   6
ATOM      6  C   UNL A   1      33.313  30.434  26.998  1.00  0.00     0.112 C 
BRANCH   6   7
ATOM      7  C   UNL A   1      33.836  29.065  26.598  1.00  0.00     0.224 C 
ATOM      8  O   UNL A   1      34.971  28.703  26.888  1.00  0.00    -0.275 OA
ATOM      9  N   UNL A   1      32.927  28.362  25.841  1.00  0.00    -0.326 N 
ATOM     10  H   UNL A   1      32.021  28.743  25.784  1.00  0.00     0.169 HD
BRANCH   9  11
ATOM     11  C   UNL A   1      33.139  27.169  25.144  1.00  0.00     0.041 A 
ATOM     12  C   UNL A   1      32.978  25.983  25.869  1.00  0.00     0.030 A 
ATOM     13  C   UNL A   1      33.476  27.115  23.797  1.00  0.00     0.030 A 
ATOM     14  C   UNL A   1      33.125  24.748  25.244  1.00  0.00     0.049 A 
ATOM     15  C   UNL A   1      33.653  25.876  23.176  1.00  0.00     0.049 A 
ATOM     16  C   UNL A   1      33.477  24.689  23.897  1.00  0.00     0.127 A 
BRANCH  16  17
ATOM     17  O   UNL A   1      33.623  23.411  23.401  1.00  0.00    -0.456 OA
BRANCH  17  18
ATOM     18  C   UNL A   1      34.647  22.650  23.900  1.00  0.00     0.146 A 
ATOM     19  C   UNL A   1      35.950  23.071  23.624  1.00  0.00     0.049 A 
ATOM     20  C   UNL A   1      34.418  21.474  24.624  1.00  0.00     0.083 A 
ATOM     21  C   UNL A   1      37.030  22.346  24.122  1.00  0.00     0.004 A 
ATOM     22  C   UNL A   1      35.503  20.762  25.135  1.00  0.00     0.024 A 
ATOM     23  Cl  UNL A   1      32.826  20.876  24.916  1.00  0.00    -0.080 Cl
ATOM     24  C   UNL A   1      36.807  21.201  24.888  1.00  0.00     0.002 A 
ENDBRANCH  17  18
ENDBRANCH  16  17
ENDBRANCH   9  11
ENDBRANCH   6   7
ENDBRANCH   5   6
ENDBRANCH   3   5
ENDBRANCH   2   3
ENDBRANCH   1   2
BRANCH   1  25
ATOM     25  C   UNL A   1      35.074  32.534  31.117  1.00  0.00     0.275 C 
BRANCH  25  26
ATOM     26  O   UNL A   1      36.231  31.927  30.522  1.00  0.00    -0.458 OA
BRANCH  26  27
ATOM     27  C   UNL A   1      36.701  30.843  31.185  1.00  0.00     0.338 C 
ATOM     28  O   UNL A   1      36.124  30.222  32.059  1.00  0.00    -0.246 OA
BRANCH  27  29
ATOM     29  C   UNL A   1      37.951  30.393  30.552  1.00  0.00     0.060 A 
ATOM     30  C   UNL A   1      38.971  29.919  31.381  1.00  0.00     0.016 A 
ATOM     31  C   UNL A   1      38.132  30.463  29.171  1.00  0.00     0.016 A 
ATOM     32  C   UNL A   1      40.184  29.519  30.833  1.00  0.00     0.010 A 
ATOM     33  C   UNL A   1      39.350  30.051  28.620  1.00  0.00     0.010 A 
ATOM     34  C   UNL A   1      40.387  29.588  29.449  1.00  0.00    -0.014 A 
BRANCH  34  35
ATOM     35  C   UNL A   1      41.705  29.196  28.896  1.00  0.00     0.031 A 
ATOM     36  C   UNL A   1      42.829  30.191  28.857  1.00  0.00     0.074 A 
ATOM     37  C   UNL A   1      41.896  27.930  28.481  1.00  0.00     0.049 A 
ATOM     38  N   UNL A   1      44.061  30.029  28.450  1.00  0.00    -0.248 NA
ATOM     39  C   UNL A   1      42.525  31.550  29.332  1.00  0.00     0.031 C 
ATOM     40  C   UNL A   1      40.880  26.876  28.497  1.00  0.00     0.029 A 
ATOM     41  N   UNL A   1      43.013  27.311  27.984  1.00  0.00    -0.354 N 
ATOM     42  C   UNL A   1      44.677  31.264  28.604  1.00  0.00     0.074 A 
ATOM     43  C   UNL A   1      43.674  32.175  29.115  1.00  0.00     0.031 C 
ATOM     44  C   UNL A   1      41.430  25.733  28.056  1.00  0.00     0.029 A 
ATOM     45  C   UNL A   1      42.821  25.982  27.691  1.00  0.00     0.049 A 
ATOM     46  H   UNL A   1      43.871  27.774  27.848  1.00  0.00     0.167 HD
ATOM     47  C   UNL A   1      45.964  31.605  28.345  1.00  0.00     0.037 A 
ATOM     48  C   UNL A   1      43.671  25.070  27.181  1.00  0.00     0.037 A 
ATOM     49  C   UNL A   1      46.955  30.686  27.844  1.00  0.00     0.049 A 
ATOM     50  C   UNL A   1      45.084  25.483  26.875  1.00  0.00     0.074 A 
ATOM     51  C   UNL A   1      48.294  30.921  27.582  1.00  0.00     0.029 A 
ATOM     52  N   UNL A   1      46.714  29.357  27.518  1.00  0.00    -0.354 N 
ATOM     53  N   UNL A   1      45.662  26.648  27.051  1.00  0.00    -0.248 NA
ATOM     54  C   UNL A   1      45.963  24.454  26.305  1.00  0.00     0.031 C 
ATOM     55  C   UNL A   1      48.848  29.753  27.045  1.00  0.00     0.029 A 
ATOM     56  C   UNL A   1      47.871  28.770  27.029  1.00  0.00     0.049 A 
ATOM     57  H   UNL A   1      45.849  28.900  27.620  1.00  0.00     0.167 HD
ATOM     58  C   UNL A   1      46.980  26.485  26.639  1.00  0.00     0.074 A 
ATOM     59  C   UNL A   1      47.115  25.103  26.222  1.00  0.00     0.031 C 
ATOM     60  C   UNL A   1      47.988  27.395  26.607  1.00  0.00     0.037 A 
BRANCH  47  61
ATOM     61  C   UNL A   1      46.360  33.043  28.561  1.00  0.00     0.058 A 
ATOM     62  C   UNL A   1      46.867  33.503  29.786  1.00  0.00     0.135 A 
ATOM     63  C   UNL A   1      46.241  33.972  27.515  1.00  0.00     0.135 A 
ATOM     64  F   UNL A   1      46.989  32.664  30.828  1.00  0.00    -0.206 F 
ATOM     65  C   UNL A   1      47.208  34.840  29.978  1.00  0.00     0.059 A 
ATOM     66  C   UNL A   1      46.603  35.306  27.674  1.00  0.00     0.059 A 
ATOM     67  F   UNL A   1      45.761  33.588  26.321  1.00  0.00    -0.206 F 
ATOM     68  C   UNL A   1      47.068  35.735  28.916  1.00  0.00     0.060 A 
BRANCH  68  69
ATOM     69  S   UNL A   1      47.499  37.468  29.182  1.00  0.00     0.124 S 
ATOM     70  O   UNL A   1      48.014  37.843  27.869  1.00  0.00    -0.237 OA
ATOM     71  O   UNL A   1      46.216  38.056  29.550  1.00  0.00    -0.237 OA
ATOM     72  O   UNL A   1      48.490  37.413  30.252  1.00  0.00    -0.744 OA
ENDBRANCH  68  69
ENDBRANCH  47  61
BRANCH  48  73
ATOM     73  C   UNL A   1      43.211  23.674  26.949  1.00  0.00     0.058 A 
ATOM     74  C   UNL A   1      42.936  23.209  25.655  1.00  0.00     0.135 A 
ATOM     75  C   UNL A   1      43.050  22.774  28.014  1.00  0.00     0.135 A 
ATOM     76  F   UNL A   1      43.064  24.034  24.604  1.00  0.00    -0.206 F 
ATOM     77  C   UNL A   1      42.507  21.906  25.423  1.00  0.00     0.059 A 
ATOM     78  C   UNL A   1      42.651  21.457  27.806  1.00  0.00     0.059 A 
ATOM     79  F   UNL A   1      43.312  23.165  29.271  1.00  0.00    -0.206 F 
ATOM     80  C   UNL A   1      42.373  21.035  26.506  1.00  0.00     0.060 A 
BRANCH  80  81
ATOM     81  S   UNL A   1      41.870  19.330  26.189  1.00  0.00     0.124 S 
ATOM     82  O   UNL A   1      42.651  19.009  25.001  1.00  0.00    -0.237 OA
ATOM     83  O   UNL A   1      42.274  18.658  27.420  1.00  0.00    -0.237 OA
ATOM     84  O   UNL A   1      40.428  19.438  25.987  1.00  0.00    -0.744 OA
ENDBRANCH  80  81
ENDBRANCH  48  73
BRANCH  60  85
ATOM     85  C   UNL A   1      49.332  26.905  26.135  1.00  0.00     0.058 A 
ATOM     86  C   UNL A   1      50.230  26.253  26.995  1.00  0.00     0.135 A 
ATOM     87  C   UNL A   1      49.730  27.100  24.802  1.00  0.00     0.135 A 
ATOM     88  F   UNL A   1      49.901  26.042  28.280  1.00  0.00    -0.206 F 
ATOM     89  C   UNL A   1      51.495  25.864  26.567  1.00  0.00     0.059 A 
ATOM     90  C   UNL A   1      50.977  26.688  24.343  1.00  0.00     0.059 A 
ATOM     91  F   UNL A   1      48.906  27.702  23.929  1.00  0.00    -0.206 F 
ATOM     92  C   UNL A   1      51.863  26.094  25.240  1.00  0.00     0.060 A 
BRANCH  92  93
ATOM     93  S   UNL A   1      53.517  25.610  24.702  1.00  0.00     0.124 S 
ATOM     94  O   UNL A   1      54.357  26.483  25.515  1.00  0.00    -0.237 OA
ATOM     95  O   UNL A   1      53.556  24.192  25.045  1.00  0.00    -0.237 OA
ATOM     96  O   UNL A   1      53.506  25.902  23.271  1.00  0.00    -0.744 OA
ENDBRANCH  92  93
ENDBRANCH  60  85
ENDBRANCH  34  35
ENDBRANCH  27  29
ENDBRANCH  26  27
ENDBRANCH  25  26
ENDBRANCH   1  25
TORSDOF 19
ENDMDL
MODEL 2
REMARK VINA RESULT:     -10.8      1.176      1.846
REMARK SMILES O=C(CCC(=O)OCCOC(=O)c1ccc(-c2c3nc(c(-c4c(F)cc(S(=O)(=O)[O-])cc4F)c4ccc([nH]4)c(-c4c(F)cc(S(=O)(=O)[O-])cc4F)c4nc(c(-c5c(F)cc(S(=O)(=O)[O-])cc5F)c5ccc2[nH]5)C=C4)C=C3)cc1)Nc1ccc(Oc2ccccc2Cl)cc1
REMARK SMILES IDX 8 1 7 2 5 3 6 4 4 5 3 6 2 7 1 8 79 9 80 11 81 12 93 13 82 14
REMARK SMILES IDX 92 15 83 16 84 17 85 18 86 19 90 20 87 21 89 22 91 23 88 24
REMARK SMILES IDX 9 25 10 26 11 27 12 28 13 29 14 30 78 31 15 32 77 33 16 34
REMARK SMILES IDX 17 35 18 36 71 37 19 38 76 39 70 40 72 41 20 42 75 43 69 44
REMARK SMILES IDX 68 45 21 47 55 48 34 49 54 50 35 51 38 52 53 53 73 54 36 55
REMARK SMILES IDX 37 56 52 58 74 59 39 60 22 61 23 62 32 63 24 64 25 65 31 66
REMARK SMILES IDX 33 67 26 68 27 69 28 70 29 71 30 72 56 73 57 74 66 75 58 76
REMARK SMILES IDX 59 77 65 78 67 79 60 80 61 81 62 82 63 83 64 84 40 85 41 86
REMARK SMILES IDX 50 87 42 88 43 89 49 90 51 91 44 92 45 93 46 94 47 95 48 96
REMARK H PARENT 79 10 72 46 38 57
REMARK Flexibility Score: inf
ROOT
ATOM      1  C   UNL A   1      35.021  33.834  31.350  1.00  0.00     0.274 C 
ENDROOT
BRANCH   1   2
ATOM      2  O   UNL A   1      35.105  34.125  29.934  1.00  0.00    -0.462 OA
BRANCH   2   3
ATOM      3  C   UNL A   1      33.969  34.010  29.194  1.00  0.00     0.306 C 
ATOM      4  O   UNL A   1      32.872  34.419  29.547  1.00  0.00    -0.252 OA
BRANCH   3   5
ATOM      5  C   UNL A   1      34.197  33.237  27.904  1.00  0.00     0.132 C 
BRANCH   5   6
ATOM      6  C   UNL A   1      35.360  32.242  27.913  1.00  0.00     0.112 C 
BRANCH   6   7
ATOM      7  C   UNL A   1      34.896  30.796  27.856  1.00  0.00     0.224 C 
ATOM      8  O   UNL A   1      35.502  29.906  28.442  1.00  0.00    -0.275 OA
ATOM      9  N   UNL A   1      33.801  30.634  27.038  1.00  0.00    -0.326 N 
ATOM     10  H   UNL A   1      33.366  31.459  26.725  1.00  0.00     0.169 HD
BRANCH   9  11
ATOM     11  C   UNL A   1      33.236  29.433  26.599  1.00  0.00     0.041 A 
ATOM     12  C   UNL A   1      32.241  28.877  27.411  1.00  0.00     0.030 A 
ATOM     13  C   UNL A   1      33.598  28.800  25.417  1.00  0.00     0.030 A 
ATOM     14  C   UNL A   1      31.591  27.707  27.029  1.00  0.00     0.049 A 
ATOM     15  C   UNL A   1      32.967  27.609  25.047  1.00  0.00     0.049 A 
ATOM     16  C   UNL A   1      31.961  27.059  25.852  1.00  0.00     0.127 A 
BRANCH  16  17
ATOM     17  O   UNL A   1      31.267  25.896  25.598  1.00  0.00    -0.456 OA
BRANCH  17  18
ATOM     18  C   UNL A   1      31.997  24.753  25.398  1.00  0.00     0.146 A 
ATOM     19  C   UNL A   1      32.944  24.422  26.369  1.00  0.00     0.049 A 
ATOM     20  C   UNL A   1      31.843  23.960  24.256  1.00  0.00     0.083 A 
ATOM     21  C   UNL A   1      33.702  23.262  26.229  1.00  0.00     0.004 A 
ATOM     22  C   UNL A   1      32.592  22.791  24.128  1.00  0.00     0.024 A 
ATOM     23  Cl  UNL A   1      30.742  24.379  22.994  1.00  0.00    -0.080 Cl
ATOM     24  C   UNL A   1      33.516  22.440  25.116  1.00  0.00     0.002 A 
ENDBRANCH  17  18
ENDBRANCH  16  17
ENDBRANCH   9  11
ENDBRANCH   6   7
ENDBRANCH   5   6
ENDBRANCH   3   5
ENDBRANCH   2   3
ENDBRANCH   1   2
BRANCH   1  25
ATOM     25  C   UNL A   1      35.250  32.345  31.626  1.00  0.00     0.275 C 
BRANCH  25  26
ATOM     26  O   UNL A   1      36.553  31.946  31.173  1.00  0.00    -0.458 OA
BRANCH  26  27
ATOM     27  C   UNL A   1      37.004  30.787  31.709  1.00  0.00     0.338 C 
ATOM     28  O   UNL A   1      36.427  30.095  32.528  1.00  0.00    -0.246 OA
BRANCH  27  29
ATOM     29  C   UNL A   1      38.225  30.369  31.000  1.00  0.00     0.060 A 
ATOM     30  C   UNL A   1      39.248  29.784  31.750  1.00  0.00     0.016 A 
ATOM     31  C   UNL A   1      38.375  30.574  29.629  1.00  0.00     0.016 A 
ATOM     32  C   UNL A   1      40.436  29.409  31.133  1.00  0.00     0.010 A 
ATOM     33  C   UNL A   1      39.567  30.187  29.007  1.00  0.00     0.010 A 
ATOM     34  C   UNL A   1      40.608  29.613  29.758  1.00  0.00    -0.014 A 
BRANCH  34  35
ATOM     35  C   UNL A   1      41.900  29.243  29.134  1.00  0.00     0.031 A 
ATOM     36  C   UNL A   1      43.014  30.248  29.058  1.00  0.00     0.074 A 
ATOM     37  C   UNL A   1      42.081  27.987  28.686  1.00  0.00     0.049 A 
ATOM     38  N   UNL A   1      44.226  30.105  28.589  1.00  0.00    -0.248 NA
ATOM     39  C   UNL A   1      42.723  31.595  29.573  1.00  0.00     0.031 C 
ATOM     40  C   UNL A   1      41.076  26.924  28.731  1.00  0.00     0.029 A 
ATOM     41  N   UNL A   1      43.177  27.386  28.122  1.00  0.00    -0.354 N 
ATOM     42  C   UNL A   1      44.839  31.342  28.735  1.00  0.00     0.074 A 
ATOM     43  C   UNL A   1      43.855  32.234  29.312  1.00  0.00     0.031 C 
ATOM     44  C   UNL A   1      41.612  25.794  28.243  1.00  0.00     0.029 A 
ATOM     45  C   UNL A   1      42.981  26.062  27.814  1.00  0.00     0.049 A 
ATOM     46  H   UNL A   1      44.024  27.860  27.954  1.00  0.00     0.167 HD
ATOM     47  C   UNL A   1      46.109  31.699  28.421  1.00  0.00     0.037 A 
ATOM     48  C   UNL A   1      43.812  25.167  27.246  1.00  0.00     0.037 A 
ATOM     49  C   UNL A   1      47.081  30.798  27.854  1.00  0.00     0.049 A 
ATOM     50  C   UNL A   1      45.205  25.598  26.879  1.00  0.00     0.074 A 
ATOM     51  C   UNL A   1      48.404  31.050  27.531  1.00  0.00     0.029 A 
ATOM     52  N   UNL A   1      46.835  29.474  27.515  1.00  0.00    -0.354 N 
ATOM     53  N   UNL A   1      45.782  26.764  27.049  1.00  0.00    -0.248 NA
ATOM     54  C   UNL A   1      46.064  24.587  26.247  1.00  0.00     0.031 C 
ATOM     55  C   UNL A   1      48.940  29.897  26.945  1.00  0.00     0.029 A 
ATOM     56  C   UNL A   1      47.971  28.906  26.959  1.00  0.00     0.049 A 
ATOM     57  H   UNL A   1      45.979  29.007  27.651  1.00  0.00     0.167 HD
ATOM     58  C   UNL A   1      47.080  26.621  26.569  1.00  0.00     0.074 A 
ATOM     59  C   UNL A   1      47.205  25.247  26.121  1.00  0.00     0.031 C 
ATOM     60  C   UNL A   1      48.078  27.540  26.506  1.00  0.00     0.037 A 
BRANCH  47  61
ATOM     61  C   UNL A   1      46.503  33.136  28.644  1.00  0.00     0.058 A 
ATOM     62  C   UNL A   1      47.058  33.580  29.855  1.00  0.00     0.135 A 
ATOM     63  C   UNL A   1      46.334  34.081  27.620  1.00  0.00     0.135 A 
ATOM     64  F   UNL A   1      47.230  32.724  30.876  1.00  0.00    -0.206 F 
ATOM     65  C   UNL A   1      47.398  34.915  30.055  1.00  0.00     0.059 A 
ATOM     66  C   UNL A   1      46.693  35.416  27.787  1.00  0.00     0.059 A 
ATOM     67  F   UNL A   1      45.807  33.714  26.441  1.00  0.00    -0.206 F 
ATOM     68  C   UNL A   1      47.207  35.827  29.015  1.00  0.00     0.060 A 
BRANCH  68  69
ATOM     69  S   UNL A   1      47.637  37.558  29.292  1.00  0.00     0.124 S 
ATOM     70  O   UNL A   1      48.352  37.880  28.061  1.00  0.00    -0.237 OA
ATOM     71  O   UNL A   1      46.329  38.185  29.446  1.00  0.00    -0.237 OA
ATOM     72  O   UNL A   1      48.455  37.518  30.500  1.00  0.00    -0.744 OA
ENDBRANCH  68  69
ENDBRANCH  47  61
BRANCH  48  73
ATOM     73  C   UNL A   1      43.353  23.772  27.010  1.00  0.00     0.058 A 
ATOM     74  C   UNL A   1      43.257  22.853  28.065  1.00  0.00     0.135 A 
ATOM     75  C   UNL A   1      42.988  23.332  25.728  1.00  0.00     0.135 A 
ATOM     76  F   UNL A   1      43.606  23.222  29.309  1.00  0.00    -0.206 F 
ATOM     77  C   UNL A   1      42.829  21.546  27.860  1.00  0.00     0.059 A 
ATOM     78  C   UNL A   1      42.527  22.038  25.501  1.00  0.00     0.059 A 
ATOM     79  F   UNL A   1      43.049  24.174  24.685  1.00  0.00    -0.206 F 
ATOM     80  C   UNL A   1      42.460  21.150  26.573  1.00  0.00     0.060 A 
BRANCH  80  81
ATOM     81  S   UNL A   1      41.850  19.468  26.327  1.00  0.00     0.124 S 
ATOM     82  O   UNL A   1      40.412  19.688  26.224  1.00  0.00    -0.237 OA
ATOM     83  O   UNL A   1      42.526  19.075  25.095  1.00  0.00    -0.237 OA
ATOM     84  O   UNL A   1      42.298  18.770  27.529  1.00  0.00    -0.744 OA
ENDBRANCH  80  81
ENDBRANCH  48  73
BRANCH  60  85
ATOM     85  C   UNL A   1      49.400  27.071  25.959  1.00  0.00     0.058 A 
ATOM     86  C   UNL A   1      50.376  26.478  26.777  1.00  0.00     0.135 A 
ATOM     87  C   UNL A   1      49.699  27.226  24.595  1.00  0.00     0.135 A 
ATOM     88  F   UNL A   1      50.143  26.308  28.089  1.00  0.00    -0.206 F 
ATOM     89  C   UNL A   1      51.620  26.109  26.276  1.00  0.00     0.059 A 
ATOM     90  C   UNL A   1      50.924  26.832  24.066  1.00  0.00     0.059 A 
ATOM     91  F   UNL A   1      48.799  27.770  23.761  1.00  0.00    -0.206 F 
ATOM     92  C   UNL A   1      51.888  26.298  24.920  1.00  0.00     0.060 A 
BRANCH  92  93
ATOM     93  S   UNL A   1      53.515  25.841  24.286  1.00  0.00     0.124 S 
ATOM     94  O   UNL A   1      54.357  26.887  24.857  1.00  0.00    -0.237 OA
ATOM     95  O   UNL A   1      53.703  24.503  24.837  1.00  0.00    -0.237 OA
ATOM     96  O   UNL A   1      53.341  25.895  22.836  1.00  0.00    -0.744 OA
ENDBRANCH  92  93
ENDBRANCH  60  85
ENDBRANCH  34  35
ENDBRANCH  27  29
ENDBRANCH  26  27
ENDBRANCH  25  26
ENDBRANCH   1  25
TORSDOF 19
ENDMDL
MODEL 3
REMARK VINA RESULT:     -10.6      3.844     10.013
REMARK SMILES O=C(CCC(=O)OCCOC(=O)c1ccc(-c2c3nc(c(-c4c(F)cc(S(=O)(=O)[O-])cc4F)c4ccc([nH]4)c(-c4c(F)cc(S(=O)(=O)[O-])cc4F)c4nc(c(-c5c(F)cc(S(=O)(=O)[O-])cc5F)c5ccc2[nH]5)C=C4)C=C3)cc1)Nc1ccc(Oc2ccccc2Cl)cc1
REMARK SMILES IDX 8 1 7 2 5 3 6 4 4 5 3 6 2 7 1 8 79 9 80 11 81 12 93 13 82 14
REMARK SMILES IDX 92 15 83 16 84 17 85 18 86 19 90 20 87 21 89 22 91 23 88 24
REMARK SMILES IDX 9 25 10 26 11 27 12 28 13 29 14 30 78 31 15 32 77 33 16 34
REMARK SMILES IDX 17 35 18 36 71 37 19 38 76 39 70 40 72 41 20 42 75 43 69 44
REMARK SMILES IDX 68 45 21 47 55 48 34 49 54 50 35 51 38 52 53 53 73 54 36 55
REMARK SMILES IDX 37 56 52 58 74 59 39 60 22 61 23 62 32 63 24 64 25 65 31 66
REMARK SMILES IDX 33 67 26 68 27 69 28 70 29 71 30 72 56 73 57 74 66 75 58 76
REMARK SMILES IDX 59 77 65 78 67 79 60 80 61 81 62 82 63 83 64 84 40 85 41 86
REMARK SMILES IDX 50 87 42 88 43 89 49 90 51 91 44 92 45 93 46 94 47 95 48 96
REMARK H PARENT 79 10 72 46 38 57
REMARK Flexibility Score: inf
ROOT
ATOM      1  C   UNL A   1      34.140  34.147  28.467  1.00  0.00     0.274 C 
ENDROOT
BRANCH   1   2
ATOM      2  O   UNL A   1      33.440  34.480  29.689  1.00  0.00    -0.462 OA
BRANCH   2   3
ATOM      3  C   UNL A   1      32.782  35.670  29.740  1.00  0.00     0.306 C 
ATOM      4  O   UNL A   1      32.484  36.335  28.758  1.00  0.00    -0.252 OA
BRANCH   3   5
ATOM      5  C   UNL A   1      32.527  36.128  31.167  1.00  0.00     0.132 C 
BRANCH   5   6
ATOM      6  C   UNL A   1      33.683  36.856  31.857  1.00  0.00     0.112 C 
BRANCH   6   7
ATOM      7  C   UNL A   1      34.507  35.939  32.746  1.00  0.00     0.224 C 
ATOM      8  O   UNL A   1      34.582  36.120  33.957  1.00  0.00    -0.275 OA
ATOM      9  N   UNL A   1      35.175  34.977  32.024  1.00  0.00    -0.326 N 
ATOM     10  H   UNL A   1      34.928  34.896  31.075  1.00  0.00     0.169 HD
BRANCH   9  11
ATOM     11  C   UNL A   1      36.164  34.102  32.481  1.00  0.00     0.041 A 
ATOM     12  C   UNL A   1      35.896  33.423  33.674  1.00  0.00     0.030 A 
ATOM     13  C   UNL A   1      37.359  33.873  31.809  1.00  0.00     0.030 A 
ATOM     14  C   UNL A   1      36.805  32.498  34.179  1.00  0.00     0.049 A 
ATOM     15  C   UNL A   1      38.285  32.966  32.330  1.00  0.00     0.049 A 
ATOM     16  C   UNL A   1      38.011  32.275  33.517  1.00  0.00     0.127 A 
BRANCH  16  17
ATOM     17  O   UNL A   1      38.839  31.361  34.131  1.00  0.00    -0.456 OA
BRANCH  17  18
ATOM     18  C   UNL A   1      39.050  30.168  33.491  1.00  0.00     0.146 A 
ATOM     19  C   UNL A   1      37.936  29.355  33.269  1.00  0.00     0.049 A 
ATOM     20  C   UNL A   1      40.327  29.744  33.105  1.00  0.00     0.083 A 
ATOM     21  C   UNL A   1      38.088  28.139  32.606  1.00  0.00     0.004 A 
ATOM     22  C   UNL A   1      40.471  28.534  32.426  1.00  0.00     0.024 A 
ATOM     23  Cl  UNL A   1      41.739  30.680  33.433  1.00  0.00    -0.080 Cl
ATOM     24  C   UNL A   1      39.352  27.736  32.173  1.00  0.00     0.002 A 
ENDBRANCH  17  18
ENDBRANCH  16  17
ENDBRANCH   9  11
ENDBRANCH   6   7
ENDBRANCH   5   6
ENDBRANCH   3   5
ENDBRANCH   2   3
ENDBRANCH   1   2
BRANCH   1  25
ATOM     25  C   UNL A   1      33.807  32.724  28.006  1.00  0.00     0.275 C 
BRANCH  25  26
ATOM     26  O   UNL A   1      34.488  31.760  28.824  1.00  0.00    -0.458 OA
BRANCH  26  27
ATOM     27  C   UNL A   1      34.890  30.648  28.164  1.00  0.00     0.338 C 
ATOM     28  O   UNL A   1      34.245  30.018  27.346  1.00  0.00    -0.246 OA
BRANCH  27  29
ATOM     29  C   UNL A   1      36.319  30.416  28.432  1.00  0.00     0.060 A 
ATOM     30  C   UNL A   1      37.120  29.977  27.376  1.00  0.00     0.016 A 
ATOM     31  C   UNL A   1      36.857  30.597  29.706  1.00  0.00     0.016 A 
ATOM     32  C   UNL A   1      38.467  29.706  27.589  1.00  0.00     0.010 A 
ATOM     33  C   UNL A   1      38.214  30.334  29.917  1.00  0.00     0.010 A 
ATOM     34  C   UNL A   1      39.024  29.876  28.863  1.00  0.00    -0.014 A 
BRANCH  34  35
ATOM     35  C   UNL A   1      40.452  29.539  29.072  1.00  0.00     0.031 A 
ATOM     36  C   UNL A   1      40.963  28.174  28.711  1.00  0.00     0.074 A 
ATOM     37  C   UNL A   1      41.292  30.484  29.537  1.00  0.00     0.049 A 
ATOM     38  N   UNL A   1      42.181  27.702  28.782  1.00  0.00    -0.248 NA
ATOM     39  C   UNL A   1      39.972  27.209  28.211  1.00  0.00     0.031 C 
ATOM     40  C   UNL A   1      40.907  31.850  29.896  1.00  0.00     0.029 A 
ATOM     41  N   UNL A   1      42.642  30.445  29.769  1.00  0.00    -0.354 N 
ATOM     42  C   UNL A   1      42.103  26.384  28.352  1.00  0.00     0.074 A 
ATOM     43  C   UNL A   1      40.713  26.121  28.049  1.00  0.00     0.031 C 
ATOM     44  C   UNL A   1      42.002  32.527  30.277  1.00  0.00     0.029 A 
ATOM     45  C   UNL A   1      43.156  31.634  30.226  1.00  0.00     0.049 A 
ATOM     46  H   UNL A   1      43.191  29.641  29.622  1.00  0.00     0.167 HD
ATOM     47  C   UNL A   1      43.103  25.479  28.218  1.00  0.00     0.037 A 
ATOM     48  C   UNL A   1      44.416  31.964  30.570  1.00  0.00     0.037 A 
ATOM     49  C   UNL A   1      44.487  25.756  28.516  1.00  0.00     0.049 A 
ATOM     50  C   UNL A   1      45.500  30.931  30.441  1.00  0.00     0.074 A 
ATOM     51  C   UNL A   1      45.582  24.920  28.382  1.00  0.00     0.029 A 
ATOM     52  N   UNL A   1      44.965  26.959  29.019  1.00  0.00    -0.354 N 
ATOM     53  N   UNL A   1      45.418  29.696  30.006  1.00  0.00    -0.248 NA
ATOM     54  C   UNL A   1      46.852  31.339  30.846  1.00  0.00     0.031 C 
ATOM     55  C   UNL A   1      46.712  25.597  28.857  1.00  0.00     0.029 A 
ATOM     56  C   UNL A   1      46.333  26.877  29.229  1.00  0.00     0.049 A 
ATOM     57  H   UNL A   1      44.413  27.755  29.199  1.00  0.00     0.167 HD
ATOM     58  C   UNL A   1      46.711  29.186  30.059  1.00  0.00     0.074 A 
ATOM     59  C   UNL A   1      47.557  30.257  30.551  1.00  0.00     0.031 C 
ATOM     60  C   UNL A   1      47.160  27.948  29.731  1.00  0.00     0.037 A 
BRANCH  47  61
ATOM     61  C   UNL A   1      42.729  24.090  27.769  1.00  0.00     0.058 A 
ATOM     62  C   UNL A   1      42.556  23.031  28.674  1.00  0.00     0.135 A 
ATOM     63  C   UNL A   1      42.528  23.820  26.405  1.00  0.00     0.135 A 
ATOM     64  F   UNL A   1      42.750  23.226  29.989  1.00  0.00    -0.206 F 
ATOM     65  C   UNL A   1      42.232  21.748  28.242  1.00  0.00     0.059 A 
ATOM     66  C   UNL A   1      42.174  22.552  25.953  1.00  0.00     0.059 A 
ATOM     67  F   UNL A   1      42.680  24.794  25.494  1.00  0.00    -0.206 F 
ATOM     68  C   UNL A   1      42.047  21.518  26.878  1.00  0.00     0.060 A 
BRANCH  68  69
ATOM     69  S   UNL A   1      41.642  19.847  26.329  1.00  0.00     0.124 S 
ATOM     70  O   UNL A   1      40.216  19.972  26.043  1.00  0.00    -0.237 OA
ATOM     71  O   UNL A   1      42.508  19.681  25.166  1.00  0.00    -0.237 OA
ATOM     72  O   UNL A   1      41.980  19.017  27.481  1.00  0.00    -0.744 OA
ENDBRANCH  68  69
ENDBRANCH  47  61
BRANCH  48  73
ATOM     73  C   UNL A   1      44.719  33.340  31.048  1.00  0.00     0.058 A 
ATOM     74  C   UNL A   1      44.638  33.667  32.409  1.00  0.00     0.135 A 
ATOM     75  C   UNL A   1      45.107  34.352  30.156  1.00  0.00     0.135 A 
ATOM     76  F   UNL A   1      44.261  32.738  33.301  1.00  0.00    -0.206 F 
ATOM     77  C   UNL A   1      44.919  34.949  32.871  1.00  0.00     0.059 A 
ATOM     78  C   UNL A   1      45.423  35.634  30.596  1.00  0.00     0.059 A 
ATOM     79  F   UNL A   1      45.212  34.089  28.844  1.00  0.00    -0.206 F 
ATOM     80  C   UNL A   1      45.317  35.925  31.955  1.00  0.00     0.060 A 
BRANCH  80  81
ATOM     81  S   UNL A   1      45.736  37.570  32.571  1.00  0.00     0.124 S 
ATOM     82  O   UNL A   1      44.644  37.823  33.504  1.00  0.00    -0.237 OA
ATOM     83  O   UNL A   1      47.049  37.349  33.168  1.00  0.00    -0.237 OA
ATOM     84  O   UNL A   1      45.737  38.391  31.362  1.00  0.00    -0.744 OA
ENDBRANCH  80  81
ENDBRANCH  48  73
BRANCH  60  85
ATOM     85  C   UNL A   1      48.640  27.703  29.865  1.00  0.00     0.058 A 
ATOM     86  C   UNL A   1      49.210  27.225  31.056  1.00  0.00     0.135 A 
ATOM     87  C   UNL A   1      49.503  27.961  28.787  1.00  0.00     0.135 A 
ATOM     88  F   UNL A   1      48.432  26.963  32.119  1.00  0.00    -0.206 F 
ATOM     89  C   UNL A   1      50.585  27.066  31.192  1.00  0.00     0.059 A 
ATOM     90  C   UNL A   1      50.878  27.777  28.890  1.00  0.00     0.059 A 
ATOM     91  F   UNL A   1      49.014  28.404  27.618  1.00  0.00    -0.206 F 
ATOM     92  C   UNL A   1      51.412  27.353  30.105  1.00  0.00     0.060 A 
BRANCH  92  93
ATOM     93  S   UNL A   1      53.198  27.170  30.302  1.00  0.00     0.124 S 
ATOM     94  O   UNL A   1      53.286  25.894  31.004  1.00  0.00    -0.237 OA
ATOM     95  O   UNL A   1      53.667  27.167  28.919  1.00  0.00    -0.237 OA
ATOM     96  O   UNL A   1      53.575  28.345  31.082  1.00  0.00    -0.744 OA
ENDBRANCH  92  93
ENDBRANCH  60  85
ENDBRANCH  34  35
ENDBRANCH  27  29
ENDBRANCH  26  27
ENDBRANCH  25  26
ENDBRANCH   1  25
TORSDOF 19
ENDMDL
