MODEL 1
REMARK VINA RESULT:     -12.1      0.000      0.000
REMARK SMILES Cc1ccccc1-c1nc(CC(=O)OCCOC(=O)c2ccc(-c3c4nc(c(-c5c(F)cc(S(=O)(=O)[O-])cc5F)c5ccc([nH]5)c(-c5c(F)cc(S(=O)(=O)[O-])cc5F)c5nc(c(-c6c(F)cc(S(=O)(=O)[O-])cc6F)c6ccc3[nH]6)C=C5)C=C4)cc2)cs1
REMARK SMILES IDX 16 1 15 2 14 3 12 4 13 5 11 6 10 7 8 8 9 9 87 10 86 11 7 12
REMARK SMILES IDX 1 13 2 14 3 15 4 16 6 17 5 18 17 19 18 20 19 21 20 22 21 23
REMARK SMILES IDX 85 24 22 25 84 26 23 27 24 28 25 29 78 30 26 31 83 32 77 33
REMARK SMILES IDX 79 34 27 35 82 36 76 37 75 38 28 40 62 41 41 42 61 43 42 44
REMARK SMILES IDX 45 45 60 46 80 47 43 48 44 49 59 51 81 52 46 53 29 54 30 55
REMARK SMILES IDX 39 56 31 57 32 58 38 59 40 60 33 61 34 62 35 63 36 64 37 65
REMARK SMILES IDX 63 66 64 67 73 68 65 69 66 70 72 71 74 72 67 73 68 74 69 75
REMARK SMILES IDX 70 76 71 77 47 78 48 79 57 80 49 81 50 82 56 83 58 84 51 85
REMARK SMILES IDX 52 86 53 87 54 88 55 89
REMARK H PARENT 79 39 45 50
REMARK Flexibility Score: inf
ROOT
ATOM      1  C   UNL A   1      44.074  31.145  26.917  1.00  0.00     0.275 C 
ENDROOT
BRANCH   1   2
ATOM      2  C   UNL A   1      45.125  30.648  28.399  1.00  0.00     0.274 C 
BRANCH   2   3
ATOM      3  O   UNL A   1      46.227  29.448  28.769  1.00  0.00    -0.462 OA
BRANCH   3   4
ATOM      4  C   UNL A   1      47.288  28.726  29.274  1.00  0.00     0.312 C 
ATOM      5  O   UNL A   1      48.343  29.368  29.439  1.00  0.00    -0.252 OA
BRANCH   4   6
ATOM      6  C   UNL A   1      47.319  27.288  29.858  1.00  0.00     0.179 C 
BRANCH   6   7
ATOM      7  C   UNL A   1      46.909  26.001  29.178  1.00  0.00     0.063 A 
ATOM      8  C   UNL A   1      45.293  24.880  28.129  1.00  0.00     0.123 A 
ATOM      9  N   UNL A   1      45.550  25.724  29.107  1.00  0.00    -0.240 NA
ATOM     10  S   UNL A   1      46.645  24.242  27.308  1.00  0.00    -0.122 S 
ATOM     11  C   UNL A   1      47.642  25.288  28.235  1.00  0.00     0.091 A 
BRANCH   8  12
ATOM     12  C   UNL A   1      43.937  24.460  27.806  1.00  0.00     0.013 A 
ATOM     13  C   UNL A   1      43.466  23.458  30.132  1.00  0.00     0.045 C 
ATOM     14  C   UNL A   1      43.121  23.722  28.688  1.00  0.00    -0.041 A 
ATOM     15  C   UNL A   1      41.956  23.124  28.175  1.00  0.00     0.004 A 
ATOM     16  C   UNL A   1      41.616  23.256  26.826  1.00  0.00     0.000 A 
ATOM     17  C   UNL A   1      43.550  24.633  26.468  1.00  0.00     0.011 A 
ATOM     18  C   UNL A   1      42.404  24.025  25.975  1.00  0.00     0.001 A 
ENDBRANCH   8  12
ENDBRANCH   6   7
ENDBRANCH   4   6
ENDBRANCH   3   4
ENDBRANCH   2   3
ENDBRANCH   1   2
BRANCH   1  19
ATOM     19  O   UNL A   1      42.910  30.004  25.902  1.00  0.00    -0.458 OA
BRANCH  19  20
ATOM     20  C   UNL A   1      42.291  28.342  25.903  1.00  0.00     0.338 C 
ATOM     21  O   UNL A   1      42.209  27.882  24.763  1.00  0.00    -0.246 OA
BRANCH  20  22
ATOM     22  C   UNL A   1      41.520  27.293  27.320  1.00  0.00     0.060 A 
ATOM     23  C   UNL A   1      40.159  26.950  27.434  1.00  0.00     0.016 A 
ATOM     24  C   UNL A   1      41.965  27.329  28.730  1.00  0.00     0.016 A 
ATOM     25  C   UNL A   1      39.384  27.196  28.755  1.00  0.00     0.010 A 
ATOM     26  C   UNL A   1      41.304  27.434  29.994  1.00  0.00     0.010 A 
ATOM     27  C   UNL A   1      39.976  27.662  29.989  1.00  0.00    -0.014 A 
BRANCH  27  28
ATOM     28  C   UNL A   1      39.632  28.822  30.971  1.00  0.00     0.031 A 
ATOM     29  C   UNL A   1      38.611  29.849  30.645  1.00  0.00     0.074 A 
ATOM     30  C   UNL A   1      39.791  28.841  32.344  1.00  0.00     0.049 A 
ATOM     31  N   UNL A   1      38.855  31.117  30.668  1.00  0.00    -0.248 NA
ATOM     32  C   UNL A   1      37.182  29.530  30.540  1.00  0.00     0.031 C 
ATOM     33  C   UNL A   1      39.548  29.880  33.362  1.00  0.00     0.029 A 
ATOM     34  N   UNL A   1      40.354  27.899  33.175  1.00  0.00    -0.354 N 
ATOM     35  C   UNL A   1      37.640  31.742  30.908  1.00  0.00     0.074 A 
ATOM     36  C   UNL A   1      36.626  30.744  30.632  1.00  0.00     0.031 C 
ATOM     37  C   UNL A   1      40.403  29.705  34.400  1.00  0.00     0.029 A 
ATOM     38  C   UNL A   1      41.173  28.515  34.136  1.00  0.00     0.049 A 
ATOM     39  H   UNL A   1      40.204  26.929  33.105  1.00  0.00     0.167 HD
ATOM     40  C   UNL A   1      37.555  32.901  31.637  1.00  0.00     0.037 A 
ATOM     41  C   UNL A   1      42.522  28.326  33.995  1.00  0.00     0.037 A 
ATOM     42  C   UNL A   1      38.785  33.140  32.418  1.00  0.00     0.049 A 
ATOM     43  C   UNL A   1      43.087  29.575  33.238  1.00  0.00     0.074 A 
ATOM     44  C   UNL A   1      39.100  33.226  33.769  1.00  0.00     0.029 A 
ATOM     45  N   UNL A   1      40.008  33.017  31.791  1.00  0.00    -0.354 N 
ATOM     46  N   UNL A   1      42.487  30.742  33.296  1.00  0.00    -0.248 NA
ATOM     47  C   UNL A   1      44.255  29.657  32.343  1.00  0.00     0.031 C 
ATOM     48  C   UNL A   1      40.520  33.140  33.920  1.00  0.00     0.029 A 
ATOM     49  C   UNL A   1      41.073  33.010  32.663  1.00  0.00     0.049 A 
ATOM     50  H   UNL A   1      40.108  32.943  30.814  1.00  0.00     0.167 HD
ATOM     51  C   UNL A   1      43.008  31.622  32.374  1.00  0.00     0.074 A 
ATOM     52  C   UNL A   1      44.168  30.917  31.855  1.00  0.00     0.031 C 
ATOM     53  C   UNL A   1      42.404  32.827  32.091  1.00  0.00     0.037 A 
BRANCH  40  54
ATOM     54  C   UNL A   1      36.274  33.706  31.822  1.00  0.00     0.058 A 
ATOM     55  C   UNL A   1      35.627  34.330  30.731  1.00  0.00     0.135 A 
ATOM     56  C   UNL A   1      35.557  33.784  33.039  1.00  0.00     0.135 A 
ATOM     57  F   UNL A   1      36.110  34.254  29.485  1.00  0.00    -0.206 F 
ATOM     58  C   UNL A   1      34.425  35.030  30.849  1.00  0.00     0.059 A 
ATOM     59  C   UNL A   1      34.368  34.514  33.191  1.00  0.00     0.059 A 
ATOM     60  F   UNL A   1      35.946  33.095  34.122  1.00  0.00    -0.206 F 
ATOM     61  C   UNL A   1      33.805  35.131  32.085  1.00  0.00     0.060 A 
BRANCH  61  62
ATOM     62  S   UNL A   1      32.242  36.023  32.193  1.00  0.00     0.124 S 
ATOM     63  O   UNL A   1      32.543  37.050  33.186  1.00  0.00    -0.237 OA
ATOM     64  O   UNL A   1      32.069  36.498  30.824  1.00  0.00    -0.237 OA
ATOM     65  O   UNL A   1      31.294  34.999  32.625  1.00  0.00    -0.744 OA
ENDBRANCH  61  62
ENDBRANCH  40  54
BRANCH  41  66
ATOM     66  C   UNL A   1      42.734  26.803  33.749  1.00  0.00     0.058 A 
ATOM     67  C   UNL A   1      43.818  26.379  32.970  1.00  0.00     0.135 A 
ATOM     68  C   UNL A   1      42.729  26.036  34.858  1.00  0.00     0.135 A 
ATOM     69  F   UNL A   1      43.798  26.638  31.651  1.00  0.00    -0.206 F 
ATOM     70  C   UNL A   1      45.010  25.612  33.505  1.00  0.00     0.059 A 
ATOM     71  C   UNL A   1      44.052  25.582  35.370  1.00  0.00     0.059 A 
ATOM     72  F   UNL A   1      41.731  26.193  35.742  1.00  0.00    -0.206 F 
ATOM     73  C   UNL A   1      45.373  25.254  34.938  1.00  0.00     0.060 A 
BRANCH  73  74
ATOM     74  S   UNL A   1      46.788  23.506  35.863  1.00  0.00     0.124 S 
ATOM     75  O   UNL A   1      48.145  23.991  36.123  1.00  0.00    -0.237 OA
ATOM     76  O   UNL A   1      46.342  22.935  37.150  1.00  0.00    -0.237 OA
ATOM     77  O   UNL A   1      46.784  22.465  34.888  1.00  0.00    -0.744 OA
ENDBRANCH  73  74
ENDBRANCH  41  66
BRANCH  53  78
ATOM     78  C   UNL A   1      42.948  33.969  31.233  1.00  0.00     0.058 A 
ATOM     79  C   UNL A   1      43.309  35.210  31.777  1.00  0.00     0.135 A 
ATOM     80  C   UNL A   1      42.926  33.934  29.808  1.00  0.00     0.135 A 
ATOM     81  F   UNL A   1      43.278  35.413  33.102  1.00  0.00    -0.206 F 
ATOM     82  C   UNL A   1      43.669  36.305  30.976  1.00  0.00     0.059 A 
ATOM     83  C   UNL A   1      43.233  35.019  28.996  1.00  0.00     0.059 A 
ATOM     84  F   UNL A   1      42.614  32.836  29.111  1.00  0.00    -0.206 F 
ATOM     85  C   UNL A   1      43.632  36.199  29.587  1.00  0.00     0.060 A 
BRANCH  85  86
ATOM     86  S   UNL A   1      44.090  37.600  28.554  1.00  0.00     0.124 S 
ATOM     87  O   UNL A   1      42.838  37.902  27.865  1.00  0.00    -0.237 OA
ATOM     88  O   UNL A   1      44.512  38.571  29.558  1.00  0.00    -0.237 OA
ATOM     89  O   UNL A   1      45.154  37.074  27.705  1.00  0.00    -0.744 OA
ENDBRANCH  85  86
ENDBRANCH  53  78
ENDBRANCH  27  28
ENDBRANCH  20  22
ENDBRANCH  19  20
ENDBRANCH   1  19
TORSDOF 16
ENDMDL
MODEL 2
REMARK VINA RESULT:     -11.8      3.497     11.892
REMARK SMILES Cc1ccccc1-c1nc(CC(=O)OCCOC(=O)c2ccc(-c3c4nc(c(-c5c(F)cc(S(=O)(=O)[O-])cc5F)c5ccc([nH]5)c(-c5c(F)cc(S(=O)(=O)[O-])cc5F)c5nc(c(-c6c(F)cc(S(=O)(=O)[O-])cc6F)c6ccc3[nH]6)C=C5)C=C4)cc2)cs1
REMARK SMILES IDX 16 1 15 2 14 3 12 4 13 5 11 6 10 7 8 8 9 9 87 10 86 11 7 12
REMARK SMILES IDX 1 13 2 14 3 15 4 16 6 17 5 18 17 19 18 20 19 21 20 22 21 23
REMARK SMILES IDX 85 24 22 25 84 26 23 27 24 28 25 29 78 30 26 31 83 32 77 33
REMARK SMILES IDX 79 34 27 35 82 36 76 37 75 38 28 40 62 41 41 42 61 43 42 44
REMARK SMILES IDX 45 45 60 46 80 47 43 48 44 49 59 51 81 52 46 53 29 54 30 55
REMARK SMILES IDX 39 56 31 57 32 58 38 59 40 60 33 61 34 62 35 63 36 64 37 65
REMARK SMILES IDX 63 66 64 67 73 68 65 69 66 70 72 71 74 72 67 73 68 74 69 75
REMARK SMILES IDX 70 76 71 77 47 78 48 79 57 80 49 81 50 82 56 83 58 84 51 85
REMARK SMILES IDX 52 86 53 87 54 88 55 89
REMARK H PARENT 79 39 45 50
REMARK Flexibility Score: inf
ROOT
ATOM      1  C   UNL A   1      41.501  27.989  34.365  1.00  0.00     0.275 C 
ENDROOT
BRANCH   1   2
ATOM      2  C   UNL A   1      42.034  29.600  35.184  1.00  0.00     0.274 C 
BRANCH   2   3
ATOM      3  O   UNL A   1      41.459  31.165  35.294  1.00  0.00    -0.462 OA
BRANCH   3   4
ATOM      4  C   UNL A   1      40.891  32.346  35.723  1.00  0.00     0.312 C 
ATOM      5  O   UNL A   1      41.693  33.212  36.123  1.00  0.00    -0.252 OA
BRANCH   4   6
ATOM      6  C   UNL A   1      39.425  32.843  35.599  1.00  0.00     0.179 C 
BRANCH   6   7
ATOM      7  C   UNL A   1      38.767  33.507  34.411  1.00  0.00     0.063 A 
ATOM      8  C   UNL A   1      37.744  33.229  32.450  1.00  0.00     0.123 A 
ATOM      9  N   UNL A   1      38.708  32.782  33.228  1.00  0.00    -0.240 NA
ATOM     10  S   UNL A   1      36.924  34.623  32.989  1.00  0.00    -0.122 S 
ATOM     11  C   UNL A   1      37.830  34.534  34.446  1.00  0.00     0.091 A 
BRANCH   8  12
ATOM     12  C   UNL A   1      37.437  32.611  31.168  1.00  0.00     0.013 A 
ATOM     13  C   UNL A   1      39.327  33.811  29.895  1.00  0.00     0.045 C 
ATOM     14  C   UNL A   1      38.097  32.943  29.966  1.00  0.00    -0.041 A 
ATOM     15  C   UNL A   1      37.533  32.508  28.755  1.00  0.00     0.004 A 
ATOM     16  C   UNL A   1      36.346  31.769  28.739  1.00  0.00     0.000 A 
ATOM     17  C   UNL A   1      36.280  31.818  31.139  1.00  0.00     0.011 A 
ATOM     18  C   UNL A   1      35.728  31.409  29.932  1.00  0.00     0.001 A 
ENDBRANCH   8  12
ENDBRANCH   6   7
ENDBRANCH   4   6
ENDBRANCH   3   4
ENDBRANCH   2   3
ENDBRANCH   1   2
BRANCH   1  19
ATOM     19  O   UNL A   1      39.822  27.644  33.499  1.00  0.00    -0.458 OA
BRANCH  19  20
ATOM     20  C   UNL A   1      38.639  28.449  32.452  1.00  0.00     0.338 C 
ATOM     21  O   UNL A   1      37.486  28.296  32.860  1.00  0.00    -0.246 OA
BRANCH  20  22
ATOM     22  C   UNL A   1      38.846  29.260  30.719  1.00  0.00     0.060 A 
ATOM     23  C   UNL A   1      38.317  28.760  29.514  1.00  0.00     0.016 A 
ATOM     24  C   UNL A   1      40.057  29.979  30.268  1.00  0.00     0.016 A 
ATOM     25  C   UNL A   1      39.215  28.583  28.263  1.00  0.00     0.010 A 
ATOM     26  C   UNL A   1      40.865  29.953  29.087  1.00  0.00     0.010 A 
ATOM     27  C   UNL A   1      40.593  29.009  28.164  1.00  0.00    -0.014 A 
BRANCH  27  28
ATOM     28  C   UNL A   1      41.908  28.294  27.733  1.00  0.00     0.031 A 
ATOM     29  C   UNL A   1      41.958  26.832  27.476  1.00  0.00     0.074 A 
ATOM     30  C   UNL A   1      42.998  28.848  27.088  1.00  0.00     0.049 A 
ATOM     31  N   UNL A   1      42.793  26.042  28.065  1.00  0.00    -0.248 NA
ATOM     32  C   UNL A   1      41.260  26.209  26.346  1.00  0.00     0.031 C 
ATOM     33  C   UNL A   1      44.300  28.292  26.673  1.00  0.00     0.029 A 
ATOM     34  N   UNL A   1      43.239  30.158  26.740  1.00  0.00    -0.354 N 
ATOM     35  C   UNL A   1      42.973  24.963  27.212  1.00  0.00     0.074 A 
ATOM     36  C   UNL A   1      41.875  25.022  26.269  1.00  0.00     0.031 C 
ATOM     37  C   UNL A   1      45.235  29.274  26.683  1.00  0.00     0.029 A 
ATOM     38  C   UNL A   1      44.570  30.507  27.025  1.00  0.00     0.049 A 
ATOM     39  H   UNL A   1      42.572  30.765  26.348  1.00  0.00     0.167 HD
ATOM     40  C   UNL A   1      44.176  24.309  27.120  1.00  0.00     0.037 A 
ATOM     41  C   UNL A   1      44.760  31.375  28.067  1.00  0.00     0.037 A 
ATOM     42  C   UNL A   1      45.275  25.112  27.694  1.00  0.00     0.049 A 
ATOM     43  C   UNL A   1      45.095  30.514  29.331  1.00  0.00     0.074 A 
ATOM     44  C   UNL A   1      46.435  25.699  27.202  1.00  0.00     0.029 A 
ATOM     45  N   UNL A   1      45.100  25.690  28.934  1.00  0.00    -0.354 N 
ATOM     46  N   UNL A   1      45.642  29.325  29.226  1.00  0.00    -0.248 NA
ATOM     47  C   UNL A   1      44.823  30.816  30.748  1.00  0.00     0.031 C 
ATOM     48  C   UNL A   1      46.925  26.633  28.168  1.00  0.00     0.029 A 
ATOM     49  C   UNL A   1      46.072  26.612  29.252  1.00  0.00     0.049 A 
ATOM     50  H   UNL A   1      44.352  25.464  29.534  1.00  0.00     0.167 HD
ATOM     51  C   UNL A   1      45.624  28.653  30.428  1.00  0.00     0.074 A 
ATOM     52  C   UNL A   1      45.169  29.663  31.369  1.00  0.00     0.031 C 
ATOM     53  C   UNL A   1      45.936  27.315  30.523  1.00  0.00     0.037 A 
BRANCH  40  54
ATOM     54  C   UNL A   1      44.401  23.040  26.306  1.00  0.00     0.058 A 
ATOM     55  C   UNL A   1      43.639  21.871  26.531  1.00  0.00     0.135 A 
ATOM     56  C   UNL A   1      45.268  22.957  25.191  1.00  0.00     0.135 A 
ATOM     57  F   UNL A   1      42.689  21.818  27.473  1.00  0.00    -0.206 F 
ATOM     58  C   UNL A   1      43.776  20.706  25.773  1.00  0.00     0.059 A 
ATOM     59  C   UNL A   1      45.452  21.787  24.439  1.00  0.00     0.059 A 
ATOM     60  F   UNL A   1      45.927  24.035  24.739  1.00  0.00    -0.206 F 
ATOM     61  C   UNL A   1      44.695  20.664  24.737  1.00  0.00     0.060 A 
BRANCH  61  62
ATOM     62  S   UNL A   1      44.827  19.151  23.766  1.00  0.00     0.124 S 
ATOM     63  O   UNL A   1      46.254  18.855  23.853  1.00  0.00    -0.237 OA
ATOM     64  O   UNL A   1      43.948  18.244  24.496  1.00  0.00    -0.237 OA
ATOM     65  O   UNL A   1      44.355  19.551  22.443  1.00  0.00    -0.744 OA
ENDBRANCH  61  62
ENDBRANCH  40  54
BRANCH  41  66
ATOM     66  C   UNL A   1      43.745  32.539  27.867  1.00  0.00     0.058 A 
ATOM     67  C   UNL A   1      43.267  33.232  28.986  1.00  0.00     0.135 A 
ATOM     68  C   UNL A   1      44.110  33.470  26.961  1.00  0.00     0.135 A 
ATOM     69  F   UNL A   1      42.438  32.590  29.829  1.00  0.00    -0.206 F 
ATOM     70  C   UNL A   1      43.591  34.677  29.303  1.00  0.00     0.059 A 
ATOM     71  C   UNL A   1      44.645  34.754  27.492  1.00  0.00     0.059 A 
ATOM     72  F   UNL A   1      44.535  33.059  25.756  1.00  0.00    -0.206 F 
ATOM     73  C   UNL A   1      44.555  35.631  28.615  1.00  0.00     0.060 A 
BRANCH  73  74
ATOM     74  S   UNL A   1      44.660  38.060  28.546  1.00  0.00     0.124 S 
ATOM     75  O   UNL A   1      43.609  38.670  29.361  1.00  0.00    -0.237 OA
ATOM     76  O   UNL A   1      45.914  38.661  29.042  1.00  0.00    -0.237 OA
ATOM     77  O   UNL A   1      44.517  38.402  27.167  1.00  0.00    -0.744 OA
ENDBRANCH  73  74
ENDBRANCH  41  66
BRANCH  53  78
ATOM     78  C   UNL A   1      46.126  26.486  31.793  1.00  0.00     0.058 A 
ATOM     79  C   UNL A   1      47.378  25.993  32.188  1.00  0.00     0.135 A 
ATOM     80  C   UNL A   1      45.028  25.975  32.546  1.00  0.00     0.135 A 
ATOM     81  F   UNL A   1      48.487  26.314  31.505  1.00  0.00    -0.206 F 
ATOM     82  C   UNL A   1      47.532  25.112  33.269  1.00  0.00     0.059 A 
ATOM     83  C   UNL A   1      45.153  25.066  33.590  1.00  0.00     0.059 A 
ATOM     84  F   UNL A   1      43.760  26.337  32.322  1.00  0.00    -0.206 F 
ATOM     85  C   UNL A   1      46.414  24.658  33.967  1.00  0.00     0.060 A 
BRANCH  85  86
ATOM     86  S   UNL A   1      46.605  23.526  35.353  1.00  0.00     0.124 S 
ATOM     87  O   UNL A   1      45.831  22.366  34.918  1.00  0.00    -0.237 OA
ATOM     88  O   UNL A   1      48.053  23.348  35.382  1.00  0.00    -0.237 OA
ATOM     89  O   UNL A   1      46.040  24.259  36.482  1.00  0.00    -0.744 OA
ENDBRANCH  85  86
ENDBRANCH  53  78
ENDBRANCH  27  28
ENDBRANCH  20  22
ENDBRANCH  19  20
ENDBRANCH   1  19
TORSDOF 16
ENDMDL
MODEL 3
REMARK VINA RESULT:     -11.4      6.699     12.619
REMARK SMILES Cc1ccccc1-c1nc(CC(=O)OCCOC(=O)c2ccc(-c3c4nc(c(-c5c(F)cc(S(=O)(=O)[O-])cc5F)c5ccc([nH]5)c(-c5c(F)cc(S(=O)(=O)[O-])cc5F)c5nc(c(-c6c(F)cc(S(=O)(=O)[O-])cc6F)c6ccc3[nH]6)C=C5)C=C4)cc2)cs1
REMARK SMILES IDX 16 1 15 2 14 3 12 4 13 5 11 6 10 7 8 8 9 9 87 10 86 11 7 12
REMARK SMILES IDX 1 13 2 14 3 15 4 16 6 17 5 18 17 19 18 20 19 21 20 22 21 23
REMARK SMILES IDX 85 24 22 25 84 26 23 27 24 28 25 29 78 30 26 31 83 32 77 33
REMARK SMILES IDX 79 34 27 35 82 36 76 37 75 38 28 40 62 41 41 42 61 43 42 44
REMARK SMILES IDX 45 45 60 46 80 47 43 48 44 49 59 51 81 52 46 53 29 54 30 55
REMARK SMILES IDX 39 56 31 57 32 58 38 59 40 60 33 61 34 62 35 63 36 64 37 65
REMARK SMILES IDX 63 66 64 67 73 68 65 69 66 70 72 71 74 72 67 73 68 74 69 75
REMARK SMILES IDX 70 76 71 77 47 78 48 79 57 80 49 81 50 82 56 83 58 84 51 85
REMARK SMILES IDX 52 86 53 87 54 88 55 89
REMARK H PARENT 79 39 45 50
REMARK Flexibility Score: inf
ROOT
ATOM      1  C   UNL A   1      42.636  39.949  26.689  1.00  0.00     0.275 C 
ENDROOT
BRANCH   1   2
ATOM      2  C   UNL A   1      41.554  40.951  25.516  1.00  0.00     0.274 C 
BRANCH   2   3
ATOM      3  O   UNL A   1      41.700  41.623  23.993  1.00  0.00    -0.462 OA
BRANCH   3   4
ATOM      4  C   UNL A   1      41.952  42.463  22.929  1.00  0.00     0.312 C 
ATOM      5  O   UNL A   1      40.949  42.842  22.296  1.00  0.00    -0.252 OA
BRANCH   4   6
ATOM      6  C   UNL A   1      43.272  43.171  22.517  1.00  0.00     0.179 C 
BRANCH   6   7
ATOM      7  C   UNL A   1      43.870  43.287  21.134  1.00  0.00     0.063 A 
ATOM      8  C   UNL A   1      43.955  44.445  19.231  1.00  0.00     0.123 A 
ATOM      9  N   UNL A   1      43.161  44.024  20.193  1.00  0.00    -0.240 NA
ATOM     10  S   UNL A   1      45.567  43.892  19.286  1.00  0.00    -0.122 S 
ATOM     11  C   UNL A   1      45.212  43.152  20.794  1.00  0.00     0.091 A 
BRANCH   8  12
ATOM     12  C   UNL A   1      43.472  45.281  18.141  1.00  0.00     0.013 A 
ATOM     13  C   UNL A   1      44.566  47.438  19.027  1.00  0.00     0.045 C 
ATOM     14  C   UNL A   1      43.668  46.677  18.086  1.00  0.00    -0.041 A 
ATOM     15  C   UNL A   1      42.919  47.418  17.155  1.00  0.00     0.004 A 
ATOM     16  C   UNL A   1      42.003  46.789  16.307  1.00  0.00     0.000 A 
ATOM     17  C   UNL A   1      42.594  44.658  17.242  1.00  0.00     0.011 A 
ATOM     18  C   UNL A   1      41.853  45.407  16.338  1.00  0.00     0.001 A 
ENDBRANCH   8  12
ENDBRANCH   6   7
ENDBRANCH   4   6
ENDBRANCH   3   4
ENDBRANCH   2   3
ENDBRANCH   1   2
BRANCH   1  19
ATOM     19  O   UNL A   1      42.675  38.037  26.862  1.00  0.00    -0.458 OA
BRANCH  19  20
ATOM     20  C   UNL A   1      43.739  36.743  27.443  1.00  0.00     0.338 C 
ATOM     21  O   UNL A   1      43.995  35.926  26.557  1.00  0.00    -0.246 OA
BRANCH  20  22
ATOM     22  C   UNL A   1      44.316  36.299  29.225  1.00  0.00     0.060 A 
ATOM     23  C   UNL A   1      45.446  35.524  29.548  1.00  0.00     0.016 A 
ATOM     24  C   UNL A   1      43.406  36.036  30.361  1.00  0.00     0.016 A 
ATOM     25  C   UNL A   1      45.336  34.326  30.526  1.00  0.00     0.010 A 
ATOM     26  C   UNL A   1      43.315  35.024  31.368  1.00  0.00     0.010 A 
ATOM     27  C   UNL A   1      44.149  33.970  31.271  1.00  0.00    -0.014 A 
BRANCH  27  28
ATOM     28  C   UNL A   1      43.351  32.643  31.445  1.00  0.00     0.031 A 
ATOM     29  C   UNL A   1      43.194  31.670  30.335  1.00  0.00     0.074 A 
ATOM     30  C   UNL A   1      43.110  31.951  32.617  1.00  0.00     0.049 A 
ATOM     31  N   UNL A   1      42.044  31.246  29.927  1.00  0.00    -0.248 NA
ATOM     32  C   UNL A   1      44.325  30.907  29.794  1.00  0.00     0.031 C 
ATOM     33  C   UNL A   1      42.342  30.726  32.912  1.00  0.00     0.029 A 
ATOM     34  N   UNL A   1      43.430  32.282  33.914  1.00  0.00    -0.354 N 
ATOM     35  C   UNL A   1      42.269  29.999  29.363  1.00  0.00     0.074 A 
ATOM     36  C   UNL A   1      43.698  29.923  29.137  1.00  0.00     0.031 C 
ATOM     37  C   UNL A   1      41.860  30.788  34.178  1.00  0.00     0.029 A 
ATOM     38  C   UNL A   1      42.355  32.004  34.774  1.00  0.00     0.049 A 
ATOM     39  H   UNL A   1      44.292  32.662  34.198  1.00  0.00     0.167 HD
ATOM     40  C   UNL A   1      41.337  28.995  29.438  1.00  0.00     0.037 A 
ATOM     41  C   UNL A   1      41.697  33.087  35.293  1.00  0.00     0.037 A 
ATOM     42  C   UNL A   1      40.326  29.270  30.478  1.00  0.00     0.049 A 
ATOM     43  C   UNL A   1      40.441  33.339  34.393  1.00  0.00     0.074 A 
ATOM     44  C   UNL A   1      39.939  28.666  31.669  1.00  0.00     0.029 A 
ATOM     45  N   UNL A   1      39.739  30.518  30.523  1.00  0.00    -0.354 N 
ATOM     46  N   UNL A   1      39.881  32.368  33.708  1.00  0.00    -0.248 NA
ATOM     47  C   UNL A   1      39.751  34.611  34.113  1.00  0.00     0.031 C 
ATOM     48  C   UNL A   1      39.129  29.583  32.410  1.00  0.00     0.029 A 
ATOM     49  C   UNL A   1      39.014  30.742  31.671  1.00  0.00     0.049 A 
ATOM     50  H   UNL A   1      39.830  31.183  29.802  1.00  0.00     0.167 HD
ATOM     51  C   UNL A   1      38.958  32.853  32.808  1.00  0.00     0.074 A 
ATOM     52  C   UNL A   1      38.858  34.260  33.157  1.00  0.00     0.031 C 
ATOM     53  C   UNL A   1      38.403  32.058  31.830  1.00  0.00     0.037 A 
BRANCH  40  54
ATOM     54  C   UNL A   1      41.465  27.652  28.727  1.00  0.00     0.058 A 
ATOM     55  C   UNL A   1      42.319  26.636  29.211  1.00  0.00     0.135 A 
ATOM     56  C   UNL A   1      40.661  27.256  27.632  1.00  0.00     0.135 A 
ATOM     57  F   UNL A   1      43.064  26.803  30.311  1.00  0.00    -0.206 F 
ATOM     58  C   UNL A   1      42.424  25.374  28.622  1.00  0.00     0.059 A 
ATOM     59  C   UNL A   1      40.776  26.010  26.998  1.00  0.00     0.059 A 
ATOM     60  F   UNL A   1      39.677  28.042  27.170  1.00  0.00    -0.206 F 
ATOM     61  C   UNL A   1      41.661  25.070  27.506  1.00  0.00     0.060 A 
BRANCH  61  62
ATOM     62  S   UNL A   1      41.807  23.424  26.787  1.00  0.00     0.124 S 
ATOM     63  O   UNL A   1      42.586  23.685  25.580  1.00  0.00    -0.237 OA
ATOM     64  O   UNL A   1      42.500  22.692  27.841  1.00  0.00    -0.237 OA
ATOM     65  O   UNL A   1      40.420  23.027  26.557  1.00  0.00    -0.744 OA
ENDBRANCH  61  62
ENDBRANCH  40  54
BRANCH  41  66
ATOM     66  C   UNL A   1      42.791  34.065  35.813  1.00  0.00     0.058 A 
ATOM     67  C   UNL A   1      42.688  35.430  35.515  1.00  0.00     0.135 A 
ATOM     68  C   UNL A   1      43.063  33.975  37.131  1.00  0.00     0.135 A 
ATOM     69  F   UNL A   1      42.874  35.822  34.242  1.00  0.00    -0.206 F 
ATOM     70  C   UNL A   1      42.412  36.512  36.538  1.00  0.00     0.059 A 
ATOM     71  C   UNL A   1      42.480  35.024  38.013  1.00  0.00     0.059 A 
ATOM     72  F   UNL A   1      43.288  32.761  37.658  1.00  0.00    -0.206 F 
ATOM     73  C   UNL A   1      42.067  36.390  38.014  1.00  0.00     0.060 A 
BRANCH  73  74
ATOM     74  S   UNL A   1      42.291  37.951  39.867  1.00  0.00     0.124 S 
ATOM     75  O   UNL A   1      41.200  38.926  39.886  1.00  0.00    -0.237 OA
ATOM     76  O   UNL A   1      42.278  37.350  41.215  1.00  0.00    -0.237 OA
ATOM     77  O   UNL A   1      43.554  38.585  39.672  1.00  0.00    -0.744 OA
ENDBRANCH  73  74
ENDBRANCH  41  66
BRANCH  53  78
ATOM     78  C   UNL A   1      37.254  32.403  30.884  1.00  0.00     0.058 A 
ATOM     79  C   UNL A   1      37.452  33.113  29.691  1.00  0.00     0.135 A 
ATOM     80  C   UNL A   1      35.885  32.223  31.241  1.00  0.00     0.135 A 
ATOM     81  F   UNL A   1      38.688  33.440  29.284  1.00  0.00    -0.206 F 
ATOM     82  C   UNL A   1      36.384  33.559  28.895  1.00  0.00     0.059 A 
ATOM     83  C   UNL A   1      34.814  32.696  30.493  1.00  0.00     0.059 A 
ATOM     84  F   UNL A   1      35.501  31.564  32.340  1.00  0.00    -0.206 F 
ATOM     85  C   UNL A   1      35.069  33.341  29.303  1.00  0.00     0.060 A 
BRANCH  85  86
ATOM     86  S   UNL A   1      33.696  33.911  28.288  1.00  0.00     0.124 S 
ATOM     87  O   UNL A   1      34.356  34.815  27.350  1.00  0.00    -0.237 OA
ATOM     88  O   UNL A   1      33.213  32.654  27.726  1.00  0.00    -0.237 OA
ATOM     89  O   UNL A   1      32.801  34.555  29.244  1.00  0.00    -0.744 OA
ENDBRANCH  85  86
ENDBRANCH  53  78
ENDBRANCH  27  28
ENDBRANCH  20  22
ENDBRANCH  19  20
ENDBRANCH   1  19
TORSDOF 16
ENDMDL
