MODEL 1
REMARK VINA RESULT:     -11.8      0.000      0.000
REMARK SMILES O=C1OC(c2ccc(Cl)cc2)=N/C1=C/Nc1ccc(O)c(C(=O)OCCOC(=O)c2ccc(-c3c4nc(c(-c5c(F)cc(S(=O)(=O)[O-])cc5F)c5ccc([nH]5)c(-c5c(F)cc(S(=O)(=O)[O-])cc5F)c5nc(c(-c6c(F)cc(S(=O)(=O)[O-])cc6F)c6ccc3[nH]6)C=C5)C=C4)cc2)c1
REMARK SMILES IDX 25 1 24 2 22 3 23 4 21 5 16 6 17 7 96 8 18 9 19 10 15 11
REMARK SMILES IDX 14 13 1 14 2 15 3 16 13 17 4 18 12 19 5 20 6 21 11 22 7 23
REMARK SMILES IDX 10 24 8 25 9 26 20 27 26 29 27 30 28 31 29 32 30 33 31 34
REMARK SMILES IDX 95 35 32 36 94 37 33 38 34 39 35 40 88 41 36 42 93 43 87 44
REMARK SMILES IDX 89 45 37 46 92 47 86 48 85 49 38 51 72 52 51 53 71 54 52 55
REMARK SMILES IDX 55 56 70 57 90 58 53 59 54 60 69 62 91 63 56 64 39 65 40 66
REMARK SMILES IDX 49 67 41 68 42 69 48 70 50 71 43 72 44 73 45 74 46 75 47 76
REMARK SMILES IDX 73 77 74 78 83 79 75 80 76 81 82 82 84 83 77 84 78 85 79 86
REMARK SMILES IDX 80 87 81 88 57 89 58 90 67 91 59 92 60 93 66 94 68 95 61 96
REMARK SMILES IDX 62 97 63 98 64 99 65 100
REMARK H PARENT 15 12 20 28 89 50 55 61
REMARK Flexibility Score: inf
ROOT
ATOM      1  C   UNL A   1      34.310  34.267  28.194  1.00  0.00     0.275 C 
ENDROOT
BRANCH   1   2
ATOM      2  O   UNL A   1      33.415  34.315  29.325  1.00  0.00    -0.458 OA
BRANCH   2   3
ATOM      3  C   UNL A   1      32.962  35.545  29.671  1.00  0.00     0.342 C 
ATOM      4  O   UNL A   1      32.184  36.232  29.025  1.00  0.00    -0.246 OA
BRANCH   3   5
ATOM      5  C   UNL A   1      33.433  35.957  31.012  1.00  0.00     0.103 A 
ATOM      6  C   UNL A   1      34.182  35.216  33.228  1.00  0.00     0.039 A 
ATOM      7  C   UNL A   1      34.098  36.535  33.670  1.00  0.00     0.030 A 
ATOM      8  C   UNL A   1      33.812  34.946  31.910  1.00  0.00     0.045 A 
ATOM      9  C   UNL A   1      33.732  37.564  32.789  1.00  0.00     0.049 A 
ATOM     10  C   UNL A   1      33.408  37.275  31.459  1.00  0.00     0.130 A 
BRANCH   6  11
ATOM     11  N   UNL A   1      34.523  34.147  34.065  1.00  0.00    -0.360 N 
ATOM     12  H   UNL A   1      33.778  33.655  34.480  1.00  0.00     0.166 HD
BRANCH  11  13
ATOM     13  C   UNL A   1      35.791  33.715  34.367  1.00  0.00     0.119 C 
ATOM     14  O   UNL A   1      34.949  31.925  32.106  1.00  0.00    -0.244 OA
ATOM     15  C   UNL A   1      36.014  31.873  32.692  1.00  0.00     0.365 C 
ATOM     16  O   UNL A   1      37.078  31.055  32.449  1.00  0.00    -0.402 OA
ATOM     17  C   UNL A   1      36.486  32.703  33.833  1.00  0.00     0.168 C 
ATOM     18  C   UNL A   1      38.003  31.364  33.387  1.00  0.00     0.231 C 
ATOM     19  N   UNL A   1      37.733  32.304  34.234  1.00  0.00    -0.204 NA
BRANCH  18  20
ATOM     20  C   UNL A   1      39.228  30.569  33.348  1.00  0.00     0.037 A 
ATOM     21  C   UNL A   1      39.195  29.248  32.891  1.00  0.00     0.015 A 
ATOM     22  C   UNL A   1      40.441  31.175  33.688  1.00  0.00     0.015 A 
ATOM     23  C   UNL A   1      40.391  28.536  32.758  1.00  0.00     0.021 A 
ATOM     24  C   UNL A   1      41.632  30.453  33.572  1.00  0.00     0.021 A 
ATOM     25  C   UNL A   1      41.603  29.142  33.096  1.00  0.00     0.041 A 
ATOM     26  Cl  UNL A   1      43.075  28.272  32.903  1.00  0.00    -0.084 Cl
ENDBRANCH  18  20
ENDBRANCH  11  13
ENDBRANCH   6  11
BRANCH  10  27
ATOM     27  O   UNL A   1      33.013  38.286  30.630  1.00  0.00    -0.507 OA
ATOM     28  H   UNL A   1      32.337  38.136  29.998  1.00  0.00     0.293 HD
ENDBRANCH  10  27
ENDBRANCH   3   5
ENDBRANCH   2   3
ENDBRANCH   1   2
BRANCH   1  29
ATOM     29  C   UNL A   1      35.187  33.016  28.224  1.00  0.00     0.275 C 
BRANCH  29  30
ATOM     30  O   UNL A   1      34.529  31.949  28.932  1.00  0.00    -0.458 OA
BRANCH  30  31
ATOM     31  C   UNL A   1      34.460  30.785  28.249  1.00  0.00     0.338 C 
ATOM     32  O   UNL A   1      33.521  30.362  27.596  1.00  0.00    -0.246 OA
BRANCH  31  33
ATOM     33  C   UNL A   1      35.747  30.082  28.307  1.00  0.00     0.060 A 
ATOM     34  C   UNL A   1      36.175  29.630  29.548  1.00  0.00     0.016 A 
ATOM     35  C   UNL A   1      36.618  30.079  27.224  1.00  0.00     0.016 A 
ATOM     36  C   UNL A   1      37.520  29.352  29.763  1.00  0.00     0.010 A 
ATOM     37  C   UNL A   1      37.934  29.638  27.407  1.00  0.00     0.010 A 
ATOM     38  C   UNL A   1      38.422  29.327  28.692  1.00  0.00    -0.014 A 
BRANCH  38  39
ATOM     39  C   UNL A   1      39.862  29.001  28.921  1.00  0.00     0.031 A 
ATOM     40  C   UNL A   1      40.806  30.050  29.462  1.00  0.00     0.074 A 
ATOM     41  C   UNL A   1      40.333  27.765  28.647  1.00  0.00     0.049 A 
ATOM     42  N   UNL A   1      42.114  30.033  29.530  1.00  0.00    -0.248 NA
ATOM     43  C   UNL A   1      40.202  31.294  29.964  1.00  0.00     0.031 C 
ATOM     44  C   UNL A   1      39.533  26.638  28.157  1.00  0.00     0.029 A 
ATOM     45  N   UNL A   1      41.601  27.244  28.738  1.00  0.00    -0.354 N 
ATOM     46  C   UNL A   1      42.487  31.278  30.027  1.00  0.00     0.074 A 
ATOM     47  C   UNL A   1      41.271  32.036  30.219  1.00  0.00     0.031 C 
ATOM     48  C   UNL A   1      40.313  25.557  28.035  1.00  0.00     0.029 A 
ATOM     49  C   UNL A   1      41.689  25.935  28.324  1.00  0.00     0.049 A 
ATOM     50  H   UNL A   1      42.373  27.758  29.069  1.00  0.00     0.167 HD
ATOM     51  C   UNL A   1      43.732  31.744  30.300  1.00  0.00     0.037 A 
ATOM     52  C   UNL A   1      42.758  25.136  28.136  1.00  0.00     0.037 A 
ATOM     53  C   UNL A   1      44.931  30.954  30.161  1.00  0.00     0.049 A 
ATOM     54  C   UNL A   1      44.130  25.686  28.401  1.00  0.00     0.074 A 
ATOM     55  C   UNL A   1      46.238  31.319  30.437  1.00  0.00     0.029 A 
ATOM     56  N   UNL A   1      44.971  29.639  29.719  1.00  0.00    -0.354 N 
ATOM     57  N   UNL A   1      44.470  26.876  28.833  1.00  0.00    -0.248 NA
ATOM     58  C   UNL A   1      45.264  24.790  28.140  1.00  0.00     0.031 C 
ATOM     59  C   UNL A   1      47.071  30.245  30.110  1.00  0.00     0.029 A 
ATOM     60  C   UNL A   1      46.280  29.187  29.692  1.00  0.00     0.049 A 
ATOM     61  H   UNL A   1      44.183  29.106  29.463  1.00  0.00     0.167 HD
ATOM     62  C   UNL A   1      45.856  26.867  28.916  1.00  0.00     0.074 A 
ATOM     63  C   UNL A   1      46.290  25.546  28.508  1.00  0.00     0.031 C 
ATOM     64  C   UNL A   1      46.695  27.864  29.294  1.00  0.00     0.037 A 
BRANCH  51  65
ATOM     65  C   UNL A   1      43.872  33.176  30.746  1.00  0.00     0.058 A 
ATOM     66  C   UNL A   1      43.829  34.253  29.846  1.00  0.00     0.135 A 
ATOM     67  C   UNL A   1      44.010  33.480  32.113  1.00  0.00     0.135 A 
ATOM     68  F   UNL A   1      43.708  34.028  28.528  1.00  0.00    -0.206 F 
ATOM     69  C   UNL A   1      43.949  35.571  30.278  1.00  0.00     0.059 A 
ATOM     70  C   UNL A   1      44.098  34.793  32.570  1.00  0.00     0.059 A 
ATOM     71  F   UNL A   1      44.053  32.495  33.023  1.00  0.00    -0.206 F 
ATOM     72  C   UNL A   1      44.083  35.831  31.642  1.00  0.00     0.060 A 
BRANCH  72  73
ATOM     73  S   UNL A   1      44.229  37.548  32.185  1.00  0.00     0.124 S 
ATOM     74  O   UNL A   1      43.314  37.573  33.322  1.00  0.00    -0.237 OA
ATOM     75  O   UNL A   1      45.647  37.652  32.511  1.00  0.00    -0.237 OA
ATOM     76  O   UNL A   1      43.798  38.314  31.019  1.00  0.00    -0.744 OA
ENDBRANCH  72  73
ENDBRANCH  51  65
BRANCH  52  77
ATOM     77  C   UNL A   1      42.568  23.749  27.628  1.00  0.00     0.058 A 
ATOM     78  C   UNL A   1      42.481  23.487  26.254  1.00  0.00     0.135 A 
ATOM     79  C   UNL A   1      42.492  22.654  28.506  1.00  0.00     0.135 A 
ATOM     80  F   UNL A   1      42.541  24.498  25.373  1.00  0.00    -0.206 F 
ATOM     81  C   UNL A   1      42.312  22.195  25.767  1.00  0.00     0.059 A 
ATOM     82  C   UNL A   1      42.359  21.349  28.042  1.00  0.00     0.059 A 
ATOM     83  F   UNL A   1      42.583  22.845  29.832  1.00  0.00    -0.206 F 
ATOM     84  C   UNL A   1      42.257  21.131  26.670  1.00  0.00     0.060 A 
BRANCH  84  85
ATOM     85  S   UNL A   1      42.088  19.455  26.022  1.00  0.00     0.124 S 
ATOM     86  O   UNL A   1      40.665  19.407  25.705  1.00  0.00    -0.237 OA
ATOM     87  O   UNL A   1      42.996  19.475  24.881  1.00  0.00    -0.237 OA
ATOM     88  O   UNL A   1      42.514  18.617  27.139  1.00  0.00    -0.744 OA
ENDBRANCH  84  85
ENDBRANCH  52  77
BRANCH  64  89
ATOM     89  C   UNL A   1      48.165  27.551  29.331  1.00  0.00     0.058 A 
ATOM     90  C   UNL A   1      49.013  27.838  28.249  1.00  0.00     0.135 A 
ATOM     91  C   UNL A   1      48.741  26.997  30.486  1.00  0.00     0.135 A 
ATOM     92  F   UNL A   1      48.511  28.357  27.117  1.00  0.00    -0.206 F 
ATOM     93  C   UNL A   1      50.376  27.567  28.304  1.00  0.00     0.059 A 
ATOM     94  C   UNL A   1      50.106  26.747  30.575  1.00  0.00     0.059 A 
ATOM     95  F   UNL A   1      47.976  26.709  31.552  1.00  0.00    -0.206 F 
ATOM     96  C   UNL A   1      50.914  27.025  29.473  1.00  0.00     0.060 A 
BRANCH  96  97
ATOM     97  S   UNL A   1      52.690  26.715  29.544  1.00  0.00     0.124 S 
ATOM     98  O   UNL A   1      53.224  28.073  29.593  1.00  0.00    -0.237 OA
ATOM     99  O   UNL A   1      52.822  25.936  30.771  1.00  0.00    -0.237 OA
ATOM    100  O   UNL A   1      52.958  25.981  28.310  1.00  0.00    -0.744 OA
ENDBRANCH  96  97
ENDBRANCH  64  89
ENDBRANCH  38  39
ENDBRANCH  31  33
ENDBRANCH  30  31
ENDBRANCH  29  30
ENDBRANCH   1  29
TORSDOF 18
ENDMDL
MODEL 2
REMARK VINA RESULT:     -10.7      5.434     12.563
REMARK SMILES O=C1OC(c2ccc(Cl)cc2)=N/C1=C/Nc1ccc(O)c(C(=O)OCCOC(=O)c2ccc(-c3c4nc(c(-c5c(F)cc(S(=O)(=O)[O-])cc5F)c5ccc([nH]5)c(-c5c(F)cc(S(=O)(=O)[O-])cc5F)c5nc(c(-c6c(F)cc(S(=O)(=O)[O-])cc6F)c6ccc3[nH]6)C=C5)C=C4)cc2)c1
REMARK SMILES IDX 25 1 24 2 22 3 23 4 21 5 16 6 17 7 96 8 18 9 19 10 15 11
REMARK SMILES IDX 14 13 1 14 2 15 3 16 13 17 4 18 12 19 5 20 6 21 11 22 7 23
REMARK SMILES IDX 10 24 8 25 9 26 20 27 26 29 27 30 28 31 29 32 30 33 31 34
REMARK SMILES IDX 95 35 32 36 94 37 33 38 34 39 35 40 88 41 36 42 93 43 87 44
REMARK SMILES IDX 89 45 37 46 92 47 86 48 85 49 38 51 72 52 51 53 71 54 52 55
REMARK SMILES IDX 55 56 70 57 90 58 53 59 54 60 69 62 91 63 56 64 39 65 40 66
REMARK SMILES IDX 49 67 41 68 42 69 48 70 50 71 43 72 44 73 45 74 46 75 47 76
REMARK SMILES IDX 73 77 74 78 83 79 75 80 76 81 82 82 84 83 77 84 78 85 79 86
REMARK SMILES IDX 80 87 81 88 57 89 58 90 67 91 59 92 60 93 66 94 68 95 61 96
REMARK SMILES IDX 62 97 63 98 64 99 65 100
REMARK H PARENT 15 12 20 28 89 50 55 61
REMARK Flexibility Score: inf
ROOT
ATOM      1  C   UNL A   1      37.802  22.678  25.496  1.00  0.00     0.275 C 
ENDROOT
BRANCH   1   2
ATOM      2  O   UNL A   1      36.783  21.739  25.898  1.00  0.00    -0.458 OA
BRANCH   2   3
ATOM      3  C   UNL A   1      36.646  20.642  25.114  1.00  0.00     0.342 C 
ATOM      4  O   UNL A   1      37.548  19.908  24.740  1.00  0.00    -0.246 OA
BRANCH   3   5
ATOM      5  C   UNL A   1      35.226  20.339  24.822  1.00  0.00     0.103 A 
ATOM      6  C   UNL A   1      32.967  21.247  24.521  1.00  0.00     0.039 A 
ATOM      7  C   UNL A   1      32.469  19.946  24.534  1.00  0.00     0.030 A 
ATOM      8  C   UNL A   1      34.340  21.421  24.702  1.00  0.00     0.045 A 
ATOM      9  C   UNL A   1      33.336  18.848  24.643  1.00  0.00     0.049 A 
ATOM     10  C   UNL A   1      34.715  19.045  24.779  1.00  0.00     0.130 A 
BRANCH   6  11
ATOM     11  N   UNL A   1      32.149  22.381  24.433  1.00  0.00    -0.360 N 
ATOM     12  H   UNL A   1      31.574  22.451  23.637  1.00  0.00     0.166 HD
BRANCH  11  13
ATOM     13  C   UNL A   1      32.069  23.404  25.343  1.00  0.00     0.119 C 
ATOM     14  O   UNL A   1      33.625  24.597  23.066  1.00  0.00    -0.244 OA
ATOM     15  C   UNL A   1      33.337  25.166  24.103  1.00  0.00     0.365 C 
ATOM     16  O   UNL A   1      33.591  26.457  24.461  1.00  0.00    -0.402 OA
ATOM     17  C   UNL A   1      32.598  24.633  25.279  1.00  0.00     0.168 C 
ATOM     18  C   UNL A   1      33.099  26.596  25.713  1.00  0.00     0.231 C 
ATOM     19  N   UNL A   1      32.514  25.581  26.263  1.00  0.00    -0.204 NA
BRANCH  18  20
ATOM     20  C   UNL A   1      33.302  27.906  26.328  1.00  0.00     0.037 A 
ATOM     21  C   UNL A   1      34.559  28.261  26.826  1.00  0.00     0.015 A 
ATOM     22  C   UNL A   1      32.250  28.826  26.327  1.00  0.00     0.015 A 
ATOM     23  C   UNL A   1      34.765  29.556  27.312  1.00  0.00     0.021 A 
ATOM     24  C   UNL A   1      32.455  30.112  26.832  1.00  0.00     0.021 A 
ATOM     25  C   UNL A   1      33.715  30.476  27.311  1.00  0.00     0.041 A 
ATOM     26  Cl  UNL A   1      33.981  32.077  27.882  1.00  0.00    -0.084 Cl
ENDBRANCH  18  20
ENDBRANCH  11  13
ENDBRANCH   6  11
BRANCH  10  27
ATOM     27  O   UNL A   1      35.536  17.965  24.927  1.00  0.00    -0.507 OA
ATOM     28  H   UNL A   1      36.464  18.084  24.972  1.00  0.00     0.293 HD
ENDBRANCH  10  27
ENDBRANCH   3   5
ENDBRANCH   2   3
ENDBRANCH   1   2
BRANCH   1  29
ATOM     29  C   UNL A   1      39.135  22.391  26.188  1.00  0.00     0.275 C 
BRANCH  29  30
ATOM     30  O   UNL A   1      39.355  23.309  27.273  1.00  0.00    -0.458 OA
BRANCH  30  31
ATOM     31  C   UNL A   1      40.278  24.263  27.019  1.00  0.00     0.338 C 
ATOM     32  O   UNL A   1      41.197  24.213  26.219  1.00  0.00    -0.246 OA
BRANCH  31  33
ATOM     33  C   UNL A   1      39.986  25.475  27.794  1.00  0.00     0.060 A 
ATOM     34  C   UNL A   1      40.825  26.566  27.619  1.00  0.00     0.016 A 
ATOM     35  C   UNL A   1      39.068  25.460  28.838  1.00  0.00     0.016 A 
ATOM     36  C   UNL A   1      40.888  27.562  28.586  1.00  0.00     0.010 A 
ATOM     37  C   UNL A   1      39.018  26.548  29.719  1.00  0.00     0.010 A 
ATOM     38  C   UNL A   1      39.969  27.586  29.643  1.00  0.00    -0.014 A 
BRANCH  38  39
ATOM     39  C   UNL A   1      40.020  28.672  30.667  1.00  0.00     0.031 A 
ATOM     40  C   UNL A   1      41.004  28.597  31.813  1.00  0.00     0.074 A 
ATOM     41  C   UNL A   1      39.188  29.732  30.578  1.00  0.00     0.049 A 
ATOM     42  N   UNL A   1      41.062  29.317  32.905  1.00  0.00    -0.248 NA
ATOM     43  C   UNL A   1      42.040  27.554  31.734  1.00  0.00     0.031 C 
ATOM     44  C   UNL A   1      38.213  29.962  29.509  1.00  0.00     0.029 A 
ATOM     45  N   UNL A   1      39.024  30.820  31.403  1.00  0.00    -0.354 N 
ATOM     46  C   UNL A   1      42.098  28.780  33.663  1.00  0.00     0.074 A 
ATOM     47  C   UNL A   1      42.625  27.657  32.919  1.00  0.00     0.031 C 
ATOM     48  C   UNL A   1      37.590  31.129  29.715  1.00  0.00     0.029 A 
ATOM     49  C   UNL A   1      38.032  31.678  30.989  1.00  0.00     0.049 A 
ATOM     50  H   UNL A   1      39.565  30.969  32.212  1.00  0.00     0.167 HD
ATOM     51  C   UNL A   1      42.567  29.189  34.869  1.00  0.00     0.037 A 
ATOM     52  C   UNL A   1      37.488  32.756  31.587  1.00  0.00     0.037 A 
ATOM     53  C   UNL A   1      42.072  30.347  35.570  1.00  0.00     0.049 A 
ATOM     54  C   UNL A   1      37.991  33.165  32.942  1.00  0.00     0.074 A 
ATOM     55  C   UNL A   1      42.495  30.865  36.783  1.00  0.00     0.029 A 
ATOM     56  N   UNL A   1      41.052  31.174  35.120  1.00  0.00    -0.354 N 
ATOM     57  N   UNL A   1      38.944  32.625  33.663  1.00  0.00    -0.248 NA
ATOM     58  C   UNL A   1      37.338  34.320  33.571  1.00  0.00     0.031 C 
ATOM     59  C   UNL A   1      41.696  31.970  37.090  1.00  0.00     0.029 A 
ATOM     60  C   UNL A   1      40.817  32.183  36.040  1.00  0.00     0.049 A 
ATOM     61  H   UNL A   1      40.567  31.060  34.270  1.00  0.00     0.167 HD
ATOM     62  C   UNL A   1      39.019  33.386  34.822  1.00  0.00     0.074 A 
ATOM     63  C   UNL A   1      38.028  34.436  34.697  1.00  0.00     0.031 C 
ATOM     64  C   UNL A   1      39.834  33.228  35.895  1.00  0.00     0.037 A 
BRANCH  51  65
ATOM     65  C   UNL A   1      43.648  28.368  35.525  1.00  0.00     0.058 A 
ATOM     66  C   UNL A   1      43.362  27.314  36.407  1.00  0.00     0.135 A 
ATOM     67  C   UNL A   1      45.001  28.617  35.230  1.00  0.00     0.135 A 
ATOM     68  F   UNL A   1      42.091  27.033  36.736  1.00  0.00    -0.206 F 
ATOM     69  C   UNL A   1      44.374  26.560  36.996  1.00  0.00     0.059 A 
ATOM     70  C   UNL A   1      46.027  27.854  35.782  1.00  0.00     0.059 A 
ATOM     71  F   UNL A   1      45.338  29.609  34.391  1.00  0.00    -0.206 F 
ATOM     72  C   UNL A   1      45.703  26.837  36.677  1.00  0.00     0.060 A 
BRANCH  72  73
ATOM     73  S   UNL A   1      47.003  25.843  37.443  1.00  0.00     0.124 S 
ATOM     74  O   UNL A   1      48.184  26.663  37.191  1.00  0.00    -0.237 OA
ATOM     75  O   UNL A   1      46.564  25.775  38.833  1.00  0.00    -0.237 OA
ATOM     76  O   UNL A   1      46.948  24.583  36.708  1.00  0.00    -0.744 OA
ENDBRANCH  72  73
ENDBRANCH  51  65
BRANCH  52  77
ATOM     77  C   UNL A   1      36.375  33.491  30.925  1.00  0.00     0.058 A 
ATOM     78  C   UNL A   1      35.070  33.442  31.436  1.00  0.00     0.135 A 
ATOM     79  C   UNL A   1      36.597  34.275  29.779  1.00  0.00     0.135 A 
ATOM     80  F   UNL A   1      34.803  32.702  32.523  1.00  0.00    -0.206 F 
ATOM     81  C   UNL A   1      34.024  34.130  30.830  1.00  0.00     0.059 A 
ATOM     82  C   UNL A   1      35.575  35.001  29.177  1.00  0.00     0.059 A 
ATOM     83  F   UNL A   1      37.830  34.368  29.255  1.00  0.00    -0.206 F 
ATOM     84  C   UNL A   1      34.288  34.912  29.704  1.00  0.00     0.060 A 
BRANCH  84  85
ATOM     85  S   UNL A   1      32.931  35.840  28.957  1.00  0.00     0.124 S 
ATOM     86  O   UNL A   1      32.131  36.182  30.129  1.00  0.00    -0.237 OA
ATOM     87  O   UNL A   1      33.634  36.948  28.320  1.00  0.00    -0.237 OA
ATOM     88  O   UNL A   1      32.328  34.878  28.040  1.00  0.00    -0.744 OA
ENDBRANCH  84  85
ENDBRANCH  52  77
BRANCH  64  89
ATOM     89  C   UNL A   1      39.723  34.243  37.000  1.00  0.00     0.058 A 
ATOM     90  C   UNL A   1      38.897  34.037  38.116  1.00  0.00     0.135 A 
ATOM     91  C   UNL A   1      40.492  35.417  36.961  1.00  0.00     0.135 A 
ATOM     92  F   UNL A   1      38.132  32.936  38.197  1.00  0.00    -0.206 F 
ATOM     93  C   UNL A   1      38.821  34.971  39.144  1.00  0.00     0.059 A 
ATOM     94  C   UNL A   1      40.456  36.349  37.992  1.00  0.00     0.059 A 
ATOM     95  F   UNL A   1      41.303  35.660  35.919  1.00  0.00    -0.206 F 
ATOM     96  C   UNL A   1      39.608  36.122  39.075  1.00  0.00     0.060 A 
BRANCH  96  97
ATOM     97  S   UNL A   1      39.529  37.305  40.435  1.00  0.00     0.124 S 
ATOM     98  O   UNL A   1      38.779  38.401  39.828  1.00  0.00    -0.237 OA
ATOM     99  O   UNL A   1      38.824  36.549  41.465  1.00  0.00    -0.237 OA
ATOM    100  O   UNL A   1      40.931  37.589  40.723  1.00  0.00    -0.744 OA
ENDBRANCH  96  97
ENDBRANCH  64  89
ENDBRANCH  38  39
ENDBRANCH  31  33
ENDBRANCH  30  31
ENDBRANCH  29  30
ENDBRANCH   1  29
TORSDOF 18
ENDMDL
MODEL 3
REMARK VINA RESULT:     -10.7      6.069     12.855
REMARK SMILES O=C1OC(c2ccc(Cl)cc2)=N/C1=C/Nc1ccc(O)c(C(=O)OCCOC(=O)c2ccc(-c3c4nc(c(-c5c(F)cc(S(=O)(=O)[O-])cc5F)c5ccc([nH]5)c(-c5c(F)cc(S(=O)(=O)[O-])cc5F)c5nc(c(-c6c(F)cc(S(=O)(=O)[O-])cc6F)c6ccc3[nH]6)C=C5)C=C4)cc2)c1
REMARK SMILES IDX 25 1 24 2 22 3 23 4 21 5 16 6 17 7 96 8 18 9 19 10 15 11
REMARK SMILES IDX 14 13 1 14 2 15 3 16 13 17 4 18 12 19 5 20 6 21 11 22 7 23
REMARK SMILES IDX 10 24 8 25 9 26 20 27 26 29 27 30 28 31 29 32 30 33 31 34
REMARK SMILES IDX 95 35 32 36 94 37 33 38 34 39 35 40 88 41 36 42 93 43 87 44
REMARK SMILES IDX 89 45 37 46 92 47 86 48 85 49 38 51 72 52 51 53 71 54 52 55
REMARK SMILES IDX 55 56 70 57 90 58 53 59 54 60 69 62 91 63 56 64 39 65 40 66
REMARK SMILES IDX 49 67 41 68 42 69 48 70 50 71 43 72 44 73 45 74 46 75 47 76
REMARK SMILES IDX 73 77 74 78 83 79 75 80 76 81 82 82 84 83 77 84 78 85 79 86
REMARK SMILES IDX 80 87 81 88 57 89 58 90 67 91 59 92 60 93 66 94 68 95 61 96
REMARK SMILES IDX 62 97 63 98 64 99 65 100
REMARK H PARENT 15 12 20 28 89 50 55 61
REMARK Flexibility Score: inf
ROOT
ATOM      1  C   UNL A   1      38.329  22.687  25.732  1.00  0.00     0.275 C 
ENDROOT
BRANCH   1   2
ATOM      2  O   UNL A   1      37.280  21.724  25.500  1.00  0.00    -0.458 OA
BRANCH   2   3
ATOM      3  C   UNL A   1      36.382  22.046  24.537  1.00  0.00     0.342 C 
ATOM      4  O   UNL A   1      36.587  22.775  23.578  1.00  0.00    -0.246 OA
BRANCH   3   5
ATOM      5  C   UNL A   1      35.102  21.320  24.702  1.00  0.00     0.103 A 
ATOM      6  C   UNL A   1      32.669  21.508  24.957  1.00  0.00     0.039 A 
ATOM      7  C   UNL A   1      32.622  20.150  25.265  1.00  0.00     0.030 A 
ATOM      8  C   UNL A   1      33.920  22.078  24.716  1.00  0.00     0.045 A 
ATOM      9  C   UNL A   1      33.787  19.370  25.248  1.00  0.00     0.049 A 
ATOM     10  C   UNL A   1      35.026  19.954  24.959  1.00  0.00     0.130 A 
BRANCH   6  11
ATOM     11  N   UNL A   1      31.542  22.339  24.976  1.00  0.00    -0.360 N 
ATOM     12  H   UNL A   1      30.930  22.238  25.741  1.00  0.00     0.166 HD
BRANCH  11  13
ATOM     13  C   UNL A   1      31.203  23.280  24.036  1.00  0.00     0.119 C 
ATOM     14  O   UNL A   1      30.802  24.708  26.649  1.00  0.00    -0.244 OA
ATOM     15  C   UNL A   1      30.598  25.178  25.545  1.00  0.00     0.365 C 
ATOM     16  O   UNL A   1      30.200  26.442  25.222  1.00  0.00    -0.402 OA
ATOM     17  C   UNL A   1      30.746  24.525  24.217  1.00  0.00     0.168 C 
ATOM     18  C   UNL A   1      30.087  26.460  23.874  1.00  0.00     0.231 C 
ATOM     19  N   UNL A   1      30.378  25.384  23.216  1.00  0.00    -0.204 NA
BRANCH  18  20
ATOM     20  C   UNL A   1      29.622  27.720  23.298  1.00  0.00     0.037 A 
ATOM     21  C   UNL A   1      30.533  28.604  22.715  1.00  0.00     0.015 A 
ATOM     22  C   UNL A   1      28.249  27.982  23.260  1.00  0.00     0.015 A 
ATOM     23  C   UNL A   1      30.061  29.753  22.073  1.00  0.00     0.021 A 
ATOM     24  C   UNL A   1      27.784  29.142  22.636  1.00  0.00     0.021 A 
ATOM     25  C   UNL A   1      28.690  30.016  22.034  1.00  0.00     0.041 A 
ATOM     26  Cl  UNL A   1      28.111  31.416  21.217  1.00  0.00    -0.084 Cl
ENDBRANCH  18  20
ENDBRANCH  11  13
ENDBRANCH   6  11
BRANCH  10  27
ATOM     27  O   UNL A   1      36.154  19.186  24.991  1.00  0.00    -0.507 OA
ATOM     28  H   UNL A   1      36.998  19.591  24.948  1.00  0.00     0.293 HD
ENDBRANCH  10  27
ENDBRANCH   3   5
ENDBRANCH   2   3
ENDBRANCH   1   2
BRANCH   1  29
ATOM     29  C   UNL A   1      39.501  22.068  26.493  1.00  0.00     0.275 C 
BRANCH  29  30
ATOM     30  O   UNL A   1      39.974  22.962  27.516  1.00  0.00    -0.458 OA
BRANCH  30  31
ATOM     31  C   UNL A   1      40.844  23.899  27.081  1.00  0.00     0.338 C 
ATOM     32  O   UNL A   1      41.674  23.788  26.193  1.00  0.00    -0.246 OA
BRANCH  31  33
ATOM     33  C   UNL A   1      40.612  25.173  27.773  1.00  0.00     0.060 A 
ATOM     34  C   UNL A   1      41.671  26.066  27.845  1.00  0.00     0.016 A 
ATOM     35  C   UNL A   1      39.469  25.381  28.536  1.00  0.00     0.016 A 
ATOM     36  C   UNL A   1      41.678  27.064  28.812  1.00  0.00     0.010 A 
ATOM     37  C   UNL A   1      39.411  26.488  29.391  1.00  0.00     0.010 A 
ATOM     38  C   UNL A   1      40.539  27.311  29.588  1.00  0.00    -0.014 A 
BRANCH  38  39
ATOM     39  C   UNL A   1      40.538  28.401  30.609  1.00  0.00     0.031 A 
ATOM     40  C   UNL A   1      41.510  28.365  31.767  1.00  0.00     0.074 A 
ATOM     41  C   UNL A   1      39.669  29.430  30.507  1.00  0.00     0.049 A 
ATOM     42  N   UNL A   1      41.529  29.091  32.857  1.00  0.00    -0.248 NA
ATOM     43  C   UNL A   1      42.584  27.361  31.704  1.00  0.00     0.031 C 
ATOM     44  C   UNL A   1      38.699  29.621  29.424  1.00  0.00     0.029 A 
ATOM     45  N   UNL A   1      39.456  30.514  31.325  1.00  0.00    -0.354 N 
ATOM     46  C   UNL A   1      42.575  28.594  33.629  1.00  0.00     0.074 A 
ATOM     47  C   UNL A   1      43.151  27.489  32.895  1.00  0.00     0.031 C 
ATOM     48  C   UNL A   1      38.032  30.765  29.619  1.00  0.00     0.029 A 
ATOM     49  C   UNL A   1      38.438  31.335  30.896  1.00  0.00     0.049 A 
ATOM     50  H   UNL A   1      39.981  30.686  32.139  1.00  0.00     0.167 HD
ATOM     51  C   UNL A   1      43.014  29.024  34.839  1.00  0.00     0.037 A 
ATOM     52  C   UNL A   1      37.849  32.395  31.484  1.00  0.00     0.037 A 
ATOM     53  C   UNL A   1      42.469  30.166  35.530  1.00  0.00     0.049 A 
ATOM     54  C   UNL A   1      38.321  32.826  32.843  1.00  0.00     0.074 A 
ATOM     55  C   UNL A   1      42.859  30.703  36.745  1.00  0.00     0.029 A 
ATOM     56  N   UNL A   1      41.425  30.954  35.064  1.00  0.00    -0.354 N 
ATOM     57  N   UNL A   1      39.284  32.323  33.577  1.00  0.00    -0.248 NA
ATOM     58  C   UNL A   1      37.619  33.958  33.459  1.00  0.00     0.031 C 
ATOM     59  C   UNL A   1      42.017  31.780  37.039  1.00  0.00     0.029 A 
ATOM     60  C   UNL A   1      41.144  31.957  35.978  1.00  0.00     0.049 A 
ATOM     61  H   UNL A   1      40.955  30.819  34.209  1.00  0.00     0.167 HD
ATOM     62  C   UNL A   1      39.318  33.090  34.734  1.00  0.00     0.074 A 
ATOM     63  C   UNL A   1      38.291  34.103  34.593  1.00  0.00     0.031 C 
ATOM     64  C   UNL A   1      40.124  32.965  35.817  1.00  0.00     0.037 A 
BRANCH  51  65
ATOM     65  C   UNL A   1      44.116  28.245  35.511  1.00  0.00     0.058 A 
ATOM     66  C   UNL A   1      45.475  28.534  35.307  1.00  0.00     0.135 A 
ATOM     67  C   UNL A   1      43.801  27.212  36.412  1.00  0.00     0.135 A 
ATOM     68  F   UNL A   1      45.840  29.503  34.452  1.00  0.00    -0.206 F 
ATOM     69  C   UNL A   1      46.479  27.810  35.945  1.00  0.00     0.059 A 
ATOM     70  C   UNL A   1      44.788  26.498  37.086  1.00  0.00     0.059 A 
ATOM     71  F   UNL A   1      42.520  26.891  36.652  1.00  0.00    -0.206 F 
ATOM     72  C   UNL A   1      46.125  26.794  36.834  1.00  0.00     0.060 A 
BRANCH  72  73
ATOM     73  S   UNL A   1      47.441  25.871  37.659  1.00  0.00     0.124 S 
ATOM     74  O   UNL A   1      48.192  25.352  36.520  1.00  0.00    -0.237 OA
ATOM     75  O   UNL A   1      48.108  26.908  38.438  1.00  0.00    -0.237 OA
ATOM     76  O   UNL A   1      46.718  24.870  38.440  1.00  0.00    -0.744 OA
ENDBRANCH  72  73
ENDBRANCH  51  65
BRANCH  52  77
ATOM     77  C   UNL A   1      36.718  33.086  30.805  1.00  0.00     0.058 A 
ATOM     78  C   UNL A   1      35.389  32.824  31.165  1.00  0.00     0.135 A 
ATOM     79  C   UNL A   1      36.944  34.039  29.798  1.00  0.00     0.135 A 
ATOM     80  F   UNL A   1      35.118  31.917  32.116  1.00  0.00    -0.206 F 
ATOM     81  C   UNL A   1      34.324  33.469  30.544  1.00  0.00     0.059 A 
ATOM     82  C   UNL A   1      35.899  34.724  29.187  1.00  0.00     0.059 A 
ATOM     83  F   UNL A   1      38.198  34.339  29.423  1.00  0.00    -0.206 F 
ATOM     84  C   UNL A   1      34.590  34.423  29.560  1.00  0.00     0.060 A 
BRANCH  84  85
ATOM     85  S   UNL A   1      33.202  35.289  28.797  1.00  0.00     0.124 S 
ATOM     86  O   UNL A   1      32.537  34.205  28.084  1.00  0.00    -0.237 OA
ATOM     87  O   UNL A   1      32.496  35.816  29.960  1.00  0.00    -0.237 OA
ATOM     88  O   UNL A   1      33.851  36.292  27.958  1.00  0.00    -0.744 OA
ENDBRANCH  84  85
ENDBRANCH  52  77
BRANCH  64  89
ATOM     89  C   UNL A   1      39.964  33.979  36.917  1.00  0.00     0.058 A 
ATOM     90  C   UNL A   1      40.668  35.193  36.915  1.00  0.00     0.135 A 
ATOM     91  C   UNL A   1      39.055  33.749  37.962  1.00  0.00     0.135 A 
ATOM     92  F   UNL A   1      41.558  35.457  35.944  1.00  0.00    -0.206 F 
ATOM     93  C   UNL A   1      40.493  36.134  37.925  1.00  0.00     0.059 A 
ATOM     94  C   UNL A   1      38.841  34.689  38.965  1.00  0.00     0.059 A 
ATOM     95  F   UNL A   1      38.352  32.606  38.008  1.00  0.00    -0.206 F 
ATOM     96  C   UNL A   1      39.574  35.874  38.943  1.00  0.00     0.060 A 
BRANCH  96  97
ATOM     97  S   UNL A   1      39.330  37.122  40.224  1.00  0.00     0.124 S 
ATOM     98  O   UNL A   1      40.706  37.469  40.563  1.00  0.00    -0.237 OA
ATOM     99  O   UNL A   1      38.571  38.149  39.517  1.00  0.00    -0.237 OA
ATOM    100  O   UNL A   1      38.590  36.406  41.260  1.00  0.00    -0.744 OA
ENDBRANCH  96  97
ENDBRANCH  64  89
ENDBRANCH  38  39
ENDBRANCH  31  33
ENDBRANCH  30  31
ENDBRANCH  29  30
ENDBRANCH   1  29
TORSDOF 18
ENDMDL
