MODEL 1
REMARK VINA RESULT:     -10.6      0.000      0.000
REMARK SMILES Cc1ccc(C(=O)Nc2cccc(F)c2C(=O)OCCOC(=O)c2ccc(-c3c4nc(c(-c5c(F)cc(S(=O)(=O)[O-])cc5F)c5ccc([nH]5)c(-c5c(F)cc(S(=O)(=O)[O-])cc5F)c5nc(c(-c6c(F)cc(S(=O)(=O)[O-])cc6F)c6ccc3[nH]6)C=C5)C=C4)cc2)c(F)c1
REMARK SMILES IDX 20 1 19 2 18 3 16 4 17 5 15 6 9 7 10 8 11 9 13 10 12 11
REMARK SMILES IDX 14 12 8 13 6 14 7 15 5 17 1 18 2 19 3 20 92 21 4 22 90 23
REMARK SMILES IDX 91 24 21 25 22 26 23 27 24 28 25 29 89 30 26 31 88 32 27 33
REMARK SMILES IDX 28 34 29 35 82 36 30 37 87 38 81 39 83 40 31 41 86 42 80 43
REMARK SMILES IDX 79 44 32 46 66 47 45 48 65 49 46 50 49 51 64 52 84 53 47 54
REMARK SMILES IDX 48 55 63 57 85 58 50 59 33 60 34 61 43 62 35 63 36 64 42 65
REMARK SMILES IDX 44 66 37 67 38 68 39 69 40 70 41 71 67 72 68 73 77 74 69 75
REMARK SMILES IDX 70 76 76 77 78 78 71 79 72 80 73 81 74 82 75 83 51 84 52 85
REMARK SMILES IDX 61 86 53 87 54 88 60 89 62 90 55 91 56 92 57 93 58 94 59 95
REMARK H PARENT 8 16 83 45 49 56
REMARK Flexibility Score: inf
ROOT
ATOM      1  C   UNL A   1      38.370  21.444  25.388  1.00  0.00     0.275 C 
ENDROOT
BRANCH   1   2
ATOM      2  C   UNL A   1      39.155  20.177  25.723  1.00  0.00     0.275 C 
BRANCH   2   3
ATOM      3  O   UNL A   1      40.561  20.349  25.443  1.00  0.00    -0.458 OA
BRANCH   3   4
ATOM      4  C   UNL A   1      41.396  20.099  26.479  1.00  0.00     0.343 C 
ATOM      5  O   UNL A   1      41.062  19.992  27.646  1.00  0.00    -0.246 OA
BRANCH   4   6
ATOM      6  C   UNL A   1      42.784  19.849  26.020  1.00  0.00     0.119 A 
ATOM      7  C   UNL A   1      43.526  20.876  25.392  1.00  0.00     0.059 A 
ATOM      8  C   UNL A   1      44.835  20.637  24.969  1.00  0.00     0.027 A 
ATOM      9  C   UNL A   1      45.369  19.349  25.068  1.00  0.00     0.005 A 
ATOM     10  C   UNL A   1      43.315  18.566  26.072  1.00  0.00     0.139 A 
ATOM     11  C   UNL A   1      44.597  18.310  25.590  1.00  0.00     0.040 A 
ATOM     12  F   UNL A   1      42.585  17.534  26.522  1.00  0.00    -0.206 F 
BRANCH   7  13
ATOM     13  N   UNL A   1      42.914  22.123  25.236  1.00  0.00    -0.321 N 
ATOM     14  C   UNL A   1      42.918  23.268  25.996  1.00  0.00     0.258 C 
ATOM     15  O   UNL A   1      42.659  24.320  25.409  1.00  0.00    -0.269 OA
ATOM     16  H   UNL A   1      42.372  22.195  24.418  1.00  0.00     0.170 HD
BRANCH  14  17
ATOM     17  C   UNL A   1      43.269  23.324  27.415  1.00  0.00     0.075 A 
ATOM     18  C   UNL A   1      44.525  23.649  31.507  1.00  0.00     0.044 C 
ATOM     19  C   UNL A   1      44.083  23.506  30.085  1.00  0.00    -0.048 A 
ATOM     20  C   UNL A   1      42.754  23.197  29.770  1.00  0.00     0.004 A 
ATOM     21  C   UNL A   1      45.018  23.642  29.055  1.00  0.00     0.043 A 
ATOM     22  C   UNL A   1      42.355  23.074  28.439  1.00  0.00     0.017 A 
ATOM     23  C   UNL A   1      44.607  23.561  27.731  1.00  0.00     0.136 A 
ATOM     24  F   UNL A   1      45.529  23.736  26.775  1.00  0.00    -0.206 F 
ENDBRANCH  14  17
ENDBRANCH   7  13
ENDBRANCH   4   6
ENDBRANCH   3   4
ENDBRANCH   2   3
ENDBRANCH   1   2
BRANCH   1  25
ATOM     25  O   UNL A   1      39.216  22.604  25.515  1.00  0.00    -0.458 OA
BRANCH  25  26
ATOM     26  C   UNL A   1      38.585  23.769  25.792  1.00  0.00     0.338 C 
ATOM     27  O   UNL A   1      37.459  24.092  25.439  1.00  0.00    -0.246 OA
BRANCH  26  28
ATOM     28  C   UNL A   1      39.387  24.603  26.707  1.00  0.00     0.060 A 
ATOM     29  C   UNL A   1      39.240  24.386  28.063  1.00  0.00     0.016 A 
ATOM     30  C   UNL A   1      40.042  25.753  26.270  1.00  0.00     0.016 A 
ATOM     31  C   UNL A   1      39.489  25.434  28.948  1.00  0.00     0.010 A 
ATOM     32  C   UNL A   1      40.497  26.705  27.205  1.00  0.00     0.010 A 
ATOM     33  C   UNL A   1      40.143  26.613  28.562  1.00  0.00    -0.014 A 
BRANCH  33  34
ATOM     34  C   UNL A   1      40.361  27.723  29.568  1.00  0.00     0.031 A 
ATOM     35  C   UNL A   1      41.654  27.828  30.359  1.00  0.00     0.074 A 
ATOM     36  C   UNL A   1      39.453  28.717  29.731  1.00  0.00     0.049 A 
ATOM     37  N   UNL A   1      41.958  28.632  31.352  1.00  0.00    -0.248 NA
ATOM     38  C   UNL A   1      42.740  26.900  30.010  1.00  0.00     0.031 C 
ATOM     39  C   UNL A   1      38.175  28.825  29.025  1.00  0.00     0.029 A 
ATOM     40  N   UNL A   1      39.487  29.865  30.495  1.00  0.00    -0.354 N 
ATOM     41  C   UNL A   1      43.217  28.243  31.800  1.00  0.00     0.074 A 
ATOM     42  C   UNL A   1      43.626  27.132  30.967  1.00  0.00     0.031 C 
ATOM     43  C   UNL A   1      37.632  30.024  29.263  1.00  0.00     0.029 A 
ATOM     44  C   UNL A   1      38.421  30.711  30.274  1.00  0.00     0.049 A 
ATOM     45  H   UNL A   1      40.207  30.063  31.138  1.00  0.00     0.167 HD
ATOM     46  C   UNL A   1      43.964  28.754  32.812  1.00  0.00     0.037 A 
ATOM     47  C   UNL A   1      38.067  31.885  30.839  1.00  0.00     0.037 A 
ATOM     48  C   UNL A   1      43.602  29.918  33.584  1.00  0.00     0.049 A 
ATOM     49  C   UNL A   1      38.894  32.431  31.964  1.00  0.00     0.074 A 
ATOM     50  C   UNL A   1      44.296  30.506  34.630  1.00  0.00     0.029 A 
ATOM     51  N   UNL A   1      42.464  30.687  33.385  1.00  0.00    -0.354 N 
ATOM     52  N   UNL A   1      40.023  31.976  32.453  1.00  0.00    -0.248 NA
ATOM     53  C   UNL A   1      38.377  33.623  32.652  1.00  0.00     0.031 C 
ATOM     54  C   UNL A   1      43.553  31.596  35.096  1.00  0.00     0.029 A 
ATOM     55  C   UNL A   1      42.425  31.729  34.302  1.00  0.00     0.049 A 
ATOM     56  H   UNL A   1      41.782  30.517  32.695  1.00  0.00     0.167 HD
ATOM     57  C   UNL A   1      40.342  32.813  33.515  1.00  0.00     0.074 A 
ATOM     58  C   UNL A   1      39.309  33.828  33.573  1.00  0.00     0.031 C 
ATOM     59  C   UNL A   1      41.389  32.730  34.373  1.00  0.00     0.037 A 
BRANCH  46  60
ATOM     60  C   UNL A   1      45.225  28.018  33.194  1.00  0.00     0.058 A 
ATOM     61  C   UNL A   1      45.156  26.933  34.086  1.00  0.00     0.135 A 
ATOM     62  C   UNL A   1      46.494  28.373  32.706  1.00  0.00     0.135 A 
ATOM     63  F   UNL A   1      43.973  26.548  34.591  1.00  0.00    -0.206 F 
ATOM     64  C   UNL A   1      46.289  26.226  34.473  1.00  0.00     0.059 A 
ATOM     65  C   UNL A   1      47.639  27.656  33.053  1.00  0.00     0.059 A 
ATOM     66  F   UNL A   1      46.622  29.389  31.839  1.00  0.00    -0.206 F 
ATOM     67  C   UNL A   1      47.526  26.587  33.943  1.00  0.00     0.060 A 
BRANCH  67  68
ATOM     68  S   UNL A   1      48.972  25.597  34.381  1.00  0.00     0.124 S 
ATOM     69  O   UNL A   1      48.414  24.250  34.421  1.00  0.00    -0.237 OA
ATOM     70  O   UNL A   1      49.883  25.877  33.275  1.00  0.00    -0.237 OA
ATOM     71  O   UNL A   1      49.381  26.148  35.671  1.00  0.00    -0.744 OA
ENDBRANCH  67  68
ENDBRANCH  46  60
BRANCH  47  72
ATOM     72  C   UNL A   1      36.833  32.584  30.373  1.00  0.00     0.058 A 
ATOM     73  C   UNL A   1      36.855  33.439  29.259  1.00  0.00     0.135 A 
ATOM     74  C   UNL A   1      35.625  32.470  31.078  1.00  0.00     0.135 A 
ATOM     75  F   UNL A   1      37.979  33.578  28.538  1.00  0.00    -0.206 F 
ATOM     76  C   UNL A   1      35.753  34.210  28.905  1.00  0.00     0.059 A 
ATOM     77  C   UNL A   1      34.495  33.201  30.718  1.00  0.00     0.059 A 
ATOM     78  F   UNL A   1      35.536  31.640  32.129  1.00  0.00    -0.206 F 
ATOM     79  C   UNL A   1      34.579  34.094  29.649  1.00  0.00     0.060 A 
BRANCH  79  80
ATOM     80  S   UNL A   1      33.174  35.136  29.202  1.00  0.00     0.124 S 
ATOM     81  O   UNL A   1      33.840  36.335  28.705  1.00  0.00    -0.237 OA
ATOM     82  O   UNL A   1      32.497  34.323  28.197  1.00  0.00    -0.237 OA
ATOM     83  O   UNL A   1      32.456  35.295  30.462  1.00  0.00    -0.744 OA
ENDBRANCH  79  80
ENDBRANCH  47  72
BRANCH  59  84
ATOM     84  C   UNL A   1      41.481  33.769  35.459  1.00  0.00     0.058 A 
ATOM     85  C   UNL A   1      40.796  33.597  36.673  1.00  0.00     0.135 A 
ATOM     86  C   UNL A   1      42.209  34.957  35.282  1.00  0.00     0.135 A 
ATOM     87  F   UNL A   1      40.081  32.484  36.896  1.00  0.00    -0.206 F 
ATOM     88  C   UNL A   1      40.824  34.569  37.668  1.00  0.00     0.059 A 
ATOM     89  C   UNL A   1      42.275  35.930  36.276  1.00  0.00     0.059 A 
ATOM     90  F   UNL A   1      42.891  35.168  34.145  1.00  0.00    -0.206 F 
ATOM     91  C   UNL A   1      41.568  35.732  37.462  1.00  0.00     0.060 A 
BRANCH  91  92
ATOM     92  S   UNL A   1      41.622  36.963  38.782  1.00  0.00     0.124 S 
ATOM     93  O   UNL A   1      40.265  37.494  38.753  1.00  0.00    -0.237 OA
ATOM     94  O   UNL A   1      41.960  36.149  39.947  1.00  0.00    -0.237 OA
ATOM     95  O   UNL A   1      42.669  37.883  38.345  1.00  0.00    -0.744 OA
ENDBRANCH  91  92
ENDBRANCH  59  84
ENDBRANCH  33  34
ENDBRANCH  26  28
ENDBRANCH  25  26
ENDBRANCH   1  25
TORSDOF 16
ENDMDL
MODEL 2
REMARK VINA RESULT:     -10.6      4.872     12.162
REMARK SMILES Cc1ccc(C(=O)Nc2cccc(F)c2C(=O)OCCOC(=O)c2ccc(-c3c4nc(c(-c5c(F)cc(S(=O)(=O)[O-])cc5F)c5ccc([nH]5)c(-c5c(F)cc(S(=O)(=O)[O-])cc5F)c5nc(c(-c6c(F)cc(S(=O)(=O)[O-])cc6F)c6ccc3[nH]6)C=C5)C=C4)cc2)c(F)c1
REMARK SMILES IDX 20 1 19 2 18 3 16 4 17 5 15 6 9 7 10 8 11 9 13 10 12 11
REMARK SMILES IDX 14 12 8 13 6 14 7 15 5 17 1 18 2 19 3 20 92 21 4 22 90 23
REMARK SMILES IDX 91 24 21 25 22 26 23 27 24 28 25 29 89 30 26 31 88 32 27 33
REMARK SMILES IDX 28 34 29 35 82 36 30 37 87 38 81 39 83 40 31 41 86 42 80 43
REMARK SMILES IDX 79 44 32 46 66 47 45 48 65 49 46 50 49 51 64 52 84 53 47 54
REMARK SMILES IDX 48 55 63 57 85 58 50 59 33 60 34 61 43 62 35 63 36 64 42 65
REMARK SMILES IDX 44 66 37 67 38 68 39 69 40 70 41 71 67 72 68 73 77 74 69 75
REMARK SMILES IDX 70 76 76 77 78 78 71 79 72 80 73 81 74 82 75 83 51 84 52 85
REMARK SMILES IDX 61 86 53 87 54 88 60 89 62 90 55 91 56 92 57 93 58 94 59 95
REMARK H PARENT 8 16 83 45 49 56
REMARK Flexibility Score: inf
ROOT
ATOM      1  C   UNL A   1      36.097  31.949  32.358  1.00  0.00     0.275 C 
ENDROOT
BRANCH   1   2
ATOM      2  C   UNL A   1      37.026  31.711  33.546  1.00  0.00     0.275 C 
BRANCH   2   3
ATOM      3  O   UNL A   1      38.217  31.005  33.139  1.00  0.00    -0.458 OA
BRANCH   3   4
ATOM      4  C   UNL A   1      38.968  30.498  34.146  1.00  0.00     0.343 C 
ATOM      5  O   UNL A   1      38.539  30.102  35.216  1.00  0.00    -0.246 OA
BRANCH   4   6
ATOM      6  C   UNL A   1      40.393  30.365  33.759  1.00  0.00     0.119 A 
ATOM      7  C   UNL A   1      41.249  31.490  33.783  1.00  0.00     0.059 A 
ATOM      8  C   UNL A   1      42.592  31.357  33.425  1.00  0.00     0.027 A 
ATOM      9  C   UNL A   1      43.059  30.135  32.936  1.00  0.00     0.005 A 
ATOM     10  C   UNL A   1      40.863  29.169  33.231  1.00  0.00     0.139 A 
ATOM     11  C   UNL A   1      42.186  29.052  32.810  1.00  0.00     0.040 A 
ATOM     12  F   UNL A   1      40.042  28.124  33.051  1.00  0.00    -0.206 F 
BRANCH   7  13
ATOM     13  N   UNL A   1      40.711  32.712  34.195  1.00  0.00    -0.321 N 
ATOM     14  C   UNL A   1      40.388  33.866  33.522  1.00  0.00     0.258 C 
ATOM     15  O   UNL A   1      39.547  34.595  34.051  1.00  0.00    -0.269 OA
ATOM     16  H   UNL A   1      40.527  32.756  35.161  1.00  0.00     0.170 HD
BRANCH  14  17
ATOM     17  C   UNL A   1      40.918  34.241  32.212  1.00  0.00     0.075 A 
ATOM     18  C   UNL A   1      42.206  35.379  28.277  1.00  0.00     0.044 C 
ATOM     19  C   UNL A   1      41.776  34.959  29.648  1.00  0.00    -0.048 A 
ATOM     20  C   UNL A   1      42.643  35.072  30.742  1.00  0.00     0.004 A 
ATOM     21  C   UNL A   1      40.506  34.407  29.835  1.00  0.00     0.043 A 
ATOM     22  C   UNL A   1      42.227  34.685  32.015  1.00  0.00     0.017 A 
ATOM     23  C   UNL A   1      40.081  34.062  31.110  1.00  0.00     0.136 A 
ATOM     24  F   UNL A   1      38.841  33.573  31.249  1.00  0.00    -0.206 F 
ENDBRANCH  14  17
ENDBRANCH   7  13
ENDBRANCH   4   6
ENDBRANCH   3   4
ENDBRANCH   2   3
ENDBRANCH   1   2
BRANCH   1  25
ATOM     25  O   UNL A   1      35.906  30.726  31.619  1.00  0.00    -0.458 OA
BRANCH  25  26
ATOM     26  C   UNL A   1      35.899  30.844  30.271  1.00  0.00     0.338 C 
ATOM     27  O   UNL A   1      35.185  31.581  29.605  1.00  0.00    -0.246 OA
BRANCH  26  28
ATOM     28  C   UNL A   1      36.976  30.039  29.661  1.00  0.00     0.060 A 
ATOM     29  C   UNL A   1      37.666  29.170  30.482  1.00  0.00     0.016 A 
ATOM     30  C   UNL A   1      37.487  30.333  28.399  1.00  0.00     0.016 A 
ATOM     31  C   UNL A   1      38.978  28.829  30.158  1.00  0.00     0.010 A 
ATOM     32  C   UNL A   1      38.723  29.789  27.993  1.00  0.00     0.010 A 
ATOM     33  C   UNL A   1      39.545  29.102  28.904  1.00  0.00    -0.014 A 
BRANCH  33  34
ATOM     34  C   UNL A   1      40.984  28.727  28.624  1.00  0.00     0.031 A 
ATOM     35  C   UNL A   1      42.124  29.682  28.937  1.00  0.00     0.074 A 
ATOM     36  C   UNL A   1      41.318  27.492  28.173  1.00  0.00     0.049 A 
ATOM     37  N   UNL A   1      43.399  29.580  28.642  1.00  0.00    -0.248 NA
ATOM     38  C   UNL A   1      41.791  30.923  29.654  1.00  0.00     0.031 C 
ATOM     39  C   UNL A   1      40.374  26.417  27.865  1.00  0.00     0.029 A 
ATOM     40  N   UNL A   1      42.546  26.904  27.954  1.00  0.00    -0.354 N 
ATOM     41  C   UNL A   1      43.992  30.772  29.047  1.00  0.00     0.074 A 
ATOM     42  C   UNL A   1      42.939  31.585  29.616  1.00  0.00     0.031 C 
ATOM     43  C   UNL A   1      41.045  25.279  27.654  1.00  0.00     0.029 A 
ATOM     44  C   UNL A   1      42.471  25.565  27.633  1.00  0.00     0.049 A 
ATOM     45  H   UNL A   1      43.397  27.394  28.021  1.00  0.00     0.167 HD
ATOM     46  C   UNL A   1      45.289  31.161  28.953  1.00  0.00     0.037 A 
ATOM     47  C   UNL A   1      43.418  24.660  27.307  1.00  0.00     0.037 A 
ATOM     48  C   UNL A   1      46.359  30.320  28.471  1.00  0.00     0.049 A 
ATOM     49  C   UNL A   1      44.846  25.107  27.193  1.00  0.00     0.074 A 
ATOM     50  C   UNL A   1      47.703  30.631  28.339  1.00  0.00     0.029 A 
ATOM     51  N   UNL A   1      46.218  29.000  28.068  1.00  0.00    -0.354 N 
ATOM     52  N   UNL A   1      45.365  26.279  27.467  1.00  0.00    -0.248 NA
ATOM     53  C   UNL A   1      45.810  24.125  26.678  1.00  0.00     0.031 C 
ATOM     54  C   UNL A   1      48.363  29.517  27.806  1.00  0.00     0.029 A 
ATOM     55  C   UNL A   1      47.445  28.490  27.665  1.00  0.00     0.049 A 
ATOM     56  H   UNL A   1      45.371  28.498  28.067  1.00  0.00     0.167 HD
ATOM     57  C   UNL A   1      46.713  26.182  27.141  1.00  0.00     0.074 A 
ATOM     58  C   UNL A   1      46.937  24.824  26.689  1.00  0.00     0.031 C 
ATOM     59  C   UNL A   1      47.668  27.143  27.197  1.00  0.00     0.037 A 
BRANCH  46  60
ATOM     60  C   UNL A   1      45.622  32.588  29.315  1.00  0.00     0.058 A 
ATOM     61  C   UNL A   1      45.977  32.906  30.638  1.00  0.00     0.135 A 
ATOM     62  C   UNL A   1      45.582  33.640  28.386  1.00  0.00     0.135 A 
ATOM     63  F   UNL A   1      46.028  31.945  31.575  1.00  0.00    -0.206 F 
ATOM     64  C   UNL A   1      46.287  34.206  31.024  1.00  0.00     0.059 A 
ATOM     65  C   UNL A   1      45.922  34.945  28.742  1.00  0.00     0.059 A 
ATOM     66  F   UNL A   1      45.265  33.397  27.105  1.00  0.00    -0.206 F 
ATOM     67  C   UNL A   1      46.268  35.218  30.066  1.00  0.00     0.060 A 
BRANCH  67  68
ATOM     68  S   UNL A   1      46.767  36.882  30.564  1.00  0.00     0.124 S 
ATOM     69  O   UNL A   1      46.265  37.691  29.460  1.00  0.00    -0.237 OA
ATOM     70  O   UNL A   1      46.073  37.042  31.839  1.00  0.00    -0.237 OA
ATOM     71  O   UNL A   1      48.221  36.783  30.662  1.00  0.00    -0.744 OA
ENDBRANCH  67  68
ENDBRANCH  46  60
BRANCH  47  72
ATOM     72  C   UNL A   1      43.021  23.252  27.011  1.00  0.00     0.058 A 
ATOM     73  C   UNL A   1      42.782  22.329  28.043  1.00  0.00     0.135 A 
ATOM     74  C   UNL A   1      42.946  22.781  25.692  1.00  0.00     0.135 A 
ATOM     75  F   UNL A   1      42.826  22.725  29.325  1.00  0.00    -0.206 F 
ATOM     76  C   UNL A   1      42.557  20.981  27.783  1.00  0.00     0.059 A 
ATOM     77  C   UNL A   1      42.682  21.443  25.405  1.00  0.00     0.059 A 
ATOM     78  F   UNL A   1      43.130  23.627  24.665  1.00  0.00    -0.206 F 
ATOM     79  C   UNL A   1      42.522  20.544  26.460  1.00  0.00     0.060 A 
BRANCH  79  80
ATOM     80  S   UNL A   1      42.275  18.783  26.145  1.00  0.00     0.124 S 
ATOM     81  O   UNL A   1      40.870  18.746  25.756  1.00  0.00    -0.237 OA
ATOM     82  O   UNL A   1      43.236  18.525  25.076  1.00  0.00    -0.237 OA
ATOM     83  O   UNL A   1      42.587  18.163  27.428  1.00  0.00    -0.744 OA
ENDBRANCH  79  80
ENDBRANCH  47  72
BRANCH  59  84
ATOM     84  C   UNL A   1      49.058  26.766  26.759  1.00  0.00     0.058 A 
ATOM     85  C   UNL A   1      49.501  27.057  25.458  1.00  0.00     0.135 A 
ATOM     86  C   UNL A   1      49.938  26.077  27.610  1.00  0.00     0.135 A 
ATOM     87  F   UNL A   1      48.702  27.709  24.600  1.00  0.00    -0.206 F 
ATOM     88  C   UNL A   1      50.761  26.670  25.015  1.00  0.00     0.059 A 
ATOM     89  C   UNL A   1      51.215  25.707  27.197  1.00  0.00     0.059 A 
ATOM     90  F   UNL A   1      49.569  25.784  28.867  1.00  0.00    -0.206 F 
ATOM     91  C   UNL A   1      51.614  25.997  25.893  1.00  0.00     0.060 A 
BRANCH  91  92
ATOM     92  S   UNL A   1      53.260  25.539  25.311  1.00  0.00     0.124 S 
ATOM     93  O   UNL A   1      54.116  26.389  26.129  1.00  0.00    -0.237 OA
ATOM     94  O   UNL A   1      53.307  24.111  25.615  1.00  0.00    -0.237 OA
ATOM     95  O   UNL A   1      53.221  25.867  23.888  1.00  0.00    -0.744 OA
ENDBRANCH  91  92
ENDBRANCH  59  84
ENDBRANCH  33  34
ENDBRANCH  26  28
ENDBRANCH  25  26
ENDBRANCH   1  25
TORSDOF 16
ENDMDL
MODEL 3
REMARK VINA RESULT:     -10.4      3.984      9.140
REMARK SMILES Cc1ccc(C(=O)Nc2cccc(F)c2C(=O)OCCOC(=O)c2ccc(-c3c4nc(c(-c5c(F)cc(S(=O)(=O)[O-])cc5F)c5ccc([nH]5)c(-c5c(F)cc(S(=O)(=O)[O-])cc5F)c5nc(c(-c6c(F)cc(S(=O)(=O)[O-])cc6F)c6ccc3[nH]6)C=C5)C=C4)cc2)c(F)c1
REMARK SMILES IDX 20 1 19 2 18 3 16 4 17 5 15 6 9 7 10 8 11 9 13 10 12 11
REMARK SMILES IDX 14 12 8 13 6 14 7 15 5 17 1 18 2 19 3 20 92 21 4 22 90 23
REMARK SMILES IDX 91 24 21 25 22 26 23 27 24 28 25 29 89 30 26 31 88 32 27 33
REMARK SMILES IDX 28 34 29 35 82 36 30 37 87 38 81 39 83 40 31 41 86 42 80 43
REMARK SMILES IDX 79 44 32 46 66 47 45 48 65 49 46 50 49 51 64 52 84 53 47 54
REMARK SMILES IDX 48 55 63 57 85 58 50 59 33 60 34 61 43 62 35 63 36 64 42 65
REMARK SMILES IDX 44 66 37 67 38 68 39 69 40 70 41 71 67 72 68 73 77 74 69 75
REMARK SMILES IDX 70 76 76 77 78 78 71 79 72 80 73 81 74 82 75 83 51 84 52 85
REMARK SMILES IDX 61 86 53 87 54 88 60 89 62 90 55 91 56 92 57 93 58 94 59 95
REMARK H PARENT 8 16 83 45 49 56
REMARK Flexibility Score: inf
ROOT
ATOM      1  C   UNL A   1      31.965  30.484  26.780  1.00  0.00     0.275 C 
ENDROOT
BRANCH   1   2
ATOM      2  C   UNL A   1      31.985  29.629  25.515  1.00  0.00     0.275 C 
BRANCH   2   3
ATOM      3  O   UNL A   1      31.854  28.227  25.833  1.00  0.00    -0.458 OA
BRANCH   3   4
ATOM      4  C   UNL A   1      32.924  27.456  25.522  1.00  0.00     0.343 C 
ATOM      5  O   UNL A   1      33.864  27.222  26.261  1.00  0.00    -0.246 OA
BRANCH   4   6
ATOM      6  C   UNL A   1      32.774  26.817  24.193  1.00  0.00     0.119 A 
ATOM      7  C   UNL A   1      32.079  25.593  24.061  1.00  0.00     0.059 A 
ATOM      8  C   UNL A   1      31.934  24.999  22.805  1.00  0.00     0.027 A 
ATOM      9  C   UNL A   1      32.574  25.562  21.698  1.00  0.00     0.005 A 
ATOM     10  C   UNL A   1      33.438  27.339  23.089  1.00  0.00     0.139 A 
ATOM     11  C   UNL A   1      33.351  26.712  21.848  1.00  0.00     0.040 A 
ATOM     12  F   UNL A   1      34.232  28.414  23.206  1.00  0.00    -0.206 F 
BRANCH   7  13
ATOM     13  N   UNL A   1      31.533  25.024  25.215  1.00  0.00    -0.321 N 
ATOM     14  C   UNL A   1      32.028  24.148  26.151  1.00  0.00     0.258 C 
ATOM     15  O   UNL A   1      31.495  24.168  27.261  1.00  0.00    -0.269 OA
ATOM     16  H   UNL A   1      30.607  25.308  25.393  1.00  0.00     0.170 HD
BRANCH  14  17
ATOM     17  C   UNL A   1      33.170  23.260  25.936  1.00  0.00     0.075 A 
ATOM     18  C   UNL A   1      36.372  20.525  25.100  1.00  0.00     0.044 C 
ATOM     19  C   UNL A   1      35.260  21.473  25.421  1.00  0.00    -0.048 A 
ATOM     20  C   UNL A   1      35.514  22.694  26.056  1.00  0.00     0.004 A 
ATOM     21  C   UNL A   1      33.942  21.118  25.120  1.00  0.00     0.043 A 
ATOM     22  C   UNL A   1      34.469  23.572  26.342  1.00  0.00     0.017 A 
ATOM     23  C   UNL A   1      32.909  22.012  25.369  1.00  0.00     0.136 A 
ATOM     24  F   UNL A   1      31.666  21.647  25.029  1.00  0.00    -0.206 F 
ENDBRANCH  14  17
ENDBRANCH   7  13
ENDBRANCH   4   6
ENDBRANCH   3   4
ENDBRANCH   2   3
ENDBRANCH   1   2
BRANCH   1  25
ATOM     25  O   UNL A   1      33.190  30.312  27.519  1.00  0.00    -0.458 OA
BRANCH  25  26
ATOM     26  C   UNL A   1      33.976  31.408  27.625  1.00  0.00     0.338 C 
ATOM     27  O   UNL A   1      33.609  32.575  27.611  1.00  0.00    -0.246 OA
BRANCH  26  28
ATOM     28  C   UNL A   1      35.378  31.033  27.891  1.00  0.00     0.060 A 
ATOM     29  C   UNL A   1      35.651  29.699  28.118  1.00  0.00     0.016 A 
ATOM     30  C   UNL A   1      36.349  31.986  28.196  1.00  0.00     0.016 A 
ATOM     31  C   UNL A   1      36.755  29.355  28.896  1.00  0.00     0.010 A 
ATOM     32  C   UNL A   1      37.569  31.590  28.780  1.00  0.00     0.010 A 
ATOM     33  C   UNL A   1      37.760  30.273  29.234  1.00  0.00    -0.014 A 
BRANCH  33  34
ATOM     34  C   UNL A   1      38.921  29.842  30.103  1.00  0.00     0.031 A 
ATOM     35  C   UNL A   1      40.015  28.934  29.565  1.00  0.00     0.074 A 
ATOM     36  C   UNL A   1      39.080  30.323  31.361  1.00  0.00     0.049 A 
ATOM     37  N   UNL A   1      41.008  28.360  30.204  1.00  0.00    -0.248 NA
ATOM     38  C   UNL A   1      39.981  28.608  28.132  1.00  0.00     0.031 C 
ATOM     39  C   UNL A   1      38.169  31.247  32.038  1.00  0.00     0.029 A 
ATOM     40  N   UNL A   1      40.097  30.157  32.278  1.00  0.00    -0.354 N 
ATOM     41  C   UNL A   1      41.648  27.540  29.279  1.00  0.00     0.074 A 
ATOM     42  C   UNL A   1      40.935  27.694  28.029  1.00  0.00     0.031 C 
ATOM     43  C   UNL A   1      38.731  31.680  33.172  1.00  0.00     0.029 A 
ATOM     44  C   UNL A   1      39.962  30.940  33.405  1.00  0.00     0.049 A 
ATOM     45  H   UNL A   1      40.849  29.536  32.141  1.00  0.00     0.167 HD
ATOM     46  C   UNL A   1      42.724  26.731  29.449  1.00  0.00     0.037 A 
ATOM     47  C   UNL A   1      40.700  31.038  34.531  1.00  0.00     0.037 A 
ATOM     48  C   UNL A   1      43.494  26.644  30.667  1.00  0.00     0.049 A 
ATOM     49  C   UNL A   1      41.879  30.128  34.711  1.00  0.00     0.074 A 
ATOM     50  C   UNL A   1      44.599  25.850  30.931  1.00  0.00     0.029 A 
ATOM     51  N   UNL A   1      43.261  27.389  31.814  1.00  0.00    -0.354 N 
ATOM     52  N   UNL A   1      42.394  29.271  33.864  1.00  0.00    -0.248 NA
ATOM     53  C   UNL A   1      42.549  30.160  36.019  1.00  0.00     0.031 C 
ATOM     54  C   UNL A   1      45.000  26.076  32.252  1.00  0.00     0.029 A 
ATOM     55  C   UNL A   1      44.186  27.057  32.795  1.00  0.00     0.049 A 
ATOM     56  H   UNL A   1      42.544  28.057  31.918  1.00  0.00     0.167 HD
ATOM     57  C   UNL A   1      43.436  28.648  34.540  1.00  0.00     0.074 A 
ATOM     58  C   UNL A   1      43.505  29.256  35.853  1.00  0.00     0.031 C 
ATOM     59  C   UNL A   1      44.247  27.648  34.110  1.00  0.00     0.037 A 
BRANCH  46  60
ATOM     60  C   UNL A   1      43.100  25.815  28.310  1.00  0.00     0.058 A 
ATOM     61  C   UNL A   1      44.057  26.232  27.367  1.00  0.00     0.135 A 
ATOM     62  C   UNL A   1      42.525  24.547  28.129  1.00  0.00     0.135 A 
ATOM     63  F   UNL A   1      44.640  27.436  27.482  1.00  0.00    -0.206 F 
ATOM     64  C   UNL A   1      44.433  25.427  26.297  1.00  0.00     0.059 A 
ATOM     65  C   UNL A   1      42.912  23.709  27.082  1.00  0.00     0.059 A 
ATOM     66  F   UNL A   1      41.617  24.087  29.004  1.00  0.00    -0.206 F 
ATOM     67  C   UNL A   1      43.863  24.162  26.168  1.00  0.00     0.060 A 
BRANCH  67  68
ATOM     68  S   UNL A   1      44.436  23.094  24.828  1.00  0.00     0.124 S 
ATOM     69  O   UNL A   1      43.194  22.805  24.122  1.00  0.00    -0.237 OA
ATOM     70  O   UNL A   1      45.380  23.959  24.128  1.00  0.00    -0.237 OA
ATOM     71  O   UNL A   1      45.038  21.964  25.531  1.00  0.00    -0.744 OA
ENDBRANCH  67  68
ENDBRANCH  46  60
BRANCH  47  72
ATOM     72  C   UNL A   1      40.297  32.004  35.594  1.00  0.00     0.058 A 
ATOM     73  C   UNL A   1      40.994  33.208  35.789  1.00  0.00     0.135 A 
ATOM     74  C   UNL A   1      39.255  31.709  36.486  1.00  0.00     0.135 A 
ATOM     75  F   UNL A   1      41.993  33.551  34.959  1.00  0.00    -0.206 F 
ATOM     76  C   UNL A   1      40.725  34.045  36.866  1.00  0.00     0.059 A 
ATOM     77  C   UNL A   1      38.939  32.552  37.550  1.00  0.00     0.059 A 
ATOM     78  F   UNL A   1      38.531  30.590  36.326  1.00  0.00    -0.206 F 
ATOM     79  C   UNL A   1      39.703  33.702  37.750  1.00  0.00     0.060 A 
BRANCH  79  80
ATOM     80  S   UNL A   1      39.399  34.779  39.168  1.00  0.00     0.124 S 
ATOM     81  O   UNL A   1      38.303  34.086  39.836  1.00  0.00    -0.237 OA
ATOM     82  O   UNL A   1      40.685  34.746  39.859  1.00  0.00    -0.237 OA
ATOM     83  O   UNL A   1      39.053  36.057  38.555  1.00  0.00    -0.744 OA
ENDBRANCH  79  80
ENDBRANCH  47  72
BRANCH  59  84
ATOM     84  C   UNL A   1      45.291  27.141  35.068  1.00  0.00     0.058 A 
ATOM     85  C   UNL A   1      45.003  26.081  35.943  1.00  0.00     0.135 A 
ATOM     86  C   UNL A   1      46.562  27.732  35.154  1.00  0.00     0.135 A 
ATOM     87  F   UNL A   1      43.804  25.481  35.910  1.00  0.00    -0.206 F 
ATOM     88  C   UNL A   1      45.935  25.632  36.873  1.00  0.00     0.059 A 
ATOM     89  C   UNL A   1      47.520  27.280  36.057  1.00  0.00     0.059 A 
ATOM     90  F   UNL A   1      46.893  28.742  34.333  1.00  0.00    -0.206 F 
ATOM     91  C   UNL A   1      47.192  26.235  36.921  1.00  0.00     0.060 A 
BRANCH  91  92
ATOM     92  S   UNL A   1      48.400  25.612  38.109  1.00  0.00     0.124 S 
ATOM     93  O   UNL A   1      47.636  25.626  39.351  1.00  0.00    -0.237 OA
ATOM     94  O   UNL A   1      48.708  24.290  37.570  1.00  0.00    -0.237 OA
ATOM     95  O   UNL A   1      49.489  26.581  38.028  1.00  0.00    -0.744 OA
ENDBRANCH  91  92
ENDBRANCH  59  84
ENDBRANCH  33  34
ENDBRANCH  26  28
ENDBRANCH  25  26
ENDBRANCH   1  25
TORSDOF 16
ENDMDL
