MODEL 1
REMARK VINA RESULT:     -11.3      0.000      0.000
REMARK SMILES CC(C)c1ccc([C@]2(C(=O)OCCOC(=O)c3ccc(-c4c5nc(c(-c6c(F)cc(S(=O)(=O)[O-])cc6F)c6ccc([nH]6)c(-c6c(F)cc(S(=O)(=O)[O-])cc6F)c6nc(c(-c7c(F)cc(S(=O)(=O)[O-])cc7F)c7ccc4[nH]7)C=C6)C=C5)cc3)CCC[C@@H]2C)cc1
REMARK SMILES IDX 13 1 12 2 11 3 9 4 10 5 8 6 83 7 86 8 84 9 85 10 87 11 7 12
REMARK SMILES IDX 4 13 5 14 89 15 6 16 88 17 2 18 1 19 3 20 14 21 15 22 16 23
REMARK SMILES IDX 17 24 18 25 82 26 19 27 81 28 20 29 21 30 22 31 75 32 23 33
REMARK SMILES IDX 80 34 74 35 76 36 24 37 79 38 73 39 72 40 25 42 59 43 38 44
REMARK SMILES IDX 58 45 39 46 42 47 57 48 77 49 40 50 41 51 56 53 78 54 43 55
REMARK SMILES IDX 26 56 27 57 36 58 28 59 29 60 35 61 37 62 30 63 31 64 32 65
REMARK SMILES IDX 33 66 34 67 60 68 61 69 70 70 62 71 63 72 69 73 71 74 64 75
REMARK SMILES IDX 65 76 66 77 67 78 68 79 44 80 45 81 54 82 46 83 47 84 53 85
REMARK SMILES IDX 55 86 48 87 49 88 50 89 51 90 52 91
REMARK H PARENT 76 41 42 52
REMARK Flexibility Score: inf
ROOT
ATOM      1  C   UNL A   1      37.271  21.696  24.467  1.00  0.00     0.275 C 
ENDROOT
BRANCH   1   2
ATOM      2  C   UNL A   1      36.669  22.637  23.431  1.00  0.00     0.274 C 
BRANCH   2   3
ATOM      3  O   UNL A   1      35.894  23.660  24.088  1.00  0.00    -0.461 OA
BRANCH   3   4
ATOM      4  C   UNL A   1      34.655  23.924  23.583  1.00  0.00     0.316 C 
ATOM      5  O   UNL A   1      34.467  24.455  22.494  1.00  0.00    -0.251 OA
BRANCH   4   6
ATOM      6  C   UNL A   1      33.512  23.575  24.586  1.00  0.00     0.095 C 
ATOM      7  C   UNL A   1      33.816  24.067  26.026  1.00  0.00     0.024 C 
ATOM      8  C   UNL A   1      32.296  24.488  24.213  1.00  0.00     0.008 C 
ATOM      9  C   UNL A   1      33.462  25.557  26.067  1.00  0.00     0.002 C 
ATOM     10  C   UNL A   1      32.705  25.858  24.778  1.00  0.00     0.005 C 
ATOM     11  C   UNL A   1      30.946  24.073  24.816  1.00  0.00     0.009 C 
BRANCH   6  12
ATOM     12  C   UNL A   1      33.218  22.069  24.500  1.00  0.00    -0.030 A 
ATOM     13  C   UNL A   1      32.743  19.237  24.370  1.00  0.00    -0.045 A 
ATOM     14  C   UNL A   1      33.299  19.835  25.508  1.00  0.00     0.004 A 
ATOM     15  C   UNL A   1      32.411  20.091  23.306  1.00  0.00     0.004 A 
ATOM     16  C   UNL A   1      33.517  21.218  25.577  1.00  0.00     0.005 A 
ATOM     17  C   UNL A   1      32.625  21.478  23.376  1.00  0.00     0.005 A 
BRANCH  13  18
ATOM     18  C   UNL A   1      32.563  17.720  24.253  1.00  0.00     0.013 C 
ATOM     19  C   UNL A   1      33.610  17.019  23.371  1.00  0.00     0.012 C 
ATOM     20  C   UNL A   1      32.540  16.999  25.607  1.00  0.00     0.012 C 
ENDBRANCH  13  18
ENDBRANCH   6  12
ENDBRANCH   4   6
ENDBRANCH   3   4
ENDBRANCH   2   3
ENDBRANCH   1   2
BRANCH   1  21
ATOM     21  O   UNL A   1      37.634  22.455  25.631  1.00  0.00    -0.458 OA
BRANCH  21  22
ATOM     22  C   UNL A   1      38.857  22.199  26.144  1.00  0.00     0.338 C 
ATOM     23  O   UNL A   1      39.511  21.174  26.040  1.00  0.00    -0.246 OA
BRANCH  22  24
ATOM     24  C   UNL A   1      39.324  23.387  26.872  1.00  0.00     0.060 A 
ATOM     25  C   UNL A   1      38.751  24.624  26.591  1.00  0.00     0.016 A 
ATOM     26  C   UNL A   1      40.405  23.290  27.749  1.00  0.00     0.016 A 
ATOM     27  C   UNL A   1      39.319  25.780  27.122  1.00  0.00     0.010 A 
ATOM     28  C   UNL A   1      40.919  24.450  28.344  1.00  0.00     0.010 A 
ATOM     29  C   UNL A   1      40.411  25.714  28.002  1.00  0.00    -0.014 A 
BRANCH  29  30
ATOM     30  C   UNL A   1      41.065  26.972  28.468  1.00  0.00     0.031 A 
ATOM     31  C   UNL A   1      42.531  27.211  28.191  1.00  0.00     0.074 A 
ATOM     32  C   UNL A   1      40.334  27.967  29.012  1.00  0.00     0.049 A 
ATOM     33  N   UNL A   1      43.292  28.208  28.569  1.00  0.00    -0.248 NA
ATOM     34  C   UNL A   1      43.231  26.208  27.371  1.00  0.00     0.031 C 
ATOM     35  C   UNL A   1      38.891  27.923  29.254  1.00  0.00     0.029 A 
ATOM     36  N   UNL A   1      40.694  29.233  29.407  1.00  0.00    -0.354 N 
ATOM     37  C   UNL A   1      44.565  27.923  28.085  1.00  0.00     0.074 A 
ATOM     38  C   UNL A   1      44.474  26.667  27.374  1.00  0.00     0.031 C 
ATOM     39  C   UNL A   1      38.477  29.129  29.671  1.00  0.00     0.029 A 
ATOM     40  C   UNL A   1      39.634  30.008  29.814  1.00  0.00     0.049 A 
ATOM     41  H   UNL A   1      41.625  29.555  29.400  1.00  0.00     0.167 HD
ATOM     42  C   UNL A   1      45.706  28.640  28.224  1.00  0.00     0.037 A 
ATOM     43  C   UNL A   1      39.592  31.276  30.272  1.00  0.00     0.037 A 
ATOM     44  C   UNL A   1      45.791  29.921  28.873  1.00  0.00     0.049 A 
ATOM     45  C   UNL A   1      40.874  32.041  30.443  1.00  0.00     0.074 A 
ATOM     46  C   UNL A   1      46.914  30.694  29.114  1.00  0.00     0.029 A 
ATOM     47  N   UNL A   1      44.706  30.635  29.356  1.00  0.00    -0.354 N 
ATOM     48  N   UNL A   1      42.093  31.692  30.112  1.00  0.00    -0.248 NA
ATOM     49  C   UNL A   1      40.778  33.358  31.088  1.00  0.00     0.031 C 
ATOM     50  C   UNL A   1      46.509  31.870  29.758  1.00  0.00     0.029 A 
ATOM     51  C   UNL A   1      45.132  31.838  29.894  1.00  0.00     0.049 A 
ATOM     52  H   UNL A   1      43.769  30.331  29.321  1.00  0.00     0.167 HD
ATOM     53  C   UNL A   1      42.912  32.733  30.531  1.00  0.00     0.074 A 
ATOM     54  C   UNL A   1      42.046  33.746  31.100  1.00  0.00     0.031 C 
ATOM     55  C   UNL A   1      44.262  32.830  30.473  1.00  0.00     0.037 A 
BRANCH  42  56
ATOM     56  C   UNL A   1      46.974  28.027  27.703  1.00  0.00     0.058 A 
ATOM     57  C   UNL A   1      47.449  28.283  26.408  1.00  0.00     0.135 A 
ATOM     58  C   UNL A   1      47.742  27.194  28.533  1.00  0.00     0.135 A 
ATOM     59  F   UNL A   1      46.740  29.056  25.570  1.00  0.00    -0.206 F 
ATOM     60  C   UNL A   1      48.634  27.719  25.946  1.00  0.00     0.059 A 
ATOM     61  C   UNL A   1      48.938  26.633  28.099  1.00  0.00     0.059 A 
ATOM     62  F   UNL A   1      47.329  26.917  29.780  1.00  0.00    -0.206 F 
ATOM     63  C   UNL A   1      49.369  26.891  26.799  1.00  0.00     0.060 A 
BRANCH  63  64
ATOM     64  S   UNL A   1      50.907  26.164  26.192  1.00  0.00     0.124 S 
ATOM     65  O   UNL A   1      50.710  26.230  24.747  1.00  0.00    -0.237 OA
ATOM     66  O   UNL A   1      51.919  27.064  26.735  1.00  0.00    -0.237 OA
ATOM     67  O   UNL A   1      50.897  24.822  26.767  1.00  0.00    -0.744 OA
ENDBRANCH  63  64
ENDBRANCH  42  56
BRANCH  43  68
ATOM     68  C   UNL A   1      38.289  31.887  30.643  1.00  0.00     0.058 A 
ATOM     69  C   UNL A   1      37.718  31.656  31.902  1.00  0.00     0.135 A 
ATOM     70  C   UNL A   1      37.600  32.727  29.756  1.00  0.00     0.135 A 
ATOM     71  F   UNL A   1      38.332  30.847  32.780  1.00  0.00    -0.206 F 
ATOM     72  C   UNL A   1      36.511  32.241  32.273  1.00  0.00     0.059 A 
ATOM     73  C   UNL A   1      36.405  33.343  30.111  1.00  0.00     0.059 A 
ATOM     74  F   UNL A   1      38.107  32.982  28.539  1.00  0.00    -0.206 F 
ATOM     75  C   UNL A   1      35.864  33.088  31.371  1.00  0.00     0.060 A 
BRANCH  75  76
ATOM     76  S   UNL A   1      34.339  33.915  31.872  1.00  0.00     0.124 S 
ATOM     77  O   UNL A   1      33.698  34.152  30.584  1.00  0.00    -0.237 OA
ATOM     78  O   UNL A   1      33.702  32.918  32.727  1.00  0.00    -0.237 OA
ATOM     79  O   UNL A   1      34.825  35.103  32.567  1.00  0.00    -0.744 OA
ENDBRANCH  75  76
ENDBRANCH  43  68
BRANCH  55  80
ATOM     80  C   UNL A   1      44.889  34.059  31.062  1.00  0.00     0.058 A 
ATOM     81  C   UNL A   1      45.077  35.216  30.288  1.00  0.00     0.135 A 
ATOM     82  C   UNL A   1      45.267  34.103  32.413  1.00  0.00     0.135 A 
ATOM     83  F   UNL A   1      44.737  35.221  28.989  1.00  0.00    -0.206 F 
ATOM     84  C   UNL A   1      45.636  36.369  30.829  1.00  0.00     0.059 A 
ATOM     85  C   UNL A   1      45.811  35.252  32.979  1.00  0.00     0.059 A 
ATOM     86  F   UNL A   1      45.099  33.025  33.195  1.00  0.00    -0.206 F 
ATOM     87  C   UNL A   1      46.002  36.376  32.176  1.00  0.00     0.060 A 
BRANCH  87  88
ATOM     88  S   UNL A   1      46.699  37.886  32.877  1.00  0.00     0.124 S 
ATOM     89  O   UNL A   1      47.254  37.397  34.135  1.00  0.00    -0.237 OA
ATOM     90  O   UNL A   1      47.675  38.285  31.867  1.00  0.00    -0.237 OA
ATOM     91  O   UNL A   1      45.541  38.768  33.000  1.00  0.00    -0.744 OA
ENDBRANCH  87  88
ENDBRANCH  55  80
ENDBRANCH  29  30
ENDBRANCH  22  24
ENDBRANCH  21  22
ENDBRANCH   1  21
TORSDOF 16
ENDMDL
MODEL 2
REMARK VINA RESULT:     -11.3      0.942      8.426
REMARK SMILES CC(C)c1ccc([C@]2(C(=O)OCCOC(=O)c3ccc(-c4c5nc(c(-c6c(F)cc(S(=O)(=O)[O-])cc6F)c6ccc([nH]6)c(-c6c(F)cc(S(=O)(=O)[O-])cc6F)c6nc(c(-c7c(F)cc(S(=O)(=O)[O-])cc7F)c7ccc4[nH]7)C=C6)C=C5)cc3)CCC[C@@H]2C)cc1
REMARK SMILES IDX 13 1 12 2 11 3 9 4 10 5 8 6 83 7 86 8 84 9 85 10 87 11 7 12
REMARK SMILES IDX 4 13 5 14 89 15 6 16 88 17 2 18 1 19 3 20 14 21 15 22 16 23
REMARK SMILES IDX 17 24 18 25 82 26 19 27 81 28 20 29 21 30 22 31 75 32 23 33
REMARK SMILES IDX 80 34 74 35 76 36 24 37 79 38 73 39 72 40 25 42 59 43 38 44
REMARK SMILES IDX 58 45 39 46 42 47 57 48 77 49 40 50 41 51 56 53 78 54 43 55
REMARK SMILES IDX 26 56 27 57 36 58 28 59 29 60 35 61 37 62 30 63 31 64 32 65
REMARK SMILES IDX 33 66 34 67 60 68 61 69 70 70 62 71 63 72 69 73 71 74 64 75
REMARK SMILES IDX 65 76 66 77 67 78 68 79 44 80 45 81 54 82 46 83 47 84 53 85
REMARK SMILES IDX 55 86 48 87 49 88 50 89 51 90 52 91
REMARK H PARENT 76 41 42 52
REMARK Flexibility Score: inf
ROOT
ATOM      1  C   UNL A   1      37.199  21.662  24.684  1.00  0.00     0.275 C 
ENDROOT
BRANCH   1   2
ATOM      2  C   UNL A   1      36.758  22.621  23.586  1.00  0.00     0.274 C 
BRANCH   2   3
ATOM      3  O   UNL A   1      35.890  23.632  24.137  1.00  0.00    -0.461 OA
BRANCH   3   4
ATOM      4  C   UNL A   1      34.634  23.727  23.615  1.00  0.00     0.316 C 
ATOM      5  O   UNL A   1      34.402  24.120  22.476  1.00  0.00    -0.251 OA
BRANCH   4   6
ATOM      6  C   UNL A   1      33.524  23.383  24.656  1.00  0.00     0.095 C 
ATOM      7  C   UNL A   1      33.870  23.892  26.080  1.00  0.00     0.024 C 
ATOM      8  C   UNL A   1      32.292  24.285  24.311  1.00  0.00     0.008 C 
ATOM      9  C   UNL A   1      33.509  25.381  26.117  1.00  0.00     0.002 C 
ATOM     10  C   UNL A   1      32.711  25.663  24.848  1.00  0.00     0.005 C 
ATOM     11  C   UNL A   1      30.963  23.869  24.960  1.00  0.00     0.009 C 
BRANCH   6  12
ATOM     12  C   UNL A   1      33.236  21.874  24.595  1.00  0.00    -0.030 A 
ATOM     13  C   UNL A   1      32.769  19.039  24.518  1.00  0.00    -0.045 A 
ATOM     14  C   UNL A   1      33.233  19.674  25.677  1.00  0.00     0.004 A 
ATOM     15  C   UNL A   1      32.526  19.858  23.404  1.00  0.00     0.004 A 
ATOM     16  C   UNL A   1      33.447  21.059  25.719  1.00  0.00     0.005 A 
ATOM     17  C   UNL A   1      32.735  21.246  23.446  1.00  0.00     0.005 A 
BRANCH  13  18
ATOM     18  C   UNL A   1      32.598  17.518  24.437  1.00  0.00     0.013 C 
ATOM     19  C   UNL A   1      33.465  16.835  23.365  1.00  0.00     0.012 C 
ATOM     20  C   UNL A   1      32.853  16.800  25.767  1.00  0.00     0.012 C 
ENDBRANCH  13  18
ENDBRANCH   6  12
ENDBRANCH   4   6
ENDBRANCH   3   4
ENDBRANCH   2   3
ENDBRANCH   1   2
BRANCH   1  21
ATOM     21  O   UNL A   1      37.628  22.423  25.824  1.00  0.00    -0.458 OA
BRANCH  21  22
ATOM     22  C   UNL A   1      38.879  22.167  26.267  1.00  0.00     0.338 C 
ATOM     23  O   UNL A   1      39.488  21.111  26.215  1.00  0.00    -0.246 OA
BRANCH  22  24
ATOM     24  C   UNL A   1      39.440  23.399  26.840  1.00  0.00     0.060 A 
ATOM     25  C   UNL A   1      38.987  24.631  26.376  1.00  0.00     0.016 A 
ATOM     26  C   UNL A   1      40.493  23.330  27.752  1.00  0.00     0.016 A 
ATOM     27  C   UNL A   1      39.649  25.795  26.760  1.00  0.00     0.010 A 
ATOM     28  C   UNL A   1      41.101  24.511  28.198  1.00  0.00     0.010 A 
ATOM     29  C   UNL A   1      40.715  25.756  27.672  1.00  0.00    -0.014 A 
BRANCH  29  30
ATOM     30  C   UNL A   1      41.474  27.003  27.980  1.00  0.00     0.031 A 
ATOM     31  C   UNL A   1      40.816  28.118  28.760  1.00  0.00     0.074 A 
ATOM     32  C   UNL A   1      42.789  27.097  27.694  1.00  0.00     0.049 A 
ATOM     33  N   UNL A   1      41.287  29.300  29.069  1.00  0.00    -0.248 NA
ATOM     34  C   UNL A   1      39.458  27.867  29.271  1.00  0.00     0.031 C 
ATOM     35  C   UNL A   1      43.587  26.064  27.031  1.00  0.00     0.029 A 
ATOM     36  N   UNL A   1      43.702  28.085  27.976  1.00  0.00    -0.354 N 
ATOM     37  C   UNL A   1      40.267  29.951  29.755  1.00  0.00     0.074 A 
ATOM     38  C   UNL A   1      39.155  29.030  29.831  1.00  0.00     0.031 C 
ATOM     39  C   UNL A   1      44.877  26.433  27.036  1.00  0.00     0.029 A 
ATOM     40  C   UNL A   1      44.991  27.766  27.620  1.00  0.00     0.049 A 
ATOM     41  H   UNL A   1      43.455  28.942  28.395  1.00  0.00     0.167 HD
ATOM     42  C   UNL A   1      40.256  31.203  30.272  1.00  0.00     0.037 A 
ATOM     43  C   UNL A   1      46.136  28.470  27.727  1.00  0.00     0.037 A 
ATOM     44  C   UNL A   1      41.380  32.102  30.259  1.00  0.00     0.049 A 
ATOM     45  C   UNL A   1      46.094  29.868  28.278  1.00  0.00     0.074 A 
ATOM     46  C   UNL A   1      41.444  33.411  30.705  1.00  0.00     0.029 A 
ATOM     47  N   UNL A   1      42.647  31.774  29.803  1.00  0.00    -0.354 N 
ATOM     48  N   UNL A   1      45.080  30.522  28.791  1.00  0.00    -0.248 NA
ATOM     49  C   UNL A   1      47.345  30.638  28.227  1.00  0.00     0.031 C 
ATOM     50  C   UNL A   1      42.748  33.881  30.504  1.00  0.00     0.029 A 
ATOM     51  C   UNL A   1      43.500  32.855  29.957  1.00  0.00     0.049 A 
ATOM     52  H   UNL A   1      42.904  30.901  29.427  1.00  0.00     0.167 HD
ATOM     53  C   UNL A   1      45.564  31.787  29.100  1.00  0.00     0.074 A 
ATOM     54  C   UNL A   1      46.971  31.795  28.758  1.00  0.00     0.031 C 
ATOM     55  C   UNL A   1      44.895  32.855  29.598  1.00  0.00     0.037 A 
BRANCH  42  56
ATOM     56  C   UNL A   1      38.964  31.699  30.856  1.00  0.00     0.058 A 
ATOM     57  C   UNL A   1      38.686  31.616  32.229  1.00  0.00     0.135 A 
ATOM     58  C   UNL A   1      38.003  32.295  30.025  1.00  0.00     0.135 A 
ATOM     59  F   UNL A   1      39.565  31.035  33.061  1.00  0.00    -0.206 F 
ATOM     60  C   UNL A   1      37.490  32.093  32.756  1.00  0.00     0.059 A 
ATOM     61  C   UNL A   1      36.808  32.794  30.532  1.00  0.00     0.059 A 
ATOM     62  F   UNL A   1      38.220  32.396  28.704  1.00  0.00    -0.206 F 
ATOM     63  C   UNL A   1      36.555  32.677  31.897  1.00  0.00     0.060 A 
BRANCH  63  64
ATOM     64  S   UNL A   1      35.005  33.295  32.589  1.00  0.00     0.124 S 
ATOM     65  O   UNL A   1      34.028  32.438  31.924  1.00  0.00    -0.237 OA
ATOM     66  O   UNL A   1      35.182  33.062  34.019  1.00  0.00    -0.237 OA
ATOM     67  O   UNL A   1      34.989  34.697  32.185  1.00  0.00    -0.744 OA
ENDBRANCH  63  64
ENDBRANCH  42  56
BRANCH  43  68
ATOM     68  C   UNL A   1      47.417  27.878  27.261  1.00  0.00     0.058 A 
ATOM     69  C   UNL A   1      47.807  27.973  25.918  1.00  0.00     0.135 A 
ATOM     70  C   UNL A   1      48.283  27.224  28.150  1.00  0.00     0.135 A 
ATOM     71  F   UNL A   1      47.005  28.576  25.026  1.00  0.00    -0.206 F 
ATOM     72  C   UNL A   1      49.015  27.444  25.471  1.00  0.00     0.059 A 
ATOM     73  C   UNL A   1      49.505  26.709  27.734  1.00  0.00     0.059 A 
ATOM     74  F   UNL A   1      47.955  27.110  29.447  1.00  0.00    -0.206 F 
ATOM     75  C   UNL A   1      49.860  26.818  26.390  1.00  0.00     0.060 A 
BRANCH  75  76
ATOM     76  S   UNL A   1      51.465  26.200  25.837  1.00  0.00     0.124 S 
ATOM     77  O   UNL A   1      52.378  27.116  26.509  1.00  0.00    -0.237 OA
ATOM     78  O   UNL A   1      51.463  24.826  26.330  1.00  0.00    -0.237 OA
ATOM     79  O   UNL A   1      51.383  26.334  24.385  1.00  0.00    -0.744 OA
ENDBRANCH  75  76
ENDBRANCH  43  68
BRANCH  55  80
ATOM     80  C   UNL A   1      45.669  34.128  29.780  1.00  0.00     0.058 A 
ATOM     81  C   UNL A   1      45.730  35.088  28.757  1.00  0.00     0.135 A 
ATOM     82  C   UNL A   1      46.318  34.413  30.991  1.00  0.00     0.135 A 
ATOM     83  F   UNL A   1      45.129  34.857  27.578  1.00  0.00    -0.206 F 
ATOM     84  C   UNL A   1      46.424  36.281  28.921  1.00  0.00     0.059 A 
ATOM     85  C   UNL A   1      47.004  35.609  31.183  1.00  0.00     0.059 A 
ATOM     86  F   UNL A   1      46.281  33.531  32.001  1.00  0.00    -0.206 F 
ATOM     87  C   UNL A   1      47.061  36.532  30.138  1.00  0.00     0.060 A 
BRANCH  87  88
ATOM     88  S   UNL A   1      47.936  38.096  30.353  1.00  0.00     0.124 S 
ATOM     89  O   UNL A   1      49.152  37.860  29.582  1.00  0.00    -0.237 OA
ATOM     90  O   UNL A   1      47.002  39.064  29.784  1.00  0.00    -0.237 OA
ATOM     91  O   UNL A   1      48.116  38.187  31.799  1.00  0.00    -0.744 OA
ENDBRANCH  87  88
ENDBRANCH  55  80
ENDBRANCH  29  30
ENDBRANCH  22  24
ENDBRANCH  21  22
ENDBRANCH   1  21
TORSDOF 16
ENDMDL
MODEL 3
REMARK VINA RESULT:     -11.3      4.440      9.930
REMARK SMILES CC(C)c1ccc([C@]2(C(=O)OCCOC(=O)c3ccc(-c4c5nc(c(-c6c(F)cc(S(=O)(=O)[O-])cc6F)c6ccc([nH]6)c(-c6c(F)cc(S(=O)(=O)[O-])cc6F)c6nc(c(-c7c(F)cc(S(=O)(=O)[O-])cc7F)c7ccc4[nH]7)C=C6)C=C5)cc3)CCC[C@@H]2C)cc1
REMARK SMILES IDX 13 1 12 2 11 3 9 4 10 5 8 6 83 7 86 8 84 9 85 10 87 11 7 12
REMARK SMILES IDX 4 13 5 14 89 15 6 16 88 17 2 18 1 19 3 20 14 21 15 22 16 23
REMARK SMILES IDX 17 24 18 25 82 26 19 27 81 28 20 29 21 30 22 31 75 32 23 33
REMARK SMILES IDX 80 34 74 35 76 36 24 37 79 38 73 39 72 40 25 42 59 43 38 44
REMARK SMILES IDX 58 45 39 46 42 47 57 48 77 49 40 50 41 51 56 53 78 54 43 55
REMARK SMILES IDX 26 56 27 57 36 58 28 59 29 60 35 61 37 62 30 63 31 64 32 65
REMARK SMILES IDX 33 66 34 67 60 68 61 69 70 70 62 71 63 72 69 73 71 74 64 75
REMARK SMILES IDX 65 76 66 77 67 78 68 79 44 80 45 81 54 82 46 83 47 84 53 85
REMARK SMILES IDX 55 86 48 87 49 88 50 89 51 90 52 91
REMARK H PARENT 76 41 42 52
REMARK Flexibility Score: inf
ROOT
ATOM      1  C   UNL A   1      32.104  29.727  27.054  1.00  0.00     0.275 C 
ENDROOT
BRANCH   1   2
ATOM      2  C   UNL A   1      31.747  28.344  27.581  1.00  0.00     0.274 C 
BRANCH   2   3
ATOM      3  O   UNL A   1      32.536  27.343  26.909  1.00  0.00    -0.461 OA
BRANCH   3   4
ATOM      4  C   UNL A   1      31.864  26.325  26.299  1.00  0.00     0.316 C 
ATOM      5  O   UNL A   1      31.246  25.460  26.910  1.00  0.00    -0.251 OA
BRANCH   4   6
ATOM      6  C   UNL A   1      32.058  26.323  24.751  1.00  0.00     0.095 C 
ATOM      7  C   UNL A   1      33.507  26.688  24.334  1.00  0.00     0.024 C 
ATOM      8  C   UNL A   1      31.988  24.826  24.294  1.00  0.00     0.008 C 
ATOM      9  C   UNL A   1      34.345  25.415  24.488  1.00  0.00     0.002 C 
ATOM     10  C   UNL A   1      33.359  24.273  24.711  1.00  0.00     0.005 C 
ATOM     11  C   UNL A   1      31.786  24.602  22.788  1.00  0.00     0.009 C 
BRANCH   6  12
ATOM     12  C   UNL A   1      30.988  27.226  24.115  1.00  0.00    -0.030 A 
ATOM     13  C   UNL A   1      29.021  28.978  22.966  1.00  0.00    -0.045 A 
ATOM     14  C   UNL A   1      30.377  29.324  23.004  1.00  0.00     0.004 A 
ATOM     15  C   UNL A   1      28.674  27.726  23.498  1.00  0.00     0.004 A 
ATOM     16  C   UNL A   1      31.339  28.463  23.552  1.00  0.00     0.005 A 
ATOM     17  C   UNL A   1      29.637  26.861  24.043  1.00  0.00     0.005 A 
BRANCH  13  18
ATOM     18  C   UNL A   1      27.951  29.938  22.435  1.00  0.00     0.013 C 
ATOM     19  C   UNL A   1      27.503  31.012  23.440  1.00  0.00     0.012 C 
ATOM     20  C   UNL A   1      28.356  30.653  21.140  1.00  0.00     0.012 C 
ENDBRANCH  13  18
ENDBRANCH   6  12
ENDBRANCH   4   6
ENDBRANCH   3   4
ENDBRANCH   2   3
ENDBRANCH   1   2
BRANCH   1  21
ATOM     21  O   UNL A   1      33.531  29.824  26.928  1.00  0.00    -0.458 OA
BRANCH  21  22
ATOM     22  C   UNL A   1      34.098  30.921  27.476  1.00  0.00     0.338 C 
ATOM     23  O   UNL A   1      33.580  32.007  27.681  1.00  0.00    -0.246 OA
BRANCH  22  24
ATOM     24  C   UNL A   1      35.493  30.611  27.821  1.00  0.00     0.060 A 
ATOM     25  C   UNL A   1      35.874  29.281  27.976  1.00  0.00     0.016 A 
ATOM     26  C   UNL A   1      36.390  31.642  28.101  1.00  0.00     0.016 A 
ATOM     27  C   UNL A   1      37.131  28.984  28.497  1.00  0.00     0.010 A 
ATOM     28  C   UNL A   1      37.682  31.333  28.546  1.00  0.00     0.010 A 
ATOM     29  C   UNL A   1      38.053  30.001  28.793  1.00  0.00    -0.014 A 
BRANCH  29  30
ATOM     30  C   UNL A   1      39.348  29.659  29.452  1.00  0.00     0.031 A 
ATOM     31  C   UNL A   1      39.706  30.273  30.786  1.00  0.00     0.074 A 
ATOM     32  C   UNL A   1      40.147  28.699  28.942  1.00  0.00     0.049 A 
ATOM     33  N   UNL A   1      40.808  30.151  31.483  1.00  0.00    -0.248 NA
ATOM     34  C   UNL A   1      38.688  31.123  31.426  1.00  0.00     0.031 C 
ATOM     35  C   UNL A   1      39.888  27.946  27.713  1.00  0.00     0.029 A 
ATOM     36  N   UNL A   1      41.310  28.149  29.424  1.00  0.00    -0.354 N 
ATOM     37  C   UNL A   1      40.639  30.951  32.608  1.00  0.00     0.074 A 
ATOM     38  C   UNL A   1      39.324  31.545  32.511  1.00  0.00     0.031 C 
ATOM     39  C   UNL A   1      40.811  26.981  27.585  1.00  0.00     0.029 A 
ATOM     40  C   UNL A   1      41.780  27.099  28.671  1.00  0.00     0.049 A 
ATOM     41  H   UNL A   1      41.766  28.477  30.234  1.00  0.00     0.167 HD
ATOM     42  C   UNL A   1      41.502  31.175  33.628  1.00  0.00     0.037 A 
ATOM     43  C   UNL A   1      42.876  26.328  28.818  1.00  0.00     0.037 A 
ATOM     44  C   UNL A   1      42.785  30.538  33.766  1.00  0.00     0.049 A 
ATOM     45  C   UNL A   1      43.833  26.613  29.941  1.00  0.00     0.074 A 
ATOM     46  C   UNL A   1      43.753  30.746  34.734  1.00  0.00     0.029 A 
ATOM     47  N   UNL A   1      43.268  29.544  32.929  1.00  0.00    -0.354 N 
ATOM     48  N   UNL A   1      43.723  27.480  30.917  1.00  0.00    -0.248 NA
ATOM     49  C   UNL A   1      45.083  25.840  29.958  1.00  0.00     0.031 C 
ATOM     50  C   UNL A   1      44.829  29.888  34.472  1.00  0.00     0.029 A 
ATOM     51  C   UNL A   1      44.518  29.129  33.357  1.00  0.00     0.049 A 
ATOM     52  H   UNL A   1      42.790  29.185  32.146  1.00  0.00     0.167 HD
ATOM     53  C   UNL A   1      44.900  27.376  31.649  1.00  0.00     0.074 A 
ATOM     54  C   UNL A   1      45.689  26.331  31.031  1.00  0.00     0.031 C 
ATOM     55  C   UNL A   1      45.300  28.100  32.723  1.00  0.00     0.037 A 
BRANCH  42  56
ATOM     56  C   UNL A   1      41.106  32.193  34.658  1.00  0.00     0.058 A 
ATOM     57  C   UNL A   1      41.379  33.560  34.498  1.00  0.00     0.135 A 
ATOM     58  C   UNL A   1      40.414  31.791  35.811  1.00  0.00     0.135 A 
ATOM     59  F   UNL A   1      42.057  33.992  33.423  1.00  0.00    -0.206 F 
ATOM     60  C   UNL A   1      40.993  34.492  35.456  1.00  0.00     0.059 A 
ATOM     61  C   UNL A   1      40.003  32.707  36.773  1.00  0.00     0.059 A 
ATOM     62  F   UNL A   1      40.132  30.494  36.012  1.00  0.00    -0.206 F 
ATOM     63  C   UNL A   1      40.308  34.055  36.592  1.00  0.00     0.060 A 
BRANCH  63  64
ATOM     64  S   UNL A   1      39.809  35.272  37.830  1.00  0.00     0.124 S 
ATOM     65  O   UNL A   1      40.939  35.228  38.753  1.00  0.00    -0.237 OA
ATOM     66  O   UNL A   1      39.683  36.493  37.041  1.00  0.00    -0.237 OA
ATOM     67  O   UNL A   1      38.554  34.734  38.348  1.00  0.00    -0.744 OA
ENDBRANCH  63  64
ENDBRANCH  42  56
BRANCH  43  68
ATOM     68  C   UNL A   1      43.151  25.237  27.847  1.00  0.00     0.058 A 
ATOM     69  C   UNL A   1      43.904  25.476  26.688  1.00  0.00     0.135 A 
ATOM     70  C   UNL A   1      42.683  23.932  28.066  1.00  0.00     0.135 A 
ATOM     71  F   UNL A   1      44.359  26.711  26.427  1.00  0.00    -0.206 F 
ATOM     72  C   UNL A   1      44.189  24.459  25.782  1.00  0.00     0.059 A 
ATOM     73  C   UNL A   1      42.976  22.894  27.189  1.00  0.00     0.059 A 
ATOM     74  F   UNL A   1      41.961  23.652  29.163  1.00  0.00    -0.206 F 
ATOM     75  C   UNL A   1      43.724  23.168  26.045  1.00  0.00     0.060 A 
BRANCH  75  76
ATOM     76  S   UNL A   1      44.157  21.825  24.918  1.00  0.00     0.124 S 
ATOM     77  O   UNL A   1      44.043  22.483  23.622  1.00  0.00    -0.237 OA
ATOM     78  O   UNL A   1      45.511  21.480  25.340  1.00  0.00    -0.237 OA
ATOM     79  O   UNL A   1      43.144  20.815  25.209  1.00  0.00    -0.744 OA
ENDBRANCH  75  76
ENDBRANCH  43  68
BRANCH  55  80
ATOM     80  C   UNL A   1      46.662  27.806  33.281  1.00  0.00     0.058 A 
ATOM     81  C   UNL A   1      46.842  26.820  34.264  1.00  0.00     0.135 A 
ATOM     82  C   UNL A   1      47.799  28.477  32.806  1.00  0.00     0.135 A 
ATOM     83  F   UNL A   1      45.784  26.153  34.754  1.00  0.00    -0.206 F 
ATOM     84  C   UNL A   1      48.102  26.522  34.772  1.00  0.00     0.059 A 
ATOM     85  C   UNL A   1      49.071  28.183  33.287  1.00  0.00     0.059 A 
ATOM     86  F   UNL A   1      47.679  29.422  31.860  1.00  0.00    -0.206 F 
ATOM     87  C   UNL A   1      49.211  27.211  34.278  1.00  0.00     0.060 A 
BRANCH  87  88
ATOM     88  S   UNL A   1      50.846  26.797  34.922  1.00  0.00     0.124 S 
ATOM     89  O   UNL A   1      50.505  26.017  36.107  1.00  0.00    -0.237 OA
ATOM     90  O   UNL A   1      51.442  26.049  33.821  1.00  0.00    -0.237 OA
ATOM     91  O   UNL A   1      51.447  28.103  35.181  1.00  0.00    -0.744 OA
ENDBRANCH  87  88
ENDBRANCH  55  80
ENDBRANCH  29  30
ENDBRANCH  22  24
ENDBRANCH  21  22
ENDBRANCH   1  21
TORSDOF 16
ENDMDL
