MODEL 1
REMARK VINA RESULT:     -10.1      0.000      0.000
REMARK SMILES O=CN[C@@H](CCS[C@@H]1CCO[C@]2(CCOC2)C1)C(=O)OCCOC(=O)c1ccc(-c2c3nc(c(-c4c(F)cc(S(=O)(=O)[O-])cc4F)c4ccc([nH]4)c(-c4c(F)cc(S(=O)(=O)[O-])cc4F)c4nc(c(-c5c(F)cc(S(=O)(=O)[O-])cc5F)c5ccc2[nH]5)C=C4)C=C3)cc1
REMARK SMILES IDX 21 1 20 2 18 3 19 4 4 5 3 6 1 7 2 8 5 10 6 11 7 12 8 13 9 14
REMARK SMILES IDX 17 15 10 16 12 17 11 18 13 19 16 20 14 21 15 22 22 23 23 24
REMARK SMILES IDX 24 25 25 26 26 27 27 28 91 29 28 30 90 31 29 32 30 33 31 34
REMARK SMILES IDX 84 35 32 36 89 37 83 38 85 39 33 40 88 41 82 42 81 43 34 45
REMARK SMILES IDX 68 46 47 47 67 48 48 49 51 50 66 51 86 52 49 53 50 54 65 56
REMARK SMILES IDX 87 57 52 58 35 59 36 60 45 61 37 62 38 63 44 64 46 65 39 66
REMARK SMILES IDX 40 67 41 68 42 69 43 70 69 71 70 72 79 73 71 74 72 75 78 76
REMARK SMILES IDX 80 77 73 78 74 79 75 80 76 81 77 82 53 83 54 84 63 85 55 86
REMARK SMILES IDX 56 87 62 88 64 89 57 90 58 91 59 92 60 93 61 94
REMARK H PARENT 3 9 85 44 51 55
REMARK Flexibility Score: inf
ROOT
ATOM      1  C   UNL A   1      33.626  33.804  28.014  1.00  0.00     0.274 C 
ENDROOT
BRANCH   1   2
ATOM      2  O   UNL A   1      33.450  34.131  29.414  1.00  0.00    -0.461 OA
BRANCH   2   3
ATOM      3  C   UNL A   1      32.978  35.352  29.759  1.00  0.00     0.328 C 
ATOM      4  O   UNL A   1      32.330  36.075  29.012  1.00  0.00    -0.250 OA
BRANCH   3   5
ATOM      5  C   UNL A   1      33.468  35.822  31.162  1.00  0.00     0.192 C 
BRANCH   5   6
ATOM      6  N   UNL A   1      32.564  36.379  32.172  1.00  0.00    -0.345 N 
ATOM      7  O   UNL A   1      30.630  36.653  33.263  1.00  0.00    -0.279 OA
ATOM      8  C   UNL A   1      31.325  35.962  32.531  1.00  0.00     0.337 C 
ATOM      9  H   UNL A   1      32.904  37.166  32.656  1.00  0.00     0.164 HD
ENDBRANCH   5   6
BRANCH   5  10
ATOM     10  C   UNL A   1      34.318  34.703  31.800  1.00  0.00     0.048 C 
BRANCH  10  11
ATOM     11  C   UNL A   1      34.651  34.793  33.308  1.00  0.00     0.072 C 
BRANCH  11  12
ATOM     12  S   UNL A   1      35.755  33.542  34.040  1.00  0.00    -0.158 SA
BRANCH  12  13
ATOM     13  C   UNL A   1      37.168  33.246  32.854  1.00  0.00     0.052 C 
ATOM     14  C   UNL A   1      37.771  31.873  32.570  1.00  0.00     0.043 C 
ATOM     15  C   UNL A   1      38.302  34.270  33.012  1.00  0.00     0.052 C 
ATOM     16  C   UNL A   1      38.904  31.487  33.494  1.00  0.00     0.162 C 
ATOM     17  C   UNL A   1      39.472  33.772  33.879  1.00  0.00     0.095 C 
ATOM     18  O   UNL A   1      39.913  32.481  33.475  1.00  0.00    -0.372 OA
ATOM     19  C   UNL A   1      39.201  33.872  35.369  1.00  0.00     0.066 C 
ATOM     20  C   UNL A   1      40.671  34.715  33.771  1.00  0.00     0.195 C 
ATOM     21  C   UNL A   1      39.487  35.330  35.665  1.00  0.00     0.163 C 
ATOM     22  O   UNL A   1      40.452  35.782  34.705  1.00  0.00    -0.378 OA
ENDBRANCH  12  13
ENDBRANCH  11  12
ENDBRANCH  10  11
ENDBRANCH   5  10
ENDBRANCH   3   5
ENDBRANCH   2   3
ENDBRANCH   1   2
BRANCH   1  23
ATOM     23  C   UNL A   1      33.433  32.304  27.790  1.00  0.00     0.275 C 
BRANCH  23  24
ATOM     24  O   UNL A   1      34.445  31.617  28.533  1.00  0.00    -0.458 OA
BRANCH  24  25
ATOM     25  C   UNL A   1      34.610  30.308  28.253  1.00  0.00     0.338 C 
ATOM     26  O   UNL A   1      33.824  29.529  27.746  1.00  0.00    -0.246 OA
BRANCH  25  27
ATOM     27  C   UNL A   1      36.032  30.054  28.463  1.00  0.00     0.060 A 
ATOM     28  C   UNL A   1      36.419  29.593  29.722  1.00  0.00     0.016 A 
ATOM     29  C   UNL A   1      36.941  30.165  27.419  1.00  0.00     0.016 A 
ATOM     30  C   UNL A   1      37.730  29.203  29.950  1.00  0.00     0.010 A 
ATOM     31  C   UNL A   1      38.257  29.774  27.644  1.00  0.00     0.010 A 
ATOM     32  C   UNL A   1      38.652  29.288  28.904  1.00  0.00    -0.014 A 
BRANCH  32  33
ATOM     33  C   UNL A   1      40.065  28.930  29.125  1.00  0.00     0.031 A 
ATOM     34  C   UNL A   1      41.004  30.008  29.564  1.00  0.00     0.074 A 
ATOM     35  C   UNL A   1      40.485  27.679  28.867  1.00  0.00     0.049 A 
ATOM     36  N   UNL A   1      42.308  30.009  29.589  1.00  0.00    -0.248 NA
ATOM     37  C   UNL A   1      40.387  31.267  30.015  1.00  0.00     0.031 C 
ATOM     38  C   UNL A   1      39.622  26.558  28.488  1.00  0.00     0.029 A 
ATOM     39  N   UNL A   1      41.747  27.150  28.851  1.00  0.00    -0.354 N 
ATOM     40  C   UNL A   1      42.671  31.277  30.020  1.00  0.00     0.074 A 
ATOM     41  C   UNL A   1      41.452  32.025  30.232  1.00  0.00     0.031 C 
ATOM     42  C   UNL A   1      40.385  25.479  28.248  1.00  0.00     0.029 A 
ATOM     43  C   UNL A   1      41.788  25.851  28.401  1.00  0.00     0.049 A 
ATOM     44  H   UNL A   1      42.547  27.650  29.133  1.00  0.00     0.167 HD
ATOM     45  C   UNL A   1      43.918  31.764  30.215  1.00  0.00     0.037 A 
ATOM     46  C   UNL A   1      42.847  25.075  28.100  1.00  0.00     0.037 A 
ATOM     47  C   UNL A   1      45.107  30.985  29.994  1.00  0.00     0.049 A 
ATOM     48  C   UNL A   1      44.226  25.657  28.273  1.00  0.00     0.074 A 
ATOM     49  C   UNL A   1      46.428  31.357  30.159  1.00  0.00     0.029 A 
ATOM     50  N   UNL A   1      45.113  29.666  29.553  1.00  0.00    -0.354 N 
ATOM     51  N   UNL A   1      44.568  26.860  28.671  1.00  0.00    -0.248 NA
ATOM     52  C   UNL A   1      45.360  24.783  27.952  1.00  0.00     0.031 C 
ATOM     53  C   UNL A   1      47.233  30.280  29.773  1.00  0.00     0.029 A 
ATOM     54  C   UNL A   1      46.414  29.215  29.425  1.00  0.00     0.049 A 
ATOM     55  H   UNL A   1      44.309  29.132  29.361  1.00  0.00     0.167 HD
ATOM     56  C   UNL A   1      45.958  26.879  28.679  1.00  0.00     0.074 A 
ATOM     57  C   UNL A   1      46.390  25.562  28.254  1.00  0.00     0.031 C 
ATOM     58  C   UNL A   1      46.803  27.888  29.008  1.00  0.00     0.037 A 
BRANCH  45  59
ATOM     59  C   UNL A   1      44.048  33.199  30.648  1.00  0.00     0.058 A 
ATOM     60  C   UNL A   1      44.126  34.250  29.720  1.00  0.00     0.135 A 
ATOM     61  C   UNL A   1      44.090  33.529  32.012  1.00  0.00     0.135 A 
ATOM     62  F   UNL A   1      44.116  33.992  28.402  1.00  0.00    -0.206 F 
ATOM     63  C   UNL A   1      44.264  35.574  30.127  1.00  0.00     0.059 A 
ATOM     64  C   UNL A   1      44.198  34.849  32.443  1.00  0.00     0.059 A 
ATOM     65  F   UNL A   1      44.031  32.565  32.944  1.00  0.00    -0.206 F 
ATOM     66  C   UNL A   1      44.298  35.863  31.492  1.00  0.00     0.060 A 
BRANCH  66  67
ATOM     67  S   UNL A   1      44.466  37.586  32.004  1.00  0.00     0.124 S 
ATOM     68  O   UNL A   1      44.048  38.293  30.797  1.00  0.00    -0.237 OA
ATOM     69  O   UNL A   1      43.547  37.666  33.134  1.00  0.00    -0.237 OA
ATOM     70  O   UNL A   1      45.881  37.705  32.341  1.00  0.00    -0.744 OA
ENDBRANCH  66  67
ENDBRANCH  45  59
BRANCH  46  71
ATOM     71  C   UNL A   1      42.643  23.688  27.599  1.00  0.00     0.058 A 
ATOM     72  C   UNL A   1      42.649  23.411  26.224  1.00  0.00     0.135 A 
ATOM     73  C   UNL A   1      42.458  22.609  28.479  1.00  0.00     0.135 A 
ATOM     74  F   UNL A   1      42.816  24.407  25.341  1.00  0.00    -0.206 F 
ATOM     75  C   UNL A   1      42.465  22.121  25.738  1.00  0.00     0.059 A 
ATOM     76  C   UNL A   1      42.300  21.305  28.016  1.00  0.00     0.059 A 
ATOM     77  F   UNL A   1      42.457  22.814  29.805  1.00  0.00    -0.206 F 
ATOM     78  C   UNL A   1      42.294  21.073  26.642  1.00  0.00     0.060 A 
BRANCH  78  79
ATOM     79  S   UNL A   1      42.103  19.396  25.998  1.00  0.00     0.124 S 
ATOM     80  O   UNL A   1      40.672  19.349  25.720  1.00  0.00    -0.237 OA
ATOM     81  O   UNL A   1      42.979  19.416  24.830  1.00  0.00    -0.237 OA
ATOM     82  O   UNL A   1      42.561  18.557  27.101  1.00  0.00    -0.744 OA
ENDBRANCH  78  79
ENDBRANCH  46  71
BRANCH  58  83
ATOM     83  C   UNL A   1      48.274  27.587  28.967  1.00  0.00     0.058 A 
ATOM     84  C   UNL A   1      49.061  27.889  27.845  1.00  0.00     0.135 A 
ATOM     85  C   UNL A   1      48.913  27.041  30.093  1.00  0.00     0.135 A 
ATOM     86  F   UNL A   1      48.496  28.405  26.742  1.00  0.00    -0.206 F 
ATOM     87  C   UNL A   1      50.427  27.635  27.831  1.00  0.00     0.059 A 
ATOM     88  C   UNL A   1      50.283  26.809  30.112  1.00  0.00     0.059 A 
ATOM     89  F   UNL A   1      48.205  26.745  31.195  1.00  0.00    -0.206 F 
ATOM     90  C   UNL A   1      51.030  27.099  28.972  1.00  0.00     0.060 A 
BRANCH  90  91
ATOM     91  S   UNL A   1      52.811  26.810  28.952  1.00  0.00     0.124 S 
ATOM     92  O   UNL A   1      53.327  28.169  28.820  1.00  0.00    -0.237 OA
ATOM     93  O   UNL A   1      53.036  26.169  30.245  1.00  0.00    -0.237 OA
ATOM     94  O   UNL A   1      53.003  25.949  27.790  1.00  0.00    -0.744 OA
ENDBRANCH  90  91
ENDBRANCH  58  83
ENDBRANCH  32  33
ENDBRANCH  25  27
ENDBRANCH  24  25
ENDBRANCH  23  24
ENDBRANCH   1  23
TORSDOF 19
ENDMDL
MODEL 2
REMARK VINA RESULT:     -10.1      3.763      7.041
REMARK SMILES O=CN[C@@H](CCS[C@@H]1CCO[C@]2(CCOC2)C1)C(=O)OCCOC(=O)c1ccc(-c2c3nc(c(-c4c(F)cc(S(=O)(=O)[O-])cc4F)c4ccc([nH]4)c(-c4c(F)cc(S(=O)(=O)[O-])cc4F)c4nc(c(-c5c(F)cc(S(=O)(=O)[O-])cc5F)c5ccc2[nH]5)C=C4)C=C3)cc1
REMARK SMILES IDX 21 1 20 2 18 3 19 4 4 5 3 6 1 7 2 8 5 10 6 11 7 12 8 13 9 14
REMARK SMILES IDX 17 15 10 16 12 17 11 18 13 19 16 20 14 21 15 22 22 23 23 24
REMARK SMILES IDX 24 25 25 26 26 27 27 28 91 29 28 30 90 31 29 32 30 33 31 34
REMARK SMILES IDX 84 35 32 36 89 37 83 38 85 39 33 40 88 41 82 42 81 43 34 45
REMARK SMILES IDX 68 46 47 47 67 48 48 49 51 50 66 51 86 52 49 53 50 54 65 56
REMARK SMILES IDX 87 57 52 58 35 59 36 60 45 61 37 62 38 63 44 64 46 65 39 66
REMARK SMILES IDX 40 67 41 68 42 69 43 70 69 71 70 72 79 73 71 74 72 75 78 76
REMARK SMILES IDX 80 77 73 78 74 79 75 80 76 81 77 82 53 83 54 84 63 85 55 86
REMARK SMILES IDX 56 87 62 88 64 89 57 90 58 91 59 92 60 93 61 94
REMARK H PARENT 3 9 85 44 51 55
REMARK Flexibility Score: inf
ROOT
ATOM      1  C   UNL A   1      33.124  29.316  25.417  1.00  0.00     0.274 C 
ENDROOT
BRANCH   1   2
ATOM      2  O   UNL A   1      32.261  28.331  24.798  1.00  0.00    -0.461 OA
BRANCH   2   3
ATOM      3  C   UNL A   1      32.205  28.248  23.447  1.00  0.00     0.328 C 
ATOM      4  O   UNL A   1      31.678  29.089  22.728  1.00  0.00    -0.250 OA
BRANCH   3   5
ATOM      5  C   UNL A   1      32.748  26.896  22.896  1.00  0.00     0.192 C 
BRANCH   5   6
ATOM      6  N   UNL A   1      32.951  26.648  21.465  1.00  0.00    -0.345 N 
ATOM      7  O   UNL A   1      32.970  25.450  19.575  1.00  0.00    -0.279 OA
ATOM      8  C   UNL A   1      32.557  25.587  20.719  1.00  0.00     0.337 C 
ATOM      9  H   UNL A   1      33.442  27.349  20.980  1.00  0.00     0.164 HD
ENDBRANCH   5   6
BRANCH   5  10
ATOM     10  C   UNL A   1      34.028  26.513  23.666  1.00  0.00     0.048 C 
BRANCH  10  11
ATOM     11  C   UNL A   1      33.970  25.330  24.661  1.00  0.00     0.072 C 
BRANCH  11  12
ATOM     12  S   UNL A   1      34.692  23.732  24.168  1.00  0.00    -0.158 SA
BRANCH  12  13
ATOM     13  C   UNL A   1      34.053  22.419  25.334  1.00  0.00     0.052 C 
ATOM     14  C   UNL A   1      33.749  20.983  24.918  1.00  0.00     0.043 C 
ATOM     15  C   UNL A   1      32.923  22.929  26.242  1.00  0.00     0.052 C 
ATOM     16  C   UNL A   1      32.336  20.761  24.426  1.00  0.00     0.162 C 
ATOM     17  C   UNL A   1      31.513  22.578  25.734  1.00  0.00     0.095 C 
ATOM     18  O   UNL A   1      31.404  21.200  25.397  1.00  0.00    -0.372 OA
ATOM     19  C   UNL A   1      31.021  23.503  24.637  1.00  0.00     0.066 C 
ATOM     20  C   UNL A   1      30.460  22.867  26.807  1.00  0.00     0.195 C 
ATOM     21  C   UNL A   1      30.537  24.713  25.410  1.00  0.00     0.163 C 
ATOM     22  O   UNL A   1      30.132  24.259  26.709  1.00  0.00    -0.378 OA
ENDBRANCH  12  13
ENDBRANCH  11  12
ENDBRANCH  10  11
ENDBRANCH   5  10
ENDBRANCH   3   5
ENDBRANCH   2   3
ENDBRANCH   1   2
BRANCH   1  23
ATOM     23  C   UNL A   1      32.740  29.511  26.884  1.00  0.00     0.275 C 
BRANCH  23  24
ATOM     24  O   UNL A   1      33.911  29.291  27.676  1.00  0.00    -0.458 OA
BRANCH  24  25
ATOM     25  C   UNL A   1      34.559  30.393  28.108  1.00  0.00     0.338 C 
ATOM     26  O   UNL A   1      34.101  31.479  28.411  1.00  0.00    -0.246 OA
BRANCH  25  27
ATOM     27  C   UNL A   1      35.923  29.949  28.376  1.00  0.00     0.060 A 
ATOM     28  C   UNL A   1      36.836  30.022  27.323  1.00  0.00     0.016 A 
ATOM     29  C   UNL A   1      36.315  29.572  29.654  1.00  0.00     0.016 A 
ATOM     30  C   UNL A   1      38.177  29.745  27.542  1.00  0.00     0.010 A 
ATOM     31  C   UNL A   1      37.660  29.295  29.877  1.00  0.00     0.010 A 
ATOM     32  C   UNL A   1      38.592  29.386  28.826  1.00  0.00    -0.014 A 
BRANCH  32  33
ATOM     33  C   UNL A   1      40.001  29.035  29.084  1.00  0.00     0.031 A 
ATOM     34  C   UNL A   1      40.920  30.117  29.556  1.00  0.00     0.074 A 
ATOM     35  C   UNL A   1      40.436  27.788  28.830  1.00  0.00     0.049 A 
ATOM     36  N   UNL A   1      42.222  30.125  29.618  1.00  0.00    -0.248 NA
ATOM     37  C   UNL A   1      40.282  31.369  29.997  1.00  0.00     0.031 C 
ATOM     38  C   UNL A   1      39.592  26.664  28.420  1.00  0.00     0.029 A 
ATOM     39  N   UNL A   1      41.702  27.268  28.847  1.00  0.00    -0.354 N 
ATOM     40  C   UNL A   1      42.565  31.394  30.067  1.00  0.00     0.074 A 
ATOM     41  C   UNL A   1      41.335  32.133  30.248  1.00  0.00     0.031 C 
ATOM     42  C   UNL A   1      40.369  25.592  28.196  1.00  0.00     0.029 A 
ATOM     43  C   UNL A   1      41.764  25.972  28.391  1.00  0.00     0.049 A 
ATOM     44  H   UNL A   1      42.489  27.771  29.155  1.00  0.00     0.167 HD
ATOM     45  C   UNL A   1      43.802  31.887  30.300  1.00  0.00     0.037 A 
ATOM     46  C   UNL A   1      42.836  25.205  28.116  1.00  0.00     0.037 A 
ATOM     47  C   UNL A   1      45.003  31.117  30.108  1.00  0.00     0.049 A 
ATOM     48  C   UNL A   1      44.206  25.794  28.331  1.00  0.00     0.074 A 
ATOM     49  C   UNL A   1      46.315  31.497  30.312  1.00  0.00     0.029 A 
ATOM     50  N   UNL A   1      45.030  29.802  29.659  1.00  0.00    -0.354 N 
ATOM     51  N   UNL A   1      44.528  26.998  28.745  1.00  0.00    -0.248 NA
ATOM     52  C   UNL A   1      45.354  24.930  28.037  1.00  0.00     0.031 C 
ATOM     53  C   UNL A   1      47.139  30.427  29.943  1.00  0.00     0.029 A 
ATOM     54  C   UNL A   1      46.337  29.360  29.565  1.00  0.00     0.049 A 
ATOM     55  H   UNL A   1      44.235  29.263  29.441  1.00  0.00     0.167 HD
ATOM     56  C   UNL A   1      45.917  27.026  28.793  1.00  0.00     0.074 A 
ATOM     57  C   UNL A   1      46.370  25.714  28.372  1.00  0.00     0.031 C 
ATOM     58  C   UNL A   1      46.746  28.038  29.152  1.00  0.00     0.037 A 
BRANCH  45  59
ATOM     59  C   UNL A   1      43.911  33.321  30.744  1.00  0.00     0.058 A 
ATOM     60  C   UNL A   1      43.989  33.674  32.101  1.00  0.00     0.135 A 
ATOM     61  C   UNL A   1      43.944  34.357  29.798  1.00  0.00     0.135 A 
ATOM     62  F   UNL A   1      43.936  32.727  33.052  1.00  0.00    -0.206 F 
ATOM     63  C   UNL A   1      44.072  35.003  32.505  1.00  0.00     0.059 A 
ATOM     64  C   UNL A   1      44.057  35.692  30.177  1.00  0.00     0.059 A 
ATOM     65  F   UNL A   1      43.862  34.080  28.487  1.00  0.00    -0.206 F 
ATOM     66  C   UNL A   1      44.106  36.006  31.534  1.00  0.00     0.060 A 
BRANCH  66  67
ATOM     67  S   UNL A   1      44.225  37.725  32.073  1.00  0.00     0.124 S 
ATOM     68  O   UNL A   1      43.310  37.738  33.211  1.00  0.00    -0.237 OA
ATOM     69  O   UNL A   1      45.642  37.851  32.399  1.00  0.00    -0.237 OA
ATOM     70  O   UNL A   1      43.783  38.480  30.906  1.00  0.00    -0.744 OA
ENDBRANCH  66  67
ENDBRANCH  45  59
BRANCH  46  71
ATOM     71  C   UNL A   1      42.656  23.820  27.600  1.00  0.00     0.058 A 
ATOM     72  C   UNL A   1      42.586  22.728  28.477  1.00  0.00     0.135 A 
ATOM     73  C   UNL A   1      42.531  23.559  26.226  1.00  0.00     0.135 A 
ATOM     74  F   UNL A   1      42.705  22.923  29.799  1.00  0.00    -0.206 F 
ATOM     75  C   UNL A   1      42.414  21.428  28.014  1.00  0.00     0.059 A 
ATOM     76  C   UNL A   1      42.330  22.269  25.740  1.00  0.00     0.059 A 
ATOM     77  F   UNL A   1      42.578  24.567  25.341  1.00  0.00    -0.206 F 
ATOM     78  C   UNL A   1      42.283  21.208  26.642  1.00  0.00     0.060 A 
BRANCH  78  79
ATOM     79  S   UNL A   1      42.013  19.520  26.058  1.00  0.00     0.124 S 
ATOM     80  O   UNL A   1      42.852  19.484  24.866  1.00  0.00    -0.237 OA
ATOM     81  O   UNL A   1      42.479  18.727  27.191  1.00  0.00    -0.237 OA
ATOM     82  O   UNL A   1      40.574  19.473  25.820  1.00  0.00    -0.744 OA
ENDBRANCH  78  79
ENDBRANCH  46  71
BRANCH  58  83
ATOM     83  C   UNL A   1      48.220  27.747  29.150  1.00  0.00     0.058 A 
ATOM     84  C   UNL A   1      48.851  27.112  30.229  1.00  0.00     0.135 A 
ATOM     85  C   UNL A   1      48.998  28.060  28.023  1.00  0.00     0.135 A 
ATOM     86  F   UNL A   1      48.152  26.799  31.333  1.00  0.00    -0.206 F 
ATOM     87  C   UNL A   1      50.209  26.818  30.202  1.00  0.00     0.059 A 
ATOM     88  C   UNL A   1      50.350  27.747  27.961  1.00  0.00     0.059 A 
ATOM     89  F   UNL A   1      48.438  28.659  26.959  1.00  0.00    -0.206 F 
ATOM     90  C   UNL A   1      50.950  27.137  29.061  1.00  0.00     0.060 A 
BRANCH  90  91
ATOM     91  S   UNL A   1      52.704  26.717  29.026  1.00  0.00     0.124 S 
ATOM     92  O   UNL A   1      52.873  26.053  30.315  1.00  0.00    -0.237 OA
ATOM     93  O   UNL A   1      52.793  25.853  27.852  1.00  0.00    -0.237 OA
ATOM     94  O   UNL A   1      53.361  28.013  28.895  1.00  0.00    -0.744 OA
ENDBRANCH  90  91
ENDBRANCH  58  83
ENDBRANCH  32  33
ENDBRANCH  25  27
ENDBRANCH  24  25
ENDBRANCH  23  24
ENDBRANCH   1  23
TORSDOF 19
ENDMDL
MODEL 3
REMARK VINA RESULT:     -10.0      5.401     12.637
REMARK SMILES O=CN[C@@H](CCS[C@@H]1CCO[C@]2(CCOC2)C1)C(=O)OCCOC(=O)c1ccc(-c2c3nc(c(-c4c(F)cc(S(=O)(=O)[O-])cc4F)c4ccc([nH]4)c(-c4c(F)cc(S(=O)(=O)[O-])cc4F)c4nc(c(-c5c(F)cc(S(=O)(=O)[O-])cc5F)c5ccc2[nH]5)C=C4)C=C3)cc1
REMARK SMILES IDX 21 1 20 2 18 3 19 4 4 5 3 6 1 7 2 8 5 10 6 11 7 12 8 13 9 14
REMARK SMILES IDX 17 15 10 16 12 17 11 18 13 19 16 20 14 21 15 22 22 23 23 24
REMARK SMILES IDX 24 25 25 26 26 27 27 28 91 29 28 30 90 31 29 32 30 33 31 34
REMARK SMILES IDX 84 35 32 36 89 37 83 38 85 39 33 40 88 41 82 42 81 43 34 45
REMARK SMILES IDX 68 46 47 47 67 48 48 49 51 50 66 51 86 52 49 53 50 54 65 56
REMARK SMILES IDX 87 57 52 58 35 59 36 60 45 61 37 62 38 63 44 64 46 65 39 66
REMARK SMILES IDX 40 67 41 68 42 69 43 70 69 71 70 72 79 73 71 74 72 75 78 76
REMARK SMILES IDX 80 77 73 78 74 79 75 80 76 81 77 82 53 83 54 84 63 85 55 86
REMARK SMILES IDX 56 87 62 88 64 89 57 90 58 91 59 92 60 93 61 94
REMARK H PARENT 3 9 85 44 51 55
REMARK Flexibility Score: inf
ROOT
ATOM      1  C   UNL A   1      37.058  23.129  25.509  1.00  0.00     0.274 C 
ENDROOT
BRANCH   1   2
ATOM      2  O   UNL A   1      36.164  22.318  26.309  1.00  0.00    -0.461 OA
BRANCH   2   3
ATOM      3  C   UNL A   1      35.525  21.269  25.738  1.00  0.00     0.328 C 
ATOM      4  O   UNL A   1      36.065  20.454  25.000  1.00  0.00    -0.250 OA
BRANCH   3   5
ATOM      5  C   UNL A   1      33.987  21.282  25.990  1.00  0.00     0.192 C 
BRANCH   5   6
ATOM      6  N   UNL A   1      33.204  20.057  26.172  1.00  0.00    -0.345 N 
ATOM      7  O   UNL A   1      32.153  18.184  25.542  1.00  0.00    -0.279 OA
ATOM      8  C   UNL A   1      32.985  19.046  25.295  1.00  0.00     0.337 C 
ATOM      9  H   UNL A   1      32.777  19.954  27.053  1.00  0.00     0.164 HD
ENDBRANCH   5   6
BRANCH   5  10
ATOM     10  C   UNL A   1      33.672  22.263  27.138  1.00  0.00     0.048 C 
BRANCH  10  11
ATOM     11  C   UNL A   1      32.240  22.839  27.251  1.00  0.00     0.072 C 
BRANCH  11  12
ATOM     12  S   UNL A   1      31.585  23.838  25.876  1.00  0.00    -0.158 SA
BRANCH  12  13
ATOM     13  C   UNL A   1      32.412  25.512  25.925  1.00  0.00     0.052 C 
ATOM     14  C   UNL A   1      31.710  26.800  26.346  1.00  0.00     0.043 C 
ATOM     15  C   UNL A   1      33.266  25.790  24.678  1.00  0.00     0.052 C 
ATOM     16  C   UNL A   1      31.031  27.539  25.215  1.00  0.00     0.162 C 
ATOM     17  C   UNL A   1      32.549  26.637  23.611  1.00  0.00     0.095 C 
ATOM     18  O   UNL A   1      31.956  27.801  24.175  1.00  0.00    -0.372 OA
ATOM     19  C   UNL A   1      31.591  25.834  22.750  1.00  0.00     0.066 C 
ATOM     20  C   UNL A   1      33.532  27.104  22.535  1.00  0.00     0.195 C 
ATOM     21  C   UNL A   1      32.513  25.182  21.741  1.00  0.00     0.163 C 
ATOM     22  O   UNL A   1      33.654  26.037  21.585  1.00  0.00    -0.378 OA
ENDBRANCH  12  13
ENDBRANCH  11  12
ENDBRANCH  10  11
ENDBRANCH   5  10
ENDBRANCH   3   5
ENDBRANCH   2   3
ENDBRANCH   1   2
BRANCH   1  23
ATOM     23  C   UNL A   1      38.490  23.017  26.033  1.00  0.00     0.275 C 
BRANCH  23  24
ATOM     24  O   UNL A   1      38.869  24.297  26.548  1.00  0.00    -0.458 OA
BRANCH  24  25
ATOM     25  C   UNL A   1      40.168  24.451  26.877  1.00  0.00     0.338 C 
ATOM     26  O   UNL A   1      41.146  23.891  26.414  1.00  0.00    -0.246 OA
BRANCH  25  27
ATOM     27  C   UNL A   1      40.201  25.619  27.751  1.00  0.00     0.060 A 
ATOM     28  C   UNL A   1      39.243  25.685  28.764  1.00  0.00     0.016 A 
ATOM     29  C   UNL A   1      41.210  26.567  27.642  1.00  0.00     0.016 A 
ATOM     30  C   UNL A   1      39.299  26.695  29.712  1.00  0.00     0.010 A 
ATOM     31  C   UNL A   1      41.269  27.581  28.592  1.00  0.00     0.010 A 
ATOM     32  C   UNL A   1      40.320  27.644  29.630  1.00  0.00    -0.014 A 
BRANCH  32  33
ATOM     33  C   UNL A   1      40.381  28.760  30.591  1.00  0.00     0.031 A 
ATOM     34  C   UNL A   1      41.336  28.652  31.737  1.00  0.00     0.074 A 
ATOM     35  C   UNL A   1      39.543  29.804  30.455  1.00  0.00     0.049 A 
ATOM     36  N   UNL A   1      41.404  29.366  32.826  1.00  0.00    -0.248 NA
ATOM     37  C   UNL A   1      42.337  27.575  31.652  1.00  0.00     0.031 C 
ATOM     38  C   UNL A   1      38.621  30.010  29.337  1.00  0.00     0.029 A 
ATOM     39  N   UNL A   1      39.308  30.869  31.283  1.00  0.00    -0.354 N 
ATOM     40  C   UNL A   1      42.428  28.803  33.576  1.00  0.00     0.074 A 
ATOM     41  C   UNL A   1      42.943  27.679  32.825  1.00  0.00     0.031 C 
ATOM     42  C   UNL A   1      37.898  31.119  29.563  1.00  0.00     0.029 A 
ATOM     43  C   UNL A   1      38.268  31.665  30.865  1.00  0.00     0.049 A 
ATOM     44  H   UNL A   1      39.832  31.047  32.097  1.00  0.00     0.167 HD
ATOM     45  C   UNL A   1      42.886  29.197  34.786  1.00  0.00     0.037 A 
ATOM     46  C   UNL A   1      37.655  32.686  31.494  1.00  0.00     0.037 A 
ATOM     47  C   UNL A   1      42.345  30.323  35.500  1.00  0.00     0.049 A 
ATOM     48  C   UNL A   1      38.146  33.072  32.865  1.00  0.00     0.074 A 
ATOM     49  C   UNL A   1      42.722  30.829  36.730  1.00  0.00     0.029 A 
ATOM     50  N   UNL A   1      41.301  31.118  35.041  1.00  0.00    -0.354 N 
ATOM     51  N   UNL A   1      39.108  32.532  33.578  1.00  0.00    -0.248 NA
ATOM     52  C   UNL A   1      37.470  34.197  33.520  1.00  0.00     0.031 C 
ATOM     53  C   UNL A   1      41.875  31.900  37.035  1.00  0.00     0.029 A 
ATOM     54  C   UNL A   1      41.010  32.101  35.970  1.00  0.00     0.049 A 
ATOM     55  H   UNL A   1      40.838  30.999  34.180  1.00  0.00     0.167 HD
ATOM     56  C   UNL A   1      39.174  33.271  34.753  1.00  0.00     0.074 A 
ATOM     57  C   UNL A   1      38.160  34.302  34.648  1.00  0.00     0.031 C 
ATOM     58  C   UNL A   1      39.996  33.118  35.821  1.00  0.00     0.037 A 
BRANCH  45  59
ATOM     59  C   UNL A   1      43.986  28.386  35.415  1.00  0.00     0.058 A 
ATOM     60  C   UNL A   1      43.716  27.308  36.274  1.00  0.00     0.135 A 
ATOM     61  C   UNL A   1      45.332  28.688  35.150  1.00  0.00     0.135 A 
ATOM     62  F   UNL A   1      42.449  26.990  36.583  1.00  0.00    -0.206 F 
ATOM     63  C   UNL A   1      44.740  26.574  36.865  1.00  0.00     0.059 A 
ATOM     64  C   UNL A   1      46.371  27.948  35.707  1.00  0.00     0.059 A 
ATOM     65  F   UNL A   1      45.650  29.714  34.346  1.00  0.00    -0.206 F 
ATOM     66  C   UNL A   1      46.065  26.901  36.575  1.00  0.00     0.060 A 
BRANCH  66  67
ATOM     67  S   UNL A   1      47.381  25.932  37.342  1.00  0.00     0.124 S 
ATOM     68  O   UNL A   1      46.789  24.597  37.358  1.00  0.00    -0.237 OA
ATOM     69  O   UNL A   1      48.489  26.122  36.412  1.00  0.00    -0.237 OA
ATOM     70  O   UNL A   1      47.548  26.558  38.649  1.00  0.00    -0.744 OA
ENDBRANCH  66  67
ENDBRANCH  45  59
BRANCH  46  71
ATOM     71  C   UNL A   1      36.517  33.393  30.846  1.00  0.00     0.058 A 
ATOM     72  C   UNL A   1      36.726  34.238  29.747  1.00  0.00     0.135 A 
ATOM     73  C   UNL A   1      35.197  33.227  31.297  1.00  0.00     0.135 A 
ATOM     74  F   UNL A   1      37.968  34.435  29.281  1.00  0.00    -0.206 F 
ATOM     75  C   UNL A   1      35.673  34.904  29.126  1.00  0.00     0.059 A 
ATOM     76  C   UNL A   1      34.124  33.860  30.675  1.00  0.00     0.059 A 
ATOM     77  F   UNL A   1      34.937  32.419  32.337  1.00  0.00    -0.206 F 
ATOM     78  C   UNL A   1      34.375  34.705  29.595  1.00  0.00     0.060 A 
BRANCH  78  79
ATOM     79  S   UNL A   1      33.013  35.540  28.750  1.00  0.00     0.124 S 
ATOM     80  O   UNL A   1      32.456  34.456  27.949  1.00  0.00    -0.237 OA
ATOM     81  O   UNL A   1      32.192  35.994  29.869  1.00  0.00    -0.237 OA
ATOM     82  O   UNL A   1      33.681  36.600  28.002  1.00  0.00    -0.744 OA
ENDBRANCH  78  79
ENDBRANCH  46  71
BRANCH  58  83
ATOM     83  C   UNL A   1      39.861  34.117  36.935  1.00  0.00     0.058 A 
ATOM     84  C   UNL A   1      40.486  35.372  36.884  1.00  0.00     0.135 A 
ATOM     85  C   UNL A   1      39.046  33.831  38.043  1.00  0.00     0.135 A 
ATOM     86  F   UNL A   1      41.281  35.691  35.850  1.00  0.00    -0.206 F 
ATOM     87  C   UNL A   1      40.327  36.301  37.906  1.00  0.00     0.059 A 
ATOM     88  C   UNL A   1      38.847  34.756  39.060  1.00  0.00     0.059 A 
ATOM     89  F   UNL A   1      38.418  32.647  38.132  1.00  0.00    -0.206 F 
ATOM     90  C   UNL A   1      39.502  35.985  38.988  1.00  0.00     0.060 A 
BRANCH  90  91
ATOM     91  S   UNL A   1      39.276  37.214  40.289  1.00  0.00     0.124 S 
ATOM     92  O   UNL A   1      38.530  36.452  41.286  1.00  0.00    -0.237 OA
ATOM     93  O   UNL A   1      40.652  37.547  40.646  1.00  0.00    -0.237 OA
ATOM     94  O   UNL A   1      38.531  38.279  39.625  1.00  0.00    -0.744 OA
ENDBRANCH  90  91
ENDBRANCH  58  83
ENDBRANCH  32  33
ENDBRANCH  25  27
ENDBRANCH  24  25
ENDBRANCH  23  24
ENDBRANCH   1  23
TORSDOF 19
ENDMDL
