MODEL 1
REMARK VINA RESULT:     -12.3      0.000      0.000
REMARK SMILES COc1cc(NC(=O)CN2C(=O)c3ccccc3C2=O)c(C(=O)OCCOC(=O)c2ccc(-c3c4nc(c(-c5c(F)cc(S(=O)(=O)[O-])cc5F)c5ccc([nH]5)c(-c5c(F)cc(S(=O)(=O)[O-])cc5F)c5nc(c(-c6c(F)cc(S(=O)(=O)[O-])cc6F)c6ccc3[nH]6)C=C5)C=C4)cc2)cc1OC
REMARK SMILES IDX 25 1 24 2 22 3 23 4 21 5 3 6 4 7 97 8 5 9 96 10 2 11 1 12
REMARK SMILES IDX 98 13 99 14 6 15 7 16 8 18 9 19 10 20 11 21 19 22 12 23
REMARK SMILES IDX 13 24 18 25 20 26 14 27 17 28 15 29 16 30 26 31 27 32 28 33
REMARK SMILES IDX 29 34 30 35 31 36 95 37 32 38 94 39 33 40 34 41 35 42 88 43
REMARK SMILES IDX 36 44 93 45 87 46 89 47 37 48 92 49 86 50 85 51 38 53 72 54
REMARK SMILES IDX 51 55 71 56 52 57 55 58 70 59 90 60 53 61 54 62 69 64 91 65
REMARK SMILES IDX 56 66 39 67 40 68 49 69 41 70 42 71 48 72 50 73 43 74 44 75
REMARK SMILES IDX 45 76 46 77 47 78 73 79 74 80 83 81 75 82 76 83 82 84 84 85
REMARK SMILES IDX 77 86 78 87 79 88 80 89 81 90 57 91 58 92 67 93 59 94 60 95
REMARK SMILES IDX 66 96 68 97 61 98 62 99 63 100 64 101 65 102
REMARK H PARENT 6 17 89 52 55 63
REMARK Flexibility Score: inf
ROOT
ATOM      1  C   UNL A   1      33.374  29.603  26.505  1.00  0.00     0.275 C 
ENDROOT
BRANCH   1   2
ATOM      2  O   UNL A   1      33.093  28.289  27.036  1.00  0.00    -0.458 OA
BRANCH   2   3
ATOM      3  C   UNL A   1      31.813  27.852  26.935  1.00  0.00     0.340 C 
ATOM      4  O   UNL A   1      30.985  27.829  27.830  1.00  0.00    -0.246 OA
BRANCH   3   5
ATOM      5  C   UNL A   1      31.523  27.316  25.581  1.00  0.00     0.087 A 
ATOM      6  C   UNL A   1      31.357  26.501  22.917  1.00  0.00     0.162 A 
ATOM      7  C   UNL A   1      31.591  25.567  23.942  1.00  0.00     0.077 A 
ATOM      8  C   UNL A   1      31.146  27.845  23.227  1.00  0.00     0.161 A 
ATOM      9  C   UNL A   1      31.627  25.935  25.283  1.00  0.00     0.059 A 
ATOM     10  C   UNL A   1      31.264  28.245  24.560  1.00  0.00     0.068 A 
BRANCH   6  11
ATOM     11  O   UNL A   1      31.265  26.070  21.619  1.00  0.00    -0.493 OA
ATOM     12  C   UNL A   1      32.527  25.901  20.974  1.00  0.00     0.278 C 
ENDBRANCH   6  11
BRANCH   8  13
ATOM     13  O   UNL A   1      30.870  28.887  22.385  1.00  0.00    -0.493 OA
ATOM     14  C   UNL A   1      29.638  29.575  22.543  1.00  0.00     0.278 C 
ENDBRANCH   8  13
BRANCH   9  15
ATOM     15  N   UNL A   1      31.741  24.994  26.329  1.00  0.00    -0.324 N 
ATOM     16  C   UNL A   1      32.152  23.701  26.458  1.00  0.00     0.244 C 
ATOM     17  H   UNL A   1      31.445  25.370  27.190  1.00  0.00     0.170 HD
ATOM     18  O   UNL A   1      32.071  23.223  27.594  1.00  0.00    -0.273 OA
BRANCH  16  19
ATOM     19  C   UNL A   1      32.692  22.789  25.371  1.00  0.00     0.229 C 
BRANCH  19  20
ATOM     20  N   UNL A   1      34.134  22.717  25.408  1.00  0.00    -0.265 N 
ATOM     21  C   UNL A   1      34.952  23.803  25.570  1.00  0.00     0.262 C 
ATOM     22  C   UNL A   1      34.850  21.592  25.130  1.00  0.00     0.262 C 
ATOM     23  O   UNL A   1      34.673  24.974  25.707  1.00  0.00    -0.269 OA
ATOM     24  C   UNL A   1      36.313  23.281  25.619  1.00  0.00     0.053 A 
ATOM     25  C   UNL A   1      36.246  21.923  25.370  1.00  0.00     0.053 A 
ATOM     26  O   UNL A   1      34.458  20.503  24.754  1.00  0.00    -0.269 OA
ATOM     27  C   UNL A   1      37.496  23.906  25.953  1.00  0.00     0.015 A 
ATOM     28  C   UNL A   1      37.351  21.103  25.455  1.00  0.00     0.015 A 
ATOM     29  C   UNL A   1      38.630  23.096  26.057  1.00  0.00     0.001 A 
ATOM     30  C   UNL A   1      38.558  21.707  25.815  1.00  0.00     0.001 A 
ENDBRANCH  19  20
ENDBRANCH  16  19
ENDBRANCH   9  15
ENDBRANCH   3   5
ENDBRANCH   2   3
ENDBRANCH   1   2
BRANCH   1  31
ATOM     31  C   UNL A   1      33.043  30.703  27.511  1.00  0.00     0.275 C 
BRANCH  31  32
ATOM     32  O   UNL A   1      34.180  31.566  27.662  1.00  0.00    -0.458 OA
BRANCH  32  33
ATOM     33  C   UNL A   1      34.818  31.524  28.855  1.00  0.00     0.338 C 
ATOM     34  O   UNL A   1      34.491  32.105  29.876  1.00  0.00    -0.246 OA
BRANCH  33  35
ATOM     35  C   UNL A   1      35.975  30.604  28.775  1.00  0.00     0.060 A 
ATOM     36  C   UNL A   1      36.485  30.036  29.932  1.00  0.00     0.016 A 
ATOM     37  C   UNL A   1      36.668  30.441  27.575  1.00  0.00     0.016 A 
ATOM     38  C   UNL A   1      37.762  29.477  29.917  1.00  0.00     0.010 A 
ATOM     39  C   UNL A   1      37.905  29.771  27.555  1.00  0.00     0.010 A 
ATOM     40  C   UNL A   1      38.532  29.365  28.745  1.00  0.00    -0.014 A 
BRANCH  40  41
ATOM     41  C   UNL A   1      39.998  28.976  28.788  1.00  0.00     0.031 A 
ATOM     42  C   UNL A   1      41.047  29.952  29.312  1.00  0.00     0.074 A 
ATOM     43  C   UNL A   1      40.442  27.741  28.462  1.00  0.00     0.049 A 
ATOM     44  N   UNL A   1      42.348  29.953  29.132  1.00  0.00    -0.248 NA
ATOM     45  C   UNL A   1      40.571  31.084  30.120  1.00  0.00     0.031 C 
ATOM     46  C   UNL A   1      39.618  26.614  28.027  1.00  0.00     0.029 A 
ATOM     47  N   UNL A   1      41.718  27.211  28.476  1.00  0.00    -0.354 N 
ATOM     48  C   UNL A   1      42.819  31.137  29.700  1.00  0.00     0.074 A 
ATOM     49  C   UNL A   1      41.671  31.816  30.258  1.00  0.00     0.031 C 
ATOM     50  C   UNL A   1      40.375  25.512  27.932  1.00  0.00     0.029 A 
ATOM     51  C   UNL A   1      41.772  25.886  28.108  1.00  0.00     0.049 A 
ATOM     52  H   UNL A   1      42.514  27.732  28.726  1.00  0.00     0.167 HD
ATOM     53  C   UNL A   1      44.088  31.613  29.748  1.00  0.00     0.037 A 
ATOM     54  C   UNL A   1      42.808  25.065  27.844  1.00  0.00     0.037 A 
ATOM     55  C   UNL A   1      45.254  30.868  29.341  1.00  0.00     0.049 A 
ATOM     56  C   UNL A   1      44.208  25.603  27.880  1.00  0.00     0.074 A 
ATOM     57  C   UNL A   1      46.582  31.263  29.357  1.00  0.00     0.029 A 
ATOM     58  N   UNL A   1      45.239  29.555  28.899  1.00  0.00    -0.354 N 
ATOM     59  N   UNL A   1      44.622  26.798  28.218  1.00  0.00    -0.248 NA
ATOM     60  C   UNL A   1      45.278  24.694  27.445  1.00  0.00     0.031 C 
ATOM     61  C   UNL A   1      47.367  30.198  28.904  1.00  0.00     0.029 A 
ATOM     62  C   UNL A   1      46.532  29.127  28.639  1.00  0.00     0.049 A 
ATOM     63  H   UNL A   1      44.429  29.006  28.785  1.00  0.00     0.167 HD
ATOM     64  C   UNL A   1      45.997  26.793  28.019  1.00  0.00     0.074 A 
ATOM     65  C   UNL A   1      46.350  25.463  27.565  1.00  0.00     0.031 C 
ATOM     66  C   UNL A   1      46.881  27.806  28.182  1.00  0.00     0.037 A 
BRANCH  53  67
ATOM     67  C   UNL A   1      44.304  33.032  30.213  1.00  0.00     0.058 A 
ATOM     68  C   UNL A   1      44.167  34.142  29.366  1.00  0.00     0.135 A 
ATOM     69  C   UNL A   1      44.569  33.281  31.572  1.00  0.00     0.135 A 
ATOM     70  F   UNL A   1      43.919  33.970  28.059  1.00  0.00    -0.206 F 
ATOM     71  C   UNL A   1      44.304  35.444  29.846  1.00  0.00     0.059 A 
ATOM     72  C   UNL A   1      44.683  34.573  32.077  1.00  0.00     0.059 A 
ATOM     73  F   UNL A   1      44.697  32.257  32.432  1.00  0.00    -0.206 F 
ATOM     74  C   UNL A   1      44.560  35.650  31.204  1.00  0.00     0.060 A 
BRANCH  74  75
ATOM     75  S   UNL A   1      44.704  37.343  31.819  1.00  0.00     0.124 S 
ATOM     76  O   UNL A   1      44.583  38.114  30.586  1.00  0.00    -0.237 OA
ATOM     77  O   UNL A   1      43.575  37.441  32.739  1.00  0.00    -0.237 OA
ATOM     78  O   UNL A   1      46.021  37.367  32.448  1.00  0.00    -0.744 OA
ENDBRANCH  74  75
ENDBRANCH  53  67
BRANCH  54  79
ATOM     79  C   UNL A   1      42.539  23.670  27.397  1.00  0.00     0.058 A 
ATOM     80  C   UNL A   1      42.495  23.336  26.038  1.00  0.00     0.135 A 
ATOM     81  C   UNL A   1      42.374  22.634  28.333  1.00  0.00     0.135 A 
ATOM     82  F   UNL A   1      42.618  24.293  25.106  1.00  0.00    -0.206 F 
ATOM     83  C   UNL A   1      42.322  22.020  25.619  1.00  0.00     0.059 A 
ATOM     84  C   UNL A   1      42.238  21.309  27.939  1.00  0.00     0.059 A 
ATOM     85  F   UNL A   1      42.407  22.901  29.647  1.00  0.00    -0.206 F 
ATOM     86  C   UNL A   1      42.210  21.011  26.578  1.00  0.00     0.060 A 
BRANCH  86  87
ATOM     87  S   UNL A   1      42.104  19.292  26.038  1.00  0.00     0.124 S 
ATOM     88  O   UNL A   1      42.632  18.586  27.200  1.00  0.00    -0.237 OA
ATOM     89  O   UNL A   1      40.675  19.128  25.787  1.00  0.00    -0.237 OA
ATOM     90  O   UNL A   1      42.945  19.266  24.844  1.00  0.00    -0.744 OA
ENDBRANCH  86  87
ENDBRANCH  54  79
BRANCH  66  91
ATOM     91  C   UNL A   1      48.322  27.512  27.884  1.00  0.00     0.058 A 
ATOM     92  C   UNL A   1      49.184  27.002  28.868  1.00  0.00     0.135 A 
ATOM     93  C   UNL A   1      48.847  27.730  26.600  1.00  0.00     0.135 A 
ATOM     94  F   UNL A   1      48.733  26.785  30.114  1.00  0.00    -0.206 F 
ATOM     95  C   UNL A   1      50.523  26.744  28.597  1.00  0.00     0.059 A 
ATOM     96  C   UNL A   1      50.179  27.460  26.303  1.00  0.00     0.059 A 
ATOM     97  F   UNL A   1      48.063  28.210  25.622  1.00  0.00    -0.206 F 
ATOM     98  C   UNL A   1      51.013  26.982  27.312  1.00  0.00     0.060 A 
BRANCH  98  99
ATOM     99  S   UNL A   1      52.753  26.642  26.969  1.00  0.00     0.124 S 
ATOM    100  O   UNL A   1      52.996  27.494  25.809  1.00  0.00    -0.237 OA
ATOM    101  O   UNL A   1      53.406  27.056  28.207  1.00  0.00    -0.237 OA
ATOM    102  O   UNL A   1      52.773  25.206  26.710  1.00  0.00    -0.744 OA
ENDBRANCH  98  99
ENDBRANCH  66  91
ENDBRANCH  40  41
ENDBRANCH  33  35
ENDBRANCH  32  33
ENDBRANCH  31  32
ENDBRANCH   1  31
TORSDOF 19
ENDMDL
MODEL 2
REMARK VINA RESULT:     -12.0      4.236     10.321
REMARK SMILES COc1cc(NC(=O)CN2C(=O)c3ccccc3C2=O)c(C(=O)OCCOC(=O)c2ccc(-c3c4nc(c(-c5c(F)cc(S(=O)(=O)[O-])cc5F)c5ccc([nH]5)c(-c5c(F)cc(S(=O)(=O)[O-])cc5F)c5nc(c(-c6c(F)cc(S(=O)(=O)[O-])cc6F)c6ccc3[nH]6)C=C5)C=C4)cc2)cc1OC
REMARK SMILES IDX 25 1 24 2 22 3 23 4 21 5 3 6 4 7 97 8 5 9 96 10 2 11 1 12
REMARK SMILES IDX 98 13 99 14 6 15 7 16 8 18 9 19 10 20 11 21 19 22 12 23
REMARK SMILES IDX 13 24 18 25 20 26 14 27 17 28 15 29 16 30 26 31 27 32 28 33
REMARK SMILES IDX 29 34 30 35 31 36 95 37 32 38 94 39 33 40 34 41 35 42 88 43
REMARK SMILES IDX 36 44 93 45 87 46 89 47 37 48 92 49 86 50 85 51 38 53 72 54
REMARK SMILES IDX 51 55 71 56 52 57 55 58 70 59 90 60 53 61 54 62 69 64 91 65
REMARK SMILES IDX 56 66 39 67 40 68 49 69 41 70 42 71 48 72 50 73 43 74 44 75
REMARK SMILES IDX 45 76 46 77 47 78 73 79 74 80 83 81 75 82 76 83 82 84 84 85
REMARK SMILES IDX 77 86 78 87 79 88 80 89 81 90 57 91 58 92 67 93 59 94 60 95
REMARK SMILES IDX 66 96 68 97 61 98 62 99 63 100 64 101 65 102
REMARK H PARENT 6 17 89 52 55 63
REMARK Flexibility Score: inf
ROOT
ATOM      1  C   UNL A   1      37.712  20.993  24.645  1.00  0.00     0.275 C 
ENDROOT
BRANCH   1   2
ATOM      2  O   UNL A   1      36.968  22.226  24.767  1.00  0.00    -0.458 OA
BRANCH   2   3
ATOM      3  C   UNL A   1      36.138  22.539  23.742  1.00  0.00     0.340 C 
ATOM      4  O   UNL A   1      36.466  22.998  22.661  1.00  0.00    -0.246 OA
BRANCH   3   5
ATOM      5  C   UNL A   1      34.714  22.320  24.104  1.00  0.00     0.087 A 
ATOM      6  C   UNL A   1      32.176  21.942  25.203  1.00  0.00     0.162 A 
ATOM      7  C   UNL A   1      32.487  23.119  24.498  1.00  0.00     0.077 A 
ATOM      8  C   UNL A   1      33.120  20.919  25.312  1.00  0.00     0.161 A 
ATOM      9  C   UNL A   1      33.726  23.313  23.895  1.00  0.00     0.059 A 
ATOM     10  C   UNL A   1      34.395  21.134  24.786  1.00  0.00     0.068 A 
BRANCH   6  11
ATOM     11  O   UNL A   1      30.918  21.777  25.719  1.00  0.00    -0.493 OA
ATOM     12  C   UNL A   1      30.580  22.719  26.737  1.00  0.00     0.278 C 
ENDBRANCH   6  11
BRANCH   8  13
ATOM     13  O   UNL A   1      32.997  19.700  25.919  1.00  0.00    -0.493 OA
ATOM     14  C   UNL A   1      32.700  18.571  25.111  1.00  0.00     0.278 C 
ENDBRANCH   8  13
BRANCH   9  15
ATOM     15  N   UNL A   1      34.012  24.433  23.084  1.00  0.00    -0.324 N 
ATOM     16  C   UNL A   1      33.441  25.644  22.832  1.00  0.00     0.244 C 
ATOM     17  H   UNL A   1      34.838  24.304  22.564  1.00  0.00     0.170 HD
ATOM     18  O   UNL A   1      34.026  26.352  22.006  1.00  0.00    -0.273 OA
BRANCH  16  19
ATOM     19  C   UNL A   1      32.176  26.217  23.446  1.00  0.00     0.229 C 
BRANCH  19  20
ATOM     20  N   UNL A   1      32.477  27.212  24.449  1.00  0.00    -0.265 N 
ATOM     21  C   UNL A   1      33.409  27.047  25.437  1.00  0.00     0.262 C 
ATOM     22  C   UNL A   1      31.765  28.360  24.623  1.00  0.00     0.262 C 
ATOM     23  O   UNL A   1      34.132  26.104  25.675  1.00  0.00    -0.269 OA
ATOM     24  C   UNL A   1      33.443  28.303  26.177  1.00  0.00     0.053 A 
ATOM     25  C   UNL A   1      32.449  29.115  25.662  1.00  0.00     0.053 A 
ATOM     26  O   UNL A   1      30.756  28.734  24.055  1.00  0.00    -0.269 OA
ATOM     27  C   UNL A   1      34.324  28.748  27.140  1.00  0.00     0.015 A 
ATOM     28  C   UNL A   1      32.283  30.423  26.065  1.00  0.00     0.015 A 
ATOM     29  C   UNL A   1      34.185  30.074  27.559  1.00  0.00     0.001 A 
ATOM     30  C   UNL A   1      33.178  30.905  27.023  1.00  0.00     0.001 A 
ENDBRANCH  19  20
ENDBRANCH  16  19
ENDBRANCH   9  15
ENDBRANCH   3   5
ENDBRANCH   2   3
ENDBRANCH   1   2
BRANCH   1  31
ATOM     31  C   UNL A   1      38.891  20.945  25.615  1.00  0.00     0.275 C 
BRANCH  31  32
ATOM     32  O   UNL A   1      38.924  22.159  26.382  1.00  0.00    -0.458 OA
BRANCH  32  33
ATOM     33  C   UNL A   1      40.112  22.807  26.438  1.00  0.00     0.338 C 
ATOM     34  O   UNL A   1      41.193  22.377  26.074  1.00  0.00    -0.246 OA
BRANCH  33  35
ATOM     35  C   UNL A   1      39.913  24.176  26.965  1.00  0.00     0.060 A 
ATOM     36  C   UNL A   1      40.747  25.203  26.549  1.00  0.00     0.016 A 
ATOM     37  C   UNL A   1      39.014  24.410  28.006  1.00  0.00     0.016 A 
ATOM     38  C   UNL A   1      40.807  26.381  27.290  1.00  0.00     0.010 A 
ATOM     39  C   UNL A   1      39.007  25.650  28.672  1.00  0.00     0.010 A 
ATOM     40  C   UNL A   1      39.977  26.629  28.399  1.00  0.00    -0.014 A 
BRANCH  40  41
ATOM     41  C   UNL A   1      40.217  27.803  29.328  1.00  0.00     0.031 A 
ATOM     42  C   UNL A   1      41.499  27.896  30.150  1.00  0.00     0.074 A 
ATOM     43  C   UNL A   1      39.375  28.859  29.414  1.00  0.00     0.049 A 
ATOM     44  N   UNL A   1      41.752  28.613  31.221  1.00  0.00    -0.248 NA
ATOM     45  C   UNL A   1      42.631  27.058  29.730  1.00  0.00     0.031 C 
ATOM     46  C   UNL A   1      38.138  29.041  28.657  1.00  0.00     0.029 A 
ATOM     47  N   UNL A   1      39.454  30.012  30.170  1.00  0.00    -0.354 N 
ATOM     48  C   UNL A   1      43.018  28.223  31.659  1.00  0.00     0.074 A 
ATOM     49  C   UNL A   1      43.494  27.229  30.724  1.00  0.00     0.031 C 
ATOM     50  C   UNL A   1      37.642  30.263  28.889  1.00  0.00     0.029 A 
ATOM     51  C   UNL A   1      38.412  30.886  29.959  1.00  0.00     0.049 A 
ATOM     52  H   UNL A   1      40.186  30.193  30.802  1.00  0.00     0.167 HD
ATOM     53  C   UNL A   1      43.714  28.652  32.742  1.00  0.00     0.037 A 
ATOM     54  C   UNL A   1      38.039  32.015  30.594  1.00  0.00     0.037 A 
ATOM     55  C   UNL A   1      43.316  29.755  33.581  1.00  0.00     0.049 A 
ATOM     56  C   UNL A   1      38.801  32.473  31.801  1.00  0.00     0.074 A 
ATOM     57  C   UNL A   1      43.959  30.267  34.698  1.00  0.00     0.029 A 
ATOM     58  N   UNL A   1      42.205  30.554  33.365  1.00  0.00    -0.354 N 
ATOM     59  N   UNL A   1      39.883  31.964  32.334  1.00  0.00    -0.248 NA
ATOM     60  C   UNL A   1      38.257  33.629  32.528  1.00  0.00     0.031 C 
ATOM     61  C   UNL A   1      43.224  31.361  35.169  1.00  0.00     0.029 A 
ATOM     62  C   UNL A   1      42.144  31.552  34.325  1.00  0.00     0.049 A 
ATOM     63  H   UNL A   1      41.554  30.431  32.636  1.00  0.00     0.167 HD
ATOM     64  C   UNL A   1      40.141  32.723  33.467  1.00  0.00     0.074 A 
ATOM     65  C   UNL A   1      39.121  33.750  33.526  1.00  0.00     0.031 C 
ATOM     66  C   UNL A   1      41.125  32.569  34.385  1.00  0.00     0.037 A 
BRANCH  53  67
ATOM     67  C   UNL A   1      44.965  27.903  33.132  1.00  0.00     0.058 A 
ATOM     68  C   UNL A   1      46.249  28.309  32.745  1.00  0.00     0.135 A 
ATOM     69  C   UNL A   1      44.865  26.797  33.995  1.00  0.00     0.135 A 
ATOM     70  F   UNL A   1      46.409  29.355  31.920  1.00  0.00    -0.206 F 
ATOM     71  C   UNL A   1      47.389  27.635  33.183  1.00  0.00     0.059 A 
ATOM     72  C   UNL A   1      45.990  26.124  34.466  1.00  0.00     0.059 A 
ATOM     73  F   UNL A   1      43.661  26.370  34.410  1.00  0.00    -0.206 F 
ATOM     74  C   UNL A   1      47.249  26.544  34.045  1.00  0.00     0.060 A 
BRANCH  74  75
ATOM     75  S   UNL A   1      48.734  25.697  34.632  1.00  0.00     0.124 S 
ATOM     76  O   UNL A   1      48.160  24.606  35.412  1.00  0.00    -0.237 OA
ATOM     77  O   UNL A   1      49.387  25.307  33.386  1.00  0.00    -0.237 OA
ATOM     78  O   UNL A   1      49.429  26.722  35.404  1.00  0.00    -0.744 OA
ENDBRANCH  74  75
ENDBRANCH  53  67
BRANCH  54  79
ATOM     79  C   UNL A   1      36.800  32.720  30.162  1.00  0.00     0.058 A 
ATOM     80  C   UNL A   1      35.577  32.509  30.812  1.00  0.00     0.135 A 
ATOM     81  C   UNL A   1      36.834  33.661  29.118  1.00  0.00     0.135 A 
ATOM     82  F   UNL A   1      35.486  31.601  31.795  1.00  0.00    -0.206 F 
ATOM     83  C   UNL A   1      34.436  33.225  30.462  1.00  0.00     0.059 A 
ATOM     84  C   UNL A   1      35.717  34.414  28.776  1.00  0.00     0.059 A 
ATOM     85  F   UNL A   1      37.980  33.899  28.462  1.00  0.00    -0.206 F 
ATOM     86  C   UNL A   1      34.520  34.187  29.452  1.00  0.00     0.060 A 
BRANCH  86  87
ATOM     87  S   UNL A   1      33.072  35.198  29.077  1.00  0.00     0.124 S 
ATOM     88  O   UNL A   1      32.392  34.379  28.080  1.00  0.00    -0.237 OA
ATOM     89  O   UNL A   1      32.415  35.300  30.376  1.00  0.00    -0.237 OA
ATOM     90  O   UNL A   1      33.656  36.443  28.583  1.00  0.00    -0.744 OA
ENDBRANCH  86  87
ENDBRANCH  54  79
BRANCH  66  91
ATOM     91  C   UNL A   1      41.158  33.546  35.525  1.00  0.00     0.058 A 
ATOM     92  C   UNL A   1      41.824  34.777  35.414  1.00  0.00     0.135 A 
ATOM     93  C   UNL A   1      40.510  33.256  36.735  1.00  0.00     0.135 A 
ATOM     94  F   UNL A   1      42.467  35.098  34.280  1.00  0.00    -0.206 F 
ATOM     95  C   UNL A   1      41.868  35.675  36.475  1.00  0.00     0.059 A 
ATOM     96  C   UNL A   1      40.525  34.148  37.802  1.00  0.00     0.059 A 
ATOM     97  F   UNL A   1      39.854  32.094  36.889  1.00  0.00    -0.206 F 
ATOM     98  C   UNL A   1      41.221  35.349  37.667  1.00  0.00     0.060 A 
BRANCH  98  99
ATOM     99  S   UNL A   1      41.282  36.523  39.037  1.00  0.00     0.124 S 
ATOM    100  O   UNL A   1      41.078  35.646  40.186  1.00  0.00    -0.237 OA
ATOM    101  O   UNL A   1      42.619  37.094  38.906  1.00  0.00    -0.237 OA
ATOM    102  O   UNL A   1      40.185  37.442  38.747  1.00  0.00    -0.744 OA
ENDBRANCH  98  99
ENDBRANCH  66  91
ENDBRANCH  40  41
ENDBRANCH  33  35
ENDBRANCH  32  33
ENDBRANCH  31  32
ENDBRANCH   1  31
TORSDOF 19
ENDMDL
MODEL 3
REMARK VINA RESULT:     -11.8      4.082     10.392
REMARK SMILES COc1cc(NC(=O)CN2C(=O)c3ccccc3C2=O)c(C(=O)OCCOC(=O)c2ccc(-c3c4nc(c(-c5c(F)cc(S(=O)(=O)[O-])cc5F)c5ccc([nH]5)c(-c5c(F)cc(S(=O)(=O)[O-])cc5F)c5nc(c(-c6c(F)cc(S(=O)(=O)[O-])cc6F)c6ccc3[nH]6)C=C5)C=C4)cc2)cc1OC
REMARK SMILES IDX 25 1 24 2 22 3 23 4 21 5 3 6 4 7 97 8 5 9 96 10 2 11 1 12
REMARK SMILES IDX 98 13 99 14 6 15 7 16 8 18 9 19 10 20 11 21 19 22 12 23
REMARK SMILES IDX 13 24 18 25 20 26 14 27 17 28 15 29 16 30 26 31 27 32 28 33
REMARK SMILES IDX 29 34 30 35 31 36 95 37 32 38 94 39 33 40 34 41 35 42 88 43
REMARK SMILES IDX 36 44 93 45 87 46 89 47 37 48 92 49 86 50 85 51 38 53 72 54
REMARK SMILES IDX 51 55 71 56 52 57 55 58 70 59 90 60 53 61 54 62 69 64 91 65
REMARK SMILES IDX 56 66 39 67 40 68 49 69 41 70 42 71 48 72 50 73 43 74 44 75
REMARK SMILES IDX 45 76 46 77 47 78 73 79 74 80 83 81 75 82 76 83 82 84 84 85
REMARK SMILES IDX 77 86 78 87 79 88 80 89 81 90 57 91 58 92 67 93 59 94 60 95
REMARK SMILES IDX 66 96 68 97 61 98 62 99 63 100 64 101 65 102
REMARK H PARENT 6 17 89 52 55 63
REMARK Flexibility Score: inf
ROOT
ATOM      1  C   UNL A   1      37.635  21.794  24.382  1.00  0.00     0.275 C 
ENDROOT
BRANCH   1   2
ATOM      2  O   UNL A   1      36.255  21.964  24.778  1.00  0.00    -0.458 OA
BRANCH   2   3
ATOM      3  C   UNL A   1      35.437  22.577  23.888  1.00  0.00     0.340 C 
ATOM      4  O   UNL A   1      35.784  23.210  22.905  1.00  0.00    -0.246 OA
BRANCH   3   5
ATOM      5  C   UNL A   1      34.010  22.453  24.280  1.00  0.00     0.087 A 
ATOM      6  C   UNL A   1      31.483  22.113  25.416  1.00  0.00     0.162 A 
ATOM      7  C   UNL A   1      31.941  23.391  25.049  1.00  0.00     0.077 A 
ATOM      8  C   UNL A   1      32.268  20.986  25.163  1.00  0.00     0.161 A 
ATOM      9  C   UNL A   1      33.173  23.586  24.433  1.00  0.00     0.059 A 
ATOM     10  C   UNL A   1      33.543  21.174  24.624  1.00  0.00     0.068 A 
BRANCH   6  11
ATOM     11  O   UNL A   1      30.232  21.973  25.958  1.00  0.00    -0.493 OA
ATOM     12  C   UNL A   1      29.916  22.955  26.945  1.00  0.00     0.278 C 
ENDBRANCH   6  11
BRANCH   8  13
ATOM     13  O   UNL A   1      31.987  19.671  25.410  1.00  0.00    -0.493 OA
ATOM     14  C   UNL A   1      32.766  18.679  24.757  1.00  0.00     0.278 C 
ENDBRANCH   8  13
BRANCH   9  15
ATOM     15  N   UNL A   1      33.594  24.843  23.949  1.00  0.00    -0.324 N 
ATOM     16  C   UNL A   1      33.302  26.150  24.204  1.00  0.00     0.244 C 
ATOM     17  H   UNL A   1      34.275  24.753  23.244  1.00  0.00     0.170 HD
ATOM     18  O   UNL A   1      33.907  26.979  23.517  1.00  0.00    -0.273 OA
BRANCH  16  19
ATOM     19  C   UNL A   1      32.323  26.697  25.228  1.00  0.00     0.229 C 
BRANCH  19  20
ATOM     20  N   UNL A   1      31.304  27.509  24.605  1.00  0.00    -0.265 N 
ATOM     21  C   UNL A   1      30.214  27.003  23.950  1.00  0.00     0.262 C 
ATOM     22  C   UNL A   1      31.388  28.861  24.460  1.00  0.00     0.262 C 
ATOM     23  O   UNL A   1      29.886  25.852  23.760  1.00  0.00    -0.269 OA
ATOM     24  C   UNL A   1      29.416  28.153  23.540  1.00  0.00     0.053 A 
ATOM     25  C   UNL A   1      30.127  29.291  23.873  1.00  0.00     0.053 A 
ATOM     26  O   UNL A   1      32.303  29.611  24.744  1.00  0.00    -0.269 OA
ATOM     27  C   UNL A   1      28.140  28.214  23.021  1.00  0.00     0.015 A 
ATOM     28  C   UNL A   1      29.604  30.557  23.723  1.00  0.00     0.015 A 
ATOM     29  C   UNL A   1      27.581  29.486  22.869  1.00  0.00     0.001 A 
ATOM     30  C   UNL A   1      28.304  30.646  23.222  1.00  0.00     0.001 A 
ENDBRANCH  19  20
ENDBRANCH  16  19
ENDBRANCH   9  15
ENDBRANCH   3   5
ENDBRANCH   2   3
ENDBRANCH   1   2
BRANCH   1  31
ATOM     31  C   UNL A   1      38.424  20.986  25.409  1.00  0.00     0.275 C 
BRANCH  31  32
ATOM     32  O   UNL A   1      38.842  21.851  26.475  1.00  0.00    -0.458 OA
BRANCH  32  33
ATOM     33  C   UNL A   1      40.027  22.485  26.310  1.00  0.00     0.338 C 
ATOM     34  O   UNL A   1      41.037  22.021  25.809  1.00  0.00    -0.246 OA
BRANCH  33  35
ATOM     35  C   UNL A   1      39.921  23.884  26.784  1.00  0.00     0.060 A 
ATOM     36  C   UNL A   1      40.919  24.794  26.475  1.00  0.00     0.016 A 
ATOM     37  C   UNL A   1      38.919  24.251  27.684  1.00  0.00     0.016 A 
ATOM     38  C   UNL A   1      41.013  25.981  27.200  1.00  0.00     0.010 A 
ATOM     39  C   UNL A   1      38.965  25.504  28.323  1.00  0.00     0.010 A 
ATOM     40  C   UNL A   1      40.072  26.356  28.176  1.00  0.00    -0.014 A 
BRANCH  40  41
ATOM     41  C   UNL A   1      40.317  27.523  29.113  1.00  0.00     0.031 A 
ATOM     42  C   UNL A   1      41.597  27.603  29.939  1.00  0.00     0.074 A 
ATOM     43  C   UNL A   1      39.483  28.584  29.202  1.00  0.00     0.049 A 
ATOM     44  N   UNL A   1      41.853  28.312  31.015  1.00  0.00    -0.248 NA
ATOM     45  C   UNL A   1      42.725  26.760  29.518  1.00  0.00     0.031 C 
ATOM     46  C   UNL A   1      38.249  28.779  28.442  1.00  0.00     0.029 A 
ATOM     47  N   UNL A   1      39.567  29.733  29.965  1.00  0.00    -0.354 N 
ATOM     48  C   UNL A   1      43.114  27.911  31.455  1.00  0.00     0.074 A 
ATOM     49  C   UNL A   1      43.587  26.919  30.516  1.00  0.00     0.031 C 
ATOM     50  C   UNL A   1      37.761  30.003  28.680  1.00  0.00     0.029 A 
ATOM     51  C   UNL A   1      38.532  30.615  29.755  1.00  0.00     0.049 A 
ATOM     52  H   UNL A   1      40.299  29.905  30.600  1.00  0.00     0.167 HD
ATOM     53  C   UNL A   1      43.810  28.329  32.542  1.00  0.00     0.037 A 
ATOM     54  C   UNL A   1      38.164  31.743  30.396  1.00  0.00     0.037 A 
ATOM     55  C   UNL A   1      43.417  29.431  33.386  1.00  0.00     0.049 A 
ATOM     56  C   UNL A   1      38.925  32.189  31.608  1.00  0.00     0.074 A 
ATOM     57  C   UNL A   1      44.059  29.932  34.508  1.00  0.00     0.029 A 
ATOM     58  N   UNL A   1      42.312  30.238  33.171  1.00  0.00    -0.354 N 
ATOM     59  N   UNL A   1      40.003  31.669  32.141  1.00  0.00    -0.248 NA
ATOM     60  C   UNL A   1      38.387  33.345  32.340  1.00  0.00     0.031 C 
ATOM     61  C   UNL A   1      43.331  31.028  34.983  1.00  0.00     0.029 A 
ATOM     62  C   UNL A   1      42.254  31.231  34.137  1.00  0.00     0.049 A 
ATOM     63  H   UNL A   1      41.662  30.124  32.440  1.00  0.00     0.167 HD
ATOM     64  C   UNL A   1      40.262  32.420  33.280  1.00  0.00     0.074 A 
ATOM     65  C   UNL A   1      39.249  33.454  33.341  1.00  0.00     0.031 C 
ATOM     66  C   UNL A   1      41.243  32.254  34.200  1.00  0.00     0.037 A 
BRANCH  53  67
ATOM     67  C   UNL A   1      45.054  27.570  32.932  1.00  0.00     0.058 A 
ATOM     68  C   UNL A   1      45.024  26.402  33.708  1.00  0.00     0.135 A 
ATOM     69  C   UNL A   1      46.301  27.987  32.433  1.00  0.00     0.135 A 
ATOM     70  F   UNL A   1      43.865  25.956  34.216  1.00  0.00    -0.206 F 
ATOM     71  C   UNL A   1      46.187  25.686  33.990  1.00  0.00     0.059 A 
ATOM     72  C   UNL A   1      47.471  27.273  32.680  1.00  0.00     0.059 A 
ATOM     73  F   UNL A   1      46.389  29.091  31.673  1.00  0.00    -0.206 F 
ATOM     74  C   UNL A   1      47.406  26.129  33.470  1.00  0.00     0.060 A 
BRANCH  74  75
ATOM     75  S   UNL A   1      48.901  25.174  33.815  1.00  0.00     0.124 S 
ATOM     76  O   UNL A   1      49.420  24.945  32.471  1.00  0.00    -0.237 OA
ATOM     77  O   UNL A   1      49.677  26.092  34.643  1.00  0.00    -0.237 OA
ATOM     78  O   UNL A   1      48.399  23.990  34.505  1.00  0.00    -0.744 OA
ENDBRANCH  74  75
ENDBRANCH  53  67
BRANCH  54  79
ATOM     79  C   UNL A   1      36.931  32.459  29.964  1.00  0.00     0.058 A 
ATOM     80  C   UNL A   1      35.680  32.150  30.512  1.00  0.00     0.135 A 
ATOM     81  C   UNL A   1      36.997  33.506  29.029  1.00  0.00     0.135 A 
ATOM     82  F   UNL A   1      35.559  31.140  31.387  1.00  0.00    -0.206 F 
ATOM     83  C   UNL A   1      34.539  32.870  30.169  1.00  0.00     0.059 A 
ATOM     84  C   UNL A   1      35.880  34.263  28.699  1.00  0.00     0.059 A 
ATOM     85  F   UNL A   1      38.172  33.841  28.473  1.00  0.00    -0.206 F 
ATOM     86  C   UNL A   1      34.653  33.936  29.272  1.00  0.00     0.060 A 
BRANCH  86  87
ATOM     87  S   UNL A   1      33.199  34.944  28.916  1.00  0.00     0.124 S 
ATOM     88  O   UNL A   1      33.808  36.181  28.441  1.00  0.00    -0.237 OA
ATOM     89  O   UNL A   1      32.502  34.148  27.910  1.00  0.00    -0.237 OA
ATOM     90  O   UNL A   1      32.526  35.026  30.210  1.00  0.00    -0.744 OA
ENDBRANCH  86  87
ENDBRANCH  54  79
BRANCH  66  91
ATOM     91  C   UNL A   1      41.278  33.224  35.345  1.00  0.00     0.058 A 
ATOM     92  C   UNL A   1      40.605  32.961  36.549  1.00  0.00     0.135 A 
ATOM     93  C   UNL A   1      42.000  34.424  35.245  1.00  0.00     0.135 A 
ATOM     94  F   UNL A   1      39.893  31.832  36.692  1.00  0.00    -0.206 F 
ATOM     95  C   UNL A   1      40.625  33.866  37.604  1.00  0.00     0.059 A 
ATOM     96  C   UNL A   1      42.049  35.335  36.295  1.00  0.00     0.059 A 
ATOM     97  F   UNL A   1      42.666  34.720  34.117  1.00  0.00    -0.206 F 
ATOM     98  C   UNL A   1      41.345  35.054  37.465  1.00  0.00     0.060 A 
BRANCH  98  99
ATOM     99  S   UNL A   1      41.367  36.222  38.842  1.00  0.00     0.124 S 
ATOM    100  O   UNL A   1      42.732  36.734  38.771  1.00  0.00    -0.237 OA
ATOM    101  O   UNL A   1      40.316  37.166  38.473  1.00  0.00    -0.237 OA
ATOM    102  O   UNL A   1      41.069  35.386  40.001  1.00  0.00    -0.744 OA
ENDBRANCH  98  99
ENDBRANCH  66  91
ENDBRANCH  40  41
ENDBRANCH  33  35
ENDBRANCH  32  33
ENDBRANCH  31  32
ENDBRANCH   1  31
TORSDOF 19
ENDMDL
