MODEL 1
REMARK VINA RESULT:     -13.0      0.000      0.000
REMARK SMILES CCN1C(=O)C[C@@H](C(=O)Nc2cccc(C(=O)OCCOC(=O)c3ccc(-c4c5nc(c(-c6c(F)cc(S(=O)(=O)[O-])cc6F)c6ccc([nH]6)c(-c6c(F)cc(S(=O)(=O)[O-])cc6F)c6nc(c(-c7c(F)cc(S(=O)(=O)[O-])cc7F)c7ccc4[nH]7)C=C6)C=C5)cc3)c2)S/C1=[NH+]/c1ccccc1
REMARK SMILES IDX 19 1 18 2 16 3 17 4 15 5 11 6 12 7 90 8 13 9 14 10 10 11
REMARK SMILES IDX 8 12 9 13 7 15 3 16 4 17 92 18 5 19 6 20 91 21 93 22 2 24
REMARK SMILES IDX 1 25 94 26 95 27 99 28 96 29 98 30 97 31 20 32 21 33 22 34
REMARK SMILES IDX 23 35 24 36 25 37 89 38 26 39 88 40 27 41 28 42 29 43 82 44
REMARK SMILES IDX 30 45 87 46 81 47 83 48 31 49 86 50 80 51 79 52 32 54 66 55
REMARK SMILES IDX 45 56 65 57 46 58 49 59 64 60 84 61 47 62 48 63 63 65 85 66
REMARK SMILES IDX 50 67 33 68 34 69 43 70 35 71 36 72 42 73 44 74 37 75 38 76
REMARK SMILES IDX 39 77 40 78 41 79 67 80 68 81 77 82 69 83 70 84 76 85 78 86
REMARK SMILES IDX 71 87 72 88 73 89 74 90 75 91 51 92 52 93 61 94 53 95 54 96
REMARK SMILES IDX 60 97 62 98 55 99 56 100 57 101 58 102 59 103
REMARK H PARENT 10 14 93 23 83 53 49 64
REMARK Flexibility Score: inf
ROOT
ATOM      1  C   UNL A   1      39.822  21.201  26.220  1.00  0.00     0.275 C 
ENDROOT
BRANCH   1   2
ATOM      2  O   UNL A   1      38.647  21.815  25.655  1.00  0.00    -0.458 OA
BRANCH   2   3
ATOM      3  C   UNL A   1      37.745  20.981  25.089  1.00  0.00     0.338 C 
ATOM      4  O   UNL A   1      37.900  19.791  24.861  1.00  0.00    -0.246 OA
BRANCH   3   5
ATOM      5  C   UNL A   1      36.493  21.701  24.740  1.00  0.00     0.062 A 
ATOM      6  C   UNL A   1      34.278  22.462  25.325  1.00  0.00     0.042 A 
ATOM      7  C   UNL A   1      34.195  23.176  24.128  1.00  0.00     0.026 A 
ATOM      8  C   UNL A   1      35.370  21.634  25.564  1.00  0.00     0.041 A 
ATOM      9  C   UNL A   1      35.299  23.221  23.277  1.00  0.00     0.003 A 
ATOM     10  C   UNL A   1      36.467  22.536  23.616  1.00  0.00     0.016 A 
BRANCH   6  11
ATOM     11  N   UNL A   1      33.288  22.676  26.290  1.00  0.00    -0.325 N 
ATOM     12  C   UNL A   1      32.478  23.766  26.494  1.00  0.00     0.238 C 
ATOM     13  O   UNL A   1      31.730  23.725  27.482  1.00  0.00    -0.273 OA
ATOM     14  H   UNL A   1      33.152  21.932  26.920  1.00  0.00     0.169 HD
BRANCH  12  15
ATOM     15  C   UNL A   1      32.372  24.958  25.517  1.00  0.00     0.160 C 
ATOM     16  N   UNL A   1      31.569  27.762  24.988  1.00  0.00    -0.191 N 
ATOM     17  C   UNL A   1      32.881  27.332  25.014  1.00  0.00     0.311 C 
ATOM     18  C   UNL A   1      30.571  26.902  24.552  1.00  0.00     0.319 C 
ATOM     19  O   UNL A   1      33.793  27.865  24.388  1.00  0.00    -0.247 OA
ATOM     20  C   UNL A   1      33.136  26.186  25.943  1.00  0.00     0.153 C 
ATOM     21  S   UNL A   1      30.666  25.207  25.005  1.00  0.00    -0.024 SA
ATOM     22  N   UNL A   1      29.511  27.153  23.852  1.00  0.00    -0.235 N 
ATOM     23  H   UNL A   1      28.817  26.454  23.819  1.00  0.00     0.313 HD
BRANCH  16  24
ATOM     24  C   UNL A   1      31.292  29.181  25.267  1.00  0.00     0.243 C 
ATOM     25  C   UNL A   1      31.830  29.762  26.569  1.00  0.00     0.054 C 
ENDBRANCH  16  24
BRANCH  22  26
ATOM     26  C   UNL A   1      29.268  28.328  23.142  1.00  0.00     0.125 A 
ATOM     27  C   UNL A   1      27.998  28.907  23.191  1.00  0.00     0.051 A 
ATOM     28  C   UNL A   1      30.227  28.878  22.281  1.00  0.00     0.051 A 
ATOM     29  C   UNL A   1      27.707  30.052  22.446  1.00  0.00     0.004 A 
ATOM     30  C   UNL A   1      29.948  30.036  21.552  1.00  0.00     0.004 A 
ATOM     31  C   UNL A   1      28.687  30.623  21.637  1.00  0.00     0.000 A 
ENDBRANCH  22  26
ENDBRANCH  12  15
ENDBRANCH   6  11
ENDBRANCH   3   5
ENDBRANCH   2   3
ENDBRANCH   1   2
BRANCH   1  32
ATOM     32  C   UNL A   1      40.902  22.234  26.540  1.00  0.00     0.275 C 
BRANCH  32  33
ATOM     33  O   UNL A   1      40.337  23.553  26.636  1.00  0.00    -0.458 OA
BRANCH  33  34
ATOM     34  C   UNL A   1      41.220  24.569  26.513  1.00  0.00     0.338 C 
ATOM     35  O   UNL A   1      42.123  24.676  25.696  1.00  0.00    -0.246 OA
BRANCH  34  36
ATOM     36  C   UNL A   1      40.847  25.651  27.432  1.00  0.00     0.060 A 
ATOM     37  C   UNL A   1      41.623  26.808  27.398  1.00  0.00     0.016 A 
ATOM     38  C   UNL A   1      39.849  25.500  28.390  1.00  0.00     0.016 A 
ATOM     39  C   UNL A   1      41.426  27.823  28.323  1.00  0.00     0.010 A 
ATOM     40  C   UNL A   1      39.640  26.527  29.321  1.00  0.00     0.010 A 
ATOM     41  C   UNL A   1      40.442  27.685  29.305  1.00  0.00    -0.014 A 
BRANCH  41  42
ATOM     42  C   UNL A   1      40.363  28.697  30.386  1.00  0.00     0.031 A 
ATOM     43  C   UNL A   1      41.366  28.652  31.503  1.00  0.00     0.074 A 
ATOM     44  C   UNL A   1      39.463  29.696  30.323  1.00  0.00     0.049 A 
ATOM     45  N   UNL A   1      41.415  29.361  32.600  1.00  0.00    -0.248 NA
ATOM     46  C   UNL A   1      42.461  27.676  31.366  1.00  0.00     0.031 C 
ATOM     47  C   UNL A   1      38.498  29.900  29.242  1.00  0.00     0.029 A 
ATOM     48  N   UNL A   1      39.223  30.737  31.184  1.00  0.00    -0.354 N 
ATOM     49  C   UNL A   1      42.512  28.884  33.308  1.00  0.00     0.074 A 
ATOM     50  C   UNL A   1      43.107  27.831  32.512  1.00  0.00     0.031 C 
ATOM     51  C   UNL A   1      37.781  31.008  29.497  1.00  0.00     0.029 A 
ATOM     52  C   UNL A   1      38.194  31.557  30.785  1.00  0.00     0.049 A 
ATOM     53  H   UNL A   1      39.740  30.883  32.010  1.00  0.00     0.167 HD
ATOM     54  C   UNL A   1      42.973  29.284  34.516  1.00  0.00     0.037 A 
ATOM     55  C   UNL A   1      37.629  32.610  31.406  1.00  0.00     0.037 A 
ATOM     56  C   UNL A   1      42.399  30.360  35.280  1.00  0.00     0.049 A 
ATOM     57  C   UNL A   1      38.146  33.026  32.757  1.00  0.00     0.074 A 
ATOM     58  C   UNL A   1      42.769  30.826  36.529  1.00  0.00     0.029 A 
ATOM     59  N   UNL A   1      41.343  31.152  34.853  1.00  0.00    -0.354 N 
ATOM     60  N   UNL A   1      39.128  32.510  33.457  1.00  0.00    -0.248 NA
ATOM     61  C   UNL A   1      37.470  34.156  33.409  1.00  0.00     0.031 C 
ATOM     62  C   UNL A   1      41.924  31.890  36.865  1.00  0.00     0.029 A 
ATOM     63  C   UNL A   1      41.050  32.106  35.812  1.00  0.00     0.049 A 
ATOM     64  H   UNL A   1      40.872  31.050  33.995  1.00  0.00     0.167 HD
ATOM     65  C   UNL A   1      39.193  33.256  34.627  1.00  0.00     0.074 A 
ATOM     66  C   UNL A   1      38.163  34.271  34.533  1.00  0.00     0.031 C 
ATOM     67  C   UNL A   1      40.024  33.111  35.690  1.00  0.00     0.037 A 
BRANCH  54  68
ATOM     68  C   UNL A   1      44.123  28.517  35.102  1.00  0.00     0.058 A 
ATOM     69  C   UNL A   1      45.458  28.884  34.872  1.00  0.00     0.135 A 
ATOM     70  C   UNL A   1      43.881  27.393  35.907  1.00  0.00     0.135 A 
ATOM     71  F   UNL A   1      45.744  29.936  34.089  1.00  0.00    -0.206 F 
ATOM     72  C   UNL A   1      46.515  28.146  35.399  1.00  0.00     0.059 A 
ATOM     73  C   UNL A   1      44.921  26.653  36.462  1.00  0.00     0.059 A 
ATOM     74  F   UNL A   1      42.623  26.996  36.153  1.00  0.00    -0.206 F 
ATOM     75  C   UNL A   1      46.235  27.029  36.187  1.00  0.00     0.060 A 
BRANCH  75  76
ATOM     76  S   UNL A   1      47.611  26.070  36.856  1.00  0.00     0.124 S 
ATOM     77  O   UNL A   1      48.570  26.135  35.758  1.00  0.00    -0.237 OA
ATOM     78  O   UNL A   1      47.969  26.823  38.054  1.00  0.00    -0.237 OA
ATOM     79  O   UNL A   1      47.022  24.757  37.099  1.00  0.00    -0.744 OA
ENDBRANCH  75  76
ENDBRANCH  54  68
BRANCH  55  80
ATOM     80  C   UNL A   1      36.488  33.321  30.771  1.00  0.00     0.058 A 
ATOM     81  C   UNL A   1      35.183  33.182  31.263  1.00  0.00     0.135 A 
ATOM     82  C   UNL A   1      36.685  34.163  29.666  1.00  0.00     0.135 A 
ATOM     83  F   UNL A   1      34.942  32.379  32.310  1.00  0.00    -0.206 F 
ATOM     84  C   UNL A   1      34.110  33.851  30.681  1.00  0.00     0.059 A 
ATOM     85  C   UNL A   1      35.634  34.861  29.081  1.00  0.00     0.059 A 
ATOM     86  F   UNL A   1      37.918  34.336  29.163  1.00  0.00    -0.206 F 
ATOM     87  C   UNL A   1      34.347  34.691  29.591  1.00  0.00     0.060 A 
BRANCH  87  88
ATOM     88  S   UNL A   1      32.964  35.609  28.878  1.00  0.00     0.124 S 
ATOM     89  O   UNL A   1      32.334  34.590  28.047  1.00  0.00    -0.237 OA
ATOM     90  O   UNL A   1      32.218  36.019  30.064  1.00  0.00    -0.237 OA
ATOM     91  O   UNL A   1      33.622  36.695  28.158  1.00  0.00    -0.744 OA
ENDBRANCH  87  88
ENDBRANCH  55  80
BRANCH  67  92
ATOM     92  C   UNL A   1      39.872  34.091  36.816  1.00  0.00     0.058 A 
ATOM     93  C   UNL A   1      40.595  35.293  36.844  1.00  0.00     0.135 A 
ATOM     94  C   UNL A   1      38.964  33.841  37.857  1.00  0.00     0.135 A 
ATOM     95  F   UNL A   1      41.479  35.573  35.874  1.00  0.00    -0.206 F 
ATOM     96  C   UNL A   1      40.439  36.208  37.880  1.00  0.00     0.059 A 
ATOM     97  C   UNL A   1      38.777  34.751  38.892  1.00  0.00     0.059 A 
ATOM     98  F   UNL A   1      38.242  32.709  37.868  1.00  0.00    -0.206 F 
ATOM     99  C   UNL A   1      39.529  35.925  38.902  1.00  0.00     0.060 A 
BRANCH  99 100
ATOM    100  S   UNL A   1      39.313  37.128  40.232  1.00  0.00     0.124 S 
ATOM    101  O   UNL A   1      38.548  38.172  39.559  1.00  0.00    -0.237 OA
ATOM    102  O   UNL A   1      38.590  36.360  41.240  1.00  0.00    -0.237 OA
ATOM    103  O   UNL A   1      40.684  37.483  40.588  1.00  0.00    -0.744 OA
ENDBRANCH  99 100
ENDBRANCH  67  92
ENDBRANCH  41  42
ENDBRANCH  34  36
ENDBRANCH  33  34
ENDBRANCH  32  33
ENDBRANCH   1  32
TORSDOF 18
ENDMDL
MODEL 2
REMARK VINA RESULT:     -12.5      0.804      8.013
REMARK SMILES CCN1C(=O)C[C@@H](C(=O)Nc2cccc(C(=O)OCCOC(=O)c3ccc(-c4c5nc(c(-c6c(F)cc(S(=O)(=O)[O-])cc6F)c6ccc([nH]6)c(-c6c(F)cc(S(=O)(=O)[O-])cc6F)c6nc(c(-c7c(F)cc(S(=O)(=O)[O-])cc7F)c7ccc4[nH]7)C=C6)C=C5)cc3)c2)S/C1=[NH+]/c1ccccc1
REMARK SMILES IDX 19 1 18 2 16 3 17 4 15 5 11 6 12 7 90 8 13 9 14 10 10 11
REMARK SMILES IDX 8 12 9 13 7 15 3 16 4 17 92 18 5 19 6 20 91 21 93 22 2 24
REMARK SMILES IDX 1 25 94 26 95 27 99 28 96 29 98 30 97 31 20 32 21 33 22 34
REMARK SMILES IDX 23 35 24 36 25 37 89 38 26 39 88 40 27 41 28 42 29 43 82 44
REMARK SMILES IDX 30 45 87 46 81 47 83 48 31 49 86 50 80 51 79 52 32 54 66 55
REMARK SMILES IDX 45 56 65 57 46 58 49 59 64 60 84 61 47 62 48 63 63 65 85 66
REMARK SMILES IDX 50 67 33 68 34 69 43 70 35 71 36 72 42 73 44 74 37 75 38 76
REMARK SMILES IDX 39 77 40 78 41 79 67 80 68 81 77 82 69 83 70 84 76 85 78 86
REMARK SMILES IDX 71 87 72 88 73 89 74 90 75 91 51 92 52 93 61 94 53 95 54 96
REMARK SMILES IDX 60 97 62 98 55 99 56 100 57 101 58 102 59 103
REMARK H PARENT 10 14 93 23 83 53 49 64
REMARK Flexibility Score: inf
ROOT
ATOM      1  C   UNL A   1      39.717  22.025  26.432  1.00  0.00     0.275 C 
ENDROOT
BRANCH   1   2
ATOM      2  O   UNL A   1      38.526  22.425  25.726  1.00  0.00    -0.458 OA
BRANCH   2   3
ATOM      3  C   UNL A   1      37.793  21.433  25.172  1.00  0.00     0.338 C 
ATOM      4  O   UNL A   1      38.147  20.277  25.001  1.00  0.00    -0.246 OA
BRANCH   3   5
ATOM      5  C   UNL A   1      36.453  21.923  24.758  1.00  0.00     0.062 A 
ATOM      6  C   UNL A   1      34.156  22.448  25.284  1.00  0.00     0.042 A 
ATOM      7  C   UNL A   1      33.972  22.977  24.006  1.00  0.00     0.026 A 
ATOM      8  C   UNL A   1      35.353  21.816  25.608  1.00  0.00     0.041 A 
ATOM      9  C   UNL A   1      35.057  23.056  23.132  1.00  0.00     0.003 A 
ATOM     10  C   UNL A   1      36.309  22.588  23.534  1.00  0.00     0.016 A 
BRANCH   6  11
ATOM     11  N   UNL A   1      33.149  22.654  26.234  1.00  0.00    -0.325 N 
ATOM     12  C   UNL A   1      32.317  23.730  26.416  1.00  0.00     0.238 C 
ATOM     13  O   UNL A   1      31.557  23.686  27.393  1.00  0.00    -0.273 OA
ATOM     14  H   UNL A   1      33.018  21.913  26.869  1.00  0.00     0.169 HD
BRANCH  12  15
ATOM     15  C   UNL A   1      32.203  24.911  25.425  1.00  0.00     0.160 C 
ATOM     16  N   UNL A   1      31.455  27.728  24.885  1.00  0.00    -0.191 N 
ATOM     17  C   UNL A   1      32.754  27.262  24.865  1.00  0.00     0.311 C 
ATOM     18  C   UNL A   1      30.417  26.890  24.504  1.00  0.00     0.319 C 
ATOM     19  O   UNL A   1      33.654  27.761  24.194  1.00  0.00    -0.247 OA
ATOM     20  C   UNL A   1      33.016  26.124  25.801  1.00  0.00     0.153 C 
ATOM     21  S   UNL A   1      30.485  25.200  24.979  1.00  0.00    -0.024 SA
ATOM     22  N   UNL A   1      29.336  27.159  23.844  1.00  0.00    -0.235 N 
ATOM     23  H   UNL A   1      28.623  26.479  23.850  1.00  0.00     0.313 HD
BRANCH  16  24
ATOM     24  C   UNL A   1      31.227  29.158  25.153  1.00  0.00     0.243 C 
ATOM     25  C   UNL A   1      31.778  29.728  26.455  1.00  0.00     0.054 C 
ENDBRANCH  16  24
BRANCH  22  26
ATOM     26  C   UNL A   1      29.095  28.330  23.126  1.00  0.00     0.125 A 
ATOM     27  C   UNL A   1      30.102  28.854  22.313  1.00  0.00     0.051 A 
ATOM     28  C   UNL A   1      27.913  29.064  23.293  1.00  0.00     0.051 A 
ATOM     29  C   UNL A   1      29.911  30.055  21.626  1.00  0.00     0.004 A 
ATOM     30  C   UNL A   1      27.709  30.253  22.590  1.00  0.00     0.004 A 
ATOM     31  C   UNL A   1      28.709  30.747  21.755  1.00  0.00     0.000 A 
ENDBRANCH  22  26
ENDBRANCH  12  15
ENDBRANCH   6  11
ENDBRANCH   3   5
ENDBRANCH   2   3
ENDBRANCH   1   2
BRANCH   1  32
ATOM     32  C   UNL A   1      40.583  23.227  26.808  1.00  0.00     0.275 C 
BRANCH  32  33
ATOM     33  O   UNL A   1      39.872  24.458  26.593  1.00  0.00    -0.458 OA
BRANCH  33  34
ATOM     34  C   UNL A   1      40.649  25.546  26.393  1.00  0.00     0.338 C 
ATOM     35  O   UNL A   1      41.084  25.965  25.331  1.00  0.00    -0.246 OA
BRANCH  34  36
ATOM     36  C   UNL A   1      40.787  26.283  27.655  1.00  0.00     0.060 A 
ATOM     37  C   UNL A   1      39.782  26.112  28.604  1.00  0.00     0.016 A 
ATOM     38  C   UNL A   1      41.801  27.213  27.864  1.00  0.00     0.016 A 
ATOM     39  C   UNL A   1      39.763  26.872  29.765  1.00  0.00     0.010 A 
ATOM     40  C   UNL A   1      41.792  27.976  29.039  1.00  0.00     0.010 A 
ATOM     41  C   UNL A   1      40.760  27.824  29.986  1.00  0.00    -0.014 A 
BRANCH  41  42
ATOM     42  C   UNL A   1      40.628  28.743  31.142  1.00  0.00     0.031 A 
ATOM     43  C   UNL A   1      39.556  29.795  31.121  1.00  0.00     0.074 A 
ATOM     44  C   UNL A   1      41.398  28.582  32.235  1.00  0.00     0.049 A 
ATOM     45  N   UNL A   1      39.334  30.768  31.965  1.00  0.00    -0.248 NA
ATOM     46  C   UNL A   1      38.606  29.744  29.996  1.00  0.00     0.031 C 
ATOM     47  C   UNL A   1      42.410  27.539  32.413  1.00  0.00     0.029 A 
ATOM     48  N   UNL A   1      41.438  29.289  33.410  1.00  0.00    -0.354 N 
ATOM     49  C   UNL A   1      38.255  31.476  31.448  1.00  0.00     0.074 A 
ATOM     50  C   UNL A   1      37.860  30.814  30.223  1.00  0.00     0.031 C 
ATOM     51  C   UNL A   1      42.960  27.665  33.633  1.00  0.00     0.029 A 
ATOM     52  C   UNL A   1      42.383  28.830  34.298  1.00  0.00     0.049 A 
ATOM     53  H   UNL A   1      40.845  30.052  33.601  1.00  0.00     0.167 HD
ATOM     54  C   UNL A   1      37.656  32.581  31.950  1.00  0.00     0.037 A 
ATOM     55  C   UNL A   1      42.761  29.317  35.495  1.00  0.00     0.037 A 
ATOM     56  C   UNL A   1      38.030  33.205  33.191  1.00  0.00     0.049 A 
ATOM     57  C   UNL A   1      42.094  30.557  36.025  1.00  0.00     0.074 A 
ATOM     58  C   UNL A   1      37.509  34.346  33.775  1.00  0.00     0.029 A 
ATOM     59  N   UNL A   1      39.007  32.725  34.051  1.00  0.00    -0.354 N 
ATOM     60  N   UNL A   1      41.134  31.270  35.485  1.00  0.00    -0.248 NA
ATOM     61  C   UNL A   1      42.571  31.069  37.317  1.00  0.00     0.031 C 
ATOM     62  C   UNL A   1      38.186  34.567  34.981  1.00  0.00     0.029 A 
ATOM     63  C   UNL A   1      39.104  33.544  35.162  1.00  0.00     0.049 A 
ATOM     64  H   UNL A   1      39.551  31.921  33.893  1.00  0.00     0.167 HD
ATOM     65  C   UNL A   1      40.886  32.309  36.373  1.00  0.00     0.074 A 
ATOM     66  C   UNL A   1      41.784  32.122  37.495  1.00  0.00     0.031 C 
ATOM     67  C   UNL A   1      40.001  33.331  36.269  1.00  0.00     0.037 A 
BRANCH  54  68
ATOM     68  C   UNL A   1      36.570  33.209  31.124  1.00  0.00     0.058 A 
ATOM     69  C   UNL A   1      35.214  33.094  31.465  1.00  0.00     0.135 A 
ATOM     70  C   UNL A   1      36.897  33.938  29.970  1.00  0.00     0.135 A 
ATOM     71  F   UNL A   1      34.847  32.385  32.545  1.00  0.00    -0.206 F 
ATOM     72  C   UNL A   1      34.216  33.657  30.675  1.00  0.00     0.059 A 
ATOM     73  C   UNL A   1      35.918  34.528  29.177  1.00  0.00     0.059 A 
ATOM     74  F   UNL A   1      38.179  34.074  29.596  1.00  0.00    -0.206 F 
ATOM     75  C   UNL A   1      34.579  34.367  29.529  1.00  0.00     0.060 A 
BRANCH  75  76
ATOM     76  S   UNL A   1      33.278  35.085  28.502  1.00  0.00     0.124 S 
ATOM     77  O   UNL A   1      34.062  35.824  27.517  1.00  0.00    -0.237 OA
ATOM     78  O   UNL A   1      32.583  33.904  28.001  1.00  0.00    -0.237 OA
ATOM     79  O   UNL A   1      32.519  35.903  29.442  1.00  0.00    -0.744 OA
ENDBRANCH  75  76
ENDBRANCH  54  68
BRANCH  55  80
ATOM     80  C   UNL A   1      43.849  28.648  36.257  1.00  0.00     0.058 A 
ATOM     81  C   UNL A   1      45.158  29.152  36.246  1.00  0.00     0.135 A 
ATOM     82  C   UNL A   1      43.596  27.499  37.021  1.00  0.00     0.135 A 
ATOM     83  F   UNL A   1      45.451  30.242  35.521  1.00  0.00    -0.206 F 
ATOM     84  C   UNL A   1      46.180  28.538  36.964  1.00  0.00     0.059 A 
ATOM     85  C   UNL A   1      44.596  26.880  37.765  1.00  0.00     0.059 A 
ATOM     86  F   UNL A   1      42.358  26.983  37.070  1.00  0.00    -0.206 F 
ATOM     87  C   UNL A   1      45.888  27.403  37.724  1.00  0.00     0.060 A 
BRANCH  87  88
ATOM     88  S   UNL A   1      47.201  26.646  38.706  1.00  0.00     0.124 S 
ATOM     89  O   UNL A   1      47.114  25.253  38.287  1.00  0.00    -0.237 OA
ATOM     90  O   UNL A   1      48.384  27.376  38.258  1.00  0.00    -0.237 OA
ATOM     91  O   UNL A   1      46.790  26.922  40.080  1.00  0.00    -0.744 OA
ENDBRANCH  87  88
ENDBRANCH  55  80
BRANCH  67  92
ATOM     92  C   UNL A   1      39.942  34.303  37.410  1.00  0.00     0.058 A 
ATOM     93  C   UNL A   1      40.746  35.454  37.436  1.00  0.00     0.135 A 
ATOM     94  C   UNL A   1      39.044  34.101  38.470  1.00  0.00     0.135 A 
ATOM     95  F   UNL A   1      41.624  35.686  36.448  1.00  0.00    -0.206 F 
ATOM     96  C   UNL A   1      40.676  36.362  38.487  1.00  0.00     0.059 A 
ATOM     97  C   UNL A   1      38.944  35.007  39.521  1.00  0.00     0.059 A 
ATOM     98  F   UNL A   1      38.247  33.020  38.484  1.00  0.00    -0.206 F 
ATOM     99  C   UNL A   1      39.773  36.127  39.527  1.00  0.00     0.060 A 
BRANCH  99 100
ATOM    100  S   UNL A   1      39.671  37.323  40.876  1.00  0.00     0.124 S 
ATOM    101  O   UNL A   1      41.064  37.737  41.004  1.00  0.00    -0.237 OA
ATOM    102  O   UNL A   1      38.757  38.327  40.342  1.00  0.00    -0.237 OA
ATOM    103  O   UNL A   1      39.144  36.533  41.986  1.00  0.00    -0.744 OA
ENDBRANCH  99 100
ENDBRANCH  67  92
ENDBRANCH  41  42
ENDBRANCH  34  36
ENDBRANCH  33  34
ENDBRANCH  32  33
ENDBRANCH   1  32
TORSDOF 18
ENDMDL
MODEL 3
REMARK VINA RESULT:     -12.5      6.508     11.825
REMARK SMILES CCN1C(=O)C[C@@H](C(=O)Nc2cccc(C(=O)OCCOC(=O)c3ccc(-c4c5nc(c(-c6c(F)cc(S(=O)(=O)[O-])cc6F)c6ccc([nH]6)c(-c6c(F)cc(S(=O)(=O)[O-])cc6F)c6nc(c(-c7c(F)cc(S(=O)(=O)[O-])cc7F)c7ccc4[nH]7)C=C6)C=C5)cc3)c2)S/C1=[NH+]/c1ccccc1
REMARK SMILES IDX 19 1 18 2 16 3 17 4 15 5 11 6 12 7 90 8 13 9 14 10 10 11
REMARK SMILES IDX 8 12 9 13 7 15 3 16 4 17 92 18 5 19 6 20 91 21 93 22 2 24
REMARK SMILES IDX 1 25 94 26 95 27 99 28 96 29 98 30 97 31 20 32 21 33 22 34
REMARK SMILES IDX 23 35 24 36 25 37 89 38 26 39 88 40 27 41 28 42 29 43 82 44
REMARK SMILES IDX 30 45 87 46 81 47 83 48 31 49 86 50 80 51 79 52 32 54 66 55
REMARK SMILES IDX 45 56 65 57 46 58 49 59 64 60 84 61 47 62 48 63 63 65 85 66
REMARK SMILES IDX 50 67 33 68 34 69 43 70 35 71 36 72 42 73 44 74 37 75 38 76
REMARK SMILES IDX 39 77 40 78 41 79 67 80 68 81 77 82 69 83 70 84 76 85 78 86
REMARK SMILES IDX 71 87 72 88 73 89 74 90 75 91 51 92 52 93 61 94 53 95 54 96
REMARK SMILES IDX 60 97 62 98 55 99 56 100 57 101 58 102 59 103
REMARK H PARENT 10 14 93 23 83 53 49 64
REMARK Flexibility Score: inf
ROOT
ATOM      1  C   UNL A   1      34.634  31.416  28.021  1.00  0.00     0.275 C 
ENDROOT
BRANCH   1   2
ATOM      2  O   UNL A   1      33.762  30.284  27.830  1.00  0.00    -0.458 OA
BRANCH   2   3
ATOM      3  C   UNL A   1      34.308  29.197  27.237  1.00  0.00     0.338 C 
ATOM      4  O   UNL A   1      35.473  28.837  27.313  1.00  0.00    -0.246 OA
BRANCH   3   5
ATOM      5  C   UNL A   1      33.299  28.462  26.434  1.00  0.00     0.062 A 
ATOM      6  C   UNL A   1      32.626  27.401  24.372  1.00  0.00     0.042 A 
ATOM      7  C   UNL A   1      31.447  26.957  24.972  1.00  0.00     0.026 A 
ATOM      8  C   UNL A   1      33.481  28.250  25.067  1.00  0.00     0.041 A 
ATOM      9  C   UNL A   1      31.235  27.194  26.330  1.00  0.00     0.003 A 
ATOM     10  C   UNL A   1      32.191  27.890  27.072  1.00  0.00     0.016 A 
BRANCH   6  11
ATOM     11  N   UNL A   1      32.953  26.897  23.108  1.00  0.00    -0.325 N 
ATOM     12  C   UNL A   1      33.326  25.629  22.735  1.00  0.00     0.238 C 
ATOM     13  O   UNL A   1      33.638  25.469  21.546  1.00  0.00    -0.273 OA
ATOM     14  H   UNL A   1      32.909  27.551  22.374  1.00  0.00     0.169 HD
BRANCH  12  15
ATOM     15  C   UNL A   1      33.269  24.402  23.671  1.00  0.00     0.160 C 
ATOM     16  N   UNL A   1      34.398  21.804  24.548  1.00  0.00    -0.191 N 
ATOM     17  C   UNL A   1      34.410  22.946  25.323  1.00  0.00     0.311 C 
ATOM     18  C   UNL A   1      33.351  21.582  23.665  1.00  0.00     0.319 C 
ATOM     19  O   UNL A   1      34.422  22.945  26.551  1.00  0.00    -0.247 OA
ATOM     20  C   UNL A   1      34.487  24.221  24.543  1.00  0.00     0.153 C 
ATOM     21  S   UNL A   1      32.697  22.950  22.777  1.00  0.00    -0.024 SA
ATOM     22  N   UNL A   1      32.758  20.476  23.348  1.00  0.00    -0.235 N 
ATOM     23  H   UNL A   1      32.177  20.488  22.551  1.00  0.00     0.313 HD
BRANCH  16  24
ATOM     24  C   UNL A   1      35.418  20.773  24.805  1.00  0.00     0.243 C 
ATOM     25  C   UNL A   1      36.881  21.185  24.696  1.00  0.00     0.054 C 
ENDBRANCH  16  24
BRANCH  22  26
ATOM     26  C   UNL A   1      32.870  19.269  24.036  1.00  0.00     0.125 A 
ATOM     27  C   UNL A   1      32.549  19.223  25.394  1.00  0.00     0.051 A 
ATOM     28  C   UNL A   1      33.415  18.127  23.433  1.00  0.00     0.051 A 
ATOM     29  C   UNL A   1      32.706  18.042  26.124  1.00  0.00     0.004 A 
ATOM     30  C   UNL A   1      33.552  16.939  24.153  1.00  0.00     0.004 A 
ATOM     31  C   UNL A   1      33.195  16.897  25.499  1.00  0.00     0.000 A 
ENDBRANCH  22  26
ENDBRANCH  12  15
ENDBRANCH   6  11
ENDBRANCH   3   5
ENDBRANCH   2   3
ENDBRANCH   1   2
BRANCH   1  32
ATOM     32  C   UNL A   1      34.969  31.630  29.497  1.00  0.00     0.275 C 
BRANCH  32  33
ATOM     33  O   UNL A   1      36.392  31.611  29.708  1.00  0.00    -0.458 OA
BRANCH  33  34
ATOM     34  C   UNL A   1      36.896  30.432  30.135  1.00  0.00     0.338 C 
ATOM     35  O   UNL A   1      36.284  29.494  30.626  1.00  0.00    -0.246 OA
BRANCH  34  36
ATOM     36  C   UNL A   1      38.318  30.354  29.782  1.00  0.00     0.060 A 
ATOM     37  C   UNL A   1      38.629  30.181  28.436  1.00  0.00     0.016 A 
ATOM     38  C   UNL A   1      39.322  30.325  30.746  1.00  0.00     0.016 A 
ATOM     39  C   UNL A   1      39.939  29.962  28.030  1.00  0.00     0.010 A 
ATOM     40  C   UNL A   1      40.647  30.114  30.341  1.00  0.00     0.010 A 
ATOM     41  C   UNL A   1      40.959  29.910  28.983  1.00  0.00    -0.014 A 
BRANCH  41  42
ATOM     42  C   UNL A   1      42.318  29.505  28.552  1.00  0.00     0.031 A 
ATOM     43  C   UNL A   1      42.551  28.090  28.105  1.00  0.00     0.074 A 
ATOM     44  C   UNL A   1      43.311  30.411  28.477  1.00  0.00     0.049 A 
ATOM     45  N   UNL A   1      43.673  27.493  27.798  1.00  0.00    -0.248 NA
ATOM     46  C   UNL A   1      41.360  27.231  27.990  1.00  0.00     0.031 C 
ATOM     47  C   UNL A   1      43.184  31.835  28.794  1.00  0.00     0.029 A 
ATOM     48  N   UNL A   1      44.621  30.271  28.095  1.00  0.00    -0.354 N 
ATOM     49  C   UNL A   1      43.332  26.178  27.504  1.00  0.00     0.074 A 
ATOM     50  C   UNL A   1      41.897  26.066  27.660  1.00  0.00     0.031 C 
ATOM     51  C   UNL A   1      44.365  32.439  28.579  1.00  0.00     0.029 A 
ATOM     52  C   UNL A   1      45.345  31.438  28.166  1.00  0.00     0.049 A 
ATOM     53  H   UNL A   1      45.007  29.415  27.797  1.00  0.00     0.167 HD
ATOM     54  C   UNL A   1      44.146  25.157  27.145  1.00  0.00     0.037 A 
ATOM     55  C   UNL A   1      46.655  31.664  27.955  1.00  0.00     0.037 A 
ATOM     56  C   UNL A   1      45.565  25.290  26.953  1.00  0.00     0.049 A 
ATOM     57  C   UNL A   1      47.544  30.511  27.574  1.00  0.00     0.074 A 
ATOM     58  C   UNL A   1      46.487  24.314  26.620  1.00  0.00     0.029 A 
ATOM     59  N   UNL A   1      46.266  26.483  27.056  1.00  0.00    -0.354 N 
ATOM     60  N   UNL A   1      47.225  29.253  27.385  1.00  0.00    -0.248 NA
ATOM     61  C   UNL A   1      48.973  30.804  27.394  1.00  0.00     0.031 C 
ATOM     62  C   UNL A   1      47.749  24.914  26.540  1.00  0.00     0.029 A 
ATOM     63  C   UNL A   1      47.607  26.269  26.791  1.00  0.00     0.049 A 
ATOM     64  H   UNL A   1      45.867  27.353  27.285  1.00  0.00     0.167 HD
ATOM     65  C   UNL A   1      48.409  28.605  27.056  1.00  0.00     0.074 A 
ATOM     66  C   UNL A   1      49.450  29.614  27.053  1.00  0.00     0.031 C 
ATOM     67  C   UNL A   1      48.621  27.293  26.787  1.00  0.00     0.037 A 
BRANCH  54  68
ATOM     68  C   UNL A   1      43.520  23.801  26.990  1.00  0.00     0.058 A 
ATOM     69  C   UNL A   1      43.241  22.979  28.093  1.00  0.00     0.135 A 
ATOM     70  C   UNL A   1      43.196  23.318  25.712  1.00  0.00     0.135 A 
ATOM     71  F   UNL A   1      43.555  23.384  29.333  1.00  0.00    -0.206 F 
ATOM     72  C   UNL A   1      42.686  21.713  27.931  1.00  0.00     0.059 A 
ATOM     73  C   UNL A   1      42.621  22.064  25.529  1.00  0.00     0.059 A 
ATOM     74  F   UNL A   1      43.448  24.062  24.624  1.00  0.00    -0.206 F 
ATOM     75  C   UNL A   1      42.387  21.262  26.645  1.00  0.00     0.060 A 
BRANCH  75  76
ATOM     76  S   UNL A   1      41.679  19.613  26.443  1.00  0.00     0.124 S 
ATOM     77  O   UNL A   1      42.321  19.171  25.208  1.00  0.00    -0.237 OA
ATOM     78  O   UNL A   1      42.111  18.932  27.660  1.00  0.00    -0.237 OA
ATOM     79  O   UNL A   1      40.246  19.869  26.348  1.00  0.00    -0.744 OA
ENDBRANCH  75  76
ENDBRANCH  54  68
BRANCH  55  80
ATOM     80  C   UNL A   1      47.210  33.032  28.132  1.00  0.00     0.058 A 
ATOM     81  C   UNL A   1      47.224  33.952  27.074  1.00  0.00     0.135 A 
ATOM     82  C   UNL A   1      47.727  33.448  29.368  1.00  0.00     0.135 A 
ATOM     83  F   UNL A   1      46.751  33.597  25.870  1.00  0.00    -0.206 F 
ATOM     84  C   UNL A   1      47.733  35.238  27.234  1.00  0.00     0.059 A 
ATOM     85  C   UNL A   1      48.221  34.735  29.560  1.00  0.00     0.059 A 
ATOM     86  F   UNL A   1      47.729  32.607  30.415  1.00  0.00    -0.206 F 
ATOM     87  C   UNL A   1      48.227  35.621  28.483  1.00  0.00     0.060 A 
BRANCH  87  88
ATOM     88  S   UNL A   1      48.827  37.309  28.705  1.00  0.00     0.124 S 
ATOM     89  O   UNL A   1      49.621  37.180  29.921  1.00  0.00    -0.237 OA
ATOM     90  O   UNL A   1      49.577  37.538  27.473  1.00  0.00    -0.237 OA
ATOM     91  O   UNL A   1      47.596  38.086  28.831  1.00  0.00    -0.744 OA
ENDBRANCH  87  88
ENDBRANCH  55  80
BRANCH  67  92
ATOM     92  C   UNL A   1      50.022  26.884  26.439  1.00  0.00     0.058 A 
ATOM     93  C   UNL A   1      50.924  26.447  27.421  1.00  0.00     0.135 A 
ATOM     94  C   UNL A   1      50.453  26.892  25.103  1.00  0.00     0.135 A 
ATOM     95  F   UNL A   1      50.559  26.427  28.712  1.00  0.00    -0.206 F 
ATOM     96  C   UNL A   1      52.216  26.051  27.093  1.00  0.00     0.059 A 
ATOM     97  C   UNL A   1      51.734  26.482  24.750  1.00  0.00     0.059 A 
ATOM     98  F   UNL A   1      49.623  27.293  24.127  1.00  0.00    -0.206 F 
ATOM     99  C   UNL A   1      52.613  26.076  25.753  1.00  0.00     0.060 A 
BRANCH  99 100
ATOM    100  S   UNL A   1      54.285  25.539  25.331  1.00  0.00     0.124 S 
ATOM    101  O   UNL A   1      55.082  26.274  26.307  1.00  0.00    -0.237 OA
ATOM    102  O   UNL A   1      54.213  24.095  25.529  1.00  0.00    -0.237 OA
ATOM    103  O   UNL A   1      54.435  25.968  23.944  1.00  0.00    -0.744 OA
ENDBRANCH  99 100
ENDBRANCH  67  92
ENDBRANCH  41  42
ENDBRANCH  34  36
ENDBRANCH  33  34
ENDBRANCH  32  33
ENDBRANCH   1  32
TORSDOF 18
ENDMDL
