MODEL 1
REMARK VINA RESULT:     -15.9      0.000      0.000
REMARK SMILES Cc1ccccc1NC(=S)NN1C(=O)CS[C@H]1c1ccccc1C(=O)OCCOC(=O)c1ccc(-c2c3nc(c(-c4c(F)cc(S(=O)(=O)[O-])cc4F)c4ccc([nH]4)c(-c4c(F)cc(S(=O)(=O)[O-])cc4F)c4nc(c(-c5c(F)cc(S(=O)(=O)[O-])cc5F)c5ccc2[nH]5)C=C4)C=C3)cc1
REMARK SMILES IDX 27 1 26 2 24 3 25 4 23 5 18 6 19 7 20 8 22 9 21 10 17 11
REMARK SMILES IDX 12 12 13 13 14 14 15 15 16 16 11 17 9 19 10 20 8 21 7 23
REMARK SMILES IDX 1 24 2 25 3 26 4 27 6 28 5 29 28 30 29 31 30 32 31 33 32 34
REMARK SMILES IDX 33 35 97 36 34 37 96 38 35 39 36 40 37 41 90 42 38 43 95 44
REMARK SMILES IDX 89 45 91 46 39 47 94 48 88 49 87 50 40 52 74 53 53 54 73 55
REMARK SMILES IDX 54 56 57 57 72 58 92 59 55 60 56 61 71 63 93 64 58 65 41 66
REMARK SMILES IDX 42 67 51 68 43 69 44 70 50 71 52 72 45 73 46 74 47 75 48 76
REMARK SMILES IDX 49 77 75 78 76 79 85 80 77 81 78 82 84 83 86 84 79 85 80 86
REMARK SMILES IDX 81 87 82 88 83 89 59 90 60 91 69 92 61 93 62 94 68 95 70 96
REMARK SMILES IDX 63 97 64 98 65 99 66 100 67 101
REMARK H PARENT 11 18 8 22 91 51 57 62
REMARK Flexibility Score: inf
ROOT
ATOM      1  C   UNL A   1      33.146  30.081  27.233  1.00  0.00     0.275 C 
ENDROOT
BRANCH   1   2
ATOM      2  O   UNL A   1      32.777  28.582  26.234  1.00  0.00    -0.458 OA
BRANCH   2   3
ATOM      3  C   UNL A   1      32.749  26.849  26.367  1.00  0.00     0.338 C 
ATOM      4  O   UNL A   1      31.754  26.751  27.123  1.00  0.00    -0.246 OA
BRANCH   3   5
ATOM      5  C   UNL A   1      33.966  25.475  25.176  1.00  0.00     0.066 A 
ATOM      6  C   UNL A   1      33.350  24.779  23.737  1.00  0.00     0.001 A 
ATOM      7  C   UNL A   1      34.015  23.850  22.909  1.00  0.00     0.008 A 
ATOM      8  C   UNL A   1      35.196  23.297  23.344  1.00  0.00     0.000 A 
ATOM      9  C   UNL A   1      35.213  24.706  25.402  1.00  0.00     0.016 A 
ATOM     10  C   UNL A   1      35.740  23.669  24.569  1.00  0.00     0.001 A 
BRANCH   6  11
ATOM     11  C   UNL A   1      31.631  25.010  23.207  1.00  0.00     0.197 C 
ATOM     12  N   UNL A   1      30.426  25.643  24.277  1.00  0.00    -0.236 N 
ATOM     13  C   UNL A   1      30.354  27.218  23.809  1.00  0.00     0.252 C 
ATOM     14  O   UNL A   1      30.495  28.256  24.468  1.00  0.00    -0.272 OA
ATOM     15  C   UNL A   1      30.578  27.416  22.356  1.00  0.00     0.174 C 
ATOM     16  S   UNL A   1      31.707  26.210  21.743  1.00  0.00    -0.120 SA
BRANCH  12  17
ATOM     17  N   UNL A   1      29.877  24.845  26.027  1.00  0.00    -0.270 N 
ATOM     18  H   UNL A   1      29.299  25.451  26.545  1.00  0.00     0.191 HD
BRANCH  17  19
ATOM     19  C   UNL A   1      30.163  23.370  26.847  1.00  0.00     0.189 C 
ATOM     20  S   UNL A   1      28.841  22.514  27.453  1.00  0.00    -0.039 S 
BRANCH  19  21
ATOM     21  N   UNL A   1      31.554  22.552  26.769  1.00  0.00    -0.331 N 
ATOM     22  H   UNL A   1      32.002  22.573  27.646  1.00  0.00     0.169 HD
BRANCH  21  23
ATOM     23  C   UNL A   1      32.418  21.738  25.752  1.00  0.00     0.043 A 
ATOM     24  C   UNL A   1      34.613  21.593  27.089  1.00  0.00     0.046 C 
ATOM     25  C   UNL A   1      33.608  21.067  26.112  1.00  0.00    -0.028 A 
ATOM     26  C   UNL A   1      34.032  19.902  25.386  1.00  0.00     0.005 A 
ATOM     27  C   UNL A   1      33.333  19.420  24.291  1.00  0.00     0.000 A 
ATOM     28  C   UNL A   1      32.044  21.448  24.427  1.00  0.00     0.026 A 
ATOM     29  C   UNL A   1      32.363  20.241  23.770  1.00  0.00     0.002 A 
ENDBRANCH  21  23
ENDBRANCH  19  21
ENDBRANCH  17  19
ENDBRANCH  12  17
ENDBRANCH   6  11
ENDBRANCH   3   5
ENDBRANCH   2   3
ENDBRANCH   1   2
BRANCH   1  30
ATOM     30  C   UNL A   1      35.033  30.542  27.966  1.00  0.00     0.275 C 
BRANCH  30  31
ATOM     31  O   UNL A   1      35.922  29.300  29.005  1.00  0.00    -0.458 OA
BRANCH  31  32
ATOM     32  C   UNL A   1      37.172  29.302  29.832  1.00  0.00     0.338 C 
ATOM     33  O   UNL A   1      37.111  28.969  31.011  1.00  0.00    -0.246 OA
BRANCH  32  34
ATOM     34  C   UNL A   1      38.702  29.548  29.163  1.00  0.00     0.060 A 
ATOM     35  C   UNL A   1      38.969  29.593  27.379  1.00  0.00     0.016 A 
ATOM     36  C   UNL A   1      40.353  29.568  30.139  1.00  0.00     0.016 A 
ATOM     37  C   UNL A   1      40.702  29.486  26.777  1.00  0.00     0.010 A 
ATOM     38  C   UNL A   1      41.871  29.540  29.455  1.00  0.00     0.010 A 
ATOM     39  C   UNL A   1      42.116  29.437  27.858  1.00  0.00    -0.014 A 
BRANCH  39  40
ATOM     40  C   UNL A   1      43.291  28.461  28.056  1.00  0.00     0.031 A 
ATOM     41  C   UNL A   1      42.838  26.885  28.041  1.00  0.00     0.074 A 
ATOM     42  C   UNL A   1      44.520  29.001  27.752  1.00  0.00     0.049 A 
ATOM     43  N   UNL A   1      43.126  25.992  28.936  1.00  0.00    -0.248 NA
ATOM     44  C   UNL A   1      41.813  26.185  27.109  1.00  0.00     0.031 C 
ATOM     45  C   UNL A   1      45.865  28.471  27.503  1.00  0.00     0.029 A 
ATOM     46  N   UNL A   1      44.793  30.376  27.774  1.00  0.00    -0.354 N 
ATOM     47  C   UNL A   1      42.920  24.761  28.289  1.00  0.00     0.074 A 
ATOM     48  C   UNL A   1      41.759  24.925  27.511  1.00  0.00     0.031 C 
ATOM     49  C   UNL A   1      46.785  29.401  27.869  1.00  0.00     0.029 A 
ATOM     50  C   UNL A   1      46.081  30.618  28.253  1.00  0.00     0.049 A 
ATOM     51  H   UNL A   1      44.162  31.076  27.491  1.00  0.00     0.167 HD
ATOM     52  C   UNL A   1      43.989  23.958  27.983  1.00  0.00     0.037 A 
ATOM     53  C   UNL A   1      46.116  31.264  29.454  1.00  0.00     0.037 A 
ATOM     54  C   UNL A   1      45.200  24.591  28.515  1.00  0.00     0.049 A 
ATOM     55  C   UNL A   1      46.100  30.175  30.528  1.00  0.00     0.074 A 
ATOM     56  C   UNL A   1      46.383  25.077  27.999  1.00  0.00     0.029 A 
ATOM     57  N   UNL A   1      45.120  25.113  29.795  1.00  0.00    -0.354 N 
ATOM     58  N   UNL A   1      45.756  28.926  30.304  1.00  0.00    -0.248 NA
ATOM     59  C   UNL A   1      46.676  30.336  31.857  1.00  0.00     0.031 C 
ATOM     60  C   UNL A   1      46.943  25.970  28.981  1.00  0.00     0.029 A 
ATOM     61  C   UNL A   1      46.075  26.060  30.060  1.00  0.00     0.049 A 
ATOM     62  H   UNL A   1      44.442  24.832  30.452  1.00  0.00     0.167 HD
ATOM     63  C   UNL A   1      46.120  28.125  31.345  1.00  0.00     0.074 A 
ATOM     64  C   UNL A   1      46.679  29.065  32.302  1.00  0.00     0.031 C 
ATOM     65  C   UNL A   1      46.011  26.757  31.349  1.00  0.00     0.037 A 
BRANCH  52  66
ATOM     66  C   UNL A   1      44.002  22.720  27.075  1.00  0.00     0.058 A 
ATOM     67  C   UNL A   1      45.102  22.564  26.204  1.00  0.00     0.135 A 
ATOM     68  C   UNL A   1      43.065  21.653  27.001  1.00  0.00     0.135 A 
ATOM     69  F   UNL A   1      46.071  23.488  26.149  1.00  0.00    -0.206 F 
ATOM     70  C   UNL A   1      45.280  21.456  25.371  1.00  0.00     0.059 A 
ATOM     71  C   UNL A   1      43.239  20.516  26.192  1.00  0.00     0.059 A 
ATOM     72  F   UNL A   1      41.914  21.645  27.679  1.00  0.00    -0.206 F 
ATOM     73  C   UNL A   1      44.357  20.422  25.384  1.00  0.00     0.060 A 
BRANCH  73  74
ATOM     74  S   UNL A   1      44.662  18.968  24.361  1.00  0.00     0.124 S 
ATOM     75  O   UNL A   1      43.717  18.003  24.914  1.00  0.00    -0.237 OA
ATOM     76  O   UNL A   1      44.355  19.466  23.025  1.00  0.00    -0.237 OA
ATOM     77  O   UNL A   1      46.070  18.666  24.603  1.00  0.00    -0.744 OA
ENDBRANCH  73  74
ENDBRANCH  52  66
BRANCH  53  78
ATOM     78  C   UNL A   1      45.366  32.584  29.311  1.00  0.00     0.058 A 
ATOM     79  C   UNL A   1      45.930  33.521  28.400  1.00  0.00     0.135 A 
ATOM     80  C   UNL A   1      44.022  32.813  29.629  1.00  0.00     0.135 A 
ATOM     81  F   UNL A   1      47.240  33.443  28.105  1.00  0.00    -0.206 F 
ATOM     82  C   UNL A   1      45.176  34.462  27.687  1.00  0.00     0.059 A 
ATOM     83  C   UNL A   1      43.251  33.805  28.963  1.00  0.00     0.059 A 
ATOM     84  F   UNL A   1      43.378  31.983  30.466  1.00  0.00    -0.206 F 
ATOM     85  C   UNL A   1      43.819  34.569  27.938  1.00  0.00     0.060 A 
BRANCH  85  86
ATOM     86  S   UNL A   1      42.823  35.632  26.844  1.00  0.00     0.124 S 
ATOM     87  O   UNL A   1      41.542  35.679  27.540  1.00  0.00    -0.237 OA
ATOM     88  O   UNL A   1      43.578  36.882  26.834  1.00  0.00    -0.237 OA
ATOM     89  O   UNL A   1      42.816  34.903  25.578  1.00  0.00    -0.744 OA
ENDBRANCH  85  86
ENDBRANCH  53  78
BRANCH  65  90
ATOM     90  C   UNL A   1      45.864  25.928  32.624  1.00  0.00     0.058 A 
ATOM     91  C   UNL A   1      44.645  25.752  33.299  1.00  0.00     0.135 A 
ATOM     92  C   UNL A   1      46.939  25.159  33.155  1.00  0.00     0.135 A 
ATOM     93  F   UNL A   1      43.485  26.215  32.814  1.00  0.00    -0.206 F 
ATOM     94  C   UNL A   1      44.546  25.049  34.496  1.00  0.00     0.059 A 
ATOM     95  C   UNL A   1      46.827  24.345  34.273  1.00  0.00     0.059 A 
ATOM     96  F   UNL A   1      48.166  25.143  32.621  1.00  0.00    -0.206 F 
ATOM     97  C   UNL A   1      45.646  24.359  34.981  1.00  0.00     0.060 A 
BRANCH  97  98
ATOM     98  S   UNL A   1      45.524  23.496  36.544  1.00  0.00     0.124 S 
ATOM     99  O   UNL A   1      44.366  24.155  37.142  1.00  0.00    -0.237 OA
ATOM    100  O   UNL A   1      45.317  22.115  36.119  1.00  0.00    -0.237 OA
ATOM    101  O   UNL A   1      46.804  23.766  37.189  1.00  0.00    -0.744 OA
ENDBRANCH  97  98
ENDBRANCH  65  90
ENDBRANCH  39  40
ENDBRANCH  32  34
ENDBRANCH  31  32
ENDBRANCH  30  31
ENDBRANCH   1  30
TORSDOF 19
ENDMDL
MODEL 2
REMARK VINA RESULT:     -15.9      4.140     10.748
REMARK SMILES Cc1ccccc1NC(=S)NN1C(=O)CS[C@H]1c1ccccc1C(=O)OCCOC(=O)c1ccc(-c2c3nc(c(-c4c(F)cc(S(=O)(=O)[O-])cc4F)c4ccc([nH]4)c(-c4c(F)cc(S(=O)(=O)[O-])cc4F)c4nc(c(-c5c(F)cc(S(=O)(=O)[O-])cc5F)c5ccc2[nH]5)C=C4)C=C3)cc1
REMARK SMILES IDX 27 1 26 2 24 3 25 4 23 5 18 6 19 7 20 8 22 9 21 10 17 11
REMARK SMILES IDX 12 12 13 13 14 14 15 15 16 16 11 17 9 19 10 20 8 21 7 23
REMARK SMILES IDX 1 24 2 25 3 26 4 27 6 28 5 29 28 30 29 31 30 32 31 33 32 34
REMARK SMILES IDX 33 35 97 36 34 37 96 38 35 39 36 40 37 41 90 42 38 43 95 44
REMARK SMILES IDX 89 45 91 46 39 47 94 48 88 49 87 50 40 52 74 53 53 54 73 55
REMARK SMILES IDX 54 56 57 57 72 58 92 59 55 60 56 61 71 63 93 64 58 65 41 66
REMARK SMILES IDX 42 67 51 68 43 69 44 70 50 71 52 72 45 73 46 74 47 75 48 76
REMARK SMILES IDX 49 77 75 78 76 79 85 80 77 81 78 82 84 83 86 84 79 85 80 86
REMARK SMILES IDX 81 87 82 88 83 89 59 90 60 91 69 92 61 93 62 94 68 95 70 96
REMARK SMILES IDX 63 97 64 98 65 99 66 100 67 101
REMARK H PARENT 11 18 8 22 91 51 57 62
REMARK Flexibility Score: inf
ROOT
ATOM      1  C   UNL A   1      37.832  22.780  25.715  1.00  0.00     0.275 C 
ENDROOT
BRANCH   1   2
ATOM      2  O   UNL A   1      36.068  23.179  25.381  1.00  0.00    -0.458 OA
BRANCH   2   3
ATOM      3  C   UNL A   1      35.083  24.389  24.614  1.00  0.00     0.338 C 
ATOM      4  O   UNL A   1      35.286  24.045  23.425  1.00  0.00    -0.246 OA
BRANCH   3   5
ATOM      5  C   UNL A   1      33.715  25.744  25.653  1.00  0.00     0.066 A 
ATOM      6  C   UNL A   1      32.029  25.445  25.673  1.00  0.00     0.001 A 
ATOM      7  C   UNL A   1      31.044  26.262  26.265  1.00  0.00     0.008 A 
ATOM      8  C   UNL A   1      31.404  27.503  26.735  1.00  0.00     0.000 A 
ATOM      9  C   UNL A   1      33.809  27.118  26.200  1.00  0.00     0.016 A 
ATOM     10  C   UNL A   1      32.723  27.935  26.650  1.00  0.00     0.001 A 
BRANCH   6  11
ATOM     11  C   UNL A   1      31.272  24.100  24.720  1.00  0.00     0.197 C 
ATOM     12  N   UNL A   1      32.132  23.281  23.460  1.00  0.00    -0.236 N 
ATOM     13  C   UNL A   1      32.630  21.913  24.224  1.00  0.00     0.252 C 
ATOM     14  O   UNL A   1      33.765  21.440  24.359  1.00  0.00    -0.272 OA
ATOM     15  C   UNL A   1      31.668  21.416  25.239  1.00  0.00     0.174 C 
ATOM     16  S   UNL A   1      30.823  22.767  25.991  1.00  0.00    -0.120 SA
BRANCH  12  17
ATOM     17  N   UNL A   1      32.899  24.133  21.822  1.00  0.00    -0.270 N 
ATOM     18  H   UNL A   1      33.752  23.720  21.553  1.00  0.00     0.191 HD
BRANCH  17  19
ATOM     19  C   UNL A   1      32.442  25.404  20.769  1.00  0.00     0.189 C 
ATOM     20  S   UNL A   1      32.633  25.184  19.107  1.00  0.00    -0.039 S 
BRANCH  19  21
ATOM     21  N   UNL A   1      31.508  26.646  21.211  1.00  0.00    -0.331 N 
ATOM     22  H   UNL A   1      30.982  26.958  20.439  1.00  0.00     0.169 HD
BRANCH  21  23
ATOM     23  C   UNL A   1      31.171  27.513  22.467  1.00  0.00     0.043 A 
ATOM     24  C   UNL A   1      33.527  28.400  23.007  1.00  0.00     0.046 C 
ATOM     25  C   UNL A   1      32.034  28.512  22.971  1.00  0.00    -0.028 A 
ATOM     26  C   UNL A   1      31.501  29.638  23.685  1.00  0.00     0.005 A 
ATOM     27  C   UNL A   1      30.147  29.772  23.948  1.00  0.00     0.000 A 
ATOM     28  C   UNL A   1      29.934  27.515  23.137  1.00  0.00     0.026 A 
ATOM     29  C   UNL A   1      29.365  28.665  23.725  1.00  0.00     0.002 A 
ENDBRANCH  21  23
ENDBRANCH  19  21
ENDBRANCH  17  19
ENDBRANCH  12  17
ENDBRANCH   6  11
ENDBRANCH   3   5
ENDBRANCH   2   3
ENDBRANCH   1   2
BRANCH   1  30
ATOM     30  C   UNL A   1      39.049  23.897  26.972  1.00  0.00     0.275 C 
BRANCH  30  31
ATOM     31  O   UNL A   1      40.010  25.311  26.270  1.00  0.00    -0.458 OA
BRANCH  31  32
ATOM     32  C   UNL A   1      40.594  26.577  26.818  1.00  0.00     0.338 C 
ATOM     33  O   UNL A   1      41.000  27.435  26.040  1.00  0.00    -0.246 OA
BRANCH  32  34
ATOM     34  C   UNL A   1      40.535  26.969  28.459  1.00  0.00     0.060 A 
ATOM     35  C   UNL A   1      39.113  26.552  29.490  1.00  0.00     0.016 A 
ATOM     36  C   UNL A   1      41.794  28.081  29.384  1.00  0.00     0.016 A 
ATOM     37  C   UNL A   1      38.998  27.353  31.140  1.00  0.00     0.010 A 
ATOM     38  C   UNL A   1      41.592  28.683  30.923  1.00  0.00     0.010 A 
ATOM     39  C   UNL A   1      40.254  28.429  31.799  1.00  0.00    -0.014 A 
BRANCH  39  40
ATOM     40  C   UNL A   1      40.269  29.877  32.323  1.00  0.00     0.031 A 
ATOM     41  C   UNL A   1      39.186  30.853  31.571  1.00  0.00     0.074 A 
ATOM     42  C   UNL A   1      40.807  30.008  33.583  1.00  0.00     0.049 A 
ATOM     43  N   UNL A   1      39.433  32.005  31.029  1.00  0.00    -0.248 NA
ATOM     44  C   UNL A   1      37.726  30.532  31.154  1.00  0.00     0.031 C 
ATOM     45  C   UNL A   1      40.813  31.048  34.618  1.00  0.00     0.029 A 
ATOM     46  N   UNL A   1      41.713  29.095  34.140  1.00  0.00    -0.354 N 
ATOM     47  C   UNL A   1      38.176  32.628  30.929  1.00  0.00     0.074 A 
ATOM     48  C   UNL A   1      37.276  31.617  30.544  1.00  0.00     0.031 C 
ATOM     49  C   UNL A   1      41.953  30.941  35.349  1.00  0.00     0.029 A 
ATOM     50  C   UNL A   1      42.675  29.755  34.905  1.00  0.00     0.049 A 
ATOM     51  H   UNL A   1      41.677  28.120  34.009  1.00  0.00     0.167 HD
ATOM     52  C   UNL A   1      37.883  33.712  31.714  1.00  0.00     0.037 A 
ATOM     53  C   UNL A   1      43.937  29.685  34.394  1.00  0.00     0.037 A 
ATOM     54  C   UNL A   1      39.080  34.047  32.493  1.00  0.00     0.049 A 
ATOM     55  C   UNL A   1      44.092  30.888  33.462  1.00  0.00     0.074 A 
ATOM     56  C   UNL A   1      39.415  34.123  33.828  1.00  0.00     0.029 A 
ATOM     57  N   UNL A   1      40.287  34.039  31.814  1.00  0.00    -0.354 N 
ATOM     58  N   UNL A   1      43.084  31.597  33.004  1.00  0.00    -0.248 NA
ATOM     59  C   UNL A   1      45.368  31.525  33.162  1.00  0.00     0.031 C 
ATOM     60  C   UNL A   1      40.853  34.065  33.912  1.00  0.00     0.029 A 
ATOM     61  C   UNL A   1      41.375  33.903  32.636  1.00  0.00     0.049 A 
ATOM     62  H   UNL A   1      40.358  34.121  30.836  1.00  0.00     0.167 HD
ATOM     63  C   UNL A   1      43.519  32.767  32.457  1.00  0.00     0.074 A 
ATOM     64  C   UNL A   1      44.964  32.664  32.567  1.00  0.00     0.031 C 
ATOM     65  C   UNL A   1      42.696  33.771  32.011  1.00  0.00     0.037 A 
BRANCH  52  66
ATOM     66  C   UNL A   1      36.512  34.368  31.933  1.00  0.00     0.058 A 
ATOM     67  C   UNL A   1      35.717  34.609  30.792  1.00  0.00     0.135 A 
ATOM     68  C   UNL A   1      35.884  34.746  33.151  1.00  0.00     0.135 A 
ATOM     69  F   UNL A   1      36.169  34.314  29.565  1.00  0.00    -0.206 F 
ATOM     70  C   UNL A   1      34.423  35.138  30.845  1.00  0.00     0.059 A 
ATOM     71  C   UNL A   1      34.573  35.252  33.229  1.00  0.00     0.059 A 
ATOM     72  F   UNL A   1      36.494  34.680  34.338  1.00  0.00    -0.206 F 
ATOM     73  C   UNL A   1      33.846  35.437  32.069  1.00  0.00     0.060 A 
BRANCH  73  74
ATOM     74  S   UNL A   1      32.145  36.034  32.106  1.00  0.00     0.124 S 
ATOM     75  O   UNL A   1      32.257  37.217  32.954  1.00  0.00    -0.237 OA
ATOM     76  O   UNL A   1      31.879  36.287  30.694  1.00  0.00    -0.237 OA
ATOM     77  O   UNL A   1      31.401  34.921  32.689  1.00  0.00    -0.744 OA
ENDBRANCH  73  74
ENDBRANCH  52  66
BRANCH  53  78
ATOM     78  C   UNL A   1      44.317  28.214  34.253  1.00  0.00     0.058 A 
ATOM     79  C   UNL A   1      44.420  27.482  35.470  1.00  0.00     0.135 A 
ATOM     80  C   UNL A   1      44.168  27.426  33.106  1.00  0.00     0.135 A 
ATOM     81  F   UNL A   1      44.661  28.144  36.615  1.00  0.00    -0.206 F 
ATOM     82  C   UNL A   1      44.167  26.109  35.573  1.00  0.00     0.059 A 
ATOM     83  C   UNL A   1      43.972  26.019  33.181  1.00  0.00     0.059 A 
ATOM     84  F   UNL A   1      44.042  28.008  31.902  1.00  0.00    -0.206 F 
ATOM     85  C   UNL A   1      43.894  25.384  34.425  1.00  0.00     0.060 A 
BRANCH  85  86
ATOM     86  S   UNL A   1      43.346  23.656  34.608  1.00  0.00     0.124 S 
ATOM     87  O   UNL A   1      44.288  23.134  35.591  1.00  0.00    -0.237 OA
ATOM     88  O   UNL A   1      41.969  23.801  35.072  1.00  0.00    -0.237 OA
ATOM     89  O   UNL A   1      43.491  23.112  33.259  1.00  0.00    -0.744 OA
ENDBRANCH  85  86
ENDBRANCH  53  78
BRANCH  65  90
ATOM     90  C   UNL A   1      43.098  34.772  30.929  1.00  0.00     0.058 A 
ATOM     91  C   UNL A   1      43.545  36.075  31.205  1.00  0.00     0.135 A 
ATOM     92  C   UNL A   1      43.171  34.411  29.554  1.00  0.00     0.135 A 
ATOM     93  F   UNL A   1      43.757  36.509  32.454  1.00  0.00    -0.206 F 
ATOM     94  C   UNL A   1      43.840  36.993  30.202  1.00  0.00     0.059 A 
ATOM     95  C   UNL A   1      43.591  35.272  28.551  1.00  0.00     0.059 A 
ATOM     96  F   UNL A   1      42.845  33.197  29.094  1.00  0.00    -0.206 F 
ATOM     97  C   UNL A   1      43.849  36.585  28.877  1.00  0.00     0.060 A 
BRANCH  97  98
ATOM     98  S   UNL A   1      44.186  37.783  27.591  1.00  0.00     0.124 S 
ATOM     99  O   UNL A   1      45.414  37.242  27.015  1.00  0.00    -0.237 OA
ATOM    100  O   UNL A   1      42.994  37.682  26.754  1.00  0.00    -0.237 OA
ATOM    101  O   UNL A   1      44.332  39.039  28.319  1.00  0.00    -0.744 OA
ENDBRANCH  97  98
ENDBRANCH  65  90
ENDBRANCH  39  40
ENDBRANCH  32  34
ENDBRANCH  31  32
ENDBRANCH  30  31
ENDBRANCH   1  30
TORSDOF 19
ENDMDL
MODEL 3
REMARK VINA RESULT:     -15.2      5.353     10.039
REMARK SMILES Cc1ccccc1NC(=S)NN1C(=O)CS[C@H]1c1ccccc1C(=O)OCCOC(=O)c1ccc(-c2c3nc(c(-c4c(F)cc(S(=O)(=O)[O-])cc4F)c4ccc([nH]4)c(-c4c(F)cc(S(=O)(=O)[O-])cc4F)c4nc(c(-c5c(F)cc(S(=O)(=O)[O-])cc5F)c5ccc2[nH]5)C=C4)C=C3)cc1
REMARK SMILES IDX 27 1 26 2 24 3 25 4 23 5 18 6 19 7 20 8 22 9 21 10 17 11
REMARK SMILES IDX 12 12 13 13 14 14 15 15 16 16 11 17 9 19 10 20 8 21 7 23
REMARK SMILES IDX 1 24 2 25 3 26 4 27 6 28 5 29 28 30 29 31 30 32 31 33 32 34
REMARK SMILES IDX 33 35 97 36 34 37 96 38 35 39 36 40 37 41 90 42 38 43 95 44
REMARK SMILES IDX 89 45 91 46 39 47 94 48 88 49 87 50 40 52 74 53 53 54 73 55
REMARK SMILES IDX 54 56 57 57 72 58 92 59 55 60 56 61 71 63 93 64 58 65 41 66
REMARK SMILES IDX 42 67 51 68 43 69 44 70 50 71 52 72 45 73 46 74 47 75 48 76
REMARK SMILES IDX 49 77 75 78 76 79 85 80 77 81 78 82 84 83 86 84 79 85 80 86
REMARK SMILES IDX 81 87 82 88 83 89 59 90 60 91 69 92 61 93 62 94 68 95 70 96
REMARK SMILES IDX 63 97 64 98 65 99 66 100 67 101
REMARK H PARENT 11 18 8 22 91 51 57 62
REMARK Flexibility Score: inf
ROOT
ATOM      1  C   UNL A   1      32.815  29.710  25.240  1.00  0.00     0.275 C 
ENDROOT
BRANCH   1   2
ATOM      2  O   UNL A   1      31.244  29.206  24.429  1.00  0.00    -0.458 OA
BRANCH   2   3
ATOM      3  C   UNL A   1      30.177  27.839  24.292  1.00  0.00     0.338 C 
ATOM      4  O   UNL A   1      29.599  28.180  23.234  1.00  0.00    -0.246 OA
BRANCH   3   5
ATOM      5  C   UNL A   1      30.279  26.034  25.523  1.00  0.00     0.066 A 
ATOM      6  C   UNL A   1      31.647  25.004  25.461  1.00  0.00     0.001 A 
ATOM      7  C   UNL A   1      31.813  23.795  26.167  1.00  0.00     0.008 A 
ATOM      8  C   UNL A   1      30.741  23.270  26.849  1.00  0.00     0.000 A 
ATOM      9  C   UNL A   1      29.304  25.233  26.300  1.00  0.00     0.016 A 
ATOM     10  C   UNL A   1      29.520  23.935  26.863  1.00  0.00     0.001 A 
BRANCH   6  11
ATOM     11  C   UNL A   1      32.998  25.258  24.278  1.00  0.00     0.197 C 
ATOM     12  N   UNL A   1      34.065  23.972  23.824  1.00  0.00    -0.236 N 
ATOM     13  C   UNL A   1      33.434  23.503  22.381  1.00  0.00     0.252 C 
ATOM     14  O   UNL A   1      33.048  22.391  21.998  1.00  0.00    -0.272 OA
ATOM     15  C   UNL A   1      32.853  24.620  21.595  1.00  0.00     0.174 C 
ATOM     16  S   UNL A   1      32.167  25.833  22.674  1.00  0.00    -0.120 SA
BRANCH  12  17
ATOM     17  N   UNL A   1      35.227  22.922  25.067  1.00  0.00    -0.270 N 
ATOM     18  H   UNL A   1      35.359  23.382  25.928  1.00  0.00     0.191 HD
BRANCH  17  19
ATOM     19  C   UNL A   1      36.050  21.422  25.006  1.00  0.00     0.189 C 
ATOM     20  S   UNL A   1      37.737  21.424  25.037  1.00  0.00    -0.039 S 
BRANCH  19  21
ATOM     21  N   UNL A   1      35.344  19.997  25.288  1.00  0.00    -0.331 N 
ATOM     22  H   UNL A   1      35.676  19.622  26.136  1.00  0.00     0.169 HD
BRANCH  21  23
ATOM     23  C   UNL A   1      34.304  19.019  24.649  1.00  0.00     0.043 A 
ATOM     24  C   UNL A   1      32.189  20.474  24.844  1.00  0.00     0.046 C 
ATOM     25  C   UNL A   1      33.039  19.437  24.178  1.00  0.00    -0.028 A 
ATOM     26  C   UNL A   1      32.389  18.723  23.115  1.00  0.00     0.005 A 
ATOM     27  C   UNL A   1      32.940  17.586  22.544  1.00  0.00     0.000 A 
ATOM     28  C   UNL A   1      34.554  17.673  24.327  1.00  0.00     0.026 A 
ATOM     29  C   UNL A   1      34.004  17.021  23.203  1.00  0.00     0.002 A 
ENDBRANCH  21  23
ENDBRANCH  19  21
ENDBRANCH  17  19
ENDBRANCH  12  17
ENDBRANCH   6  11
ENDBRANCH   3   5
ENDBRANCH   2   3
ENDBRANCH   1   2
BRANCH   1  30
ATOM     30  C   UNL A   1      32.948  30.318  27.221  1.00  0.00     0.275 C 
BRANCH  30  31
ATOM     31  O   UNL A   1      33.918  31.837  27.632  1.00  0.00    -0.458 OA
BRANCH  31  32
ATOM     32  C   UNL A   1      34.756  32.283  28.791  1.00  0.00     0.338 C 
ATOM     33  O   UNL A   1      34.328  33.158  29.537  1.00  0.00    -0.246 OA
BRANCH  32  34
ATOM     34  C   UNL A   1      36.178  31.494  29.240  1.00  0.00     0.060 A 
ATOM     35  C   UNL A   1      36.216  29.728  29.612  1.00  0.00     0.016 A 
ATOM     36  C   UNL A   1      37.846  32.351  29.646  1.00  0.00     0.016 A 
ATOM     37  C   UNL A   1      37.715  29.068  30.445  1.00  0.00     0.010 A 
ATOM     38  C   UNL A   1      39.161  31.606  30.343  1.00  0.00     0.010 A 
ATOM     39  C   UNL A   1      39.151  30.055  30.810  1.00  0.00    -0.014 A 
BRANCH  39  40
ATOM     40  C   UNL A   1      39.933  30.390  32.093  1.00  0.00     0.031 A 
ATOM     41  C   UNL A   1      39.093  31.328  33.144  1.00  0.00     0.074 A 
ATOM     42  C   UNL A   1      40.961  29.515  32.363  1.00  0.00     0.049 A 
ATOM     43  N   UNL A   1      39.501  32.432  33.687  1.00  0.00    -0.248 NA
ATOM     44  C   UNL A   1      37.593  31.234  33.533  1.00  0.00     0.031 C 
ATOM     45  C   UNL A   1      41.800  29.209  33.527  1.00  0.00     0.029 A 
ATOM     46  N   UNL A   1      41.598  28.738  31.384  1.00  0.00    -0.354 N 
ATOM     47  C   UNL A   1      38.660  32.612  34.801  1.00  0.00     0.074 A 
ATOM     48  C   UNL A   1      37.374  32.230  34.377  1.00  0.00     0.031 C 
ATOM     49  C   UNL A   1      43.007  28.757  33.099  1.00  0.00     0.029 A 
ATOM     50  C   UNL A   1      42.964  28.631  31.648  1.00  0.00     0.049 A 
ATOM     51  H   UNL A   1      41.144  28.324  30.615  1.00  0.00     0.167 HD
ATOM     52  C   UNL A   1      39.163  32.480  36.069  1.00  0.00     0.037 A 
ATOM     53  C   UNL A   1      43.758  29.251  30.729  1.00  0.00     0.037 A 
ATOM     54  C   UNL A   1      40.605  32.234  35.963  1.00  0.00     0.049 A 
ATOM     55  C   UNL A   1      43.944  30.689  31.220  1.00  0.00     0.074 A 
ATOM     56  C   UNL A   1      41.477  31.230  36.328  1.00  0.00     0.029 A 
ATOM     57  N   UNL A   1      41.306  33.016  35.060  1.00  0.00    -0.354 N 
ATOM     58  N   UNL A   1      43.188  31.256  32.134  1.00  0.00    -0.248 NA
ATOM     59  C   UNL A   1      45.106  31.510  30.907  1.00  0.00     0.031 C 
ATOM     60  C   UNL A   1      42.673  31.396  35.540  1.00  0.00     0.029 A 
ATOM     61  C   UNL A   1      42.499  32.464  34.671  1.00  0.00     0.049 A 
ATOM     62  H   UNL A   1      40.979  33.882  34.728  1.00  0.00     0.167 HD
ATOM     63  C   UNL A   1      43.756  32.409  32.589  1.00  0.00     0.074 A 
ATOM     64  C   UNL A   1      44.952  32.530  31.773  1.00  0.00     0.031 C 
ATOM     65  C   UNL A   1      43.269  33.156  33.632  1.00  0.00     0.037 A 
BRANCH  52  66
ATOM     66  C   UNL A   1      38.377  32.392  37.385  1.00  0.00     0.058 A 
ATOM     67  C   UNL A   1      38.392  33.524  38.228  1.00  0.00     0.135 A 
ATOM     68  C   UNL A   1      37.580  31.325  37.882  1.00  0.00     0.135 A 
ATOM     69  F   UNL A   1      39.103  34.612  37.905  1.00  0.00    -0.206 F 
ATOM     70  C   UNL A   1      37.670  33.611  39.423  1.00  0.00     0.059 A 
ATOM     71  C   UNL A   1      36.823  31.402  39.066  1.00  0.00     0.059 A 
ATOM     72  F   UNL A   1      37.497  30.135  37.281  1.00  0.00    -0.206 F 
ATOM     73  C   UNL A   1      36.868  32.555  39.827  1.00  0.00     0.060 A 
BRANCH  73  74
ATOM     74  S   UNL A   1      35.882  32.734  41.327  1.00  0.00     0.124 S 
ATOM     75  O   UNL A   1      36.391  31.647  42.157  1.00  0.00    -0.237 OA
ATOM     76  O   UNL A   1      36.230  34.083  41.761  1.00  0.00    -0.237 OA
ATOM     77  O   UNL A   1      34.509  32.567  40.859  1.00  0.00    -0.744 OA
ENDBRANCH  73  74
ENDBRANCH  52  66
BRANCH  53  78
ATOM     78  C   UNL A   1      43.454  28.661  29.356  1.00  0.00     0.058 A 
ATOM     79  C   UNL A   1      43.857  27.310  29.160  1.00  0.00     0.135 A 
ATOM     80  C   UNL A   1      42.492  29.122  28.449  1.00  0.00     0.135 A 
ATOM     81  F   UNL A   1      44.845  26.803  29.918  1.00  0.00    -0.206 F 
ATOM     82  C   UNL A   1      43.204  26.422  28.296  1.00  0.00     0.059 A 
ATOM     83  C   UNL A   1      41.858  28.253  27.519  1.00  0.00     0.059 A 
ATOM     84  F   UNL A   1      42.022  30.377  28.548  1.00  0.00    -0.206 F 
ATOM     85  C   UNL A   1      42.166  26.888  27.507  1.00  0.00     0.060 A 
BRANCH  85  86
ATOM     86  S   UNL A   1      41.188  25.674  26.565  1.00  0.00     0.124 S 
ATOM     87  O   UNL A   1      41.337  26.150  25.195  1.00  0.00    -0.237 OA
ATOM     88  O   UNL A   1      41.859  24.413  26.868  1.00  0.00    -0.237 OA
ATOM     89  O   UNL A   1      39.846  25.812  27.128  1.00  0.00    -0.744 OA
ENDBRANCH  85  86
ENDBRANCH  53  78
BRANCH  65  90
ATOM     90  C   UNL A   1      43.518  34.656  33.782  1.00  0.00     0.058 A 
ATOM     91  C   UNL A   1      44.278  35.216  34.822  1.00  0.00     0.135 A 
ATOM     92  C   UNL A   1      43.101  35.594  32.795  1.00  0.00     0.135 A 
ATOM     93  F   UNL A   1      44.937  34.464  35.712  1.00  0.00    -0.206 F 
ATOM     94  C   UNL A   1      44.435  36.590  34.978  1.00  0.00     0.059 A 
ATOM     95  C   UNL A   1      43.363  36.955  32.864  1.00  0.00     0.059 A 
ATOM     96  F   UNL A   1      42.417  35.252  31.697  1.00  0.00    -0.206 F 
ATOM     97  C   UNL A   1      43.963  37.452  34.000  1.00  0.00     0.060 A 
BRANCH  97  98
ATOM     98  S   UNL A   1      44.129  39.219  34.230  1.00  0.00     0.124 S 
ATOM     99  O   UNL A   1      42.875  39.699  33.656  1.00  0.00    -0.237 OA
ATOM    100  O   UNL A   1      44.248  39.333  35.680  1.00  0.00    -0.237 OA
ATOM    101  O   UNL A   1      45.334  39.553  33.477  1.00  0.00    -0.744 OA
ENDBRANCH  97  98
ENDBRANCH  65  90
ENDBRANCH  39  40
ENDBRANCH  32  34
ENDBRANCH  31  32
ENDBRANCH  30  31
ENDBRANCH   1  30
TORSDOF 19
ENDMDL
