MODEL 1
REMARK VINA RESULT:     -11.1      0.000      0.000
REMARK SMILES O=C(CO/N=C\c1ccccc1)Nc1ccccc1C(=O)OCCOC(=O)c1ccc(-c2c3nc(c(-c4c(F)cc(S(=O)(=O)[O-])cc4F)c4ccc([nH]4)c(-c4c(F)cc(S(=O)(=O)[O-])cc4F)c4nc(c(-c5c(F)cc(S(=O)(=O)[O-])cc5F)c5ccc2[nH]5)C=C4)C=C3)cc1
REMARK SMILES IDX 23 1 22 2 20 3 21 4 19 5 14 6 15 7 16 8 18 9 17 10 13 11
REMARK SMILES IDX 1 12 2 13 3 15 4 16 5 17 6 18 7 19 8 20 12 21 9 22 11 23
REMARK SMILES IDX 10 24 24 25 25 26 26 27 27 28 28 29 29 30 93 31 30 32 92 33
REMARK SMILES IDX 31 34 32 35 33 36 86 37 34 38 91 39 85 40 87 41 35 42 90 43
REMARK SMILES IDX 84 44 83 45 36 47 70 48 49 49 69 50 50 51 53 52 68 53 88 54
REMARK SMILES IDX 51 55 52 56 67 58 89 59 54 60 37 61 38 62 47 63 39 64 40 65
REMARK SMILES IDX 46 66 48 67 41 68 42 69 43 70 44 71 45 72 71 73 72 74 81 75
REMARK SMILES IDX 73 76 74 77 80 78 82 79 75 80 76 81 77 82 78 83 79 84 55 85
REMARK SMILES IDX 56 86 65 87 57 88 58 89 64 90 66 91 59 92 60 93 61 94 62 95
REMARK SMILES IDX 63 96
REMARK H PARENT 13 14 87 46 53 57
REMARK Flexibility Score: inf
ROOT
ATOM      1  C   UNL A   1      33.510  27.712  25.576  1.00  0.00     0.275 C 
ENDROOT
BRANCH   1   2
ATOM      2  O   UNL A   1      33.314  27.790  24.151  1.00  0.00    -0.458 OA
BRANCH   2   3
ATOM      3  C   UNL A   1      32.561  26.799  23.593  1.00  0.00     0.340 C 
ATOM      4  O   UNL A   1      32.954  25.699  23.248  1.00  0.00    -0.246 OA
BRANCH   3   5
ATOM      5  C   UNL A   1      31.127  27.193  23.608  1.00  0.00     0.083 A 
ATOM      6  C   UNL A   1      30.078  26.342  23.998  1.00  0.00     0.055 A 
ATOM      7  C   UNL A   1      28.756  26.732  23.721  1.00  0.00     0.027 A 
ATOM      8  C   UNL A   1      28.477  27.979  23.150  1.00  0.00     0.002 A 
ATOM      9  C   UNL A   1      30.831  28.468  23.094  1.00  0.00     0.018 A 
ATOM     10  C   UNL A   1      29.514  28.857  22.858  1.00  0.00     0.001 A 
BRANCH   6  11
ATOM     11  N   UNL A   1      30.234  25.108  24.670  1.00  0.00    -0.322 N 
ATOM     12  O   UNL A   1      30.699  25.851  26.826  1.00  0.00    -0.271 OA
ATOM     13  C   UNL A   1      30.634  24.955  25.990  1.00  0.00     0.265 C 
ATOM     14  H   UNL A   1      30.044  24.288  24.159  1.00  0.00     0.170 HD
BRANCH  13  15
ATOM     15  C   UNL A   1      31.051  23.532  26.323  1.00  0.00     0.363 C 
BRANCH  15  16
ATOM     16  O   UNL A   1      32.197  23.128  25.593  1.00  0.00    -0.386 OA
BRANCH  16  17
ATOM     17  N   UNL A   1      32.019  21.799  25.184  1.00  0.00    -0.094 NA
ATOM     18  C   UNL A   1      33.096  21.289  24.670  1.00  0.00     0.162 C 
BRANCH  18  19
ATOM     19  C   UNL A   1      34.430  21.905  24.601  1.00  0.00    -0.004 A 
ATOM     20  C   UNL A   1      35.252  21.831  25.725  1.00  0.00     0.010 A 
ATOM     21  C   UNL A   1      34.845  22.589  23.455  1.00  0.00     0.010 A 
ATOM     22  C   UNL A   1      36.515  22.422  25.687  1.00  0.00     0.001 A 
ATOM     23  C   UNL A   1      36.106  23.179  23.423  1.00  0.00     0.001 A 
ATOM     24  C   UNL A   1      36.940  23.093  24.539  1.00  0.00     0.000 A 
ENDBRANCH  18  19
ENDBRANCH  16  17
ENDBRANCH  15  16
ENDBRANCH  13  15
ENDBRANCH   6  11
ENDBRANCH   3   5
ENDBRANCH   2   3
ENDBRANCH   1   2
BRANCH   1  25
ATOM     25  C   UNL A   1      33.335  29.082  26.224  1.00  0.00     0.275 C 
BRANCH  25  26
ATOM     26  O   UNL A   1      33.923  29.057  27.532  1.00  0.00    -0.458 OA
BRANCH  26  27
ATOM     27  C   UNL A   1      34.485  30.212  27.951  1.00  0.00     0.338 C 
ATOM     28  O   UNL A   1      33.948  31.291  28.128  1.00  0.00    -0.246 OA
BRANCH  27  29
ATOM     29  C   UNL A   1      35.892  29.933  28.261  1.00  0.00     0.060 A 
ATOM     30  C   UNL A   1      36.824  30.074  27.236  1.00  0.00     0.016 A 
ATOM     31  C   UNL A   1      36.285  29.489  29.519  1.00  0.00     0.016 A 
ATOM     32  C   UNL A   1      38.157  29.744  27.442  1.00  0.00     0.010 A 
ATOM     33  C   UNL A   1      37.637  29.215  29.746  1.00  0.00     0.010 A 
ATOM     34  C   UNL A   1      38.583  29.327  28.706  1.00  0.00    -0.014 A 
BRANCH  34  35
ATOM     35  C   UNL A   1      40.006  28.968  28.931  1.00  0.00     0.031 A 
ATOM     36  C   UNL A   1      40.955  30.004  29.463  1.00  0.00     0.074 A 
ATOM     37  C   UNL A   1      40.446  27.721  28.664  1.00  0.00     0.049 A 
ATOM     38  N   UNL A   1      42.260  29.976  29.528  1.00  0.00    -0.248 NA
ATOM     39  C   UNL A   1      40.353  31.246  29.978  1.00  0.00     0.031 C 
ATOM     40  C   UNL A   1      39.614  26.608  28.204  1.00  0.00     0.029 A 
ATOM     41  N   UNL A   1      41.707  27.182  28.739  1.00  0.00    -0.354 N 
ATOM     42  C   UNL A   1      42.640  31.215  30.029  1.00  0.00     0.074 A 
ATOM     43  C   UNL A   1      41.428  31.969  30.262  1.00  0.00     0.031 C 
ATOM     44  C   UNL A   1      40.382  25.518  28.050  1.00  0.00     0.029 A 
ATOM     45  C   UNL A   1      41.770  25.875  28.317  1.00  0.00     0.049 A 
ATOM     46  H   UNL A   1      42.490  27.683  29.062  1.00  0.00     0.167 HD
ATOM     47  C   UNL A   1      43.891  31.678  30.261  1.00  0.00     0.037 A 
ATOM     48  C   UNL A   1      42.831  25.071  28.112  1.00  0.00     0.037 A 
ATOM     49  C   UNL A   1      45.084  30.893  30.076  1.00  0.00     0.049 A 
ATOM     50  C   UNL A   1      44.212  25.614  28.351  1.00  0.00     0.074 A 
ATOM     51  C   UNL A   1      46.399  31.257  30.306  1.00  0.00     0.029 A 
ATOM     52  N   UNL A   1      45.105  29.580  29.628  1.00  0.00    -0.354 N 
ATOM     53  N   UNL A   1      44.565  26.806  28.771  1.00  0.00    -0.248 NA
ATOM     54  C   UNL A   1      45.340  24.718  28.064  1.00  0.00     0.031 C 
ATOM     55  C   UNL A   1      47.217  30.175  29.967  1.00  0.00     0.029 A 
ATOM     56  C   UNL A   1      46.410  29.124  29.560  1.00  0.00     0.049 A 
ATOM     57  H   UNL A   1      44.308  29.051  29.394  1.00  0.00     0.167 HD
ATOM     58  C   UNL A   1      45.954  26.803  28.797  1.00  0.00     0.074 A 
ATOM     59  C   UNL A   1      46.377  25.483  28.375  1.00  0.00     0.031 C 
ATOM     60  C   UNL A   1      46.805  27.805  29.133  1.00  0.00     0.037 A 
BRANCH  47  61
ATOM     61  C   UNL A   1      44.037  33.108  30.696  1.00  0.00     0.058 A 
ATOM     62  C   UNL A   1      44.117  34.165  29.778  1.00  0.00     0.135 A 
ATOM     63  C   UNL A   1      44.066  33.426  32.064  1.00  0.00     0.135 A 
ATOM     64  F   UNL A   1      44.115  33.917  28.459  1.00  0.00    -0.206 F 
ATOM     65  C   UNL A   1      44.240  35.486  30.200  1.00  0.00     0.059 A 
ATOM     66  C   UNL A   1      44.166  34.741  32.510  1.00  0.00     0.059 A 
ATOM     67  F   UNL A   1      43.998  32.452  32.985  1.00  0.00    -0.206 F 
ATOM     68  C   UNL A   1      44.265  35.764  31.568  1.00  0.00     0.060 A 
BRANCH  68  69
ATOM     69  S   UNL A   1      44.418  37.482  32.103  1.00  0.00     0.124 S 
ATOM     70  O   UNL A   1      43.357  37.571  33.101  1.00  0.00    -0.237 OA
ATOM     71  O   UNL A   1      45.781  37.529  32.622  1.00  0.00    -0.237 OA
ATOM     72  O   UNL A   1      44.191  38.241  30.878  1.00  0.00    -0.744 OA
ENDBRANCH  68  69
ENDBRANCH  47  61
BRANCH  48  73
ATOM     73  C   UNL A   1      42.627  23.691  27.594  1.00  0.00     0.058 A 
ATOM     74  C   UNL A   1      42.604  23.428  26.218  1.00  0.00     0.135 A 
ATOM     75  C   UNL A   1      42.477  22.603  28.470  1.00  0.00     0.135 A 
ATOM     76  F   UNL A   1      42.728  24.436  25.340  1.00  0.00    -0.206 F 
ATOM     77  C   UNL A   1      42.436  22.136  25.725  1.00  0.00     0.059 A 
ATOM     78  C   UNL A   1      42.335  21.300  28.003  1.00  0.00     0.059 A 
ATOM     79  F   UNL A   1      42.501  22.800  29.797  1.00  0.00    -0.206 F 
ATOM     80  C   UNL A   1      42.307  21.078  26.628  1.00  0.00     0.060 A 
BRANCH  80  81
ATOM     81  S   UNL A   1      42.152  19.397  25.984  1.00  0.00     0.124 S 
ATOM     82  O   UNL A   1      42.647  18.608  27.107  1.00  0.00    -0.237 OA
ATOM     83  O   UNL A   1      40.721  19.298  25.717  1.00  0.00    -0.237 OA
ATOM     84  O   UNL A   1      43.003  19.413  24.799  1.00  0.00    -0.744 OA
ENDBRANCH  80  81
ENDBRANCH  48  73
BRANCH  60  85
ATOM     85  C   UNL A   1      48.274  27.506  29.067  1.00  0.00     0.058 A 
ATOM     86  C   UNL A   1      49.047  27.891  27.962  1.00  0.00     0.135 A 
ATOM     87  C   UNL A   1      48.923  26.881  30.142  1.00  0.00     0.135 A 
ATOM     88  F   UNL A   1      48.470  28.484  26.905  1.00  0.00    -0.206 F 
ATOM     89  C   UNL A   1      50.417  27.652  27.918  1.00  0.00     0.059 A 
ATOM     90  C   UNL A   1      50.295  26.651  30.129  1.00  0.00     0.059 A 
ATOM     91  F   UNL A   1      48.226  26.502  31.226  1.00  0.00    -0.206 F 
ATOM     92  C   UNL A   1      51.032  27.032  29.008  1.00  0.00     0.060 A 
BRANCH  92  93
ATOM     93  S   UNL A   1      52.816  26.764  28.960  1.00  0.00     0.124 S 
ATOM     94  O   UNL A   1      53.313  28.124  28.782  1.00  0.00    -0.237 OA
ATOM     95  O   UNL A   1      53.079  26.158  30.261  1.00  0.00    -0.237 OA
ATOM     96  O   UNL A   1      52.995  25.876  27.816  1.00  0.00    -0.744 OA
ENDBRANCH  92  93
ENDBRANCH  60  85
ENDBRANCH  34  35
ENDBRANCH  27  29
ENDBRANCH  26  27
ENDBRANCH  25  26
ENDBRANCH   1  25
TORSDOF 19
ENDMDL
MODEL 2
REMARK VINA RESULT:     -11.1      1.960      2.753
REMARK SMILES O=C(CO/N=C\c1ccccc1)Nc1ccccc1C(=O)OCCOC(=O)c1ccc(-c2c3nc(c(-c4c(F)cc(S(=O)(=O)[O-])cc4F)c4ccc([nH]4)c(-c4c(F)cc(S(=O)(=O)[O-])cc4F)c4nc(c(-c5c(F)cc(S(=O)(=O)[O-])cc5F)c5ccc2[nH]5)C=C4)C=C3)cc1
REMARK SMILES IDX 23 1 22 2 20 3 21 4 19 5 14 6 15 7 16 8 18 9 17 10 13 11
REMARK SMILES IDX 1 12 2 13 3 15 4 16 5 17 6 18 7 19 8 20 12 21 9 22 11 23
REMARK SMILES IDX 10 24 24 25 25 26 26 27 27 28 28 29 29 30 93 31 30 32 92 33
REMARK SMILES IDX 31 34 32 35 33 36 86 37 34 38 91 39 85 40 87 41 35 42 90 43
REMARK SMILES IDX 84 44 83 45 36 47 70 48 49 49 69 50 50 51 53 52 68 53 88 54
REMARK SMILES IDX 51 55 52 56 67 58 89 59 54 60 37 61 38 62 47 63 39 64 40 65
REMARK SMILES IDX 46 66 48 67 41 68 42 69 43 70 44 71 45 72 71 73 72 74 81 75
REMARK SMILES IDX 73 76 74 77 80 78 82 79 75 80 76 81 77 82 78 83 79 84 55 85
REMARK SMILES IDX 56 86 65 87 57 88 58 89 64 90 66 91 59 92 60 93 61 94 62 95
REMARK SMILES IDX 63 96
REMARK H PARENT 13 14 87 46 53 57
REMARK Flexibility Score: inf
ROOT
ATOM      1  C   UNL A   1      33.313  29.687  27.063  1.00  0.00     0.275 C 
ENDROOT
BRANCH   1   2
ATOM      2  O   UNL A   1      32.846  29.950  25.726  1.00  0.00    -0.458 OA
BRANCH   2   3
ATOM      3  C   UNL A   1      32.880  28.898  24.858  1.00  0.00     0.340 C 
ATOM      4  O   UNL A   1      33.858  28.233  24.566  1.00  0.00    -0.246 OA
BRANCH   3   5
ATOM      5  C   UNL A   1      31.498  28.560  24.427  1.00  0.00     0.083 A 
ATOM      6  C   UNL A   1      30.975  27.255  24.396  1.00  0.00     0.055 A 
ATOM      7  C   UNL A   1      29.760  27.032  23.727  1.00  0.00     0.027 A 
ATOM      8  C   UNL A   1      29.034  28.095  23.177  1.00  0.00     0.002 A 
ATOM      9  C   UNL A   1      30.729  29.627  23.927  1.00  0.00     0.018 A 
ATOM     10  C   UNL A   1      29.508  29.396  23.298  1.00  0.00     0.001 A 
BRANCH   6  11
ATOM     11  N   UNL A   1      31.568  26.124  25.003  1.00  0.00    -0.322 N 
ATOM     12  O   UNL A   1      29.815  25.389  26.346  1.00  0.00    -0.271 OA
ATOM     13  C   UNL A   1      30.992  25.349  25.999  1.00  0.00     0.265 C 
ATOM     14  H   UNL A   1      32.466  25.865  24.693  1.00  0.00     0.170 HD
BRANCH  13  15
ATOM     15  C   UNL A   1      31.990  24.438  26.693  1.00  0.00     0.363 C 
BRANCH  15  16
ATOM     16  O   UNL A   1      32.896  23.842  25.780  1.00  0.00    -0.386 OA
BRANCH  16  17
ATOM     17  N   UNL A   1      32.159  23.194  24.780  1.00  0.00    -0.094 NA
ATOM     18  C   UNL A   1      32.911  22.506  23.977  1.00  0.00     0.162 C 
BRANCH  18  19
ATOM     19  C   UNL A   1      34.357  22.264  24.095  1.00  0.00    -0.004 A 
ATOM     20  C   UNL A   1      35.226  23.080  23.373  1.00  0.00     0.010 A 
ATOM     21  C   UNL A   1      34.845  21.211  24.873  1.00  0.00     0.010 A 
ATOM     22  C   UNL A   1      36.601  22.858  23.457  1.00  0.00     0.001 A 
ATOM     23  C   UNL A   1      36.218  20.991  24.952  1.00  0.00     0.001 A 
ATOM     24  C   UNL A   1      37.094  21.817  24.246  1.00  0.00     0.000 A 
ENDBRANCH  18  19
ENDBRANCH  16  17
ENDBRANCH  15  16
ENDBRANCH  13  15
ENDBRANCH   6  11
ENDBRANCH   3   5
ENDBRANCH   2   3
ENDBRANCH   1   2
BRANCH   1  25
ATOM     25  C   UNL A   1      34.139  30.856  27.589  1.00  0.00     0.275 C 
BRANCH  25  26
ATOM     26  O   UNL A   1      35.496  30.426  27.762  1.00  0.00    -0.458 OA
BRANCH  26  27
ATOM     27  C   UNL A   1      36.077  30.755  28.936  1.00  0.00     0.338 C 
ATOM     28  O   UNL A   1      35.551  31.213  29.935  1.00  0.00    -0.246 OA
BRANCH  27  29
ATOM     29  C   UNL A   1      37.492  30.377  28.851  1.00  0.00     0.060 A 
ATOM     30  C   UNL A   1      37.985  29.973  27.613  1.00  0.00     0.016 A 
ATOM     31  C   UNL A   1      38.310  30.367  29.976  1.00  0.00     0.016 A 
ATOM     32  C   UNL A   1      39.292  29.523  27.485  1.00  0.00     0.010 A 
ATOM     33  C   UNL A   1      39.644  29.972  29.837  1.00  0.00     0.010 A 
ATOM     34  C   UNL A   1      40.143  29.534  28.593  1.00  0.00    -0.014 A 
BRANCH  34  35
ATOM     35  C   UNL A   1      41.541  29.048  28.463  1.00  0.00     0.031 A 
ATOM     36  C   UNL A   1      42.677  30.021  28.606  1.00  0.00     0.074 A 
ATOM     37  C   UNL A   1      41.791  27.746  28.222  1.00  0.00     0.049 A 
ATOM     38  N   UNL A   1      43.943  29.863  28.320  1.00  0.00    -0.248 NA
ATOM     39  C   UNL A   1      42.341  31.356  29.128  1.00  0.00     0.031 C 
ATOM     40  C   UNL A   1      40.781  26.691  28.125  1.00  0.00     0.029 A 
ATOM     41  N   UNL A   1      42.977  27.087  28.011  1.00  0.00    -0.354 N 
ATOM     42  C   UNL A   1      44.542  31.092  28.564  1.00  0.00     0.074 A 
ATOM     43  C   UNL A   1      43.504  31.984  29.034  1.00  0.00     0.031 C 
ATOM     44  C   UNL A   1      41.388  25.518  27.887  1.00  0.00     0.029 A 
ATOM     45  C   UNL A   1      42.819  25.749  27.730  1.00  0.00     0.049 A 
ATOM     46  H   UNL A   1      43.856  27.528  28.056  1.00  0.00     0.167 HD
ATOM     47  C   UNL A   1      45.840  31.441  28.400  1.00  0.00     0.037 A 
ATOM     48  C   UNL A   1      43.716  24.826  27.334  1.00  0.00     0.037 A 
ATOM     49  C   UNL A   1      46.870  30.523  27.985  1.00  0.00     0.049 A 
ATOM     50  C   UNL A   1      45.147  25.241  27.132  1.00  0.00     0.074 A 
ATOM     51  C   UNL A   1      48.221  30.767  27.812  1.00  0.00     0.029 A 
ATOM     52  N   UNL A   1      46.664  29.183  27.691  1.00  0.00    -0.354 N 
ATOM     53  N   UNL A   1      45.694  26.420  27.311  1.00  0.00    -0.248 NA
ATOM     54  C   UNL A   1      46.077  24.212  26.649  1.00  0.00     0.031 C 
ATOM     55  C   UNL A   1      48.826  29.581  27.382  1.00  0.00     0.029 A 
ATOM     56  C   UNL A   1      47.859  28.590  27.322  1.00  0.00     0.049 A 
ATOM     57  H   UNL A   1      45.795  28.722  27.738  1.00  0.00     0.167 HD
ATOM     58  C   UNL A   1      47.031  26.275  26.963  1.00  0.00     0.074 A 
ATOM     59  C   UNL A   1      47.216  24.889  26.585  1.00  0.00     0.031 C 
ATOM     60  C   UNL A   1      48.016  27.207  26.948  1.00  0.00     0.037 A 
BRANCH  47  61
ATOM     61  C   UNL A   1      46.211  32.878  28.624  1.00  0.00     0.058 A 
ATOM     62  C   UNL A   1      46.638  33.355  29.872  1.00  0.00     0.135 A 
ATOM     63  C   UNL A   1      46.167  33.790  27.556  1.00  0.00     0.135 A 
ATOM     64  F   UNL A   1      46.679  32.531  30.932  1.00  0.00    -0.206 F 
ATOM     65  C   UNL A   1      46.990  34.689  30.059  1.00  0.00     0.059 A 
ATOM     66  C   UNL A   1      46.535  35.123  27.714  1.00  0.00     0.059 A 
ATOM     67  F   UNL A   1      45.761  33.388  26.341  1.00  0.00    -0.206 F 
ATOM     68  C   UNL A   1      46.934  35.566  28.974  1.00  0.00     0.060 A 
BRANCH  68  69
ATOM     69  S   UNL A   1      47.400  37.292  29.228  1.00  0.00     0.124 S 
ATOM     70  O   UNL A   1      46.217  37.988  28.731  1.00  0.00    -0.237 OA
ATOM     71  O   UNL A   1      47.609  37.351  30.671  1.00  0.00    -0.237 OA
ATOM     72  O   UNL A   1      48.603  37.442  28.417  1.00  0.00    -0.744 OA
ENDBRANCH  68  69
ENDBRANCH  47  61
BRANCH  48  73
ATOM     73  C   UNL A   1      43.270  23.438  27.040  1.00  0.00     0.058 A 
ATOM     74  C   UNL A   1      43.078  22.999  25.722  1.00  0.00     0.135 A 
ATOM     75  C   UNL A   1      43.052  22.512  28.074  1.00  0.00     0.135 A 
ATOM     76  F   UNL A   1      43.260  23.849  24.700  1.00  0.00    -0.206 F 
ATOM     77  C   UNL A   1      42.683  21.695  25.439  1.00  0.00     0.059 A 
ATOM     78  C   UNL A   1      42.682  21.197  27.815  1.00  0.00     0.059 A 
ATOM     79  F   UNL A   1      43.230  22.879  29.353  1.00  0.00    -0.206 F 
ATOM     80  C   UNL A   1      42.492  20.799  26.493  1.00  0.00     0.060 A 
BRANCH  80  81
ATOM     81  S   UNL A   1      42.039  19.091  26.117  1.00  0.00     0.124 S 
ATOM     82  O   UNL A   1      40.611  19.222  25.845  1.00  0.00    -0.237 OA
ATOM     83  O   UNL A   1      42.883  18.793  24.964  1.00  0.00    -0.237 OA
ATOM     84  O   UNL A   1      42.387  18.376  27.340  1.00  0.00    -0.744 OA
ENDBRANCH  80  81
ENDBRANCH  48  73
BRANCH  60  85
ATOM     85  C   UNL A   1      49.382  26.753  26.520  1.00  0.00     0.058 A 
ATOM     86  C   UNL A   1      50.243  26.096  27.411  1.00  0.00     0.135 A 
ATOM     87  C   UNL A   1      49.808  26.927  25.195  1.00  0.00     0.135 A 
ATOM     88  F   UNL A   1      49.883  25.913  28.691  1.00  0.00    -0.206 F 
ATOM     89  C   UNL A   1      51.492  25.638  27.004  1.00  0.00     0.059 A 
ATOM     90  C   UNL A   1      51.044  26.459  24.761  1.00  0.00     0.059 A 
ATOM     91  F   UNL A   1      49.014  27.543  24.304  1.00  0.00    -0.206 F 
ATOM     92  C   UNL A   1      51.882  25.823  25.676  1.00  0.00     0.060 A 
BRANCH  92  93
ATOM     93  S   UNL A   1      53.487  25.188  25.148  1.00  0.00     0.124 S 
ATOM     94  O   UNL A   1      53.557  25.672  23.774  1.00  0.00    -0.237 OA
ATOM     95  O   UNL A   1      54.403  25.822  26.091  1.00  0.00    -0.237 OA
ATOM     96  O   UNL A   1      53.346  23.743  25.298  1.00  0.00    -0.744 OA
ENDBRANCH  92  93
ENDBRANCH  60  85
ENDBRANCH  34  35
ENDBRANCH  27  29
ENDBRANCH  26  27
ENDBRANCH  25  26
ENDBRANCH   1  25
TORSDOF 19
ENDMDL
MODEL 3
REMARK VINA RESULT:     -10.9      2.185      3.217
REMARK SMILES O=C(CO/N=C\c1ccccc1)Nc1ccccc1C(=O)OCCOC(=O)c1ccc(-c2c3nc(c(-c4c(F)cc(S(=O)(=O)[O-])cc4F)c4ccc([nH]4)c(-c4c(F)cc(S(=O)(=O)[O-])cc4F)c4nc(c(-c5c(F)cc(S(=O)(=O)[O-])cc5F)c5ccc2[nH]5)C=C4)C=C3)cc1
REMARK SMILES IDX 23 1 22 2 20 3 21 4 19 5 14 6 15 7 16 8 18 9 17 10 13 11
REMARK SMILES IDX 1 12 2 13 3 15 4 16 5 17 6 18 7 19 8 20 12 21 9 22 11 23
REMARK SMILES IDX 10 24 24 25 25 26 26 27 27 28 28 29 29 30 93 31 30 32 92 33
REMARK SMILES IDX 31 34 32 35 33 36 86 37 34 38 91 39 85 40 87 41 35 42 90 43
REMARK SMILES IDX 84 44 83 45 36 47 70 48 49 49 69 50 50 51 53 52 68 53 88 54
REMARK SMILES IDX 51 55 52 56 67 58 89 59 54 60 37 61 38 62 47 63 39 64 40 65
REMARK SMILES IDX 46 66 48 67 41 68 42 69 43 70 44 71 45 72 71 73 72 74 81 75
REMARK SMILES IDX 73 76 74 77 80 78 82 79 75 80 76 81 77 82 78 83 79 84 55 85
REMARK SMILES IDX 56 86 65 87 57 88 58 89 64 90 66 91 59 92 60 93 61 94 62 95
REMARK SMILES IDX 63 96
REMARK H PARENT 13 14 87 46 53 57
REMARK Flexibility Score: inf
ROOT
ATOM      1  C   UNL A   1      33.938  29.247  26.000  1.00  0.00     0.275 C 
ENDROOT
BRANCH   1   2
ATOM      2  O   UNL A   1      33.866  27.819  26.178  1.00  0.00    -0.458 OA
BRANCH   2   3
ATOM      3  C   UNL A   1      33.549  27.090  25.069  1.00  0.00     0.340 C 
ATOM      4  O   UNL A   1      34.018  27.229  23.953  1.00  0.00    -0.246 OA
BRANCH   3   5
ATOM      5  C   UNL A   1      32.649  25.969  25.448  1.00  0.00     0.083 A 
ATOM      6  C   UNL A   1      32.992  24.610  25.346  1.00  0.00     0.055 A 
ATOM      7  C   UNL A   1      31.976  23.648  25.481  1.00  0.00     0.027 A 
ATOM      8  C   UNL A   1      30.666  24.021  25.799  1.00  0.00     0.002 A 
ATOM      9  C   UNL A   1      31.343  26.329  25.831  1.00  0.00     0.018 A 
ATOM     10  C   UNL A   1      30.355  25.361  25.997  1.00  0.00     0.001 A 
BRANCH   6  11
ATOM     11  N   UNL A   1      34.297  24.112  25.128  1.00  0.00    -0.322 N 
ATOM     12  O   UNL A   1      34.350  24.051  22.802  1.00  0.00    -0.271 OA
ATOM     13  C   UNL A   1      34.834  23.772  23.895  1.00  0.00     0.265 C 
ATOM     14  H   UNL A   1      34.873  23.997  25.918  1.00  0.00     0.170 HD
BRANCH  13  15
ATOM     15  C   UNL A   1      36.103  22.944  24.008  1.00  0.00     0.363 C 
BRANCH  15  16
ATOM     16  O   UNL A   1      35.829  21.576  24.255  1.00  0.00    -0.386 OA
BRANCH  16  17
ATOM     17  N   UNL A   1      35.486  21.426  25.606  1.00  0.00    -0.094 NA
ATOM     18  C   UNL A   1      34.471  20.637  25.776  1.00  0.00     0.162 C 
BRANCH  18  19
ATOM     19  C   UNL A   1      33.777  19.841  24.752  1.00  0.00    -0.004 A 
ATOM     20  C   UNL A   1      34.169  18.516  24.566  1.00  0.00     0.010 A 
ATOM     21  C   UNL A   1      32.784  20.413  23.952  1.00  0.00     0.010 A 
ATOM     22  C   UNL A   1      33.536  17.747  23.589  1.00  0.00     0.001 A 
ATOM     23  C   UNL A   1      32.157  19.642  22.976  1.00  0.00     0.001 A 
ATOM     24  C   UNL A   1      32.532  18.310  22.798  1.00  0.00     0.000 A 
ENDBRANCH  18  19
ENDBRANCH  16  17
ENDBRANCH  15  16
ENDBRANCH  13  15
ENDBRANCH   6  11
ENDBRANCH   3   5
ENDBRANCH   2   3
ENDBRANCH   1   2
BRANCH   1  25
ATOM     25  C   UNL A   1      34.135  29.950  27.339  1.00  0.00     0.275 C 
BRANCH  25  26
ATOM     26  O   UNL A   1      35.324  29.442  27.961  1.00  0.00    -0.458 OA
BRANCH  26  27
ATOM     27  C   UNL A   1      35.983  30.301  28.770  1.00  0.00     0.338 C 
ATOM     28  O   UNL A   1      35.518  31.178  29.477  1.00  0.00    -0.246 OA
BRANCH  27  29
ATOM     29  C   UNL A   1      37.404  29.941  28.732  1.00  0.00     0.060 A 
ATOM     30  C   UNL A   1      38.031  29.894  27.490  1.00  0.00     0.016 A 
ATOM     31  C   UNL A   1      38.099  29.604  29.889  1.00  0.00     0.016 A 
ATOM     32  C   UNL A   1      39.352  29.479  27.379  1.00  0.00     0.010 A 
ATOM     33  C   UNL A   1      39.447  29.244  29.787  1.00  0.00     0.010 A 
ATOM     34  C   UNL A   1      40.081  29.165  28.530  1.00  0.00    -0.014 A 
BRANCH  34  35
ATOM     35  C   UNL A   1      41.492  28.715  28.417  1.00  0.00     0.031 A 
ATOM     36  C   UNL A   1      42.601  29.717  28.571  1.00  0.00     0.074 A 
ATOM     37  C   UNL A   1      41.779  27.419  28.183  1.00  0.00     0.049 A 
ATOM     38  N   UNL A   1      43.874  29.591  28.300  1.00  0.00    -0.248 NA
ATOM     39  C   UNL A   1      42.225  31.044  29.086  1.00  0.00     0.031 C 
ATOM     40  C   UNL A   1      40.796  26.338  28.077  1.00  0.00     0.029 A 
ATOM     41  N   UNL A   1      42.983  26.790  27.988  1.00  0.00    -0.354 N 
ATOM     42  C   UNL A   1      44.438  30.835  28.548  1.00  0.00     0.074 A 
ATOM     43  C   UNL A   1      43.373  31.702  29.003  1.00  0.00     0.031 C 
ATOM     44  C   UNL A   1      41.436  25.181  27.849  1.00  0.00     0.029 A 
ATOM     45  C   UNL A   1      42.863  25.448  27.708  1.00  0.00     0.049 A 
ATOM     46  H   UNL A   1      43.850  27.254  28.042  1.00  0.00     0.167 HD
ATOM     47  C   UNL A   1      45.729  31.216  28.397  1.00  0.00     0.037 A 
ATOM     48  C   UNL A   1      43.787  24.547  27.325  1.00  0.00     0.037 A 
ATOM     49  C   UNL A   1      46.787  30.325  27.998  1.00  0.00     0.049 A 
ATOM     50  C   UNL A   1      45.210  24.998  27.139  1.00  0.00     0.074 A 
ATOM     51  C   UNL A   1      48.133  30.602  27.840  1.00  0.00     0.029 A 
ATOM     52  N   UNL A   1      46.618  28.979  27.705  1.00  0.00    -0.354 N 
ATOM     53  N   UNL A   1      45.724  26.191  27.321  1.00  0.00    -0.248 NA
ATOM     54  C   UNL A   1      46.171  23.992  26.669  1.00  0.00     0.031 C 
ATOM     55  C   UNL A   1      48.773  29.432  27.420  1.00  0.00     0.029 A 
ATOM     56  C   UNL A   1      47.832  28.416  27.351  1.00  0.00     0.049 A 
ATOM     57  H   UNL A   1      45.761  28.496  27.743  1.00  0.00     0.167 HD
ATOM     58  C   UNL A   1      47.068  26.079  26.989  1.00  0.00     0.074 A 
ATOM     59  C   UNL A   1      47.293  24.698  26.617  1.00  0.00     0.031 C 
ATOM     60  C   UNL A   1      48.029  27.037  26.983  1.00  0.00     0.037 A 
BRANCH  47  61
ATOM     61  C   UNL A   1      46.061  32.664  28.623  1.00  0.00     0.058 A 
ATOM     62  C   UNL A   1      46.000  33.614  27.594  1.00  0.00     0.135 A 
ATOM     63  C   UNL A   1      46.417  33.111  29.906  1.00  0.00     0.135 A 
ATOM     64  F   UNL A   1      45.685  33.239  26.344  1.00  0.00    -0.206 F 
ATOM     65  C   UNL A   1      46.300  34.954  27.823  1.00  0.00     0.059 A 
ATOM     66  C   UNL A   1      46.699  34.449  30.165  1.00  0.00     0.059 A 
ATOM     67  F   UNL A   1      46.495  32.241  30.926  1.00  0.00    -0.206 F 
ATOM     68  C   UNL A   1      46.650  35.362  29.112  1.00  0.00     0.060 A 
BRANCH  68  69
ATOM     69  S   UNL A   1      47.030  37.104  29.399  1.00  0.00     0.124 S 
ATOM     70  O   UNL A   1      47.697  37.465  28.152  1.00  0.00    -0.237 OA
ATOM     71  O   UNL A   1      45.706  37.684  29.600  1.00  0.00    -0.237 OA
ATOM     72  O   UNL A   1      47.883  37.075  30.582  1.00  0.00    -0.744 OA
ENDBRANCH  68  69
ENDBRANCH  47  61
BRANCH  48  73
ATOM     73  C   UNL A   1      43.380  23.147  27.029  1.00  0.00     0.058 A 
ATOM     74  C   UNL A   1      43.304  22.675  25.712  1.00  0.00     0.135 A 
ATOM     75  C   UNL A   1      43.084  22.245  28.065  1.00  0.00     0.135 A 
ATOM     76  F   UNL A   1      43.564  23.502  24.687  1.00  0.00    -0.206 F 
ATOM     77  C   UNL A   1      42.946  21.360  25.429  1.00  0.00     0.059 A 
ATOM     78  C   UNL A   1      42.750  20.919  27.809  1.00  0.00     0.059 A 
ATOM     79  F   UNL A   1      43.151  22.645  29.344  1.00  0.00    -0.206 F 
ATOM     80  C   UNL A   1      42.675  20.488  26.486  1.00  0.00     0.060 A 
BRANCH  80  81
ATOM     81  S   UNL A   1      42.271  18.766  26.115  1.00  0.00     0.124 S 
ATOM     82  O   UNL A   1      40.858  18.867  25.768  1.00  0.00    -0.237 OA
ATOM     83  O   UNL A   1      43.179  18.464  25.014  1.00  0.00    -0.237 OA
ATOM     84  O   UNL A   1      42.566  18.077  27.367  1.00  0.00    -0.744 OA
ENDBRANCH  80  81
ENDBRANCH  48  73
BRANCH  60  85
ATOM     85  C   UNL A   1      49.411  26.617  26.572  1.00  0.00     0.058 A 
ATOM     86  C   UNL A   1      50.327  26.112  27.507  1.00  0.00     0.135 A 
ATOM     87  C   UNL A   1      49.801  26.668  25.226  1.00  0.00     0.135 A 
ATOM     88  F   UNL A   1      50.003  26.051  28.808  1.00  0.00    -0.206 F 
ATOM     89  C   UNL A   1      51.592  25.683  27.121  1.00  0.00     0.059 A 
ATOM     90  C   UNL A   1      51.053  26.225  24.814  1.00  0.00     0.059 A 
ATOM     91  F   UNL A   1      48.955  27.135  24.293  1.00  0.00    -0.206 F 
ATOM     92  C   UNL A   1      51.946  25.743  25.771  1.00  0.00     0.060 A 
BRANCH  92  93
ATOM     93  S   UNL A   1      53.575  25.145  25.274  1.00  0.00     0.124 S 
ATOM     94  O   UNL A   1      53.337  23.712  25.150  1.00  0.00    -0.237 OA
ATOM     95  O   UNL A   1      53.805  25.861  24.023  1.00  0.00    -0.237 OA
ATOM     96  O   UNL A   1      54.435  25.545  26.383  1.00  0.00    -0.744 OA
ENDBRANCH  92  93
ENDBRANCH  60  85
ENDBRANCH  34  35
ENDBRANCH  27  29
ENDBRANCH  26  27
ENDBRANCH  25  26
ENDBRANCH   1  25
TORSDOF 19
ENDMDL
