MODEL 1
REMARK VINA RESULT:     -11.0      0.000      0.000
REMARK SMILES O=C(C[C@@H]1COCCN1C(=O)c1csc(Cc2ccccc2)n1)OCCOC(=O)c1ccc(-c2c3nc(c(-c4c(F)cc(S(=O)(=O)[O-])cc4F)c4ccc([nH]4)c(-c4c(F)cc(S(=O)(=O)[O-])cc4F)c4nc(c(-c5c(F)cc(S(=O)(=O)[O-])cc5F)c5ccc2[nH]5)C=C4)C=C3)cc1
REMARK SMILES IDX 25 1 24 2 2 3 1 4 3 5 4 6 5 7 9 8 6 9 8 10 7 11 10 12 11 13
REMARK SMILES IDX 12 14 13 15 23 16 14 17 15 18 16 19 17 20 18 21 22 22 19 23
REMARK SMILES IDX 21 24 20 25 26 26 27 27 28 28 29 29 30 30 31 31 95 32 32 33
REMARK SMILES IDX 94 34 33 35 34 36 35 37 88 38 36 39 93 40 87 41 89 42 37 43
REMARK SMILES IDX 92 44 86 45 85 46 38 48 72 49 51 50 71 51 52 52 55 53 70 54
REMARK SMILES IDX 90 55 53 56 54 57 69 59 91 60 56 61 39 62 40 63 49 64 41 65
REMARK SMILES IDX 42 66 48 67 50 68 43 69 44 70 45 71 46 72 47 73 73 74 74 75
REMARK SMILES IDX 83 76 75 77 76 78 82 79 84 80 77 81 78 82 79 83 80 84 81 85
REMARK SMILES IDX 57 86 58 87 67 88 59 89 60 90 66 91 68 92 61 93 62 94 63 95
REMARK SMILES IDX 64 96 65 97
REMARK H PARENT 89 47 55 58
REMARK Flexibility Score: inf
ROOT
ATOM      1  C   UNL A   1      33.722  30.699  27.287  1.00  0.00     0.274 C 
ENDROOT
BRANCH   1   2
ATOM      2  O   UNL A   1      34.114  29.556  26.512  1.00  0.00    -0.462 OA
BRANCH   2   3
ATOM      3  C   UNL A   1      33.459  28.408  26.752  1.00  0.00     0.308 C 
ATOM      4  O   UNL A   1      32.870  28.229  27.816  1.00  0.00    -0.252 OA
BRANCH   3   5
ATOM      5  C   UNL A   1      33.438  27.374  25.651  1.00  0.00     0.150 C 
BRANCH   5   6
ATOM      6  C   UNL A   1      32.638  27.516  24.362  1.00  0.00     0.122 C 
ATOM      7  C   UNL A   1      31.188  27.036  24.647  1.00  0.00     0.185 C 
ATOM      8  N   UNL A   1      32.952  27.107  22.927  1.00  0.00    -0.329 N 
ATOM      9  O   UNL A   1      30.280  27.758  23.802  1.00  0.00    -0.377 OA
ATOM     10  C   UNL A   1      32.040  27.911  22.078  1.00  0.00     0.148 C 
ATOM     11  C   UNL A   1      30.572  27.554  22.411  1.00  0.00     0.181 C 
BRANCH   8  12
ATOM     12  C   UNL A   1      33.178  25.826  22.295  1.00  0.00     0.273 C 
ATOM     13  O   UNL A   1      33.341  25.789  21.069  1.00  0.00    -0.267 OA
BRANCH  12  14
ATOM     14  C   UNL A   1      33.510  24.571  23.005  1.00  0.00     0.139 A 
ATOM     15  C   UNL A   1      32.656  23.980  23.928  1.00  0.00     0.101 A 
ATOM     16  N   UNL A   1      34.822  24.129  23.176  1.00  0.00    -0.236 NA
ATOM     17  S   UNL A   1      33.451  22.726  24.806  1.00  0.00    -0.126 S 
ATOM     18  C   UNL A   1      34.915  23.092  23.992  1.00  0.00     0.098 A 
BRANCH  18  19
ATOM     19  C   UNL A   1      36.147  22.214  24.072  1.00  0.00     0.103 C 
BRANCH  19  20
ATOM     20  C   UNL A   1      37.223  22.570  25.069  1.00  0.00    -0.041 A 
ATOM     21  C   UNL A   1      37.270  23.847  25.643  1.00  0.00     0.004 A 
ATOM     22  C   UNL A   1      38.250  21.657  25.360  1.00  0.00     0.004 A 
ATOM     23  C   UNL A   1      38.318  24.202  26.495  1.00  0.00     0.000 A 
ATOM     24  C   UNL A   1      39.293  22.012  26.217  1.00  0.00     0.000 A 
ATOM     25  C   UNL A   1      39.326  23.284  26.785  1.00  0.00     0.000 A 
ENDBRANCH  19  20
ENDBRANCH  18  19
ENDBRANCH  12  14
ENDBRANCH   8  12
ENDBRANCH   5   6
ENDBRANCH   3   5
ENDBRANCH   2   3
ENDBRANCH   1   2
BRANCH   1  26
ATOM     26  C   UNL A   1      34.777  31.239  28.270  1.00  0.00     0.275 C 
BRANCH  26  27
ATOM     27  O   UNL A   1      35.615  30.169  28.763  1.00  0.00    -0.458 OA
BRANCH  27  28
ATOM     28  C   UNL A   1      36.472  30.477  29.777  1.00  0.00     0.338 C 
ATOM     29  O   UNL A   1      36.140  30.946  30.843  1.00  0.00    -0.246 OA
BRANCH  28  30
ATOM     30  C   UNL A   1      37.897  30.098  29.458  1.00  0.00     0.060 A 
ATOM     31  C   UNL A   1      38.218  29.845  28.125  1.00  0.00     0.016 A 
ATOM     32  C   UNL A   1      38.928  30.008  30.406  1.00  0.00     0.016 A 
ATOM     33  C   UNL A   1      39.528  29.487  27.763  1.00  0.00     0.010 A 
ATOM     34  C   UNL A   1      40.217  29.599  30.066  1.00  0.00     0.010 A 
ATOM     35  C   UNL A   1      40.529  29.342  28.734  1.00  0.00    -0.014 A 
BRANCH  35  36
ATOM     36  C   UNL A   1      41.911  28.956  28.376  1.00  0.00     0.031 A 
ATOM     37  C   UNL A   1      42.237  27.527  28.059  1.00  0.00     0.074 A 
ATOM     38  C   UNL A   1      42.887  29.883  28.405  1.00  0.00     0.049 A 
ATOM     39  N   UNL A   1      43.353  27.023  27.600  1.00  0.00    -0.248 NA
ATOM     40  C   UNL A   1      41.179  26.532  28.299  1.00  0.00     0.031 C 
ATOM     41  C   UNL A   1      42.711  31.286  28.788  1.00  0.00     0.029 A 
ATOM     42  N   UNL A   1      44.226  29.778  28.127  1.00  0.00    -0.354 N 
ATOM     43  C   UNL A   1      43.120  25.662  27.448  1.00  0.00     0.074 A 
ATOM     44  C   UNL A   1      41.773  25.409  27.916  1.00  0.00     0.031 C 
ATOM     45  C   UNL A   1      43.904  31.904  28.745  1.00  0.00     0.029 A 
ATOM     46  C   UNL A   1      44.920  30.951  28.307  1.00  0.00     0.049 A 
ATOM     47  H   UNL A   1      44.651  28.942  27.828  1.00  0.00     0.167 HD
ATOM     48  C   UNL A   1      43.953  24.722  26.942  1.00  0.00     0.037 A 
ATOM     49  C   UNL A   1      46.225  31.228  28.123  1.00  0.00     0.037 A 
ATOM     50  C   UNL A   1      45.305  24.982  26.518  1.00  0.00     0.049 A 
ATOM     51  C   UNL A   1      47.134  30.161  27.576  1.00  0.00     0.074 A 
ATOM     52  C   UNL A   1      46.195  24.120  25.901  1.00  0.00     0.029 A 
ATOM     53  N   UNL A   1      45.975  26.184  26.699  1.00  0.00    -0.354 N 
ATOM     54  N   UNL A   1      46.850  28.921  27.257  1.00  0.00    -0.248 NA
ATOM     55  C   UNL A   1      48.534  30.539  27.337  1.00  0.00     0.031 C 
ATOM     56  C   UNL A   1      47.420  24.782  25.760  1.00  0.00     0.029 A 
ATOM     57  C   UNL A   1      47.279  26.072  26.245  1.00  0.00     0.049 A 
ATOM     58  H   UNL A   1      45.581  26.995  27.093  1.00  0.00     0.167 HD
ATOM     59  C   UNL A   1      48.029  28.378  26.758  1.00  0.00     0.074 A 
ATOM     60  C   UNL A   1      49.024  29.429  26.801  1.00  0.00     0.031 C 
ATOM     61  C   UNL A   1      48.265  27.122  26.301  1.00  0.00     0.037 A 
BRANCH  48  62
ATOM     62  C   UNL A   1      43.428  23.322  26.787  1.00  0.00     0.058 A 
ATOM     63  C   UNL A   1      43.152  22.790  25.517  1.00  0.00     0.135 A 
ATOM     64  C   UNL A   1      43.307  22.470  27.896  1.00  0.00     0.135 A 
ATOM     65  F   UNL A   1      43.244  23.564  24.424  1.00  0.00    -0.206 F 
ATOM     66  C   UNL A   1      42.773  21.462  25.351  1.00  0.00     0.059 A 
ATOM     67  C   UNL A   1      42.947  21.133  27.752  1.00  0.00     0.059 A 
ATOM     68  F   UNL A   1      43.558  22.929  29.131  1.00  0.00    -0.206 F 
ATOM     69  C   UNL A   1      42.680  20.638  26.475  1.00  0.00     0.060 A 
BRANCH  69  70
ATOM     70  S   UNL A   1      42.237  18.905  26.235  1.00  0.00     0.124 S 
ATOM     71  O   UNL A   1      40.878  19.019  25.714  1.00  0.00    -0.237 OA
ATOM     72  O   UNL A   1      43.245  18.454  25.281  1.00  0.00    -0.237 OA
ATOM     73  O   UNL A   1      42.349  18.335  27.575  1.00  0.00    -0.744 OA
ENDBRANCH  69  70
ENDBRANCH  48  62
BRANCH  49  74
ATOM     74  C   UNL A   1      46.745  32.586  28.427  1.00  0.00     0.058 A 
ATOM     75  C   UNL A   1      47.222  32.910  29.705  1.00  0.00     0.135 A 
ATOM     76  C   UNL A   1      46.761  33.589  27.446  1.00  0.00     0.135 A 
ATOM     77  F   UNL A   1      47.223  31.982  30.674  1.00  0.00    -0.206 F 
ATOM     78  C   UNL A   1      47.669  34.191  30.012  1.00  0.00     0.059 A 
ATOM     79  C   UNL A   1      47.225  34.872  27.721  1.00  0.00     0.059 A 
ATOM     80  F   UNL A   1      46.334  33.321  26.203  1.00  0.00    -0.206 F 
ATOM     81  C   UNL A   1      47.661  35.167  29.014  1.00  0.00     0.060 A 
BRANCH  81  82
ATOM     82  S   UNL A   1      48.257  36.823  29.417  1.00  0.00     0.124 S 
ATOM     83  O   UNL A   1      48.874  37.226  28.159  1.00  0.00    -0.237 OA
ATOM     84  O   UNL A   1      47.022  37.516  29.773  1.00  0.00    -0.237 OA
ATOM     85  O   UNL A   1      49.176  36.587  30.526  1.00  0.00    -0.744 OA
ENDBRANCH  81  82
ENDBRANCH  49  74
BRANCH  61  86
ATOM     86  C   UNL A   1      49.651  26.817  25.806  1.00  0.00     0.058 A 
ATOM     87  C   UNL A   1      50.046  27.125  24.495  1.00  0.00     0.135 A 
ATOM     88  C   UNL A   1      50.608  26.248  26.662  1.00  0.00     0.135 A 
ATOM     89  F   UNL A   1      49.167  27.663  23.633  1.00  0.00    -0.206 F 
ATOM     90  C   UNL A   1      51.334  26.859  24.042  1.00  0.00     0.059 A 
ATOM     91  C   UNL A   1      51.910  25.999  26.239  1.00  0.00     0.059 A 
ATOM     92  F   UNL A   1      50.286  25.942  27.929  1.00  0.00    -0.206 F 
ATOM     93  C   UNL A   1      52.260  26.296  24.922  1.00  0.00     0.060 A 
BRANCH  93  94
ATOM     94  S   UNL A   1      53.938  25.985  24.331  1.00  0.00     0.124 S 
ATOM     95  O   UNL A   1      54.207  24.665  24.892  1.00  0.00    -0.237 OA
ATOM     96  O   UNL A   1      53.776  26.038  22.881  1.00  0.00    -0.237 OA
ATOM     97  O   UNL A   1      54.710  27.083  24.909  1.00  0.00    -0.744 OA
ENDBRANCH  93  94
ENDBRANCH  61  86
ENDBRANCH  35  36
ENDBRANCH  28  30
ENDBRANCH  27  28
ENDBRANCH  26  27
ENDBRANCH   1  26
TORSDOF 19
ENDMDL
MODEL 2
REMARK VINA RESULT:     -11.0      3.992      6.735
REMARK SMILES O=C(C[C@@H]1COCCN1C(=O)c1csc(Cc2ccccc2)n1)OCCOC(=O)c1ccc(-c2c3nc(c(-c4c(F)cc(S(=O)(=O)[O-])cc4F)c4ccc([nH]4)c(-c4c(F)cc(S(=O)(=O)[O-])cc4F)c4nc(c(-c5c(F)cc(S(=O)(=O)[O-])cc5F)c5ccc2[nH]5)C=C4)C=C3)cc1
REMARK SMILES IDX 25 1 24 2 2 3 1 4 3 5 4 6 5 7 9 8 6 9 8 10 7 11 10 12 11 13
REMARK SMILES IDX 12 14 13 15 23 16 14 17 15 18 16 19 17 20 18 21 22 22 19 23
REMARK SMILES IDX 21 24 20 25 26 26 27 27 28 28 29 29 30 30 31 31 95 32 32 33
REMARK SMILES IDX 94 34 33 35 34 36 35 37 88 38 36 39 93 40 87 41 89 42 37 43
REMARK SMILES IDX 92 44 86 45 85 46 38 48 72 49 51 50 71 51 52 52 55 53 70 54
REMARK SMILES IDX 90 55 53 56 54 57 69 59 91 60 56 61 39 62 40 63 49 64 41 65
REMARK SMILES IDX 42 66 48 67 50 68 43 69 44 70 45 71 46 72 47 73 73 74 74 75
REMARK SMILES IDX 83 76 75 77 76 78 82 79 84 80 77 81 78 82 79 83 80 84 81 85
REMARK SMILES IDX 57 86 58 87 67 88 59 89 60 90 66 91 68 92 61 93 62 94 63 95
REMARK SMILES IDX 64 96 65 97
REMARK H PARENT 89 47 55 58
REMARK Flexibility Score: inf
ROOT
ATOM      1  C   UNL A   1      33.561  33.829  28.176  1.00  0.00     0.274 C 
ENDROOT
BRANCH   1   2
ATOM      2  O   UNL A   1      34.170  35.129  28.164  1.00  0.00    -0.462 OA
BRANCH   2   3
ATOM      3  C   UNL A   1      33.607  36.068  28.942  1.00  0.00     0.308 C 
ATOM      4  O   UNL A   1      33.676  37.258  28.643  1.00  0.00    -0.252 OA
BRANCH   3   5
ATOM      5  C   UNL A   1      32.851  35.600  30.163  1.00  0.00     0.150 C 
BRANCH   5   6
ATOM      6  C   UNL A   1      33.510  35.238  31.488  1.00  0.00     0.122 C 
ATOM      7  C   UNL A   1      34.062  36.546  32.118  1.00  0.00     0.185 C 
ATOM      8  N   UNL A   1      34.494  34.134  31.859  1.00  0.00    -0.329 N 
ATOM      9  O   UNL A   1      34.033  36.428  33.548  1.00  0.00    -0.377 OA
ATOM     10  C   UNL A   1      34.398  33.996  33.332  1.00  0.00     0.148 C 
ATOM     11  C   UNL A   1      34.825  35.321  34.006  1.00  0.00     0.181 C 
BRANCH   8  12
ATOM     12  C   UNL A   1      35.850  33.843  31.445  1.00  0.00     0.273 C 
ATOM     13  O   UNL A   1      36.225  34.223  30.330  1.00  0.00    -0.267 OA
BRANCH  12  14
ATOM     14  C   UNL A   1      36.931  33.371  32.338  1.00  0.00     0.139 A 
ATOM     15  C   UNL A   1      38.052  34.138  32.633  1.00  0.00     0.101 A 
ATOM     16  N   UNL A   1      37.167  32.018  32.582  1.00  0.00    -0.236 NA
ATOM     17  S   UNL A   1      39.262  33.201  33.428  1.00  0.00    -0.126 S 
ATOM     18  C   UNL A   1      38.286  31.802  33.254  1.00  0.00     0.098 A 
BRANCH  18  19
ATOM     19  C   UNL A   1      38.594  30.489  33.944  1.00  0.00     0.103 C 
BRANCH  19  20
ATOM     20  C   UNL A   1      39.790  29.693  33.480  1.00  0.00    -0.041 A 
ATOM     21  C   UNL A   1      39.620  28.508  32.754  1.00  0.00     0.004 A 
ATOM     22  C   UNL A   1      41.087  30.079  33.855  1.00  0.00     0.004 A 
ATOM     23  C   UNL A   1      40.724  27.728  32.403  1.00  0.00     0.000 A 
ATOM     24  C   UNL A   1      42.189  29.301  33.499  1.00  0.00     0.000 A 
ATOM     25  C   UNL A   1      42.008  28.126  32.772  1.00  0.00     0.000 A 
ENDBRANCH  19  20
ENDBRANCH  18  19
ENDBRANCH  12  14
ENDBRANCH   8  12
ENDBRANCH   5   6
ENDBRANCH   3   5
ENDBRANCH   2   3
ENDBRANCH   1   2
BRANCH   1  26
ATOM     26  C   UNL A   1      34.507  32.641  27.918  1.00  0.00     0.275 C 
BRANCH  26  27
ATOM     27  O   UNL A   1      34.024  31.448  28.578  1.00  0.00    -0.458 OA
BRANCH  27  28
ATOM     28  C   UNL A   1      34.422  30.254  28.057  1.00  0.00     0.338 C 
ATOM     29  O   UNL A   1      33.726  29.530  27.380  1.00  0.00    -0.246 OA
BRANCH  28  30
ATOM     30  C   UNL A   1      35.871  29.955  28.351  1.00  0.00     0.060 A 
ATOM     31  C   UNL A   1      36.768  29.975  27.284  1.00  0.00     0.016 A 
ATOM     32  C   UNL A   1      36.384  29.683  29.629  1.00  0.00     0.016 A 
ATOM     33  C   UNL A   1      38.131  29.705  27.492  1.00  0.00     0.010 A 
ATOM     34  C   UNL A   1      37.724  29.359  29.838  1.00  0.00     0.010 A 
ATOM     35  C   UNL A   1      38.612  29.375  28.767  1.00  0.00    -0.014 A 
BRANCH  35  36
ATOM     36  C   UNL A   1      40.041  29.077  29.006  1.00  0.00     0.031 A 
ATOM     37  C   UNL A   1      40.586  27.711  28.711  1.00  0.00     0.074 A 
ATOM     38  C   UNL A   1      40.832  30.018  29.556  1.00  0.00     0.049 A 
ATOM     39  N   UNL A   1      41.828  27.303  28.733  1.00  0.00    -0.248 NA
ATOM     40  C   UNL A   1      39.613  26.666  28.360  1.00  0.00     0.031 C 
ATOM     41  C   UNL A   1      40.395  31.353  29.972  1.00  0.00     0.029 A 
ATOM     42  N   UNL A   1      42.164  29.987  29.878  1.00  0.00    -0.354 N 
ATOM     43  C   UNL A   1      41.795  25.968  28.350  1.00  0.00     0.074 A 
ATOM     44  C   UNL A   1      40.403  25.619  28.156  1.00  0.00     0.031 C 
ATOM     45  C   UNL A   1      41.437  32.003  30.518  1.00  0.00     0.029 A 
ATOM     46  C   UNL A   1      42.616  31.144  30.466  1.00  0.00     0.049 A 
ATOM     47  H   UNL A   1      42.743  29.209  29.706  1.00  0.00     0.167 HD
ATOM     48  C   UNL A   1      42.837  25.125  28.159  1.00  0.00     0.037 A 
ATOM     49  C   UNL A   1      43.847  31.478  30.900  1.00  0.00     0.037 A 
ATOM     50  C   UNL A   1      44.214  25.476  28.396  1.00  0.00     0.049 A 
ATOM     51  C   UNL A   1      44.987  30.518  30.691  1.00  0.00     0.074 A 
ATOM     52  C   UNL A   1      45.350  24.727  28.139  1.00  0.00     0.029 A 
ATOM     53  N   UNL A   1      44.642  26.661  28.978  1.00  0.00    -0.354 N 
ATOM     54  N   UNL A   1      44.968  29.323  30.150  1.00  0.00    -0.248 NA
ATOM     55  C   UNL A   1      46.318  30.961  31.126  1.00  0.00     0.031 C 
ATOM     56  C   UNL A   1      46.459  25.434  28.616  1.00  0.00     0.029 A 
ATOM     57  C   UNL A   1      46.020  26.644  29.127  1.00  0.00     0.049 A 
ATOM     58  H   UNL A   1      44.054  27.402  29.246  1.00  0.00     0.167 HD
ATOM     59  C   UNL A   1      46.288  28.882  30.158  1.00  0.00     0.074 A 
ATOM     60  C   UNL A   1      47.079  29.945  30.742  1.00  0.00     0.031 C 
ATOM     61  C   UNL A   1      46.797  27.705  29.718  1.00  0.00     0.037 A 
BRANCH  48  62
ATOM     62  C   UNL A   1      42.546  23.744  27.642  1.00  0.00     0.058 A 
ATOM     63  C   UNL A   1      42.498  23.484  26.264  1.00  0.00     0.135 A 
ATOM     64  C   UNL A   1      42.426  22.657  28.521  1.00  0.00     0.135 A 
ATOM     65  F   UNL A   1      42.598  24.490  25.380  1.00  0.00    -0.206 F 
ATOM     66  C   UNL A   1      42.339  22.192  25.773  1.00  0.00     0.059 A 
ATOM     67  C   UNL A   1      42.286  21.353  28.052  1.00  0.00     0.059 A 
ATOM     68  F   UNL A   1      42.464  22.852  29.847  1.00  0.00    -0.206 F 
ATOM     69  C   UNL A   1      42.241  21.130  26.675  1.00  0.00     0.060 A 
BRANCH  69  70
ATOM     70  S   UNL A   1      42.088  19.456  26.019  1.00  0.00     0.124 S 
ATOM     71  O   UNL A   1      40.656  19.377  25.749  1.00  0.00    -0.237 OA
ATOM     72  O   UNL A   1      42.952  19.501  24.844  1.00  0.00    -0.237 OA
ATOM     73  O   UNL A   1      42.568  18.615  27.113  1.00  0.00    -0.744 OA
ENDBRANCH  69  70
ENDBRANCH  48  62
BRANCH  49  74
ATOM     74  C   UNL A   1      44.075  32.798  31.542  1.00  0.00     0.058 A 
ATOM     75  C   UNL A   1      44.289  33.950  30.773  1.00  0.00     0.135 A 
ATOM     76  C   UNL A   1      44.096  32.927  32.939  1.00  0.00     0.135 A 
ATOM     77  F   UNL A   1      44.279  33.874  29.434  1.00  0.00    -0.206 F 
ATOM     78  C   UNL A   1      44.548  35.182  31.365  1.00  0.00     0.059 A 
ATOM     79  C   UNL A   1      44.330  34.152  33.555  1.00  0.00     0.059 A 
ATOM     80  F   UNL A   1      43.876  31.856  33.717  1.00  0.00    -0.206 F 
ATOM     81  C   UNL A   1      44.572  35.271  32.758  1.00  0.00     0.060 A 
BRANCH  81  82
ATOM     82  S   UNL A   1      44.894  36.878  33.518  1.00  0.00     0.124 S 
ATOM     83  O   UNL A   1      43.701  37.058  34.336  1.00  0.00    -0.237 OA
ATOM     84  O   UNL A   1      46.135  36.630  34.246  1.00  0.00    -0.237 OA
ATOM     85  O   UNL A   1      45.017  37.772  32.371  1.00  0.00    -0.744 OA
ENDBRANCH  81  82
ENDBRANCH  49  74
BRANCH  61  86
ATOM     86  C   UNL A   1      48.282  27.505  29.846  1.00  0.00     0.058 A 
ATOM     87  C   UNL A   1      48.839  26.814  30.934  1.00  0.00     0.135 A 
ATOM     88  C   UNL A   1      49.155  27.970  28.849  1.00  0.00     0.135 A 
ATOM     89  F   UNL A   1      48.048  26.356  31.919  1.00  0.00    -0.206 F 
ATOM     90  C   UNL A   1      50.210  26.614  31.042  1.00  0.00     0.059 A 
ATOM     91  C   UNL A   1      50.528  27.756  28.923  1.00  0.00     0.059 A 
ATOM     92  F   UNL A   1      48.675  28.628  27.782  1.00  0.00    -0.206 F 
ATOM     93  C   UNL A   1      51.048  27.087  30.031  1.00  0.00     0.060 A 
BRANCH  93  94
ATOM     94  S   UNL A   1      52.824  26.791  30.168  1.00  0.00     0.124 S 
ATOM     95  O   UNL A   1      53.325  28.132  30.452  1.00  0.00    -0.237 OA
ATOM     96  O   UNL A   1      52.900  25.839  31.272  1.00  0.00    -0.237 OA
ATOM     97  O   UNL A   1      53.180  26.251  28.859  1.00  0.00    -0.744 OA
ENDBRANCH  93  94
ENDBRANCH  61  86
ENDBRANCH  35  36
ENDBRANCH  28  30
ENDBRANCH  27  28
ENDBRANCH  26  27
ENDBRANCH   1  26
TORSDOF 19
ENDMDL
MODEL 3
REMARK VINA RESULT:     -10.9      6.549     11.825
REMARK SMILES O=C(C[C@@H]1COCCN1C(=O)c1csc(Cc2ccccc2)n1)OCCOC(=O)c1ccc(-c2c3nc(c(-c4c(F)cc(S(=O)(=O)[O-])cc4F)c4ccc([nH]4)c(-c4c(F)cc(S(=O)(=O)[O-])cc4F)c4nc(c(-c5c(F)cc(S(=O)(=O)[O-])cc5F)c5ccc2[nH]5)C=C4)C=C3)cc1
REMARK SMILES IDX 25 1 24 2 2 3 1 4 3 5 4 6 5 7 9 8 6 9 8 10 7 11 10 12 11 13
REMARK SMILES IDX 12 14 13 15 23 16 14 17 15 18 16 19 17 20 18 21 22 22 19 23
REMARK SMILES IDX 21 24 20 25 26 26 27 27 28 28 29 29 30 30 31 31 95 32 32 33
REMARK SMILES IDX 94 34 33 35 34 36 35 37 88 38 36 39 93 40 87 41 89 42 37 43
REMARK SMILES IDX 92 44 86 45 85 46 38 48 72 49 51 50 71 51 52 52 55 53 70 54
REMARK SMILES IDX 90 55 53 56 54 57 69 59 91 60 56 61 39 62 40 63 49 64 41 65
REMARK SMILES IDX 42 66 48 67 50 68 43 69 44 70 45 71 46 72 47 73 73 74 74 75
REMARK SMILES IDX 83 76 75 77 76 78 82 79 84 80 77 81 78 82 79 83 80 84 81 85
REMARK SMILES IDX 57 86 58 87 67 88 59 89 60 90 66 91 68 92 61 93 62 94 63 95
REMARK SMILES IDX 64 96 65 97
REMARK H PARENT 89 47 55 58
REMARK Flexibility Score: inf
ROOT
ATOM      1  C   UNL A   1      40.301  21.965  26.939  1.00  0.00     0.274 C 
ENDROOT
BRANCH   1   2
ATOM      2  O   UNL A   1      39.448  21.537  25.868  1.00  0.00    -0.462 OA
BRANCH   2   3
ATOM      3  C   UNL A   1      38.253  22.142  25.766  1.00  0.00     0.308 C 
ATOM      4  O   UNL A   1      38.131  23.340  26.013  1.00  0.00    -0.252 OA
BRANCH   3   5
ATOM      5  C   UNL A   1      37.086  21.307  25.295  1.00  0.00     0.150 C 
BRANCH   5   6
ATOM      6  C   UNL A   1      35.627  21.633  25.592  1.00  0.00     0.122 C 
ATOM      7  C   UNL A   1      34.750  20.540  24.921  1.00  0.00     0.185 C 
ATOM      8  N   UNL A   1      34.842  22.937  25.492  1.00  0.00    -0.329 N 
ATOM      9  O   UNL A   1      33.552  20.363  25.691  1.00  0.00    -0.377 OA
ATOM     10  C   UNL A   1      33.643  22.742  26.341  1.00  0.00     0.148 C 
ATOM     11  C   UNL A   1      32.792  21.579  25.781  1.00  0.00     0.181 C 
BRANCH   8  12
ATOM     12  C   UNL A   1      34.498  23.797  24.380  1.00  0.00     0.273 C 
ATOM     13  O   UNL A   1      34.759  23.416  23.233  1.00  0.00    -0.267 OA
BRANCH  12  14
ATOM     14  C   UNL A   1      33.610  24.977  24.458  1.00  0.00     0.139 A 
ATOM     15  C   UNL A   1      33.082  25.598  23.333  1.00  0.00     0.101 A 
ATOM     16  N   UNL A   1      33.591  25.832  25.561  1.00  0.00    -0.236 NA
ATOM     17  S   UNL A   1      32.361  27.113  23.731  1.00  0.00    -0.126 S 
ATOM     18  C   UNL A   1      32.870  26.922  25.357  1.00  0.00     0.098 A 
BRANCH  18  19
ATOM     19  C   UNL A   1      32.401  27.823  26.481  1.00  0.00     0.103 C 
BRANCH  19  20
ATOM     20  C   UNL A   1      33.334  28.899  26.981  1.00  0.00    -0.041 A 
ATOM     21  C   UNL A   1      32.852  30.180  27.279  1.00  0.00     0.004 A 
ATOM     22  C   UNL A   1      34.715  28.658  27.060  1.00  0.00     0.004 A 
ATOM     23  C   UNL A   1      33.731  31.197  27.656  1.00  0.00     0.000 A 
ATOM     24  C   UNL A   1      35.591  29.675  27.442  1.00  0.00     0.000 A 
ATOM     25  C   UNL A   1      35.099  30.944  27.741  1.00  0.00     0.000 A 
ENDBRANCH  19  20
ENDBRANCH  18  19
ENDBRANCH  12  14
ENDBRANCH   8  12
ENDBRANCH   5   6
ENDBRANCH   3   5
ENDBRANCH   2   3
ENDBRANCH   1   2
BRANCH   1  26
ATOM     26  C   UNL A   1      41.504  22.837  26.533  1.00  0.00     0.275 C 
BRANCH  26  27
ATOM     27  O   UNL A   1      41.065  24.133  26.066  1.00  0.00    -0.458 OA
BRANCH  27  28
ATOM     28  C   UNL A   1      41.955  25.160  26.175  1.00  0.00     0.338 C 
ATOM     29  O   UNL A   1      42.862  25.370  25.402  1.00  0.00    -0.246 OA
BRANCH  28  30
ATOM     30  C   UNL A   1      41.642  26.068  27.338  1.00  0.00     0.060 A 
ATOM     31  C   UNL A   1      42.526  27.114  27.601  1.00  0.00     0.016 A 
ATOM     32  C   UNL A   1      40.511  25.948  28.160  1.00  0.00     0.016 A 
ATOM     33  C   UNL A   1      42.291  27.995  28.669  1.00  0.00     0.010 A 
ATOM     34  C   UNL A   1      40.297  26.782  29.257  1.00  0.00     0.010 A 
ATOM     35  C   UNL A   1      41.186  27.820  29.516  1.00  0.00    -0.014 A 
BRANCH  35  36
ATOM     36  C   UNL A   1      40.926  28.729  30.653  1.00  0.00     0.031 A 
ATOM     37  C   UNL A   1      41.665  28.550  31.946  1.00  0.00     0.074 A 
ATOM     38  C   UNL A   1      39.972  29.673  30.543  1.00  0.00     0.049 A 
ATOM     39  N   UNL A   1      41.668  29.321  33.002  1.00  0.00    -0.248 NA
ATOM     40  C   UNL A   1      42.498  27.345  32.077  1.00  0.00     0.031 C 
ATOM     41  C   UNL A   1      39.122  29.885  29.369  1.00  0.00     0.029 A 
ATOM     42  N   UNL A   1      39.543  30.617  31.441  1.00  0.00    -0.354 N 
ATOM     43  C   UNL A   1      42.539  28.726  33.905  1.00  0.00     0.074 A 
ATOM     44  C   UNL A   1      43.004  27.497  33.295  1.00  0.00     0.031 C 
ATOM     45  C   UNL A   1      38.257  30.879  29.630  1.00  0.00     0.029 A 
ATOM     46  C   UNL A   1      38.507  31.391  30.974  1.00  0.00     0.049 A 
ATOM     47  H   UNL A   1      39.939  30.730  32.335  1.00  0.00     0.167 HD
ATOM     48  C   UNL A   1      42.926  29.180  35.120  1.00  0.00     0.037 A 
ATOM     49  C   UNL A   1      37.847  32.408  31.560  1.00  0.00     0.037 A 
ATOM     50  C   UNL A   1      42.422  30.384  35.731  1.00  0.00     0.049 A 
ATOM     51  C   UNL A   1      38.285  32.885  32.918  1.00  0.00     0.074 A 
ATOM     52  C   UNL A   1      42.823  30.982  36.913  1.00  0.00     0.029 A 
ATOM     53  N   UNL A   1      41.384  31.155  35.227  1.00  0.00    -0.354 N 
ATOM     54  N   UNL A   1      39.245  32.423  33.683  1.00  0.00    -0.248 NA
ATOM     55  C   UNL A   1      37.569  34.038  33.481  1.00  0.00     0.031 C 
ATOM     56  C   UNL A   1      41.991  32.081  37.153  1.00  0.00     0.029 A 
ATOM     57  C   UNL A   1      41.103  32.197  36.096  1.00  0.00     0.049 A 
ATOM     58  H   UNL A   1      40.916  30.985  34.378  1.00  0.00     0.167 HD
ATOM     59  C   UNL A   1      39.263  33.243  34.806  1.00  0.00     0.074 A 
ATOM     60  C   UNL A   1      38.230  34.239  34.613  1.00  0.00     0.031 C 
ATOM     61  C   UNL A   1      40.066  33.179  35.898  1.00  0.00     0.037 A 
BRANCH  48  62
ATOM     62  C   UNL A   1      43.965  28.397  35.871  1.00  0.00     0.058 A 
ATOM     63  C   UNL A   1      45.330  28.701  35.746  1.00  0.00     0.135 A 
ATOM     64  C   UNL A   1      43.594  27.415  36.803  1.00  0.00     0.135 A 
ATOM     65  F   UNL A   1      45.740  29.625  34.863  1.00  0.00    -0.206 F 
ATOM     66  C   UNL A   1      46.292  28.058  36.518  1.00  0.00     0.059 A 
ATOM     67  C   UNL A   1      44.538  26.772  37.600  1.00  0.00     0.059 A 
ATOM     68  F   UNL A   1      42.303  27.086  36.960  1.00  0.00    -0.206 F 
ATOM     69  C   UNL A   1      45.886  27.099  37.449  1.00  0.00     0.060 A 
BRANCH  69  70
ATOM     70  S   UNL A   1      47.144  26.314  38.478  1.00  0.00     0.124 S 
ATOM     71  O   UNL A   1      46.700  24.923  38.471  1.00  0.00    -0.237 OA
ATOM     72  O   UNL A   1      48.370  26.591  37.738  1.00  0.00    -0.237 OA
ATOM     73  O   UNL A   1      47.019  27.005  39.758  1.00  0.00    -0.744 OA
ENDBRANCH  69  70
ENDBRANCH  48  62
BRANCH  49  74
ATOM     74  C   UNL A   1      36.722  33.070  30.849  1.00  0.00     0.058 A 
ATOM     75  C   UNL A   1      36.956  33.930  29.767  1.00  0.00     0.135 A 
ATOM     76  C   UNL A   1      35.394  32.864  31.250  1.00  0.00     0.135 A 
ATOM     77  F   UNL A   1      38.211  34.158  29.351  1.00  0.00    -0.206 F 
ATOM     78  C   UNL A   1      35.914  34.589  29.124  1.00  0.00     0.059 A 
ATOM     79  C   UNL A   1      34.332  33.494  30.608  1.00  0.00     0.059 A 
ATOM     80  F   UNL A   1      35.119  32.034  32.268  1.00  0.00    -0.206 F 
ATOM     81  C   UNL A   1      34.605  34.369  29.556  1.00  0.00     0.060 A 
BRANCH  81  82
ATOM     82  S   UNL A   1      33.257  35.218  28.706  1.00  0.00     0.124 S 
ATOM     83  O   UNL A   1      33.985  36.194  27.905  1.00  0.00    -0.237 OA
ATOM     84  O   UNL A   1      32.626  34.128  27.966  1.00  0.00    -0.237 OA
ATOM     85  O   UNL A   1      32.462  35.763  29.802  1.00  0.00    -0.744 OA
ENDBRANCH  81  82
ENDBRANCH  49  74
BRANCH  61  86
ATOM     86  C   UNL A   1      39.864  34.218  36.965  1.00  0.00     0.058 A 
ATOM     87  C   UNL A   1      39.119  33.945  38.123  1.00  0.00     0.135 A 
ATOM     88  C   UNL A   1      40.458  35.486  36.851  1.00  0.00     0.135 A 
ATOM     89  F   UNL A   1      38.524  32.751  38.278  1.00  0.00    -0.206 F 
ATOM     90  C   UNL A   1      38.948  34.900  39.119  1.00  0.00     0.059 A 
ATOM     91  C   UNL A   1      40.322  36.447  37.848  1.00  0.00     0.059 A 
ATOM     92  F   UNL A   1      41.189  35.796  35.769  1.00  0.00    -0.206 F 
ATOM     93  C   UNL A   1      39.554  36.149  38.974  1.00  0.00     0.060 A 
BRANCH  93  94
ATOM     94  S   UNL A   1      39.351  37.370  40.289  1.00  0.00     0.124 S 
ATOM     95  O   UNL A   1      38.626  36.599  41.295  1.00  0.00    -0.237 OA
ATOM     96  O   UNL A   1      40.732  37.705  40.622  1.00  0.00    -0.237 OA
ATOM     97  O   UNL A   1      38.591  38.438  39.646  1.00  0.00    -0.744 OA
ENDBRANCH  93  94
ENDBRANCH  61  86
ENDBRANCH  35  36
ENDBRANCH  28  30
ENDBRANCH  27  28
ENDBRANCH  26  27
ENDBRANCH   1  26
TORSDOF 19
ENDMDL
