MODEL 1
REMARK VINA RESULT:     -10.7      0.000      0.000
REMARK SMILES C[C@@H](C(=O)OCCOC(=O)c1ccc(-c2c3nc(c(-c4c(F)cc(S(=O)(=O)[O-])cc4F)c4ccc([nH]4)c(-c4c(F)cc(S(=O)(=O)[O-])cc4F)c4nc(c(-c5c(F)cc(S(=O)(=O)[O-])cc5F)c5ccc2[nH]5)C=C4)C=C3)cc1)c1ccc(NC2CCCC2)cc1F
REMARK SMILES IDX 6 1 5 2 3 3 4 4 2 5 1 6 77 7 78 8 88 9 79 10 87 11 89 12
REMARK SMILES IDX 80 13 81 14 82 16 83 17 86 18 84 19 85 20 7 21 8 22 9 23
REMARK SMILES IDX 10 24 11 25 12 26 76 27 13 28 75 29 14 30 15 31 16 32 69 33
REMARK SMILES IDX 17 34 74 35 68 36 70 37 18 38 73 39 67 40 66 41 19 43 53 44
REMARK SMILES IDX 32 45 52 46 33 47 36 48 51 49 71 50 34 51 35 52 50 54 72 55
REMARK SMILES IDX 37 56 20 57 21 58 30 59 22 60 23 61 29 62 31 63 24 64 25 65
REMARK SMILES IDX 26 66 27 67 28 68 54 69 55 70 64 71 56 72 57 73 63 74 65 75
REMARK SMILES IDX 58 76 59 77 60 78 61 79 62 80 38 81 39 82 48 83 40 84 41 85
REMARK SMILES IDX 47 86 49 87 42 88 43 89 44 90 45 91 46 92
REMARK H PARENT 81 15 70 42 36 53
REMARK Flexibility Score: inf
ROOT
ATOM      1  C   UNL A   1      32.158  30.192  26.024  1.00  0.00     0.274 C 
ENDROOT
BRANCH   1   2
ATOM      2  O   UNL A   1      32.583  28.814  25.987  1.00  0.00    -0.462 OA
BRANCH   2   3
ATOM      3  C   UNL A   1      31.674  27.886  26.400  1.00  0.00     0.313 C 
ATOM      4  O   UNL A   1      31.245  27.817  27.546  1.00  0.00    -0.252 OA
BRANCH   3   5
ATOM      5  C   UNL A   1      31.311  26.881  25.298  1.00  0.00     0.129 C 
ATOM      6  C   UNL A   1      29.990  26.148  25.564  1.00  0.00     0.025 C 
BRANCH   5   7
ATOM      7  C   UNL A   1      32.487  25.967  24.967  1.00  0.00     0.002 A 
ATOM      8  C   UNL A   1      33.120  25.258  25.999  1.00  0.00     0.010 A 
ATOM      9  C   UNL A   1      32.951  25.739  23.672  1.00  0.00     0.129 A 
ATOM     10  C   UNL A   1      34.160  24.350  25.731  1.00  0.00     0.026 A 
ATOM     11  C   UNL A   1      33.996  24.848  23.411  1.00  0.00     0.065 A 
ATOM     12  F   UNL A   1      32.376  26.342  22.624  1.00  0.00    -0.207 F 
ATOM     13  C   UNL A   1      34.611  24.113  24.432  1.00  0.00     0.037 A 
BRANCH  13  14
ATOM     14  N   UNL A   1      35.584  23.202  24.093  1.00  0.00    -0.382 N 
ATOM     15  H   UNL A   1      35.280  22.484  23.492  1.00  0.00     0.160 HD
BRANCH  14  16
ATOM     16  C   UNL A   1      36.987  23.121  24.472  1.00  0.00     0.079 C 
ATOM     17  C   UNL A   1      37.335  23.886  25.745  1.00  0.00     0.025 C 
ATOM     18  C   UNL A   1      37.540  21.705  24.652  1.00  0.00     0.025 C 
ATOM     19  C   UNL A   1      38.634  23.234  26.191  1.00  0.00     0.002 C 
ATOM     20  C   UNL A   1      38.411  21.755  25.909  1.00  0.00     0.002 C 
ENDBRANCH  14  16
ENDBRANCH  13  14
ENDBRANCH   5   7
ENDBRANCH   3   5
ENDBRANCH   2   3
ENDBRANCH   1   2
BRANCH   1  21
ATOM     21  C   UNL A   1      32.722  30.882  27.262  1.00  0.00     0.275 C 
BRANCH  21  22
ATOM     22  O   UNL A   1      33.952  30.240  27.637  1.00  0.00    -0.458 OA
BRANCH  22  23
ATOM     23  C   UNL A   1      34.692  30.874  28.575  1.00  0.00     0.338 C 
ATOM     24  O   UNL A   1      34.345  31.810  29.276  1.00  0.00    -0.246 OA
BRANCH  23  25
ATOM     25  C   UNL A   1      36.044  30.284  28.616  1.00  0.00     0.060 A 
ATOM     26  C   UNL A   1      36.611  29.882  29.824  1.00  0.00     0.016 A 
ATOM     27  C   UNL A   1      36.791  30.212  27.438  1.00  0.00     0.016 A 
ATOM     28  C   UNL A   1      37.951  29.495  29.864  1.00  0.00     0.010 A 
ATOM     29  C   UNL A   1      38.108  29.739  27.473  1.00  0.00     0.010 A 
ATOM     30  C   UNL A   1      38.723  29.418  28.694  1.00  0.00    -0.014 A 
BRANCH  30  31
ATOM     31  C   UNL A   1      40.174  29.066  28.758  1.00  0.00     0.031 A 
ATOM     32  C   UNL A   1      41.175  30.056  29.306  1.00  0.00     0.074 A 
ATOM     33  C   UNL A   1      40.610  27.855  28.353  1.00  0.00     0.049 A 
ATOM     34  N   UNL A   1      42.484  30.010  29.278  1.00  0.00    -0.248 NA
ATOM     35  C   UNL A   1      40.637  31.264  29.954  1.00  0.00     0.031 C 
ATOM     36  C   UNL A   1      39.767  26.778  27.834  1.00  0.00     0.029 A 
ATOM     37  N   UNL A   1      41.875  27.317  28.340  1.00  0.00    -0.354 N 
ATOM     38  C   UNL A   1      42.922  31.221  29.807  1.00  0.00     0.074 A 
ATOM     39  C   UNL A   1      41.740  31.966  30.181  1.00  0.00     0.031 C 
ATOM     40  C   UNL A   1      40.519  25.687  27.632  1.00  0.00     0.029 A 
ATOM     41  C   UNL A   1      41.913  26.008  27.917  1.00  0.00     0.049 A 
ATOM     42  H   UNL A   1      42.678  27.819  28.607  1.00  0.00     0.167 HD
ATOM     43  C   UNL A   1      44.192  31.673  29.949  1.00  0.00     0.037 A 
ATOM     44  C   UNL A   1      42.950  25.163  27.758  1.00  0.00     0.037 A 
ATOM     45  C   UNL A   1      45.369  30.896  29.654  1.00  0.00     0.049 A 
ATOM     46  C   UNL A   1      44.348  25.658  27.995  1.00  0.00     0.074 A 
ATOM     47  C   UNL A   1      46.698  31.270  29.760  1.00  0.00     0.029 A 
ATOM     48  N   UNL A   1      45.360  29.576  29.229  1.00  0.00    -0.354 N 
ATOM     49  N   UNL A   1      44.745  26.842  28.397  1.00  0.00    -0.248 NA
ATOM     50  C   UNL A   1      45.441  24.715  27.721  1.00  0.00     0.031 C 
ATOM     51  C   UNL A   1      47.493  30.181  29.384  1.00  0.00     0.029 A 
ATOM     52  C   UNL A   1      46.659  29.119  29.075  1.00  0.00     0.049 A 
ATOM     53  H   UNL A   1      44.550  29.042  29.061  1.00  0.00     0.167 HD
ATOM     54  C   UNL A   1      46.133  26.794  28.397  1.00  0.00     0.074 A 
ATOM     55  C   UNL A   1      46.508  25.451  28.004  1.00  0.00     0.031 C 
ATOM     56  C   UNL A   1      47.018  27.784  28.673  1.00  0.00     0.037 A 
BRANCH  43  57
ATOM     57  C   UNL A   1      44.380  33.095  30.400  1.00  0.00     0.058 A 
ATOM     58  C   UNL A   1      44.312  34.179  29.513  1.00  0.00     0.135 A 
ATOM     59  C   UNL A   1      44.594  33.376  31.761  1.00  0.00     0.135 A 
ATOM     60  F   UNL A   1      44.127  33.967  28.201  1.00  0.00    -0.206 F 
ATOM     61  C   UNL A   1      44.472  35.490  29.955  1.00  0.00     0.059 A 
ATOM     62  C   UNL A   1      44.734  34.678  32.228  1.00  0.00     0.059 A 
ATOM     63  F   UNL A   1      44.667  32.374  32.653  1.00  0.00    -0.206 F 
ATOM     64  C   UNL A   1      44.686  35.730  31.314  1.00  0.00     0.060 A 
BRANCH  64  65
ATOM     65  S   UNL A   1      44.886  37.433  31.879  1.00  0.00     0.124 S 
ATOM     66  O   UNL A   1      43.595  37.680  32.516  1.00  0.00    -0.237 OA
ATOM     67  O   UNL A   1      46.028  37.334  32.782  1.00  0.00    -0.237 OA
ATOM     68  O   UNL A   1      45.130  38.173  30.645  1.00  0.00    -0.744 OA
ENDBRANCH  64  65
ENDBRANCH  43  57
BRANCH  44  69
ATOM     69  C   UNL A   1      42.699  23.760  27.336  1.00  0.00     0.058 A 
ATOM     70  C   UNL A   1      42.795  23.394  25.986  1.00  0.00     0.135 A 
ATOM     71  C   UNL A   1      42.402  22.755  28.270  1.00  0.00     0.135 A 
ATOM     72  F   UNL A   1      43.067  24.322  25.056  1.00  0.00    -0.206 F 
ATOM     73  C   UNL A   1      42.607  22.079  25.574  1.00  0.00     0.059 A 
ATOM     74  C   UNL A   1      42.237  21.429  27.886  1.00  0.00     0.059 A 
ATOM     75  F   UNL A   1      42.312  23.055  29.575  1.00  0.00    -0.206 F 
ATOM     76  C   UNL A   1      42.335  21.101  26.533  1.00  0.00     0.060 A 
BRANCH  76  77
ATOM     77  S   UNL A   1      42.183  19.378  26.013  1.00  0.00     0.124 S 
ATOM     78  O   UNL A   1      40.762  19.291  25.698  1.00  0.00    -0.237 OA
ATOM     79  O   UNL A   1      43.095  19.311  24.875  1.00  0.00    -0.237 OA
ATOM     80  O   UNL A   1      42.617  18.639  27.195  1.00  0.00    -0.744 OA
ENDBRANCH  76  77
ENDBRANCH  44  69
BRANCH  56  81
ATOM     81  C   UNL A   1      48.477  27.454  28.545  1.00  0.00     0.058 A 
ATOM     82  C   UNL A   1      49.111  27.437  27.293  1.00  0.00     0.135 A 
ATOM     83  C   UNL A   1      49.257  27.191  29.681  1.00  0.00     0.135 A 
ATOM     84  F   UNL A   1      48.406  27.677  26.175  1.00  0.00    -0.206 F 
ATOM     85  C   UNL A   1      50.466  27.147  27.168  1.00  0.00     0.059 A 
ATOM     86  C   UNL A   1      50.618  26.917  29.582  1.00  0.00     0.059 A 
ATOM     87  F   UNL A   1      48.699  27.203  30.902  1.00  0.00    -0.206 F 
ATOM     88  C   UNL A   1      51.210  26.886  28.319  1.00  0.00     0.060 A 
BRANCH  88  89
ATOM     89  S   UNL A   1      52.973  26.531  28.150  1.00  0.00     0.124 S 
ATOM     90  O   UNL A   1      53.299  26.025  29.480  1.00  0.00    -0.237 OA
ATOM     91  O   UNL A   1      52.996  25.546  27.074  1.00  0.00    -0.237 OA
ATOM     92  O   UNL A   1      53.548  27.831  27.814  1.00  0.00    -0.744 OA
ENDBRANCH  88  89
ENDBRANCH  56  81
ENDBRANCH  30  31
ENDBRANCH  23  25
ENDBRANCH  22  23
ENDBRANCH  21  22
ENDBRANCH   1  21
TORSDOF 17
ENDMDL
MODEL 2
REMARK VINA RESULT:     -10.6      2.249      2.822
REMARK SMILES C[C@@H](C(=O)OCCOC(=O)c1ccc(-c2c3nc(c(-c4c(F)cc(S(=O)(=O)[O-])cc4F)c4ccc([nH]4)c(-c4c(F)cc(S(=O)(=O)[O-])cc4F)c4nc(c(-c5c(F)cc(S(=O)(=O)[O-])cc5F)c5ccc2[nH]5)C=C4)C=C3)cc1)c1ccc(NC2CCCC2)cc1F
REMARK SMILES IDX 6 1 5 2 3 3 4 4 2 5 1 6 77 7 78 8 88 9 79 10 87 11 89 12
REMARK SMILES IDX 80 13 81 14 82 16 83 17 86 18 84 19 85 20 7 21 8 22 9 23
REMARK SMILES IDX 10 24 11 25 12 26 76 27 13 28 75 29 14 30 15 31 16 32 69 33
REMARK SMILES IDX 17 34 74 35 68 36 70 37 18 38 73 39 67 40 66 41 19 43 53 44
REMARK SMILES IDX 32 45 52 46 33 47 36 48 51 49 71 50 34 51 35 52 50 54 72 55
REMARK SMILES IDX 37 56 20 57 21 58 30 59 22 60 23 61 29 62 31 63 24 64 25 65
REMARK SMILES IDX 26 66 27 67 28 68 54 69 55 70 64 71 56 72 57 73 63 74 65 75
REMARK SMILES IDX 58 76 59 77 60 78 61 79 62 80 38 81 39 82 48 83 40 84 41 85
REMARK SMILES IDX 47 86 49 87 42 88 43 89 44 90 45 91 46 92
REMARK H PARENT 81 15 70 42 36 53
REMARK Flexibility Score: inf
ROOT
ATOM      1  C   UNL A   1      32.971  29.310  27.252  1.00  0.00     0.274 C 
ENDROOT
BRANCH   1   2
ATOM      2  O   UNL A   1      32.853  28.385  26.151  1.00  0.00    -0.462 OA
BRANCH   2   3
ATOM      3  C   UNL A   1      31.949  27.375  26.300  1.00  0.00     0.313 C 
ATOM      4  O   UNL A   1      31.373  27.126  27.352  1.00  0.00    -0.252 OA
BRANCH   3   5
ATOM      5  C   UNL A   1      31.796  26.526  25.030  1.00  0.00     0.129 C 
ATOM      6  C   UNL A   1      30.508  26.830  24.255  1.00  0.00     0.025 C 
BRANCH   5   7
ATOM      7  C   UNL A   1      32.029  25.046  25.317  1.00  0.00     0.002 A 
ATOM      8  C   UNL A   1      30.952  24.151  25.235  1.00  0.00     0.010 A 
ATOM      9  C   UNL A   1      33.279  24.500  25.608  1.00  0.00     0.129 A 
ATOM     10  C   UNL A   1      31.134  22.769  25.420  1.00  0.00     0.026 A 
ATOM     11  C   UNL A   1      33.453  23.127  25.809  1.00  0.00     0.065 A 
ATOM     12  F   UNL A   1      34.368  25.277  25.665  1.00  0.00    -0.207 F 
ATOM     13  C   UNL A   1      32.388  22.224  25.696  1.00  0.00     0.037 A 
BRANCH  13  14
ATOM     14  N   UNL A   1      32.647  20.881  25.835  1.00  0.00    -0.382 N 
ATOM     15  H   UNL A   1      33.208  20.651  26.612  1.00  0.00     0.160 HD
BRANCH  14  16
ATOM     16  C   UNL A   1      32.232  19.742  25.030  1.00  0.00     0.079 C 
ATOM     17  C   UNL A   1      32.488  19.909  23.535  1.00  0.00     0.025 C 
ATOM     18  C   UNL A   1      32.843  18.396  25.427  1.00  0.00     0.025 C 
ATOM     19  C   UNL A   1      32.481  18.476  23.026  1.00  0.00     0.002 C 
ATOM     20  C   UNL A   1      33.212  17.703  24.114  1.00  0.00     0.002 C 
ENDBRANCH  14  16
ENDBRANCH  13  14
ENDBRANCH   5   7
ENDBRANCH   3   5
ENDBRANCH   2   3
ENDBRANCH   1   2
BRANCH   1  21
ATOM     21  C   UNL A   1      34.326  30.008  27.208  1.00  0.00     0.275 C 
BRANCH  21  22
ATOM     22  O   UNL A   1      35.233  29.328  28.090  1.00  0.00    -0.458 OA
BRANCH  22  23
ATOM     23  C   UNL A   1      35.915  30.108  28.959  1.00  0.00     0.338 C 
ATOM     24  O   UNL A   1      35.447  30.894  29.765  1.00  0.00    -0.246 OA
BRANCH  23  25
ATOM     25  C   UNL A   1      37.365  29.901  28.773  1.00  0.00     0.060 A 
ATOM     26  C   UNL A   1      37.932  29.928  27.499  1.00  0.00     0.016 A 
ATOM     27  C   UNL A   1      38.156  29.588  29.880  1.00  0.00     0.016 A 
ATOM     28  C   UNL A   1      39.265  29.555  27.328  1.00  0.00     0.010 A 
ATOM     29  C   UNL A   1      39.515  29.301  29.709  1.00  0.00     0.010 A 
ATOM     30  C   UNL A   1      40.079  29.234  28.425  1.00  0.00    -0.014 A 
BRANCH  30  31
ATOM     31  C   UNL A   1      41.486  28.771  28.223  1.00  0.00     0.031 A 
ATOM     32  C   UNL A   1      42.640  29.720  28.446  1.00  0.00     0.074 A 
ATOM     33  C   UNL A   1      41.750  27.497  27.865  1.00  0.00     0.049 A 
ATOM     34  N   UNL A   1      43.907  29.565  28.152  1.00  0.00    -0.248 NA
ATOM     35  C   UNL A   1      42.329  31.021  29.061  1.00  0.00     0.031 C 
ATOM     36  C   UNL A   1      40.750  26.451  27.648  1.00  0.00     0.029 A 
ATOM     37  N   UNL A   1      42.947  26.858  27.646  1.00  0.00    -0.354 N 
ATOM     38  C   UNL A   1      44.521  30.778  28.449  1.00  0.00     0.074 A 
ATOM     39  C   UNL A   1      43.495  31.648  28.981  1.00  0.00     0.031 C 
ATOM     40  C   UNL A   1      41.373  25.288  27.409  1.00  0.00     0.029 A 
ATOM     41  C   UNL A   1      42.813  25.518  27.364  1.00  0.00     0.049 A 
ATOM     42  H   UNL A   1      43.818  27.315  27.687  1.00  0.00     0.167 HD
ATOM     43  C   UNL A   1      45.818  31.135  28.277  1.00  0.00     0.037 A 
ATOM     44  C   UNL A   1      43.738  24.580  27.083  1.00  0.00     0.037 A 
ATOM     45  C   UNL A   1      46.855  30.241  27.828  1.00  0.00     0.049 A 
ATOM     46  C   UNL A   1      45.182  24.978  26.972  1.00  0.00     0.074 A 
ATOM     47  C   UNL A   1      48.196  30.513  27.616  1.00  0.00     0.029 A 
ATOM     48  N   UNL A   1      46.674  28.894  27.554  1.00  0.00    -0.354 N 
ATOM     49  N   UNL A   1      45.728  26.156  27.157  1.00  0.00    -0.248 NA
ATOM     50  C   UNL A   1      46.132  23.927  26.577  1.00  0.00     0.031 C 
ATOM     51  C   UNL A   1      48.823  29.333  27.199  1.00  0.00     0.029 A 
ATOM     52  C   UNL A   1      47.879  28.320  27.182  1.00  0.00     0.049 A 
ATOM     53  H   UNL A   1      45.815  28.416  27.614  1.00  0.00     0.167 HD
ATOM     54  C   UNL A   1      47.079  25.995  26.874  1.00  0.00     0.074 A 
ATOM     55  C   UNL A   1      47.277  24.596  26.554  1.00  0.00     0.031 C 
ATOM     56  C   UNL A   1      48.061  26.929  26.856  1.00  0.00     0.037 A 
BRANCH  43  57
ATOM     57  C   UNL A   1      46.185  32.572  28.528  1.00  0.00     0.058 A 
ATOM     58  C   UNL A   1      46.111  33.552  27.528  1.00  0.00     0.135 A 
ATOM     59  C   UNL A   1      46.583  32.978  29.814  1.00  0.00     0.135 A 
ATOM     60  F   UNL A   1      45.753  33.215  26.279  1.00  0.00    -0.206 F 
ATOM     61  C   UNL A   1      46.439  34.880  27.787  1.00  0.00     0.059 A 
ATOM     62  C   UNL A   1      46.894  34.303  30.101  1.00  0.00     0.059 A 
ATOM     63  F   UNL A   1      46.670  32.080  30.809  1.00  0.00    -0.206 F 
ATOM     64  C   UNL A   1      46.833  35.246  29.076  1.00  0.00     0.060 A 
BRANCH  64  65
ATOM     65  S   UNL A   1      47.250  36.972  29.404  1.00  0.00     0.124 S 
ATOM     66  O   UNL A   1      47.312  37.517  28.051  1.00  0.00    -0.237 OA
ATOM     67  O   UNL A   1      46.123  37.420  30.216  1.00  0.00    -0.237 OA
ATOM     68  O   UNL A   1      48.527  36.885  30.106  1.00  0.00    -0.744 OA
ENDBRANCH  64  65
ENDBRANCH  43  57
BRANCH  44  69
ATOM     69  C   UNL A   1      43.318  23.170  26.871  1.00  0.00     0.058 A 
ATOM     70  C   UNL A   1      43.320  22.611  25.584  1.00  0.00     0.135 A 
ATOM     71  C   UNL A   1      42.946  22.346  27.944  1.00  0.00     0.135 A 
ATOM     72  F   UNL A   1      43.658  23.364  24.526  1.00  0.00    -0.206 F 
ATOM     73  C   UNL A   1      42.971  21.282  25.368  1.00  0.00     0.059 A 
ATOM     74  C   UNL A   1      42.621  21.007  27.757  1.00  0.00     0.059 A 
ATOM     75  F   UNL A   1      42.940  22.833  29.195  1.00  0.00    -0.206 F 
ATOM     76  C   UNL A   1      42.630  20.486  26.463  1.00  0.00     0.060 A 
BRANCH  76  77
ATOM     77  S   UNL A   1      42.268  18.736  26.197  1.00  0.00     0.124 S 
ATOM     78  O   UNL A   1      43.214  18.399  25.140  1.00  0.00    -0.237 OA
ATOM     79  O   UNL A   1      42.540  18.155  27.508  1.00  0.00    -0.237 OA
ATOM     80  O   UNL A   1      40.860  18.747  25.808  1.00  0.00    -0.744 OA
ENDBRANCH  76  77
ENDBRANCH  44  69
BRANCH  56  81
ATOM     81  C   UNL A   1      49.436  26.471  26.463  1.00  0.00     0.058 A 
ATOM     82  C   UNL A   1      49.915  26.647  25.156  1.00  0.00     0.135 A 
ATOM     83  C   UNL A   1      50.295  25.887  27.406  1.00  0.00     0.135 A 
ATOM     84  F   UNL A   1      49.128  27.197  24.217  1.00  0.00    -0.206 F 
ATOM     85  C   UNL A   1      51.192  26.239  24.789  1.00  0.00     0.059 A 
ATOM     86  C   UNL A   1      51.584  25.487  27.066  1.00  0.00     0.059 A 
ATOM     87  F   UNL A   1      49.886  25.703  28.671  1.00  0.00    -0.206 F 
ATOM     88  C   UNL A   1      52.019  25.657  25.752  1.00  0.00     0.060 A 
BRANCH  88  89
ATOM     89  S   UNL A   1      53.685  25.149  25.272  1.00  0.00     0.124 S 
ATOM     90  O   UNL A   1      54.488  25.730  26.343  1.00  0.00    -0.237 OA
ATOM     91  O   UNL A   1      53.584  23.693  25.273  1.00  0.00    -0.237 OA
ATOM     92  O   UNL A   1      53.857  25.758  23.956  1.00  0.00    -0.744 OA
ENDBRANCH  88  89
ENDBRANCH  56  81
ENDBRANCH  30  31
ENDBRANCH  23  25
ENDBRANCH  22  23
ENDBRANCH  21  22
ENDBRANCH   1  21
TORSDOF 17
ENDMDL
MODEL 3
REMARK VINA RESULT:     -10.6      4.107     10.172
REMARK SMILES C[C@@H](C(=O)OCCOC(=O)c1ccc(-c2c3nc(c(-c4c(F)cc(S(=O)(=O)[O-])cc4F)c4ccc([nH]4)c(-c4c(F)cc(S(=O)(=O)[O-])cc4F)c4nc(c(-c5c(F)cc(S(=O)(=O)[O-])cc5F)c5ccc2[nH]5)C=C4)C=C3)cc1)c1ccc(NC2CCCC2)cc1F
REMARK SMILES IDX 6 1 5 2 3 3 4 4 2 5 1 6 77 7 78 8 88 9 79 10 87 11 89 12
REMARK SMILES IDX 80 13 81 14 82 16 83 17 86 18 84 19 85 20 7 21 8 22 9 23
REMARK SMILES IDX 10 24 11 25 12 26 76 27 13 28 75 29 14 30 15 31 16 32 69 33
REMARK SMILES IDX 17 34 74 35 68 36 70 37 18 38 73 39 67 40 66 41 19 43 53 44
REMARK SMILES IDX 32 45 52 46 33 47 36 48 51 49 71 50 34 51 35 52 50 54 72 55
REMARK SMILES IDX 37 56 20 57 21 58 30 59 22 60 23 61 29 62 31 63 24 64 25 65
REMARK SMILES IDX 26 66 27 67 28 68 54 69 55 70 64 71 56 72 57 73 63 74 65 75
REMARK SMILES IDX 58 76 59 77 60 78 61 79 62 80 38 81 39 82 48 83 40 84 41 85
REMARK SMILES IDX 47 86 49 87 42 88 43 89 44 90 45 91 46 92
REMARK H PARENT 81 15 70 42 36 53
REMARK Flexibility Score: inf
ROOT
ATOM      1  C   UNL A   1      35.402  22.632  24.299  1.00  0.00     0.274 C 
ENDROOT
BRANCH   1   2
ATOM      2  O   UNL A   1      34.109  23.271  24.286  1.00  0.00    -0.462 OA
BRANCH   2   3
ATOM      3  C   UNL A   1      34.029  24.469  23.640  1.00  0.00     0.313 C 
ATOM      4  O   UNL A   1      34.201  24.605  22.434  1.00  0.00    -0.252 OA
BRANCH   3   5
ATOM      5  C   UNL A   1      33.786  25.643  24.598  1.00  0.00     0.129 C 
ATOM      6  C   UNL A   1      33.313  25.199  25.987  1.00  0.00     0.025 C 
BRANCH   5   7
ATOM      7  C   UNL A   1      32.923  26.722  23.950  1.00  0.00     0.002 A 
ATOM      8  C   UNL A   1      33.497  27.961  23.627  1.00  0.00     0.010 A 
ATOM      9  C   UNL A   1      31.586  26.538  23.598  1.00  0.00     0.129 A 
ATOM     10  C   UNL A   1      32.759  28.958  22.965  1.00  0.00     0.026 A 
ATOM     11  C   UNL A   1      30.851  27.538  22.954  1.00  0.00     0.065 A 
ATOM     12  F   UNL A   1      30.973  25.371  23.831  1.00  0.00    -0.207 F 
ATOM     13  C   UNL A   1      31.427  28.765  22.600  1.00  0.00     0.037 A 
BRANCH  13  14
ATOM     14  N   UNL A   1      30.663  29.673  21.904  1.00  0.00    -0.382 N 
ATOM     15  H   UNL A   1      31.115  30.077  21.128  1.00  0.00     0.160 HD
BRANCH  14  16
ATOM     16  C   UNL A   1      29.301  30.137  22.121  1.00  0.00     0.079 C 
ATOM     17  C   UNL A   1      29.058  30.733  23.504  1.00  0.00     0.025 C 
ATOM     18  C   UNL A   1      28.785  31.162  21.108  1.00  0.00     0.025 C 
ATOM     19  C   UNL A   1      27.812  31.580  23.295  1.00  0.00     0.002 C 
ATOM     20  C   UNL A   1      28.029  32.210  21.926  1.00  0.00     0.002 C 
ENDBRANCH  14  16
ENDBRANCH  13  14
ENDBRANCH   5   7
ENDBRANCH   3   5
ENDBRANCH   2   3
ENDBRANCH   1   2
BRANCH   1  21
ATOM     21  C   UNL A   1      36.173  23.032  25.554  1.00  0.00     0.275 C 
BRANCH  21  22
ATOM     22  O   UNL A   1      37.393  23.683  25.167  1.00  0.00    -0.458 OA
BRANCH  22  23
ATOM     23  C   UNL A   1      38.528  23.195  25.716  1.00  0.00     0.338 C 
ATOM     24  O   UNL A   1      39.021  22.095  25.530  1.00  0.00    -0.246 OA
BRANCH  23  25
ATOM     25  C   UNL A   1      39.098  24.196  26.640  1.00  0.00     0.060 A 
ATOM     26  C   UNL A   1      38.799  24.163  28.001  1.00  0.00     0.016 A 
ATOM     27  C   UNL A   1      39.873  25.236  26.122  1.00  0.00     0.016 A 
ATOM     28  C   UNL A   1      39.200  25.216  28.823  1.00  0.00     0.010 A 
ATOM     29  C   UNL A   1      40.346  26.243  26.971  1.00  0.00     0.010 A 
ATOM     30  C   UNL A   1      39.977  26.274  28.326  1.00  0.00    -0.014 A 
BRANCH  30  31
ATOM     31  C   UNL A   1      40.344  27.429  29.200  1.00  0.00     0.031 A 
ATOM     32  C   UNL A   1      41.687  27.467  29.890  1.00  0.00     0.074 A 
ATOM     33  C   UNL A   1      39.496  28.466  29.366  1.00  0.00     0.049 A 
ATOM     34  N   UNL A   1      42.116  28.283  30.820  1.00  0.00    -0.248 NA
ATOM     35  C   UNL A   1      42.670  26.444  29.499  1.00  0.00     0.031 C 
ATOM     36  C   UNL A   1      38.180  28.597  28.740  1.00  0.00     0.029 A 
ATOM     37  N   UNL A   1      39.629  29.624  30.095  1.00  0.00    -0.354 N 
ATOM     38  C   UNL A   1      43.370  27.812  31.196  1.00  0.00     0.074 A 
ATOM     39  C   UNL A   1      43.649  26.659  30.367  1.00  0.00     0.031 C 
ATOM     40  C   UNL A   1      37.664  29.797  29.044  1.00  0.00     0.029 A 
ATOM     41  C   UNL A   1      38.567  30.487  29.959  1.00  0.00     0.049 A 
ATOM     42  H   UNL A   1      40.410  29.818  30.662  1.00  0.00     0.167 HD
ATOM     43  C   UNL A   1      44.201  28.288  32.155  1.00  0.00     0.037 A 
ATOM     44  C   UNL A   1      38.331  31.690  30.517  1.00  0.00     0.037 A 
ATOM     45  C   UNL A   1      43.959  29.485  32.920  1.00  0.00     0.049 A 
ATOM     46  C   UNL A   1      39.302  32.240  31.522  1.00  0.00     0.074 A 
ATOM     47  C   UNL A   1      44.739  30.043  33.919  1.00  0.00     0.029 A 
ATOM     48  N   UNL A   1      42.871  30.327  32.749  1.00  0.00    -0.354 N 
ATOM     49  N   UNL A   1      40.435  31.726  31.939  1.00  0.00    -0.248 NA
ATOM     50  C   UNL A   1      38.947  33.515  32.160  1.00  0.00     0.031 C 
ATOM     51  C   UNL A   1      44.115  31.215  34.362  1.00  0.00     0.029 A 
ATOM     52  C   UNL A   1      42.963  31.403  33.617  1.00  0.00     0.049 A 
ATOM     53  H   UNL A   1      42.140  30.181  32.105  1.00  0.00     0.167 HD
ATOM     54  C   UNL A   1      40.912  32.599  32.908  1.00  0.00     0.074 A 
ATOM     55  C   UNL A   1      39.972  33.700  32.980  1.00  0.00     0.031 C 
ATOM     56  C   UNL A   1      42.016  32.485  33.686  1.00  0.00     0.037 A 
BRANCH  43  57
ATOM     57  C   UNL A   1      45.434  27.486  32.472  1.00  0.00     0.058 A 
ATOM     58  C   UNL A   1      45.429  26.437  33.402  1.00  0.00     0.135 A 
ATOM     59  C   UNL A   1      46.637  27.754  31.795  1.00  0.00     0.135 A 
ATOM     60  F   UNL A   1      44.311  26.150  34.089  1.00  0.00    -0.206 F 
ATOM     61  C   UNL A   1      46.577  25.696  33.668  1.00  0.00     0.059 A 
ATOM     62  C   UNL A   1      47.790  27.012  32.027  1.00  0.00     0.059 A 
ATOM     63  F   UNL A   1      46.696  28.747  30.893  1.00  0.00    -0.206 F 
ATOM     64  C   UNL A   1      47.754  25.993  32.977  1.00  0.00     0.060 A 
BRANCH  64  65
ATOM     65  S   UNL A   1      49.237  25.022  33.322  1.00  0.00     0.124 S 
ATOM     66  O   UNL A   1      48.670  23.857  33.997  1.00  0.00    -0.237 OA
ATOM     67  O   UNL A   1      49.774  24.780  31.987  1.00  0.00    -0.237 OA
ATOM     68  O   UNL A   1      50.035  25.908  34.163  1.00  0.00    -0.744 OA
ENDBRANCH  64  65
ENDBRANCH  43  57
BRANCH  44  69
ATOM     69  C   UNL A   1      37.109  32.449  30.145  1.00  0.00     0.058 A 
ATOM     70  C   UNL A   1      35.894  32.212  30.805  1.00  0.00     0.135 A 
ATOM     71  C   UNL A   1      37.136  33.446  29.158  1.00  0.00     0.135 A 
ATOM     72  F   UNL A   1      35.817  31.262  31.749  1.00  0.00    -0.206 F 
ATOM     73  C   UNL A   1      34.748  32.940  30.503  1.00  0.00     0.059 A 
ATOM     74  C   UNL A   1      36.011  34.206  28.857  1.00  0.00     0.059 A 
ATOM     75  F   UNL A   1      38.278  33.716  28.506  1.00  0.00    -0.206 F 
ATOM     76  C   UNL A   1      34.819  33.941  29.531  1.00  0.00     0.060 A 
BRANCH  76  77
ATOM     77  S   UNL A   1      33.357  34.951  29.202  1.00  0.00     0.124 S 
ATOM     78  O   UNL A   1      33.955  36.155  28.638  1.00  0.00    -0.237 OA
ATOM     79  O   UNL A   1      32.601  34.117  28.273  1.00  0.00    -0.237 OA
ATOM     80  O   UNL A   1      32.757  35.100  30.526  1.00  0.00    -0.744 OA
ENDBRANCH  76  77
ENDBRANCH  44  69
BRANCH  56  81
ATOM     81  C   UNL A   1      42.260  33.572  34.693  1.00  0.00     0.058 A 
ATOM     82  C   UNL A   1      43.113  34.650  34.407  1.00  0.00     0.135 A 
ATOM     83  C   UNL A   1      41.611  33.559  35.937  1.00  0.00     0.135 A 
ATOM     84  F   UNL A   1      43.761  34.704  33.232  1.00  0.00    -0.206 F 
ATOM     85  C   UNL A   1      43.333  35.667  35.328  1.00  0.00     0.059 A 
ATOM     86  C   UNL A   1      41.802  34.577  36.867  1.00  0.00     0.059 A 
ATOM     87  F   UNL A   1      40.781  32.554  36.255  1.00  0.00    -0.206 F 
ATOM     88  C   UNL A   1      42.674  35.620  36.558  1.00  0.00     0.060 A 
BRANCH  88  89
ATOM     89  S   UNL A   1      42.949  36.957  37.741  1.00  0.00     0.124 S 
ATOM     90  O   UNL A   1      43.959  36.371  38.616  1.00  0.00    -0.237 OA
ATOM     91  O   UNL A   1      43.407  38.047  36.885  1.00  0.00    -0.237 OA
ATOM     92  O   UNL A   1      41.632  37.152  38.342  1.00  0.00    -0.744 OA
ENDBRANCH  88  89
ENDBRANCH  56  81
ENDBRANCH  30  31
ENDBRANCH  23  25
ENDBRANCH  22  23
ENDBRANCH  21  22
ENDBRANCH   1  21
TORSDOF 17
ENDMDL
