MODEL 1
REMARK VINA RESULT:     -10.6      0.000      0.000
REMARK SMILES CC1C[NH+]([C@@H](C(=O)OCCOC(=O)c2ccc(-c3c4nc(c(-c5c(F)cc(S(=O)(=O)[O-])cc5F)c5ccc([nH]5)c(-c5c(F)cc(S(=O)(=O)[O-])cc5F)c5nc(c(-c6c(F)cc(S(=O)(=O)[O-])cc6F)c6ccc3[nH]6)C=C5)C=C4)cc2)C2CCCCC2)C1
REMARK SMILES IDX 10 1 9 2 8 3 6 4 7 5 5 6 4 7 1 8 2 9 3 10 86 11 80 13 81 14
REMARK SMILES IDX 85 15 82 16 84 17 83 18 11 19 12 20 13 21 14 22 15 23 79 24
REMARK SMILES IDX 16 25 78 26 17 27 18 28 19 29 72 30 20 31 77 32 71 33 73 34
REMARK SMILES IDX 21 35 76 36 70 37 69 38 22 40 56 41 35 42 55 43 36 44 39 45
REMARK SMILES IDX 54 46 74 47 37 48 38 49 53 51 75 52 40 53 23 54 24 55 33 56
REMARK SMILES IDX 25 57 26 58 32 59 34 60 27 61 28 62 29 63 30 64 31 65 57 66
REMARK SMILES IDX 58 67 67 68 59 69 60 70 66 71 68 72 61 73 62 74 63 75 64 76
REMARK SMILES IDX 65 77 41 78 42 79 51 80 43 81 44 82 50 83 52 84 45 85 46 86
REMARK SMILES IDX 47 87 48 88 49 89
REMARK H PARENT 4 12 73 39 39 50
REMARK Flexibility Score: inf
ROOT
ATOM      1  C   UNL A   1      33.909  28.654  26.282  1.00  0.00     0.275 C 
ENDROOT
BRANCH   1   2
ATOM      2  C   UNL A   1      33.113  27.364  26.120  1.00  0.00     0.274 C 
BRANCH   2   3
ATOM      3  O   UNL A   1      33.519  26.699  24.906  1.00  0.00    -0.458 OA
BRANCH   3   4
ATOM      4  C   UNL A   1      32.660  25.825  24.330  1.00  0.00     0.365 C 
ATOM      5  O   UNL A   1      31.591  26.177  23.837  1.00  0.00    -0.245 OA
BRANCH   4   6
ATOM      6  C   UNL A   1      33.066  24.334  24.451  1.00  0.00     0.298 C 
BRANCH   6   7
ATOM      7  N   UNL A   1      32.438  23.469  25.489  1.00  0.00    -0.322 N 
ATOM      8  C   UNL A   1      29.668  22.805  27.234  1.00  0.00     0.020 C 
ATOM      9  C   UNL A   1      30.420  23.591  26.178  1.00  0.00     0.096 C 
ATOM     10  C   UNL A   1      31.781  24.176  26.592  1.00  0.00     0.272 C 
ATOM     11  C   UNL A   1      31.191  22.809  25.088  1.00  0.00     0.272 C 
ATOM     12  H   UNL A   1      33.257  22.896  25.691  1.00  0.00     0.348 HD
ENDBRANCH   6   7
BRANCH   6  13
ATOM     13  C   UNL A   1      34.636  24.176  24.384  1.00  0.00     0.059 C 
ATOM     14  C   UNL A   1      35.325  23.851  25.726  1.00  0.00     0.010 C 
ATOM     15  C   UNL A   1      35.046  23.122  23.335  1.00  0.00     0.010 C 
ATOM     16  C   UNL A   1      36.842  23.722  25.592  1.00  0.00     0.001 C 
ATOM     17  C   UNL A   1      36.566  23.004  23.206  1.00  0.00     0.001 C 
ATOM     18  C   UNL A   1      37.224  22.688  24.544  1.00  0.00     0.000 C 
ENDBRANCH   6  13
ENDBRANCH   4   6
ENDBRANCH   3   4
ENDBRANCH   2   3
ENDBRANCH   1   2
BRANCH   1  19
ATOM     19  O   UNL A   1      34.053  28.912  27.688  1.00  0.00    -0.458 OA
BRANCH  19  20
ATOM     20  C   UNL A   1      34.582  30.104  28.044  1.00  0.00     0.338 C 
ATOM     21  O   UNL A   1      33.981  31.150  28.209  1.00  0.00    -0.246 OA
BRANCH  20  22
ATOM     22  C   UNL A   1      36.040  29.942  28.262  1.00  0.00     0.060 A 
ATOM     23  C   UNL A   1      36.944  30.203  27.233  1.00  0.00     0.016 A 
ATOM     24  C   UNL A   1      36.509  29.428  29.473  1.00  0.00     0.016 A 
ATOM     25  C   UNL A   1      38.290  29.867  27.381  1.00  0.00     0.010 A 
ATOM     26  C   UNL A   1      37.880  29.187  29.648  1.00  0.00     0.010 A 
ATOM     27  C   UNL A   1      38.791  29.365  28.591  1.00  0.00    -0.014 A 
BRANCH  27  28
ATOM     28  C   UNL A   1      40.235  28.993  28.733  1.00  0.00     0.031 A 
ATOM     29  C   UNL A   1      41.240  29.995  29.257  1.00  0.00     0.074 A 
ATOM     30  C   UNL A   1      40.673  27.752  28.424  1.00  0.00     0.049 A 
ATOM     31  N   UNL A   1      42.549  29.958  29.210  1.00  0.00    -0.248 NA
ATOM     32  C   UNL A   1      40.706  31.206  29.903  1.00  0.00     0.031 C 
ATOM     33  C   UNL A   1      39.838  26.642  27.960  1.00  0.00     0.029 A 
ATOM     34  N   UNL A   1      41.937  27.211  28.466  1.00  0.00    -0.354 N 
ATOM     35  C   UNL A   1      42.989  31.164  29.745  1.00  0.00     0.074 A 
ATOM     36  C   UNL A   1      41.809  31.907  30.129  1.00  0.00     0.031 C 
ATOM     37  C   UNL A   1      40.593  25.543  27.827  1.00  0.00     0.029 A 
ATOM     38  C   UNL A   1      41.987  25.894  28.071  1.00  0.00     0.049 A 
ATOM     39  H   UNL A   1      42.731  27.717  28.751  1.00  0.00     0.167 HD
ATOM     40  C   UNL A   1      44.260  31.613  29.895  1.00  0.00     0.037 A 
ATOM     41  C   UNL A   1      43.031  25.066  27.863  1.00  0.00     0.037 A 
ATOM     42  C   UNL A   1      45.439  30.841  29.592  1.00  0.00     0.049 A 
ATOM     43  C   UNL A   1      44.430  25.586  28.019  1.00  0.00     0.074 A 
ATOM     44  C   UNL A   1      46.768  31.217  29.703  1.00  0.00     0.029 A 
ATOM     45  N   UNL A   1      45.435  29.525  29.157  1.00  0.00    -0.354 N 
ATOM     46  N   UNL A   1      44.827  26.778  28.390  1.00  0.00    -0.248 NA
ATOM     47  C   UNL A   1      45.522  24.660  27.689  1.00  0.00     0.031 C 
ATOM     48  C   UNL A   1      47.567  30.135  29.317  1.00  0.00     0.029 A 
ATOM     49  C   UNL A   1      46.736  29.075  28.997  1.00  0.00     0.049 A 
ATOM     50  H   UNL A   1      44.626  28.989  28.985  1.00  0.00     0.167 HD
ATOM     51  C   UNL A   1      46.215  26.750  28.326  1.00  0.00     0.074 A 
ATOM     52  C   UNL A   1      46.590  25.414  27.912  1.00  0.00     0.031 C 
ATOM     53  C   UNL A   1      47.098  27.747  28.576  1.00  0.00     0.037 A 
BRANCH  40  54
ATOM     54  C   UNL A   1      44.459  33.022  30.380  1.00  0.00     0.058 A 
ATOM     55  C   UNL A   1      44.448  34.121  29.509  1.00  0.00     0.135 A 
ATOM     56  C   UNL A   1      44.582  33.278  31.757  1.00  0.00     0.135 A 
ATOM     57  F   UNL A   1      44.350  33.931  28.184  1.00  0.00    -0.206 F 
ATOM     58  C   UNL A   1      44.560  35.425  29.984  1.00  0.00     0.059 A 
ATOM     59  C   UNL A   1      44.673  34.574  32.256  1.00  0.00     0.059 A 
ATOM     60  F   UNL A   1      44.598  32.262  32.634  1.00  0.00    -0.206 F 
ATOM     61  C   UNL A   1      44.668  35.641  31.360  1.00  0.00     0.060 A 
BRANCH  61  62
ATOM     62  S   UNL A   1      44.774  37.339  31.967  1.00  0.00     0.124 S 
ATOM     63  O   UNL A   1      44.281  37.190  33.333  1.00  0.00    -0.237 OA
ATOM     64  O   UNL A   1      46.197  37.634  31.836  1.00  0.00    -0.237 OA
ATOM     65  O   UNL A   1      43.899  38.079  31.063  1.00  0.00    -0.744 OA
ENDBRANCH  61  62
ENDBRANCH  40  54
BRANCH  41  66
ATOM     66  C   UNL A   1      42.787  23.673  27.402  1.00  0.00     0.058 A 
ATOM     67  C   UNL A   1      42.815  23.348  26.039  1.00  0.00     0.135 A 
ATOM     68  C   UNL A   1      42.546  22.637  28.319  1.00  0.00     0.135 A 
ATOM     69  F   UNL A   1      43.023  24.308  25.124  1.00  0.00    -0.206 F 
ATOM     70  C   UNL A   1      42.620  22.042  25.598  1.00  0.00     0.059 A 
ATOM     71  C   UNL A   1      42.377  21.321  27.906  1.00  0.00     0.059 A 
ATOM     72  F   UNL A   1      42.516  22.897  29.635  1.00  0.00    -0.206 F 
ATOM     73  C   UNL A   1      42.407  21.034  26.541  1.00  0.00     0.060 A 
BRANCH  73  74
ATOM     74  S   UNL A   1      42.238  19.326  25.981  1.00  0.00     0.124 S 
ATOM     75  O   UNL A   1      40.802  19.239  25.741  1.00  0.00    -0.237 OA
ATOM     76  O   UNL A   1      43.087  19.298  24.794  1.00  0.00    -0.237 OA
ATOM     77  O   UNL A   1      42.739  18.557  27.116  1.00  0.00    -0.744 OA
ENDBRANCH  73  74
ENDBRANCH  41  66
BRANCH  53  78
ATOM     78  C   UNL A   1      48.555  27.424  28.419  1.00  0.00     0.058 A 
ATOM     79  C   UNL A   1      49.319  26.957  29.500  1.00  0.00     0.135 A 
ATOM     80  C   UNL A   1      49.189  27.567  27.176  1.00  0.00     0.135 A 
ATOM     81  F   UNL A   1      48.758  26.809  30.710  1.00  0.00    -0.206 F 
ATOM     82  C   UNL A   1      50.672  26.666  29.359  1.00  0.00     0.059 A 
ATOM     83  C   UNL A   1      50.537  27.266  27.008  1.00  0.00     0.059 A 
ATOM     84  F   UNL A   1      48.498  28.004  26.112  1.00  0.00    -0.206 F 
ATOM     85  C   UNL A   1      51.274  26.831  28.110  1.00  0.00     0.060 A 
BRANCH  85  86
ATOM     86  S   UNL A   1      53.030  26.446  27.933  1.00  0.00     0.124 S 
ATOM     87  O   UNL A   1      52.991  25.336  26.986  1.00  0.00    -0.237 OA
ATOM     88  O   UNL A   1      53.577  27.698  27.421  1.00  0.00    -0.237 OA
ATOM     89  O   UNL A   1      53.438  26.100  29.290  1.00  0.00    -0.744 OA
ENDBRANCH  85  86
ENDBRANCH  53  78
ENDBRANCH  27  28
ENDBRANCH  20  22
ENDBRANCH  19  20
ENDBRANCH   1  19
TORSDOF 16
ENDMDL
MODEL 2
REMARK VINA RESULT:     -10.4      1.398      2.562
REMARK SMILES CC1C[NH+]([C@@H](C(=O)OCCOC(=O)c2ccc(-c3c4nc(c(-c5c(F)cc(S(=O)(=O)[O-])cc5F)c5ccc([nH]5)c(-c5c(F)cc(S(=O)(=O)[O-])cc5F)c5nc(c(-c6c(F)cc(S(=O)(=O)[O-])cc6F)c6ccc3[nH]6)C=C5)C=C4)cc2)C2CCCCC2)C1
REMARK SMILES IDX 10 1 9 2 8 3 6 4 7 5 5 6 4 7 1 8 2 9 3 10 86 11 80 13 81 14
REMARK SMILES IDX 85 15 82 16 84 17 83 18 11 19 12 20 13 21 14 22 15 23 79 24
REMARK SMILES IDX 16 25 78 26 17 27 18 28 19 29 72 30 20 31 77 32 71 33 73 34
REMARK SMILES IDX 21 35 76 36 70 37 69 38 22 40 56 41 35 42 55 43 36 44 39 45
REMARK SMILES IDX 54 46 74 47 37 48 38 49 53 51 75 52 40 53 23 54 24 55 33 56
REMARK SMILES IDX 25 57 26 58 32 59 34 60 27 61 28 62 29 63 30 64 31 65 57 66
REMARK SMILES IDX 58 67 67 68 59 69 60 70 66 71 68 72 61 73 62 74 63 75 64 76
REMARK SMILES IDX 65 77 41 78 42 79 51 80 43 81 44 82 50 83 52 84 45 85 46 86
REMARK SMILES IDX 47 87 48 88 49 89
REMARK H PARENT 4 12 73 39 39 50
REMARK Flexibility Score: inf
ROOT
ATOM      1  C   UNL A   1      33.646  28.530  26.313  1.00  0.00     0.275 C 
ENDROOT
BRANCH   1   2
ATOM      2  C   UNL A   1      33.168  27.088  26.184  1.00  0.00     0.274 C 
BRANCH   2   3
ATOM      3  O   UNL A   1      31.737  27.040  26.357  1.00  0.00    -0.458 OA
BRANCH   3   4
ATOM      4  C   UNL A   1      31.089  25.886  26.065  1.00  0.00     0.365 C 
ATOM      5  O   UNL A   1      31.066  24.928  26.833  1.00  0.00    -0.245 OA
BRANCH   4   6
ATOM      6  C   UNL A   1      30.486  25.821  24.638  1.00  0.00     0.298 C 
BRANCH   6   7
ATOM      7  N   UNL A   1      31.182  25.054  23.567  1.00  0.00    -0.322 N 
ATOM      8  C   UNL A   1      32.685  22.186  22.745  1.00  0.00     0.020 C 
ATOM      9  C   UNL A   1      31.941  23.064  23.732  1.00  0.00     0.096 C 
ATOM     10  C   UNL A   1      32.484  24.489  23.933  1.00  0.00     0.272 C 
ATOM     11  C   UNL A   1      30.622  23.730  23.275  1.00  0.00     0.272 C 
ATOM     12  H   UNL A   1      31.144  25.776  22.847  1.00  0.00     0.348 HD
ENDBRANCH   6   7
BRANCH   6  13
ATOM     13  C   UNL A   1      30.013  27.250  24.164  1.00  0.00     0.059 C 
ATOM     14  C   UNL A   1      30.948  27.957  23.160  1.00  0.00     0.010 C 
ATOM     15  C   UNL A   1      28.586  27.201  23.581  1.00  0.00     0.010 C 
ATOM     16  C   UNL A   1      30.437  29.338  22.752  1.00  0.00     0.001 C 
ATOM     17  C   UNL A   1      28.084  28.590  23.180  1.00  0.00     0.001 C 
ATOM     18  C   UNL A   1      29.025  29.269  22.193  1.00  0.00     0.000 C 
ENDBRANCH   6  13
ENDBRANCH   4   6
ENDBRANCH   3   4
ENDBRANCH   2   3
ENDBRANCH   1   2
BRANCH   1  19
ATOM     19  O   UNL A   1      33.875  28.796  27.705  1.00  0.00    -0.458 OA
BRANCH  19  20
ATOM     20  C   UNL A   1      34.393  30.005  28.022  1.00  0.00     0.338 C 
ATOM     21  O   UNL A   1      33.782  31.051  28.146  1.00  0.00    -0.246 OA
BRANCH  20  22
ATOM     22  C   UNL A   1      35.850  29.862  28.257  1.00  0.00     0.060 A 
ATOM     23  C   UNL A   1      36.763  30.154  27.243  1.00  0.00     0.016 A 
ATOM     24  C   UNL A   1      36.312  29.335  29.465  1.00  0.00     0.016 A 
ATOM     25  C   UNL A   1      38.112  29.837  27.403  1.00  0.00     0.010 A 
ATOM     26  C   UNL A   1      37.685  29.113  29.653  1.00  0.00     0.010 A 
ATOM     27  C   UNL A   1      38.606  29.323  28.611  1.00  0.00    -0.014 A 
BRANCH  27  28
ATOM     28  C   UNL A   1      40.054  28.970  28.765  1.00  0.00     0.031 A 
ATOM     29  C   UNL A   1      41.040  29.987  29.297  1.00  0.00     0.074 A 
ATOM     30  C   UNL A   1      40.511  27.737  28.459  1.00  0.00     0.049 A 
ATOM     31  N   UNL A   1      42.350  29.968  29.261  1.00  0.00    -0.248 NA
ATOM     32  C   UNL A   1      40.484  31.190  29.938  1.00  0.00     0.031 C 
ATOM     33  C   UNL A   1      39.696  26.614  27.989  1.00  0.00     0.029 A 
ATOM     34  N   UNL A   1      41.782  27.212  28.512  1.00  0.00    -0.354 N 
ATOM     35  C   UNL A   1      42.769  31.180  29.800  1.00  0.00     0.074 A 
ATOM     36  C   UNL A   1      41.575  31.907  30.174  1.00  0.00     0.031 C 
ATOM     37  C   UNL A   1      40.468  25.526  27.863  1.00  0.00     0.029 A 
ATOM     38  C   UNL A   1      41.854  25.896  28.118  1.00  0.00     0.049 A 
ATOM     39  H   UNL A   1      42.567  27.730  28.804  1.00  0.00     0.167 HD
ATOM     40  C   UNL A   1      44.032  31.647  29.960  1.00  0.00     0.037 A 
ATOM     41  C   UNL A   1      42.911  25.083  27.919  1.00  0.00     0.037 A 
ATOM     42  C   UNL A   1      45.224  30.891  29.667  1.00  0.00     0.049 A 
ATOM     43  C   UNL A   1      44.302  25.623  28.086  1.00  0.00     0.074 A 
ATOM     44  C   UNL A   1      46.546  31.286  29.789  1.00  0.00     0.029 A 
ATOM     45  N   UNL A   1      45.242  29.576  29.232  1.00  0.00    -0.354 N 
ATOM     46  N   UNL A   1      44.679  26.821  28.461  1.00  0.00    -0.248 NA
ATOM     47  C   UNL A   1      45.409  24.713  27.766  1.00  0.00     0.031 C 
ATOM     48  C   UNL A   1      47.363  30.216  29.410  1.00  0.00     0.029 A 
ATOM     49  C   UNL A   1      46.550  29.144  29.083  1.00  0.00     0.049 A 
ATOM     50  H   UNL A   1      44.442  29.028  29.054  1.00  0.00     0.167 HD
ATOM     51  C   UNL A   1      46.068  26.812  28.408  1.00  0.00     0.074 A 
ATOM     52  C   UNL A   1      46.465  25.482  27.998  1.00  0.00     0.031 C 
ATOM     53  C   UNL A   1      46.934  27.821  28.666  1.00  0.00     0.037 A 
BRANCH  40  54
ATOM     54  C   UNL A   1      44.207  33.059  30.447  1.00  0.00     0.058 A 
ATOM     55  C   UNL A   1      44.108  34.163  29.588  1.00  0.00     0.135 A 
ATOM     56  C   UNL A   1      44.397  33.309  31.817  1.00  0.00     0.135 A 
ATOM     57  F   UNL A   1      43.944  33.980  28.269  1.00  0.00    -0.206 F 
ATOM     58  C   UNL A   1      44.199  35.467  30.069  1.00  0.00     0.059 A 
ATOM     59  C   UNL A   1      44.469  34.604  32.322  1.00  0.00     0.059 A 
ATOM     60  F   UNL A   1      44.498  32.287  32.683  1.00  0.00    -0.206 F 
ATOM     61  C   UNL A   1      44.376  35.677  31.438  1.00  0.00     0.060 A 
BRANCH  61  62
ATOM     62  S   UNL A   1      44.455  37.373  32.055  1.00  0.00     0.124 S 
ATOM     63  O   UNL A   1      44.238  38.137  30.831  1.00  0.00    -0.237 OA
ATOM     64  O   UNL A   1      43.365  37.407  33.024  1.00  0.00    -0.237 OA
ATOM     65  O   UNL A   1      45.796  37.466  32.622  1.00  0.00    -0.744 OA
ENDBRANCH  61  62
ENDBRANCH  40  54
BRANCH  41  66
ATOM     66  C   UNL A   1      42.691  23.687  27.455  1.00  0.00     0.058 A 
ATOM     67  C   UNL A   1      42.684  23.372  26.090  1.00  0.00     0.135 A 
ATOM     68  C   UNL A   1      42.508  22.640  28.372  1.00  0.00     0.135 A 
ATOM     69  F   UNL A   1      42.836  24.343  25.176  1.00  0.00    -0.206 F 
ATOM     70  C   UNL A   1      42.510  22.064  25.646  1.00  0.00     0.059 A 
ATOM     71  C   UNL A   1      42.362  21.322  27.955  1.00  0.00     0.059 A 
ATOM     72  F   UNL A   1      42.514  22.890  29.690  1.00  0.00    -0.206 F 
ATOM     73  C   UNL A   1      42.356  21.044  26.589  1.00  0.00     0.060 A 
BRANCH  73  74
ATOM     74  S   UNL A   1      42.215  19.335  26.022  1.00  0.00     0.124 S 
ATOM     75  O   UNL A   1      42.656  18.600  27.201  1.00  0.00    -0.237 OA
ATOM     76  O   UNL A   1      40.796  19.228  25.696  1.00  0.00    -0.237 OA
ATOM     77  O   UNL A   1      43.116  19.295  24.874  1.00  0.00    -0.744 OA
ENDBRANCH  73  74
ENDBRANCH  41  66
BRANCH  53  78
ATOM     78  C   UNL A   1      48.397  27.518  28.521  1.00  0.00     0.058 A 
ATOM     79  C   UNL A   1      49.146  27.008  29.592  1.00  0.00     0.135 A 
ATOM     80  C   UNL A   1      49.052  27.726  27.298  1.00  0.00     0.135 A 
ATOM     81  F   UNL A   1      48.564  26.799  30.784  1.00  0.00    -0.206 F 
ATOM     82  C   UNL A   1      50.504  26.736  29.463  1.00  0.00     0.059 A 
ATOM     83  C   UNL A   1      50.406  27.444  27.141  1.00  0.00     0.059 A 
ATOM     84  F   UNL A   1      48.377  28.207  26.242  1.00  0.00    -0.206 F 
ATOM     85  C   UNL A   1      51.127  26.964  28.235  1.00  0.00     0.060 A 
BRANCH  85  86
ATOM     86  S   UNL A   1      52.889  26.604  28.073  1.00  0.00     0.124 S 
ATOM     87  O   UNL A   1      52.873  25.487  27.133  1.00  0.00    -0.237 OA
ATOM     88  O   UNL A   1      53.422  27.860  27.555  1.00  0.00    -0.237 OA
ATOM     89  O   UNL A   1      53.293  26.273  29.435  1.00  0.00    -0.744 OA
ENDBRANCH  85  86
ENDBRANCH  53  78
ENDBRANCH  27  28
ENDBRANCH  20  22
ENDBRANCH  19  20
ENDBRANCH   1  19
TORSDOF 16
ENDMDL
MODEL 3
REMARK VINA RESULT:     -10.3      5.434     10.935
REMARK SMILES CC1C[NH+]([C@@H](C(=O)OCCOC(=O)c2ccc(-c3c4nc(c(-c5c(F)cc(S(=O)(=O)[O-])cc5F)c5ccc([nH]5)c(-c5c(F)cc(S(=O)(=O)[O-])cc5F)c5nc(c(-c6c(F)cc(S(=O)(=O)[O-])cc6F)c6ccc3[nH]6)C=C5)C=C4)cc2)C2CCCCC2)C1
REMARK SMILES IDX 10 1 9 2 8 3 6 4 7 5 5 6 4 7 1 8 2 9 3 10 86 11 80 13 81 14
REMARK SMILES IDX 85 15 82 16 84 17 83 18 11 19 12 20 13 21 14 22 15 23 79 24
REMARK SMILES IDX 16 25 78 26 17 27 18 28 19 29 72 30 20 31 77 32 71 33 73 34
REMARK SMILES IDX 21 35 76 36 70 37 69 38 22 40 56 41 35 42 55 43 36 44 39 45
REMARK SMILES IDX 54 46 74 47 37 48 38 49 53 51 75 52 40 53 23 54 24 55 33 56
REMARK SMILES IDX 25 57 26 58 32 59 34 60 27 61 28 62 29 63 30 64 31 65 57 66
REMARK SMILES IDX 58 67 67 68 59 69 60 70 66 71 68 72 61 73 62 74 63 75 64 76
REMARK SMILES IDX 65 77 41 78 42 79 51 80 43 81 44 82 50 83 52 84 45 85 46 86
REMARK SMILES IDX 47 87 48 88 49 89
REMARK H PARENT 4 12 73 39 39 50
REMARK Flexibility Score: inf
ROOT
ATOM      1  C   UNL A   1      39.163  22.212  26.124  1.00  0.00     0.275 C 
ENDROOT
BRANCH   1   2
ATOM      2  C   UNL A   1      37.701  22.562  25.869  1.00  0.00     0.274 C 
BRANCH   2   3
ATOM      3  O   UNL A   1      37.320  22.103  24.556  1.00  0.00    -0.458 OA
BRANCH   3   4
ATOM      4  C   UNL A   1      36.338  22.766  23.899  1.00  0.00     0.365 C 
ATOM      5  O   UNL A   1      36.411  23.039  22.703  1.00  0.00    -0.245 OA
BRANCH   4   6
ATOM      6  C   UNL A   1      35.176  23.265  24.795  1.00  0.00     0.298 C 
BRANCH   6   7
ATOM      7  N   UNL A   1      34.006  22.381  25.063  1.00  0.00    -0.322 N 
ATOM      8  C   UNL A   1      32.923  19.234  25.355  1.00  0.00     0.020 C 
ATOM      9  C   UNL A   1      34.029  20.246  25.125  1.00  0.00     0.096 C 
ATOM     10  C   UNL A   1      33.761  21.332  24.069  1.00  0.00     0.272 C 
ATOM     11  C   UNL A   1      34.191  21.402  26.140  1.00  0.00     0.272 C 
ATOM     12  H   UNL A   1      33.312  23.119  25.181  1.00  0.00     0.348 HD
ENDBRANCH   6   7
BRANCH   6  13
ATOM     13  C   UNL A   1      34.758  24.736  24.402  1.00  0.00     0.059 C 
ATOM     14  C   UNL A   1      33.792  24.852  23.205  1.00  0.00     0.010 C 
ATOM     15  C   UNL A   1      34.162  25.487  25.610  1.00  0.00     0.010 C 
ATOM     16  C   UNL A   1      33.438  26.301  22.872  1.00  0.00     0.001 C 
ATOM     17  C   UNL A   1      33.816  26.938  25.267  1.00  0.00     0.001 C 
ATOM     18  C   UNL A   1      32.865  27.027  24.079  1.00  0.00     0.000 C 
ENDBRANCH   6  13
ENDBRANCH   4   6
ENDBRANCH   3   4
ENDBRANCH   2   3
ENDBRANCH   1   2
BRANCH   1  19
ATOM     19  O   UNL A   1      39.637  23.047  27.192  1.00  0.00    -0.458 OA
BRANCH  19  20
ATOM     20  C   UNL A   1      40.715  23.822  26.933  1.00  0.00     0.338 C 
ATOM     21  O   UNL A   1      41.610  23.587  26.142  1.00  0.00    -0.246 OA
BRANCH  20  22
ATOM     22  C   UNL A   1      40.623  25.065  27.737  1.00  0.00     0.060 A 
ATOM     23  C   UNL A   1      41.693  25.959  27.784  1.00  0.00     0.016 A 
ATOM     24  C   UNL A   1      39.501  25.297  28.534  1.00  0.00     0.016 A 
ATOM     25  C   UNL A   1      41.678  27.023  28.686  1.00  0.00     0.010 A 
ATOM     26  C   UNL A   1      39.453  26.426  29.366  1.00  0.00     0.010 A 
ATOM     27  C   UNL A   1      40.558  27.288  29.486  1.00  0.00    -0.014 A 
BRANCH  27  28
ATOM     28  C   UNL A   1      40.559  28.424  30.464  1.00  0.00     0.031 A 
ATOM     29  C   UNL A   1      41.612  28.505  31.548  1.00  0.00     0.074 A 
ATOM     30  C   UNL A   1      39.641  29.413  30.391  1.00  0.00     0.049 A 
ATOM     31  N   UNL A   1      41.633  29.246  32.628  1.00  0.00    -0.248 NA
ATOM     32  C   UNL A   1      42.786  27.628  31.409  1.00  0.00     0.031 C 
ATOM     33  C   UNL A   1      38.588  29.529  29.379  1.00  0.00     0.029 A 
ATOM     34  N   UNL A   1      39.453  30.523  31.181  1.00  0.00    -0.354 N 
ATOM     35  C   UNL A   1      42.774  28.871  33.331  1.00  0.00     0.074 A 
ATOM     36  C   UNL A   1      43.431  27.849  32.547  1.00  0.00     0.031 C 
ATOM     37  C   UNL A   1      37.915  30.673  29.567  1.00  0.00     0.029 A 
ATOM     38  C   UNL A   1      38.398  31.312  30.784  1.00  0.00     0.049 A 
ATOM     39  H   UNL A   1      40.020  30.734  31.958  1.00  0.00     0.167 HD
ATOM     40  C   UNL A   1      43.226  29.331  34.524  1.00  0.00     0.037 A 
ATOM     41  C   UNL A   1      37.831  32.393  31.357  1.00  0.00     0.037 A 
ATOM     42  C   UNL A   1      42.619  30.408  35.265  1.00  0.00     0.049 A 
ATOM     43  C   UNL A   1      38.336  32.878  32.685  1.00  0.00     0.074 A 
ATOM     44  C   UNL A   1      43.002  30.936  36.488  1.00  0.00     0.029 A 
ATOM     45  N   UNL A   1      41.527  31.148  34.839  1.00  0.00    -0.354 N 
ATOM     46  N   UNL A   1      39.330  32.418  33.404  1.00  0.00    -0.248 NA
ATOM     47  C   UNL A   1      37.616  34.003  33.296  1.00  0.00     0.031 C 
ATOM     48  C   UNL A   1      42.131  31.983  36.809  1.00  0.00     0.029 A 
ATOM     49  C   UNL A   1      41.225  32.127  35.772  1.00  0.00     0.049 A 
ATOM     50  H   UNL A   1      41.038  30.999  33.997  1.00  0.00     0.167 HD
ATOM     51  C   UNL A   1      39.347  33.190  34.560  1.00  0.00     0.074 A 
ATOM     52  C   UNL A   1      38.286  34.166  34.430  1.00  0.00     0.031 C 
ATOM     53  C   UNL A   1      40.162  33.088  35.637  1.00  0.00     0.037 A 
BRANCH  40  54
ATOM     54  C   UNL A   1      44.422  28.656  35.134  1.00  0.00     0.058 A 
ATOM     55  C   UNL A   1      44.310  27.493  35.909  1.00  0.00     0.135 A 
ATOM     56  C   UNL A   1      45.713  29.143  34.868  1.00  0.00     0.135 A 
ATOM     57  F   UNL A   1      43.100  26.994  36.207  1.00  0.00    -0.206 F 
ATOM     58  C   UNL A   1      45.435  26.838  36.404  1.00  0.00     0.059 A 
ATOM     59  C   UNL A   1      46.853  28.494  35.335  1.00  0.00     0.059 A 
ATOM     60  F   UNL A   1      45.878  30.254  34.131  1.00  0.00    -0.206 F 
ATOM     61  C   UNL A   1      46.702  27.346  36.109  1.00  0.00     0.060 A 
BRANCH  61  62
ATOM     62  S   UNL A   1      48.155  26.467  36.725  1.00  0.00     0.124 S 
ATOM     63  O   UNL A   1      49.234  27.182  36.049  1.00  0.00    -0.237 OA
ATOM     64  O   UNL A   1      48.063  26.676  38.166  1.00  0.00    -0.237 OA
ATOM     65  O   UNL A   1      47.938  25.095  36.279  1.00  0.00    -0.744 OA
ENDBRANCH  61  62
ENDBRANCH  40  54
BRANCH  41  66
ATOM     66  C   UNL A   1      36.661  33.042  30.708  1.00  0.00     0.058 A 
ATOM     67  C   UNL A   1      35.360  32.831  31.187  1.00  0.00     0.135 A 
ATOM     68  C   UNL A   1      36.825  33.905  29.613  1.00  0.00     0.135 A 
ATOM     69  F   UNL A   1      35.152  31.999  32.219  1.00  0.00    -0.206 F 
ATOM     70  C   UNL A   1      34.261  33.457  30.607  1.00  0.00     0.059 A 
ATOM     71  C   UNL A   1      35.747  34.565  29.035  1.00  0.00     0.059 A 
ATOM     72  F   UNL A   1      38.051  34.144  29.122  1.00  0.00    -0.206 F 
ATOM     73  C   UNL A   1      34.466  34.329  29.535  1.00  0.00     0.060 A 
BRANCH  73  74
ATOM     74  S   UNL A   1      33.054  35.210  28.833  1.00  0.00     0.124 S 
ATOM     75  O   UNL A   1      32.542  34.231  27.882  1.00  0.00    -0.237 OA
ATOM     76  O   UNL A   1      32.222  35.456  30.007  1.00  0.00    -0.237 OA
ATOM     77  O   UNL A   1      33.666  36.401  28.251  1.00  0.00    -0.744 OA
ENDBRANCH  73  74
ENDBRANCH  41  66
BRANCH  53  78
ATOM     78  C   UNL A   1      39.943  34.067  36.754  1.00  0.00     0.058 A 
ATOM     79  C   UNL A   1      39.032  33.802  37.787  1.00  0.00     0.135 A 
ATOM     80  C   UNL A   1      40.660  35.272  36.799  1.00  0.00     0.135 A 
ATOM     81  F   UNL A   1      38.318  32.666  37.784  1.00  0.00    -0.206 F 
ATOM     82  C   UNL A   1      38.820  34.713  38.817  1.00  0.00     0.059 A 
ATOM     83  C   UNL A   1      40.477  36.189  37.829  1.00  0.00     0.059 A 
ATOM     84  F   UNL A   1      41.548  35.567  35.836  1.00  0.00    -0.206 F 
ATOM     85  C   UNL A   1      39.543  35.907  38.826  1.00  0.00     0.060 A 
BRANCH  85  86
ATOM     86  S   UNL A   1      39.266  37.082  40.169  1.00  0.00     0.124 S 
ATOM     87  O   UNL A   1      40.635  37.441  40.529  1.00  0.00    -0.237 OA
ATOM     88  O   UNL A   1      38.487  38.130  39.517  1.00  0.00    -0.237 OA
ATOM     89  O   UNL A   1      38.541  36.296  41.161  1.00  0.00    -0.744 OA
ENDBRANCH  85  86
ENDBRANCH  53  78
ENDBRANCH  27  28
ENDBRANCH  20  22
ENDBRANCH  19  20
ENDBRANCH   1  19
TORSDOF 16
ENDMDL
