MODEL 1
REMARK VINA RESULT:     -11.7      0.000      0.000
REMARK SMILES CS(=O)(=O)c1ccc(/C=C(/C(=O)OCCOC(=O)c2ccc(-c3c4nc(c(-c5c(F)cc(S(=O)(=O)[O-])cc5F)c5ccc([nH]5)c(-c5c(F)cc(S(=O)(=O)[O-])cc5F)c5nc(c(-c6c(F)cc(S(=O)(=O)[O-])cc6F)c6ccc3[nH]6)C=C5)C=C4)cc2)c2ccc(-c3ccc(S(C)(=O)=O)cc3)cc2)cc1
REMARK SMILES IDX 14 1 13 2 11 3 12 4 10 5 9 6 8 7 5 8 6 9 102 10 7 11 101 12
REMARK SMILES IDX 2 13 1 14 3 15 4 16 85 17 86 18 100 19 87 20 99 21 88 22
REMARK SMILES IDX 89 23 90 24 98 25 91 26 97 27 92 28 93 29 94 30 95 31 96 32
REMARK SMILES IDX 15 33 16 34 17 35 18 36 19 37 20 38 84 39 21 40 83 41 22 42
REMARK SMILES IDX 23 43 24 44 77 45 25 46 82 47 76 48 78 49 26 50 81 51 75 52
REMARK SMILES IDX 74 53 27 55 61 56 40 57 60 58 41 59 44 60 59 61 79 62 42 63
REMARK SMILES IDX 43 64 58 66 80 67 45 68 28 69 29 70 38 71 30 72 31 73 37 74
REMARK SMILES IDX 39 75 32 76 33 77 34 78 35 79 36 80 62 81 63 82 72 83 64 84
REMARK SMILES IDX 65 85 71 86 73 87 66 88 67 89 68 90 69 91 70 92 46 93 47 94
REMARK SMILES IDX 56 95 48 96 49 97 55 98 57 99 50 100 51 101 52 102 53 103
REMARK SMILES IDX 54 104
REMARK H PARENT 78 54 44 65
REMARK Flexibility Score: inf
ROOT
ATOM      1  C   UNL A   1      32.863  27.902  25.749  1.00  0.00     0.275 C 
ENDROOT
BRANCH   1   2
ATOM      2  O   UNL A   1      33.694  27.199  24.802  1.00  0.00    -0.458 OA
BRANCH   2   3
ATOM      3  C   UNL A   1      33.023  26.427  23.909  1.00  0.00     0.338 C 
ATOM      4  O   UNL A   1      32.457  26.840  22.906  1.00  0.00    -0.246 OA
BRANCH   3   5
ATOM      5  C   UNL A   1      33.091  24.974  24.251  1.00  0.00     0.067 C 
ATOM      6  C   UNL A   1      32.003  24.191  24.060  1.00  0.00     0.024 C 
BRANCH   6   7
ATOM      7  C   UNL A   1      31.951  22.705  24.043  1.00  0.00    -0.025 A 
ATOM      8  C   UNL A   1      32.308  19.918  23.913  1.00  0.00     0.067 A 
ATOM      9  C   UNL A   1      32.080  20.523  25.140  1.00  0.00     0.021 A 
ATOM     10  C   UNL A   1      32.281  20.671  22.738  1.00  0.00     0.021 A 
ATOM     11  C   UNL A   1      31.854  21.897  25.188  1.00  0.00     0.009 A 
ATOM     12  C   UNL A   1      32.102  22.057  22.808  1.00  0.00     0.009 A 
BRANCH   8  13
ATOM     13  S   UNL A   1      32.675  18.186  23.850  1.00  0.00     0.175 S 
ATOM     14  C   UNL A   1      34.392  18.122  24.277  1.00  0.00     0.163 C 
ATOM     15  O   UNL A   1      32.551  17.745  22.476  1.00  0.00    -0.224 OA
ATOM     16  O   UNL A   1      31.920  17.548  24.914  1.00  0.00    -0.224 OA
ENDBRANCH   8  13
ENDBRANCH   6   7
BRANCH   5  17
ATOM     17  C   UNL A   1      34.404  24.430  24.631  1.00  0.00    -0.011 A 
ATOM     18  C   UNL A   1      34.700  24.251  25.988  1.00  0.00     0.009 A 
ATOM     19  C   UNL A   1      35.321  24.001  23.673  1.00  0.00     0.009 A 
ATOM     20  C   UNL A   1      35.900  23.642  26.377  1.00  0.00     0.009 A 
ATOM     21  C   UNL A   1      36.517  23.393  24.072  1.00  0.00     0.009 A 
ATOM     22  C   UNL A   1      36.849  23.216  25.432  1.00  0.00    -0.018 A 
BRANCH  22  23
ATOM     23  C   UNL A   1      38.154  22.635  25.843  1.00  0.00    -0.018 A 
ATOM     24  C   UNL A   1      39.108  23.382  26.564  1.00  0.00     0.010 A 
ATOM     25  C   UNL A   1      38.494  21.305  25.522  1.00  0.00     0.010 A 
ATOM     26  C   UNL A   1      40.323  22.822  26.973  1.00  0.00     0.021 A 
ATOM     27  C   UNL A   1      39.697  20.729  25.938  1.00  0.00     0.021 A 
ATOM     28  C   UNL A   1      40.599  21.489  26.674  1.00  0.00     0.067 A 
BRANCH  28  29
ATOM     29  S   UNL A   1      42.093  20.746  27.278  1.00  0.00     0.175 S 
ATOM     30  C   UNL A   1      43.190  20.804  25.898  1.00  0.00     0.163 C 
ATOM     31  O   UNL A   1      42.598  21.626  28.317  1.00  0.00    -0.224 OA
ATOM     32  O   UNL A   1      41.800  19.354  27.567  1.00  0.00    -0.224 OA
ENDBRANCH  28  29
ENDBRANCH  22  23
ENDBRANCH   5  17
ENDBRANCH   3   5
ENDBRANCH   2   3
ENDBRANCH   1   2
BRANCH   1  33
ATOM     33  C   UNL A   1      33.310  29.357  25.896  1.00  0.00     0.275 C 
BRANCH  33  34
ATOM     34  O   UNL A   1      33.643  29.651  27.266  1.00  0.00    -0.458 OA
BRANCH  34  35
ATOM     35  C   UNL A   1      34.268  30.833  27.467  1.00  0.00     0.338 C 
ATOM     36  O   UNL A   1      33.772  31.948  27.414  1.00  0.00    -0.246 OA
BRANCH  35  37
ATOM     37  C   UNL A   1      35.677  30.622  27.835  1.00  0.00     0.060 A 
ATOM     38  C   UNL A   1      36.138  29.326  28.005  1.00  0.00     0.016 A 
ATOM     39  C   UNL A   1      36.464  31.697  28.254  1.00  0.00     0.016 A 
ATOM     40  C   UNL A   1      37.296  29.107  28.751  1.00  0.00     0.010 A 
ATOM     41  C   UNL A   1      37.699  31.460  28.881  1.00  0.00     0.010 A 
ATOM     42  C   UNL A   1      38.107  30.157  29.214  1.00  0.00    -0.014 A 
BRANCH  42  43
ATOM     43  C   UNL A   1      39.312  29.889  30.078  1.00  0.00     0.031 A 
ATOM     44  C   UNL A   1      40.500  29.099  29.555  1.00  0.00     0.074 A 
ATOM     45  C   UNL A   1      39.395  30.379  31.336  1.00  0.00     0.049 A 
ATOM     46  N   UNL A   1      41.503  28.565  30.215  1.00  0.00    -0.248 NA
ATOM     47  C   UNL A   1      40.566  28.864  28.104  1.00  0.00     0.031 C 
ATOM     48  C   UNL A   1      38.393  31.221  31.992  1.00  0.00     0.029 A 
ATOM     49  N   UNL A   1      40.380  30.252  32.291  1.00  0.00    -0.354 N 
ATOM     50  C   UNL A   1      42.258  27.862  29.279  1.00  0.00     0.074 A 
ATOM     51  C   UNL A   1      41.607  28.047  27.999  1.00  0.00     0.031 C 
ATOM     52  C   UNL A   1      38.847  31.609  33.190  1.00  0.00     0.029 A 
ATOM     53  C   UNL A   1      40.091  30.908  33.467  1.00  0.00     0.049 A 
ATOM     54  H   UNL A   1      41.209  29.741  32.147  1.00  0.00     0.167 HD
ATOM     55  C   UNL A   1      43.384  27.128  29.468  1.00  0.00     0.037 A 
ATOM     56  C   UNL A   1      40.693  30.897  34.673  1.00  0.00     0.037 A 
ATOM     57  C   UNL A   1      44.077  27.019  30.731  1.00  0.00     0.049 A 
ATOM     58  C   UNL A   1      41.896  30.031  34.888  1.00  0.00     0.074 A 
ATOM     59  C   UNL A   1      45.299  26.421  30.987  1.00  0.00     0.029 A 
ATOM     60  N   UNL A   1      43.616  27.510  31.945  1.00  0.00    -0.354 N 
ATOM     61  N   UNL A   1      42.466  29.197  34.053  1.00  0.00    -0.248 NA
ATOM     62  C   UNL A   1      42.524  30.082  36.214  1.00  0.00     0.031 C 
ATOM     63  C   UNL A   1      45.572  26.540  32.354  1.00  0.00     0.029 A 
ATOM     64  C   UNL A   1      44.562  27.286  32.937  1.00  0.00     0.049 A 
ATOM     65  H   UNL A   1      42.747  27.952  32.082  1.00  0.00     0.167 HD
ATOM     66  C   UNL A   1      43.540  28.647  34.741  1.00  0.00     0.074 A 
ATOM     67  C   UNL A   1      43.527  29.229  36.067  1.00  0.00     0.031 C 
ATOM     68  C   UNL A   1      44.482  27.781  34.291  1.00  0.00     0.037 A 
BRANCH  55  69
ATOM     69  C   UNL A   1      43.951  26.358  28.298  1.00  0.00     0.058 A 
ATOM     70  C   UNL A   1      44.950  26.874  27.457  1.00  0.00     0.135 A 
ATOM     71  C   UNL A   1      43.527  25.037  28.060  1.00  0.00     0.135 A 
ATOM     72  F   UNL A   1      45.399  28.127  27.631  1.00  0.00    -0.206 F 
ATOM     73  C   UNL A   1      45.478  26.127  26.404  1.00  0.00     0.059 A 
ATOM     74  C   UNL A   1      44.064  24.260  27.036  1.00  0.00     0.059 A 
ATOM     75  F   UNL A   1      42.584  24.482  28.838  1.00  0.00    -0.206 F 
ATOM     76  C   UNL A   1      45.027  24.822  26.201  1.00  0.00     0.060 A 
BRANCH  76  77
ATOM     77  S   UNL A   1      45.714  23.867  24.830  1.00  0.00     0.124 S 
ATOM     78  O   UNL A   1      44.510  23.535  24.075  1.00  0.00    -0.237 OA
ATOM     79  O   UNL A   1      46.612  24.829  24.199  1.00  0.00    -0.237 OA
ATOM     80  O   UNL A   1      46.369  22.742  25.490  1.00  0.00    -0.744 OA
ENDBRANCH  76  77
ENDBRANCH  55  69
BRANCH  56  81
ATOM     81  C   UNL A   1      40.100  31.683  35.789  1.00  0.00     0.058 A 
ATOM     82  C   UNL A   1      38.941  31.251  36.448  1.00  0.00     0.135 A 
ATOM     83  C   UNL A   1      40.717  32.857  36.254  1.00  0.00     0.135 A 
ATOM     84  F   UNL A   1      38.312  30.139  36.040  1.00  0.00    -0.206 F 
ATOM     85  C   UNL A   1      38.410  31.956  37.525  1.00  0.00     0.059 A 
ATOM     86  C   UNL A   1      40.229  33.556  37.352  1.00  0.00     0.059 A 
ATOM     87  F   UNL A   1      41.842  33.301  35.672  1.00  0.00    -0.206 F 
ATOM     88  C   UNL A   1      39.067  33.103  37.975  1.00  0.00     0.060 A 
BRANCH  88  89
ATOM     89  S   UNL A   1      38.413  33.975  39.413  1.00  0.00     0.124 S 
ATOM     90  O   UNL A   1      38.668  35.365  39.055  1.00  0.00    -0.237 OA
ATOM     91  O   UNL A   1      37.015  33.559  39.416  1.00  0.00    -0.237 OA
ATOM     92  O   UNL A   1      39.215  33.450  40.515  1.00  0.00    -0.744 OA
ENDBRANCH  88  89
ENDBRANCH  56  81
BRANCH  68  93
ATOM     93  C   UNL A   1      45.589  27.433  35.248  1.00  0.00     0.058 A 
ATOM     94  C   UNL A   1      46.718  28.253  35.404  1.00  0.00     0.135 A 
ATOM     95  C   UNL A   1      45.521  26.258  36.015  1.00  0.00     0.135 A 
ATOM     96  F   UNL A   1      46.842  29.375  34.678  1.00  0.00    -0.206 F 
ATOM     97  C   UNL A   1      47.748  27.909  36.272  1.00  0.00     0.059 A 
ATOM     98  C   UNL A   1      46.525  25.911  36.912  1.00  0.00     0.059 A 
ATOM     99  F   UNL A   1      44.464  25.438  35.902  1.00  0.00    -0.206 F 
ATOM    100  C   UNL A   1      47.641  26.738  37.025  1.00  0.00     0.060 A 
BRANCH 100 101
ATOM    101  S   UNL A   1      48.971  26.324  38.173  1.00  0.00     0.124 S 
ATOM    102  O   UNL A   1      49.077  27.550  38.956  1.00  0.00    -0.237 OA
ATOM    103  O   UNL A   1      48.424  25.167  38.876  1.00  0.00    -0.237 OA
ATOM    104  O   UNL A   1      50.101  26.038  37.294  1.00  0.00    -0.744 OA
ENDBRANCH 100 101
ENDBRANCH  68  93
ENDBRANCH  42  43
ENDBRANCH  35  37
ENDBRANCH  34  35
ENDBRANCH  33  34
ENDBRANCH   1  33
TORSDOF 19
ENDMDL
MODEL 2
REMARK VINA RESULT:     -11.5      7.956     14.979
REMARK SMILES CS(=O)(=O)c1ccc(/C=C(/C(=O)OCCOC(=O)c2ccc(-c3c4nc(c(-c5c(F)cc(S(=O)(=O)[O-])cc5F)c5ccc([nH]5)c(-c5c(F)cc(S(=O)(=O)[O-])cc5F)c5nc(c(-c6c(F)cc(S(=O)(=O)[O-])cc6F)c6ccc3[nH]6)C=C5)C=C4)cc2)c2ccc(-c3ccc(S(C)(=O)=O)cc3)cc2)cc1
REMARK SMILES IDX 14 1 13 2 11 3 12 4 10 5 9 6 8 7 5 8 6 9 102 10 7 11 101 12
REMARK SMILES IDX 2 13 1 14 3 15 4 16 85 17 86 18 100 19 87 20 99 21 88 22
REMARK SMILES IDX 89 23 90 24 98 25 91 26 97 27 92 28 93 29 94 30 95 31 96 32
REMARK SMILES IDX 15 33 16 34 17 35 18 36 19 37 20 38 84 39 21 40 83 41 22 42
REMARK SMILES IDX 23 43 24 44 77 45 25 46 82 47 76 48 78 49 26 50 81 51 75 52
REMARK SMILES IDX 74 53 27 55 61 56 40 57 60 58 41 59 44 60 59 61 79 62 42 63
REMARK SMILES IDX 43 64 58 66 80 67 45 68 28 69 29 70 38 71 30 72 31 73 37 74
REMARK SMILES IDX 39 75 32 76 33 77 34 78 35 79 36 80 62 81 63 82 72 83 64 84
REMARK SMILES IDX 65 85 71 86 73 87 66 88 67 89 68 90 69 91 70 92 46 93 47 94
REMARK SMILES IDX 56 95 48 96 49 97 55 98 57 99 50 100 51 101 52 102 53 103
REMARK SMILES IDX 54 104
REMARK H PARENT 78 54 44 65
REMARK Flexibility Score: inf
ROOT
ATOM      1  C   UNL A   1      42.777  41.239  31.678  1.00  0.00     0.275 C 
ENDROOT
BRANCH   1   2
ATOM      2  O   UNL A   1      42.523  41.651  30.319  1.00  0.00    -0.458 OA
BRANCH   2   3
ATOM      3  C   UNL A   1      41.646  40.871  29.636  1.00  0.00     0.338 C 
ATOM      4  O   UNL A   1      40.432  40.880  29.783  1.00  0.00    -0.246 OA
BRANCH   3   5
ATOM      5  C   UNL A   1      42.324  40.013  28.618  1.00  0.00     0.067 C 
ATOM      6  C   UNL A   1      42.648  38.736  28.929  1.00  0.00     0.024 C 
BRANCH   6   7
ATOM      7  C   UNL A   1      43.035  37.647  27.992  1.00  0.00    -0.025 A 
ATOM      8  C   UNL A   1      44.015  35.421  26.579  1.00  0.00     0.067 A 
ATOM      9  C   UNL A   1      42.678  35.466  26.945  1.00  0.00     0.021 A 
ATOM     10  C   UNL A   1      44.855  36.505  26.838  1.00  0.00     0.021 A 
ATOM     11  C   UNL A   1      42.191  36.596  27.600  1.00  0.00     0.009 A 
ATOM     12  C   UNL A   1      44.363  37.611  27.540  1.00  0.00     0.009 A 
BRANCH   8  13
ATOM     13  S   UNL A   1      44.663  33.958  25.819  1.00  0.00     0.175 S 
ATOM     14  C   UNL A   1      46.395  34.054  26.169  1.00  0.00     0.163 C 
ATOM     15  O   UNL A   1      44.501  34.081  24.385  1.00  0.00    -0.224 OA
ATOM     16  O   UNL A   1      44.116  32.822  26.541  1.00  0.00    -0.224 OA
ENDBRANCH   8  13
ENDBRANCH   6   7
BRANCH   5  17
ATOM     17  C   UNL A   1      42.460  40.557  27.258  1.00  0.00    -0.011 A 
ATOM     18  C   UNL A   1      41.315  40.707  26.465  1.00  0.00     0.009 A 
ATOM     19  C   UNL A   1      43.685  41.016  26.775  1.00  0.00     0.009 A 
ATOM     20  C   UNL A   1      41.399  41.315  25.206  1.00  0.00     0.009 A 
ATOM     21  C   UNL A   1      43.758  41.623  25.515  1.00  0.00     0.009 A 
ATOM     22  C   UNL A   1      42.624  41.771  24.689  1.00  0.00    -0.018 A 
BRANCH  22  23
ATOM     23  C   UNL A   1      42.728  42.351  23.325  1.00  0.00    -0.018 A 
ATOM     24  C   UNL A   1      43.904  42.980  22.870  1.00  0.00     0.010 A 
ATOM     25  C   UNL A   1      41.643  42.298  22.426  1.00  0.00     0.010 A 
ATOM     26  C   UNL A   1      44.006  43.500  21.575  1.00  0.00     0.021 A 
ATOM     27  C   UNL A   1      41.736  42.800  21.125  1.00  0.00     0.021 A 
ATOM     28  C   UNL A   1      42.925  43.386  20.704  1.00  0.00     0.067 A 
BRANCH  28  29
ATOM     29  S   UNL A   1      43.084  43.953  19.029  1.00  0.00     0.175 S 
ATOM     30  C   UNL A   1      44.822  44.148  18.805  1.00  0.00     0.163 C 
ATOM     31  O   UNL A   1      42.620  42.867  18.183  1.00  0.00    -0.224 OA
ATOM     32  O   UNL A   1      42.465  45.264  18.953  1.00  0.00    -0.224 OA
ENDBRANCH  28  29
ENDBRANCH  22  23
ENDBRANCH   5  17
ENDBRANCH   3   5
ENDBRANCH   2   3
ENDBRANCH   1   2
BRANCH   1  33
ATOM     33  C   UNL A   1      44.238  40.824  31.860  1.00  0.00     0.275 C 
BRANCH  33  34
ATOM     34  O   UNL A   1      44.332  39.623  32.648  1.00  0.00    -0.458 OA
BRANCH  34  35
ATOM     35  C   UNL A   1      45.573  39.098  32.756  1.00  0.00     0.338 C 
ATOM     36  O   UNL A   1      46.562  39.634  33.231  1.00  0.00    -0.246 OA
BRANCH  35  37
ATOM     37  C   UNL A   1      45.598  37.711  32.262  1.00  0.00     0.060 A 
ATOM     38  C   UNL A   1      45.742  37.487  30.902  1.00  0.00     0.016 A 
ATOM     39  C   UNL A   1      45.229  36.659  33.102  1.00  0.00     0.016 A 
ATOM     40  C   UNL A   1      45.343  36.262  30.368  1.00  0.00     0.010 A 
ATOM     41  C   UNL A   1      44.967  35.388  32.561  1.00  0.00     0.010 A 
ATOM     42  C   UNL A   1      44.942  35.182  31.171  1.00  0.00    -0.014 A 
BRANCH  42  43
ATOM     43  C   UNL A   1      44.450  33.895  30.560  1.00  0.00     0.031 A 
ATOM     44  C   UNL A   1      42.967  33.576  30.475  1.00  0.00     0.074 A 
ATOM     45  C   UNL A   1      45.312  32.998  30.028  1.00  0.00     0.049 A 
ATOM     46  N   UNL A   1      42.372  32.434  30.213  1.00  0.00    -0.248 NA
ATOM     47  C   UNL A   1      42.026  34.678  30.731  1.00  0.00     0.031 C 
ATOM     48  C   UNL A   1      46.765  33.154  29.946  1.00  0.00     0.029 A 
ATOM     49  N   UNL A   1      45.089  31.773  29.438  1.00  0.00    -0.354 N 
ATOM     50  C   UNL A   1      41.006  32.661  30.363  1.00  0.00     0.074 A 
ATOM     51  C   UNL A   1      40.855  34.054  30.726  1.00  0.00     0.031 C 
ATOM     52  C   UNL A   1      47.289  32.127  29.267  1.00  0.00     0.029 A 
ATOM     53  C   UNL A   1      46.242  31.150  29.015  1.00  0.00     0.049 A 
ATOM     54  H   UNL A   1      44.192  31.381  29.330  1.00  0.00     0.167 HD
ATOM     55  C   UNL A   1      39.975  31.789  30.217  1.00  0.00     0.037 A 
ATOM     56  C   UNL A   1      46.473  29.905  28.554  1.00  0.00     0.037 A 
ATOM     57  C   UNL A   1      40.127  30.424  29.771  1.00  0.00     0.049 A 
ATOM     58  C   UNL A   1      45.339  28.931  28.460  1.00  0.00     0.074 A 
ATOM     59  C   UNL A   1      39.133  29.513  29.454  1.00  0.00     0.029 A 
ATOM     60  N   UNL A   1      41.336  29.770  29.581  1.00  0.00    -0.354 N 
ATOM     61  N   UNL A   1      44.088  29.093  28.820  1.00  0.00    -0.248 NA
ATOM     62  C   UNL A   1      45.647  27.600  27.924  1.00  0.00     0.031 C 
ATOM     63  C   UNL A   1      39.740  28.308  29.084  1.00  0.00     0.029 A 
ATOM     64  C   UNL A   1      41.112  28.492  29.087  1.00  0.00     0.049 A 
ATOM     65  H   UNL A   1      42.222  30.156  29.768  1.00  0.00     0.167 HD
ATOM     66  C   UNL A   1      43.452  27.893  28.524  1.00  0.00     0.074 A 
ATOM     67  C   UNL A   1      44.460  27.011  27.974  1.00  0.00     0.031 C 
ATOM     68  C   UNL A   1      42.139  27.578  28.645  1.00  0.00     0.037 A 
BRANCH  55  69
ATOM     69  C   UNL A   1      38.578  32.258  30.555  1.00  0.00     0.058 A 
ATOM     70  C   UNL A   1      37.974  32.019  31.800  1.00  0.00     0.135 A 
ATOM     71  C   UNL A   1      37.856  33.028  29.625  1.00  0.00     0.135 A 
ATOM     72  F   UNL A   1      38.611  31.291  32.732  1.00  0.00    -0.206 F 
ATOM     73  C   UNL A   1      36.695  32.491  32.095  1.00  0.00     0.059 A 
ATOM     74  C   UNL A   1      36.592  33.539  29.909  1.00  0.00     0.059 A 
ATOM     75  F   UNL A   1      38.385  33.302  28.422  1.00  0.00    -0.206 F 
ATOM     76  C   UNL A   1      36.012  33.249  31.142  1.00  0.00     0.060 A 
BRANCH  76  77
ATOM     77  S   UNL A   1      34.354  33.850  31.535  1.00  0.00     0.124 S 
ATOM     78  O   UNL A   1      33.850  32.775  32.384  1.00  0.00    -0.237 OA
ATOM     79  O   UNL A   1      34.633  35.113  32.211  1.00  0.00    -0.237 OA
ATOM     80  O   UNL A   1      33.715  33.969  30.229  1.00  0.00    -0.744 OA
ENDBRANCH  76  77
ENDBRANCH  55  69
BRANCH  56  81
ATOM     81  C   UNL A   1      47.867  29.498  28.223  1.00  0.00     0.058 A 
ATOM     82  C   UNL A   1      48.754  29.071  29.220  1.00  0.00     0.135 A 
ATOM     83  C   UNL A   1      48.317  29.477  26.893  1.00  0.00     0.135 A 
ATOM     84  F   UNL A   1      48.374  29.078  30.505  1.00  0.00    -0.206 F 
ATOM     85  C   UNL A   1      50.043  28.643  28.912  1.00  0.00     0.059 A 
ATOM     86  C   UNL A   1      49.585  29.016  26.556  1.00  0.00     0.059 A 
ATOM     87  F   UNL A   1      47.498  29.854  25.899  1.00  0.00    -0.206 F 
ATOM     88  C   UNL A   1      50.445  28.611  27.574  1.00  0.00     0.060 A 
BRANCH  88  89
ATOM     89  S   UNL A   1      52.092  27.990  27.174  1.00  0.00     0.124 S 
ATOM     90  O   UNL A   1      52.007  27.847  25.726  1.00  0.00    -0.237 OA
ATOM     91  O   UNL A   1      52.952  29.062  27.664  1.00  0.00    -0.237 OA
ATOM     92  O   UNL A   1      52.171  26.741  27.928  1.00  0.00    -0.744 OA
ENDBRANCH  88  89
ENDBRANCH  56  81
BRANCH  68  93
ATOM     93  C   UNL A   1      41.724  26.219  28.150  1.00  0.00     0.058 A 
ATOM     94  C   UNL A   1      42.049  25.046  28.848  1.00  0.00     0.135 A 
ATOM     95  C   UNL A   1      40.995  26.091  26.955  1.00  0.00     0.135 A 
ATOM     96  F   UNL A   1      42.764  25.111  29.982  1.00  0.00    -0.206 F 
ATOM     97  C   UNL A   1      41.683  23.793  28.369  1.00  0.00     0.059 A 
ATOM     98  C   UNL A   1      40.592  24.851  26.474  1.00  0.00     0.059 A 
ATOM     99  F   UNL A   1      40.660  27.182  26.248  1.00  0.00    -0.206 F 
ATOM    100  C   UNL A   1      40.951  23.706  27.183  1.00  0.00     0.060 A 
BRANCH 100 101
ATOM    101  S   UNL A   1      40.454  22.074  26.592  1.00  0.00     0.124 S 
ATOM    102  O   UNL A   1      41.475  21.801  25.586  1.00  0.00    -0.237 OA
ATOM    103  O   UNL A   1      40.530  21.268  27.807  1.00  0.00    -0.237 OA
ATOM    104  O   UNL A   1      39.106  22.295  26.077  1.00  0.00    -0.744 OA
ENDBRANCH 100 101
ENDBRANCH  68  93
ENDBRANCH  42  43
ENDBRANCH  35  37
ENDBRANCH  34  35
ENDBRANCH  33  34
ENDBRANCH   1  33
TORSDOF 19
ENDMDL
MODEL 3
REMARK VINA RESULT:     -11.5      4.983     12.092
REMARK SMILES CS(=O)(=O)c1ccc(/C=C(/C(=O)OCCOC(=O)c2ccc(-c3c4nc(c(-c5c(F)cc(S(=O)(=O)[O-])cc5F)c5ccc([nH]5)c(-c5c(F)cc(S(=O)(=O)[O-])cc5F)c5nc(c(-c6c(F)cc(S(=O)(=O)[O-])cc6F)c6ccc3[nH]6)C=C5)C=C4)cc2)c2ccc(-c3ccc(S(C)(=O)=O)cc3)cc2)cc1
REMARK SMILES IDX 14 1 13 2 11 3 12 4 10 5 9 6 8 7 5 8 6 9 102 10 7 11 101 12
REMARK SMILES IDX 2 13 1 14 3 15 4 16 85 17 86 18 100 19 87 20 99 21 88 22
REMARK SMILES IDX 89 23 90 24 98 25 91 26 97 27 92 28 93 29 94 30 95 31 96 32
REMARK SMILES IDX 15 33 16 34 17 35 18 36 19 37 20 38 84 39 21 40 83 41 22 42
REMARK SMILES IDX 23 43 24 44 77 45 25 46 82 47 76 48 78 49 26 50 81 51 75 52
REMARK SMILES IDX 74 53 27 55 61 56 40 57 60 58 41 59 44 60 59 61 79 62 42 63
REMARK SMILES IDX 43 64 58 66 80 67 45 68 28 69 29 70 38 71 30 72 31 73 37 74
REMARK SMILES IDX 39 75 32 76 33 77 34 78 35 79 36 80 62 81 63 82 72 83 64 84
REMARK SMILES IDX 65 85 71 86 73 87 66 88 67 89 68 90 69 91 70 92 46 93 47 94
REMARK SMILES IDX 56 95 48 96 49 97 55 98 57 99 50 100 51 101 52 102 53 103
REMARK SMILES IDX 54 104
REMARK H PARENT 78 54 44 65
REMARK Flexibility Score: inf
ROOT
ATOM      1  C   UNL A   1      34.770  34.208  31.476  1.00  0.00     0.275 C 
ENDROOT
BRANCH   1   2
ATOM      2  O   UNL A   1      35.880  33.855  32.328  1.00  0.00    -0.458 OA
BRANCH   2   3
ATOM      3  C   UNL A   1      35.537  33.368  33.548  1.00  0.00     0.338 C 
ATOM      4  O   UNL A   1      34.410  33.026  33.879  1.00  0.00    -0.246 OA
BRANCH   3   5
ATOM      5  C   UNL A   1      36.714  33.236  34.458  1.00  0.00     0.067 C 
ATOM      6  C   UNL A   1      36.659  33.760  35.705  1.00  0.00     0.024 C 
BRANCH   6   7
ATOM      7  C   UNL A   1      37.572  33.481  36.845  1.00  0.00    -0.025 A 
ATOM      8  C   UNL A   1      39.138  33.355  39.178  1.00  0.00     0.067 A 
ATOM      9  C   UNL A   1      38.076  32.477  39.017  1.00  0.00     0.021 A 
ATOM     10  C   UNL A   1      39.481  34.244  38.158  1.00  0.00     0.021 A 
ATOM     11  C   UNL A   1      37.338  32.514  37.836  1.00  0.00     0.009 A 
ATOM     12  C   UNL A   1      38.700  34.302  36.998  1.00  0.00     0.009 A 
BRANCH   8  13
ATOM     13  S   UNL A   1      40.032  33.371  40.708  1.00  0.00     0.175 S 
ATOM     14  C   UNL A   1      41.162  34.718  40.500  1.00  0.00     0.163 C 
ATOM     15  O   UNL A   1      40.813  32.155  40.791  1.00  0.00    -0.224 OA
ATOM     16  O   UNL A   1      39.087  33.730  41.752  1.00  0.00    -0.224 OA
ENDBRANCH   8  13
ENDBRANCH   6   7
BRANCH   5  17
ATOM     17  C   UNL A   1      37.829  32.390  34.002  1.00  0.00    -0.011 A 
ATOM     18  C   UNL A   1      38.986  33.000  33.501  1.00  0.00     0.009 A 
ATOM     19  C   UNL A   1      37.799  31.004  34.144  1.00  0.00     0.009 A 
ATOM     20  C   UNL A   1      40.101  32.226  33.154  1.00  0.00     0.009 A 
ATOM     21  C   UNL A   1      38.919  30.240  33.794  1.00  0.00     0.009 A 
ATOM     22  C   UNL A   1      40.091  30.825  33.272  1.00  0.00    -0.018 A 
BRANCH  22  23
ATOM     23  C   UNL A   1      41.245  29.997  32.837  1.00  0.00    -0.018 A 
ATOM     24  C   UNL A   1      42.569  30.480  32.883  1.00  0.00     0.010 A 
ATOM     25  C   UNL A   1      41.061  28.686  32.352  1.00  0.00     0.010 A 
ATOM     26  C   UNL A   1      43.655  29.687  32.499  1.00  0.00     0.021 A 
ATOM     27  C   UNL A   1      42.138  27.877  31.980  1.00  0.00     0.021 A 
ATOM     28  C   UNL A   1      43.431  28.380  32.070  1.00  0.00     0.067 A 
BRANCH  28  29
ATOM     29  S   UNL A   1      44.813  27.336  31.677  1.00  0.00     0.175 S 
ATOM     30  C   UNL A   1      45.676  27.174  33.206  1.00  0.00     0.163 C 
ATOM     31  O   UNL A   1      44.258  26.045  31.311  1.00  0.00    -0.224 OA
ATOM     32  O   UNL A   1      45.660  28.066  30.752  1.00  0.00    -0.224 OA
ENDBRANCH  28  29
ENDBRANCH  22  23
ENDBRANCH   5  17
ENDBRANCH   3   5
ENDBRANCH   2   3
ENDBRANCH   1   2
BRANCH   1  33
ATOM     33  C   UNL A   1      34.911  33.560  30.098  1.00  0.00     0.275 C 
BRANCH  33  34
ATOM     34  O   UNL A   1      35.771  32.407  30.163  1.00  0.00    -0.458 OA
BRANCH  34  35
ATOM     35  C   UNL A   1      35.551  31.469  29.214  1.00  0.00     0.338 C 
ATOM     36  O   UNL A   1      34.556  31.342  28.518  1.00  0.00    -0.246 OA
BRANCH  35  37
ATOM     37  C   UNL A   1      36.728  30.599  29.058  1.00  0.00     0.060 A 
ATOM     38  C   UNL A   1      37.416  30.194  30.191  1.00  0.00     0.016 A 
ATOM     39  C   UNL A   1      37.291  30.396  27.797  1.00  0.00     0.016 A 
ATOM     40  C   UNL A   1      38.735  29.755  30.067  1.00  0.00     0.010 A 
ATOM     41  C   UNL A   1      38.568  29.819  27.683  1.00  0.00     0.010 A 
ATOM     42  C   UNL A   1      39.351  29.559  28.820  1.00  0.00    -0.014 A 
BRANCH  42  43
ATOM     43  C   UNL A   1      40.799  29.152  28.721  1.00  0.00     0.031 A 
ATOM     44  C   UNL A   1      41.919  30.139  29.005  1.00  0.00     0.074 A 
ATOM     45  C   UNL A   1      41.151  27.881  28.417  1.00  0.00     0.049 A 
ATOM     46  N   UNL A   1      43.202  30.045  28.737  1.00  0.00    -0.248 NA
ATOM     47  C   UNL A   1      41.552  31.404  29.661  1.00  0.00     0.031 C 
ATOM     48  C   UNL A   1      40.225  26.772  28.184  1.00  0.00     0.029 A 
ATOM     49  N   UNL A   1      42.390  27.300  28.265  1.00  0.00    -0.354 N 
ATOM     50  C   UNL A   1      43.769  31.263  29.105  1.00  0.00     0.074 A 
ATOM     51  C   UNL A   1      42.694  32.078  29.629  1.00  0.00     0.031 C 
ATOM     52  C   UNL A   1      40.916  25.638  28.014  1.00  0.00     0.029 A 
ATOM     53  C   UNL A   1      42.333  25.961  27.950  1.00  0.00     0.049 A 
ATOM     54  H   UNL A   1      43.235  27.794  28.370  1.00  0.00     0.167 HD
ATOM     55  C   UNL A   1      45.062  31.665  29.011  1.00  0.00     0.037 A 
ATOM     56  C   UNL A   1      43.284  25.087  27.565  1.00  0.00     0.037 A 
ATOM     57  C   UNL A   1      46.144  30.817  28.568  1.00  0.00     0.049 A 
ATOM     58  C   UNL A   1      44.695  25.559  27.399  1.00  0.00     0.074 A 
ATOM     59  C   UNL A   1      47.502  31.088  28.577  1.00  0.00     0.029 A 
ATOM     60  N   UNL A   1      46.000  29.543  28.036  1.00  0.00    -0.354 N 
ATOM     61  N   UNL A   1      45.175  26.771  27.535  1.00  0.00    -0.248 NA
ATOM     62  C   UNL A   1      45.691  24.556  27.005  1.00  0.00     0.031 C 
ATOM     63  C   UNL A   1      48.177  29.985  28.043  1.00  0.00     0.029 A 
ATOM     64  C   UNL A   1      47.249  28.992  27.779  1.00  0.00     0.049 A 
ATOM     65  H   UNL A   1      45.140  29.095  27.868  1.00  0.00     0.167 HD
ATOM     66  C   UNL A   1      46.536  26.671  27.274  1.00  0.00     0.074 A 
ATOM     67  C   UNL A   1      46.798  25.283  26.953  1.00  0.00     0.031 C 
ATOM     68  C   UNL A   1      47.488  27.634  27.351  1.00  0.00     0.037 A 
BRANCH  55  69
ATOM     69  C   UNL A   1      45.404  33.093  29.372  1.00  0.00     0.058 A 
ATOM     70  C   UNL A   1      45.762  33.486  30.672  1.00  0.00     0.135 A 
ATOM     71  C   UNL A   1      45.441  34.078  28.368  1.00  0.00     0.135 A 
ATOM     72  F   UNL A   1      45.748  32.594  31.675  1.00  0.00    -0.206 F 
ATOM     73  C   UNL A   1      46.104  34.805  30.969  1.00  0.00     0.059 A 
ATOM     74  C   UNL A   1      45.812  35.393  28.634  1.00  0.00     0.059 A 
ATOM     75  F   UNL A   1      45.123  33.762  27.102  1.00  0.00    -0.206 F 
ATOM     76  C   UNL A   1      46.125  35.751  29.943  1.00  0.00     0.060 A 
BRANCH  76  77
ATOM     77  S   UNL A   1      46.564  37.457  30.343  1.00  0.00     0.124 S 
ATOM     78  O   UNL A   1      45.279  38.132  30.187  1.00  0.00    -0.237 OA
ATOM     79  O   UNL A   1      47.056  37.340  31.712  1.00  0.00    -0.237 OA
ATOM     80  O   UNL A   1      47.573  37.794  29.344  1.00  0.00    -0.744 OA
ENDBRANCH  76  77
ENDBRANCH  55  69
BRANCH  56  81
ATOM     81  C   UNL A   1      42.895  23.688  27.232  1.00  0.00     0.058 A 
ATOM     82  C   UNL A   1      42.684  23.289  25.905  1.00  0.00     0.135 A 
ATOM     83  C   UNL A   1      42.783  22.711  28.235  1.00  0.00     0.135 A 
ATOM     84  F   UNL A   1      42.774  24.185  24.912  1.00  0.00    -0.206 F 
ATOM     85  C   UNL A   1      42.369  21.971  25.583  1.00  0.00     0.059 A 
ATOM     86  C   UNL A   1      42.509  21.382  27.935  1.00  0.00     0.059 A 
ATOM     87  F   UNL A   1      42.999  23.037  29.519  1.00  0.00    -0.206 F 
ATOM     88  C   UNL A   1      42.293  21.023  26.606  1.00  0.00     0.060 A 
BRANCH  88  89
ATOM     89  S   UNL A   1      41.952  19.304  26.177  1.00  0.00     0.124 S 
ATOM     90  O   UNL A   1      40.499  19.313  26.058  1.00  0.00    -0.237 OA
ATOM     91  O   UNL A   1      42.696  19.144  24.931  1.00  0.00    -0.237 OA
ATOM     92  O   UNL A   1      42.488  18.562  27.315  1.00  0.00    -0.744 OA
ENDBRANCH  88  89
ENDBRANCH  56  81
BRANCH  68  93
ATOM     93  C   UNL A   1      48.907  27.201  27.100  1.00  0.00     0.058 A 
ATOM     94  C   UNL A   1      49.697  26.633  28.111  1.00  0.00     0.135 A 
ATOM     95  C   UNL A   1      49.484  27.363  25.828  1.00  0.00     0.135 A 
ATOM     96  F   UNL A   1      49.201  26.478  29.348  1.00  0.00    -0.206 F 
ATOM     97  C   UNL A   1      51.016  26.260  27.875  1.00  0.00     0.059 A 
ATOM     98  C   UNL A   1      50.790  26.968  25.563  1.00  0.00     0.059 A 
ATOM     99  F   UNL A   1      48.771  27.903  24.827  1.00  0.00    -0.206 F 
ATOM    100  C   UNL A   1      51.552  26.428  26.597  1.00  0.00     0.060 A 
BRANCH 100 101
ATOM    101  S   UNL A   1      53.255  25.907  26.299  1.00  0.00     0.124 S 
ATOM    102  O   UNL A   1      53.094  24.469  26.109  1.00  0.00    -0.237 OA
ATOM    103  O   UNL A   1      53.607  26.669  25.105  1.00  0.00    -0.237 OA
ATOM    104  O   UNL A   1      53.950  26.307  27.518  1.00  0.00    -0.744 OA
ENDBRANCH 100 101
ENDBRANCH  68  93
ENDBRANCH  42  43
ENDBRANCH  35  37
ENDBRANCH  34  35
ENDBRANCH  33  34
ENDBRANCH   1  33
TORSDOF 19
ENDMDL
