MODEL 1
REMARK VINA RESULT:     -11.1      0.000      0.000
REMARK SMILES Cc1cc(Cl)c2c(c1)C=C(C(=O)OCCOC(=O)c1ccc(-c3c4nc(c(-c5c(F)cc(S(=O)(=O)[O-])cc5F)c5ccc([nH]5)c(-c5c(F)cc(S(=O)(=O)[O-])cc5F)c5nc(c(-c6c(F)cc(S(=O)(=O)[O-])cc6F)c6ccc3[nH]6)C=C5)C=C4)cc1)[C@@H](C(F)(F)F)O2
REMARK SMILES IDX 15 1 14 2 13 3 11 4 12 5 10 6 1 7 2 8 3 9 8 10 4 11 7 12
REMARK SMILES IDX 5 13 6 14 9 15 90 16 85 17 86 18 87 19 88 20 89 21 16 22
REMARK SMILES IDX 17 23 18 24 19 25 20 26 84 27 21 28 83 29 22 30 23 31 24 32
REMARK SMILES IDX 77 33 25 34 82 35 76 36 78 37 26 38 81 39 75 40 74 41 27 43
REMARK SMILES IDX 61 44 40 45 60 46 41 47 44 48 59 49 79 50 42 51 43 52 58 54
REMARK SMILES IDX 80 55 45 56 28 57 29 58 38 59 30 60 31 61 37 62 39 63 32 64
REMARK SMILES IDX 33 65 34 66 35 67 36 68 62 69 63 70 72 71 64 72 65 73 71 74
REMARK SMILES IDX 73 75 66 76 67 77 68 78 69 79 70 80 46 81 47 82 56 83 48 84
REMARK SMILES IDX 49 85 55 86 57 87 50 88 51 89 52 90 53 91 54 92
REMARK H PARENT 78 42 44 53
REMARK Flexibility Score: inf
ROOT
ATOM      1  C   UNL A   1      33.399  28.677  25.681  1.00  0.00     0.275 C 
ENDROOT
BRANCH   1   2
ATOM      2  C   UNL A   1      32.118  27.857  25.530  1.00  0.00     0.275 C 
BRANCH   2   3
ATOM      3  O   UNL A   1      32.395  26.513  25.076  1.00  0.00    -0.459 OA
BRANCH   3   4
ATOM      4  C   UNL A   1      31.897  25.527  25.858  1.00  0.00     0.338 C 
ATOM      5  O   UNL A   1      30.868  25.572  26.515  1.00  0.00    -0.246 OA
BRANCH   4   6
ATOM      6  C   UNL A   1      32.764  24.336  25.823  1.00  0.00     0.087 C 
ATOM      7  C   UNL A   1      38.728  22.825  26.078  1.00  0.00     0.044 C 
ATOM      8  C   UNL A   1      37.262  22.588  25.858  1.00  0.00    -0.049 A 
ATOM      9  C   UNL A   1      36.782  21.348  25.425  1.00  0.00     0.028 A 
ATOM     10  C   UNL A   1      36.344  23.605  26.127  1.00  0.00     0.015 A 
ATOM     11  C   UNL A   1      35.407  21.141  25.239  1.00  0.00     0.084 A 
ATOM     12  C   UNL A   1      34.970  23.403  25.920  1.00  0.00     0.019 A 
ATOM     13  Cl  UNL A   1      34.881  19.591  24.684  1.00  0.00    -0.080 Cl
ATOM     14  C   UNL A   1      34.489  22.172  25.477  1.00  0.00     0.146 A 
ATOM     15  C   UNL A   1      34.055  24.504  26.124  1.00  0.00     0.027 C 
ATOM     16  O   UNL A   1      33.154  21.930  25.285  1.00  0.00    -0.474 OA
ATOM     17  C   UNL A   1      32.214  23.045  25.299  1.00  0.00     0.316 C 
BRANCH  17  18
ATOM     18  C   UNL A   1      31.624  23.221  23.890  1.00  0.00     0.430 C 
ATOM     19  F   UNL A   1      31.591  22.046  23.216  1.00  0.00    -0.167 F 
ATOM     20  F   UNL A   1      30.345  23.667  23.939  1.00  0.00    -0.167 F 
ATOM     21  F   UNL A   1      32.331  24.099  23.143  1.00  0.00    -0.167 F 
ENDBRANCH  17  18
ENDBRANCH   4   6
ENDBRANCH   3   4
ENDBRANCH   2   3
ENDBRANCH   1   2
BRANCH   1  22
ATOM     22  O   UNL A   1      33.910  28.587  27.023  1.00  0.00    -0.458 OA
BRANCH  22  23
ATOM     23  C   UNL A   1      34.132  29.777  27.626  1.00  0.00     0.338 C 
ATOM     24  O   UNL A   1      33.315  30.654  27.850  1.00  0.00    -0.246 OA
BRANCH  23  25
ATOM     25  C   UNL A   1      35.522  29.869  28.093  1.00  0.00     0.060 A 
ATOM     26  C   UNL A   1      36.492  30.263  27.182  1.00  0.00     0.016 A 
ATOM     27  C   UNL A   1      35.898  29.340  29.324  1.00  0.00     0.016 A 
ATOM     28  C   UNL A   1      37.827  29.946  27.408  1.00  0.00     0.010 A 
ATOM     29  C   UNL A   1      37.259  29.186  29.620  1.00  0.00     0.010 A 
ATOM     30  C   UNL A   1      38.241  29.426  28.641  1.00  0.00    -0.014 A 
BRANCH  30  31
ATOM     31  C   UNL A   1      39.683  29.115  28.886  1.00  0.00     0.031 A 
ATOM     32  C   UNL A   1      40.599  30.156  29.489  1.00  0.00     0.074 A 
ATOM     33  C   UNL A   1      40.176  27.893  28.594  1.00  0.00     0.049 A 
ATOM     34  N   UNL A   1      41.903  30.148  29.594  1.00  0.00    -0.248 NA
ATOM     35  C   UNL A   1      39.969  31.371  30.032  1.00  0.00     0.031 C 
ATOM     36  C   UNL A   1      39.401  26.767  28.063  1.00  0.00     0.029 A 
ATOM     37  N   UNL A   1      41.446  27.380  28.713  1.00  0.00    -0.354 N 
ATOM     38  C   UNL A   1      42.253  31.373  30.158  1.00  0.00     0.074 A 
ATOM     39  C   UNL A   1      41.023  32.106  30.362  1.00  0.00     0.031 C 
ATOM     40  C   UNL A   1      40.190  25.689  27.962  1.00  0.00     0.029 A 
ATOM     41  C   UNL A   1      41.554  26.072  28.296  1.00  0.00     0.049 A 
ATOM     42  H   UNL A   1      42.206  27.898  29.062  1.00  0.00     0.167 HD
ATOM     43  C   UNL A   1      43.485  31.837  30.477  1.00  0.00     0.037 A 
ATOM     44  C   UNL A   1      42.632  25.279  28.137  1.00  0.00     0.037 A 
ATOM     45  C   UNL A   1      44.698  31.075  30.320  1.00  0.00     0.049 A 
ATOM     46  C   UNL A   1      43.992  25.839  28.432  1.00  0.00     0.074 A 
ATOM     47  C   UNL A   1      45.996  31.453  30.617  1.00  0.00     0.029 A 
ATOM     48  N   UNL A   1      44.762  29.775  29.839  1.00  0.00    -0.354 N 
ATOM     49  N   UNL A   1      44.311  27.024  28.895  1.00  0.00    -0.248 NA
ATOM     50  C   UNL A   1      45.142  24.966  28.161  1.00  0.00     0.031 C 
ATOM     51  C   UNL A   1      46.848  30.399  30.273  1.00  0.00     0.029 A 
ATOM     52  C   UNL A   1      46.078  29.343  29.814  1.00  0.00     0.049 A 
ATOM     53  H   UNL A   1      43.986  29.238  29.557  1.00  0.00     0.167 HD
ATOM     54  C   UNL A   1      45.697  27.036  28.981  1.00  0.00     0.074 A 
ATOM     55  C   UNL A   1      46.154  25.732  28.545  1.00  0.00     0.031 C 
ATOM     56  C   UNL A   1      46.517  28.040  29.380  1.00  0.00     0.037 A 
BRANCH  43  57
ATOM     57  C   UNL A   1      43.599  33.243  31.009  1.00  0.00     0.058 A 
ATOM     58  C   UNL A   1      43.570  33.526  32.384  1.00  0.00     0.135 A 
ATOM     59  C   UNL A   1      43.805  34.319  30.127  1.00  0.00     0.135 A 
ATOM     60  F   UNL A   1      43.360  32.542  33.271  1.00  0.00    -0.206 F 
ATOM     61  C   UNL A   1      43.722  34.825  32.864  1.00  0.00     0.059 A 
ATOM     62  C   UNL A   1      43.989  35.621  30.587  1.00  0.00     0.059 A 
ATOM     63  F   UNL A   1      43.843  34.108  28.802  1.00  0.00    -0.206 F 
ATOM     64  C   UNL A   1      43.936  35.864  31.957  1.00  0.00     0.060 A 
BRANCH  64  65
ATOM     65  S   UNL A   1      44.149  37.538  32.601  1.00  0.00     0.124 S 
ATOM     66  O   UNL A   1      43.160  37.566  33.675  1.00  0.00    -0.237 OA
ATOM     67  O   UNL A   1      45.545  37.532  33.025  1.00  0.00    -0.237 OA
ATOM     68  O   UNL A   1      43.848  38.388  31.453  1.00  0.00    -0.744 OA
ENDBRANCH  64  65
ENDBRANCH  43  57
BRANCH  44  69
ATOM     69  C   UNL A   1      42.460  23.889  27.630  1.00  0.00     0.058 A 
ATOM     70  C   UNL A   1      42.433  23.624  26.253  1.00  0.00     0.135 A 
ATOM     71  C   UNL A   1      42.359  22.796  28.507  1.00  0.00     0.135 A 
ATOM     72  F   UNL A   1      42.514  24.634  25.374  1.00  0.00    -0.206 F 
ATOM     73  C   UNL A   1      42.313  22.328  25.764  1.00  0.00     0.059 A 
ATOM     74  C   UNL A   1      42.272  21.488  28.042  1.00  0.00     0.059 A 
ATOM     75  F   UNL A   1      42.390  22.993  29.835  1.00  0.00    -0.206 F 
ATOM     76  C   UNL A   1      42.243  21.265  26.667  1.00  0.00     0.060 A 
BRANCH  76  77
ATOM     77  S   UNL A   1      42.152  19.582  26.018  1.00  0.00     0.124 S 
ATOM     78  O   UNL A   1      43.089  19.647  24.902  1.00  0.00    -0.237 OA
ATOM     79  O   UNL A   1      42.581  18.791  27.166  1.00  0.00    -0.237 OA
ATOM     80  O   UNL A   1      40.746  19.437  25.655  1.00  0.00    -0.744 OA
ENDBRANCH  76  77
ENDBRANCH  44  69
BRANCH  56  81
ATOM     81  C   UNL A   1      47.994  27.762  29.389  1.00  0.00     0.058 A 
ATOM     82  C   UNL A   1      48.630  27.200  30.506  1.00  0.00     0.135 A 
ATOM     83  C   UNL A   1      48.769  28.004  28.243  1.00  0.00     0.135 A 
ATOM     84  F   UNL A   1      47.936  26.958  31.629  1.00  0.00    -0.206 F 
ATOM     85  C   UNL A   1      49.989  26.905  30.494  1.00  0.00     0.059 A 
ATOM     86  C   UNL A   1      50.123  27.689  28.199  1.00  0.00     0.059 A 
ATOM     87  F   UNL A   1      48.207  28.533  27.144  1.00  0.00    -0.206 F 
ATOM     88  C   UNL A   1      50.726  27.148  29.333  1.00  0.00     0.060 A 
BRANCH  88  89
ATOM     89  S   UNL A   1      52.479  26.721  29.322  1.00  0.00     0.124 S 
ATOM     90  O   UNL A   1      52.599  25.939  30.548  1.00  0.00    -0.237 OA
ATOM     91  O   UNL A   1      52.607  25.971  28.076  1.00  0.00    -0.237 OA
ATOM     92  O   UNL A   1      53.147  28.018  29.338  1.00  0.00    -0.744 OA
ENDBRANCH  88  89
ENDBRANCH  56  81
ENDBRANCH  30  31
ENDBRANCH  23  25
ENDBRANCH  22  23
ENDBRANCH   1  22
TORSDOF 15
ENDMDL
MODEL 2
REMARK VINA RESULT:     -11.0      0.933      2.139
REMARK SMILES Cc1cc(Cl)c2c(c1)C=C(C(=O)OCCOC(=O)c1ccc(-c3c4nc(c(-c5c(F)cc(S(=O)(=O)[O-])cc5F)c5ccc([nH]5)c(-c5c(F)cc(S(=O)(=O)[O-])cc5F)c5nc(c(-c6c(F)cc(S(=O)(=O)[O-])cc6F)c6ccc3[nH]6)C=C5)C=C4)cc1)[C@@H](C(F)(F)F)O2
REMARK SMILES IDX 15 1 14 2 13 3 11 4 12 5 10 6 1 7 2 8 3 9 8 10 4 11 7 12
REMARK SMILES IDX 5 13 6 14 9 15 90 16 85 17 86 18 87 19 88 20 89 21 16 22
REMARK SMILES IDX 17 23 18 24 19 25 20 26 84 27 21 28 83 29 22 30 23 31 24 32
REMARK SMILES IDX 77 33 25 34 82 35 76 36 78 37 26 38 81 39 75 40 74 41 27 43
REMARK SMILES IDX 61 44 40 45 60 46 41 47 44 48 59 49 79 50 42 51 43 52 58 54
REMARK SMILES IDX 80 55 45 56 28 57 29 58 38 59 30 60 31 61 37 62 39 63 32 64
REMARK SMILES IDX 33 65 34 66 35 67 36 68 62 69 63 70 72 71 64 72 65 73 71 74
REMARK SMILES IDX 73 75 66 76 67 77 68 78 69 79 70 80 46 81 47 82 56 83 48 84
REMARK SMILES IDX 49 85 55 86 57 87 50 88 51 89 52 90 53 91 54 92
REMARK H PARENT 78 42 44 53
REMARK Flexibility Score: inf
ROOT
ATOM      1  C   UNL A   1      33.119  30.446  26.463  1.00  0.00     0.275 C 
ENDROOT
BRANCH   1   2
ATOM      2  C   UNL A   1      32.076  29.485  25.892  1.00  0.00     0.275 C 
BRANCH   2   3
ATOM      3  O   UNL A   1      32.592  28.140  25.783  1.00  0.00    -0.459 OA
BRANCH   3   4
ATOM      4  C   UNL A   1      31.892  27.198  26.457  1.00  0.00     0.338 C 
ATOM      5  O   UNL A   1      31.054  27.399  27.323  1.00  0.00    -0.246 OA
BRANCH   4   6
ATOM      6  C   UNL A   1      32.260  25.843  26.008  1.00  0.00     0.087 C 
ATOM      7  C   UNL A   1      37.237  22.572  24.445  1.00  0.00     0.044 C 
ATOM      8  C   UNL A   1      35.768  22.852  24.583  1.00  0.00    -0.049 A 
ATOM      9  C   UNL A   1      34.807  21.958  24.101  1.00  0.00     0.028 A 
ATOM     10  C   UNL A   1      35.338  24.007  25.241  1.00  0.00     0.015 A 
ATOM     11  C   UNL A   1      33.440  22.230  24.252  1.00  0.00     0.084 A 
ATOM     12  C   UNL A   1      33.969  24.288  25.373  1.00  0.00     0.019 A 
ATOM     13  Cl  UNL A   1      32.304  21.093  23.617  1.00  0.00    -0.080 Cl
ATOM     14  C   UNL A   1      33.009  23.404  24.883  1.00  0.00     0.146 A 
ATOM     15  C   UNL A   1      33.559  25.533  25.982  1.00  0.00     0.027 C 
ATOM     16  O   UNL A   1      31.664  23.634  25.012  1.00  0.00    -0.474 OA
ATOM     17  C   UNL A   1      31.200  24.945  25.448  1.00  0.00     0.316 C 
BRANCH  17  18
ATOM     18  C   UNL A   1      30.448  25.621  24.291  1.00  0.00     0.430 C 
ATOM     19  F   UNL A   1      31.271  26.414  23.561  1.00  0.00    -0.167 F 
ATOM     20  F   UNL A   1      29.937  24.708  23.428  1.00  0.00    -0.167 F 
ATOM     21  F   UNL A   1      29.422  26.388  24.723  1.00  0.00    -0.167 F 
ENDBRANCH  17  18
ENDBRANCH   4   6
ENDBRANCH   3   4
ENDBRANCH   2   3
ENDBRANCH   1   2
BRANCH   1  22
ATOM     22  O   UNL A   1      33.580  29.994  27.749  1.00  0.00    -0.458 OA
BRANCH  22  23
ATOM     23  C   UNL A   1      34.533  30.770  28.313  1.00  0.00     0.338 C 
ATOM     24  O   UNL A   1      34.387  31.872  28.813  1.00  0.00    -0.246 OA
BRANCH  23  25
ATOM     25  C   UNL A   1      35.822  30.064  28.348  1.00  0.00     0.060 A 
ATOM     26  C   UNL A   1      36.259  29.561  29.566  1.00  0.00     0.016 A 
ATOM     27  C   UNL A   1      36.692  30.115  27.263  1.00  0.00     0.016 A 
ATOM     28  C   UNL A   1      37.610  29.300  29.763  1.00  0.00     0.010 A 
ATOM     29  C   UNL A   1      38.015  29.681  27.422  1.00  0.00     0.010 A 
ATOM     30  C   UNL A   1      38.511  29.328  28.691  1.00  0.00    -0.014 A 
BRANCH  30  31
ATOM     31  C   UNL A   1      39.957  29.017  28.908  1.00  0.00     0.031 A 
ATOM     32  C   UNL A   1      40.886  30.059  29.490  1.00  0.00     0.074 A 
ATOM     33  C   UNL A   1      40.444  27.793  28.609  1.00  0.00     0.049 A 
ATOM     34  N   UNL A   1      42.192  30.050  29.569  1.00  0.00    -0.248 NA
ATOM     35  C   UNL A   1      40.267  31.276  30.043  1.00  0.00     0.031 C 
ATOM     36  C   UNL A   1      39.658  26.667  28.096  1.00  0.00     0.029 A 
ATOM     37  N   UNL A   1      41.716  27.280  28.703  1.00  0.00    -0.354 N 
ATOM     38  C   UNL A   1      42.553  31.276  30.123  1.00  0.00     0.074 A 
ATOM     39  C   UNL A   1      41.327  32.010  30.350  1.00  0.00     0.031 C 
ATOM     40  C   UNL A   1      40.443  25.588  27.982  1.00  0.00     0.029 A 
ATOM     41  C   UNL A   1      41.815  25.972  28.287  1.00  0.00     0.049 A 
ATOM     42  H   UNL A   1      42.483  27.799  29.037  1.00  0.00     0.167 HD
ATOM     43  C   UNL A   1      43.792  31.740  30.416  1.00  0.00     0.037 A 
ATOM     44  C   UNL A   1      42.888  25.177  28.109  1.00  0.00     0.037 A 
ATOM     45  C   UNL A   1      45.001  30.977  30.236  1.00  0.00     0.049 A 
ATOM     46  C   UNL A   1      44.255  25.737  28.375  1.00  0.00     0.074 A 
ATOM     47  C   UNL A   1      46.305  31.355  30.507  1.00  0.00     0.029 A 
ATOM     48  N   UNL A   1      45.054  29.676  29.757  1.00  0.00    -0.354 N 
ATOM     49  N   UNL A   1      44.583  26.923  28.828  1.00  0.00    -0.248 NA
ATOM     50  C   UNL A   1      45.399  24.864  28.083  1.00  0.00     0.031 C 
ATOM     51  C   UNL A   1      47.149  30.300  30.148  1.00  0.00     0.029 A 
ATOM     52  C   UNL A   1      46.370  29.243  29.707  1.00  0.00     0.049 A 
ATOM     53  H   UNL A   1      44.273  29.138  29.492  1.00  0.00     0.167 HD
ATOM     54  C   UNL A   1      45.971  26.935  28.887  1.00  0.00     0.074 A 
ATOM     55  C   UNL A   1      46.418  25.630  28.444  1.00  0.00     0.031 C 
ATOM     56  C   UNL A   1      46.799  27.939  29.267  1.00  0.00     0.037 A 
BRANCH  43  57
ATOM     57  C   UNL A   1      43.917  33.147  30.942  1.00  0.00     0.058 A 
ATOM     58  C   UNL A   1      44.046  34.255  30.089  1.00  0.00     0.135 A 
ATOM     59  C   UNL A   1      43.841  33.396  32.324  1.00  0.00     0.135 A 
ATOM     60  F   UNL A   1      44.140  34.078  28.762  1.00  0.00    -0.206 F 
ATOM     61  C   UNL A   1      44.116  35.554  30.587  1.00  0.00     0.059 A 
ATOM     62  C   UNL A   1      43.879  34.689  32.842  1.00  0.00     0.059 A 
ATOM     63  F   UNL A   1      43.716  32.377  33.188  1.00  0.00    -0.206 F 
ATOM     64  C   UNL A   1      44.026  35.761  31.964  1.00  0.00     0.060 A 
BRANCH  64  65
ATOM     65  S   UNL A   1      44.100  37.454  32.587  1.00  0.00     0.124 S 
ATOM     66  O   UNL A   1      45.473  37.526  33.078  1.00  0.00    -0.237 OA
ATOM     67  O   UNL A   1      43.813  38.237  31.390  1.00  0.00    -0.237 OA
ATOM     68  O   UNL A   1      43.066  37.485  33.618  1.00  0.00    -0.744 OA
ENDBRANCH  64  65
ENDBRANCH  43  57
BRANCH  44  69
ATOM     69  C   UNL A   1      42.705  23.787  27.609  1.00  0.00     0.058 A 
ATOM     70  C   UNL A   1      42.584  22.711  28.501  1.00  0.00     0.135 A 
ATOM     71  C   UNL A   1      42.609  23.508  26.235  1.00  0.00     0.135 A 
ATOM     72  F   UNL A   1      42.681  22.923  29.822  1.00  0.00    -0.206 F 
ATOM     73  C   UNL A   1      42.373  21.412  28.051  1.00  0.00     0.059 A 
ATOM     74  C   UNL A   1      42.365  22.223  25.763  1.00  0.00     0.059 A 
ATOM     75  F   UNL A   1      42.708  24.502  25.338  1.00  0.00    -0.206 F 
ATOM     76  C   UNL A   1      42.255  21.180  26.679  1.00  0.00     0.060 A 
BRANCH  76  77
ATOM     77  S   UNL A   1      41.917  19.499  26.113  1.00  0.00     0.124 S 
ATOM     78  O   UNL A   1      42.317  18.712  27.274  1.00  0.00    -0.237 OA
ATOM     79  O   UNL A   1      40.485  19.553  25.841  1.00  0.00    -0.237 OA
ATOM     80  O   UNL A   1      42.768  19.363  24.934  1.00  0.00    -0.744 OA
ENDBRANCH  76  77
ENDBRANCH  44  69
BRANCH  56  81
ATOM     81  C   UNL A   1      48.275  27.660  29.246  1.00  0.00     0.058 A 
ATOM     82  C   UNL A   1      49.076  28.013  28.149  1.00  0.00     0.135 A 
ATOM     83  C   UNL A   1      48.906  27.086  30.363  1.00  0.00     0.135 A 
ATOM     84  F   UNL A   1      48.520  28.555  27.054  1.00  0.00    -0.206 F 
ATOM     85  C   UNL A   1      50.448  27.791  28.152  1.00  0.00     0.059 A 
ATOM     86  C   UNL A   1      50.281  26.883  30.399  1.00  0.00     0.059 A 
ATOM     87  F   UNL A   1      48.187  26.738  31.442  1.00  0.00    -0.206 F 
ATOM     88  C   UNL A   1      51.043  27.231  29.284  1.00  0.00     0.060 A 
BRANCH  88  89
ATOM     89  S   UNL A   1      52.830  26.987  29.286  1.00  0.00     0.124 S 
ATOM     90  O   UNL A   1      53.315  28.362  29.208  1.00  0.00    -0.237 OA
ATOM     91  O   UNL A   1      53.049  26.309  30.561  1.00  0.00    -0.237 OA
ATOM     92  O   UNL A   1      53.066  26.171  28.100  1.00  0.00    -0.744 OA
ENDBRANCH  88  89
ENDBRANCH  56  81
ENDBRANCH  30  31
ENDBRANCH  23  25
ENDBRANCH  22  23
ENDBRANCH   1  22
TORSDOF 15
ENDMDL
MODEL 3
REMARK VINA RESULT:     -11.0      4.741      9.209
REMARK SMILES Cc1cc(Cl)c2c(c1)C=C(C(=O)OCCOC(=O)c1ccc(-c3c4nc(c(-c5c(F)cc(S(=O)(=O)[O-])cc5F)c5ccc([nH]5)c(-c5c(F)cc(S(=O)(=O)[O-])cc5F)c5nc(c(-c6c(F)cc(S(=O)(=O)[O-])cc6F)c6ccc3[nH]6)C=C5)C=C4)cc1)[C@@H](C(F)(F)F)O2
REMARK SMILES IDX 15 1 14 2 13 3 11 4 12 5 10 6 1 7 2 8 3 9 8 10 4 11 7 12
REMARK SMILES IDX 5 13 6 14 9 15 90 16 85 17 86 18 87 19 88 20 89 21 16 22
REMARK SMILES IDX 17 23 18 24 19 25 20 26 84 27 21 28 83 29 22 30 23 31 24 32
REMARK SMILES IDX 77 33 25 34 82 35 76 36 78 37 26 38 81 39 75 40 74 41 27 43
REMARK SMILES IDX 61 44 40 45 60 46 41 47 44 48 59 49 79 50 42 51 43 52 58 54
REMARK SMILES IDX 80 55 45 56 28 57 29 58 38 59 30 60 31 61 37 62 39 63 32 64
REMARK SMILES IDX 33 65 34 66 35 67 36 68 62 69 63 70 72 71 64 72 65 73 71 74
REMARK SMILES IDX 73 75 66 76 67 77 68 78 69 79 70 80 46 81 47 82 56 83 48 84
REMARK SMILES IDX 49 85 55 86 57 87 50 88 51 89 52 90 53 91 54 92
REMARK H PARENT 78 42 44 53
REMARK Flexibility Score: inf
ROOT
ATOM      1  C   UNL A   1      40.428  20.304  26.118  1.00  0.00     0.275 C 
ENDROOT
BRANCH   1   2
ATOM      2  C   UNL A   1      41.954  20.224  26.061  1.00  0.00     0.275 C 
BRANCH   2   3
ATOM      3  O   UNL A   1      42.545  21.509  25.762  1.00  0.00    -0.459 OA
BRANCH   3   4
ATOM      4  C   UNL A   1      43.854  21.475  25.421  1.00  0.00     0.338 C 
ATOM      5  O   UNL A   1      44.341  20.889  24.466  1.00  0.00    -0.246 OA
BRANCH   4   6
ATOM      6  C   UNL A   1      44.667  22.265  26.364  1.00  0.00     0.087 C 
ATOM      7  C   UNL A   1      44.152  25.136  31.787  1.00  0.00     0.044 C 
ATOM      8  C   UNL A   1      44.814  24.758  30.493  1.00  0.00    -0.049 A 
ATOM      9  C   UNL A   1      46.040  25.311  30.113  1.00  0.00     0.028 A 
ATOM     10  C   UNL A   1      44.223  23.805  29.661  1.00  0.00     0.015 A 
ATOM     11  C   UNL A   1      46.650  24.934  28.908  1.00  0.00     0.084 A 
ATOM     12  C   UNL A   1      44.823  23.445  28.444  1.00  0.00     0.019 A 
ATOM     13  Cl  UNL A   1      48.157  25.670  28.489  1.00  0.00    -0.080 Cl
ATOM     14  C   UNL A   1      46.040  24.003  28.058  1.00  0.00     0.146 A 
ATOM     15  C   UNL A   1      44.142  22.521  27.566  1.00  0.00     0.027 C 
ATOM     16  O   UNL A   1      46.668  23.660  26.888  1.00  0.00    -0.474 OA
ATOM     17  C   UNL A   1      45.947  22.881  25.890  1.00  0.00     0.316 C 
BRANCH  17  18
ATOM     18  C   UNL A   1      45.719  23.751  24.643  1.00  0.00     0.430 C 
ATOM     19  F   UNL A   1      46.562  24.812  24.618  1.00  0.00    -0.167 F 
ATOM     20  F   UNL A   1      45.950  23.056  23.502  1.00  0.00    -0.167 F 
ATOM     21  F   UNL A   1      44.458  24.232  24.576  1.00  0.00    -0.167 F 
ENDBRANCH  17  18
ENDBRANCH   4   6
ENDBRANCH   3   4
ENDBRANCH   2   3
ENDBRANCH   1   2
BRANCH   1  22
ATOM     22  O   UNL A   1      40.004  21.288  27.078  1.00  0.00    -0.458 OA
BRANCH  22  23
ATOM     23  C   UNL A   1      39.292  22.315  26.559  1.00  0.00     0.338 C 
ATOM     24  O   UNL A   1      38.385  22.248  25.747  1.00  0.00    -0.246 OA
BRANCH  23  25
ATOM     25  C   UNL A   1      39.687  23.585  27.184  1.00  0.00     0.060 A 
ATOM     26  C   UNL A   1      39.247  24.765  26.598  1.00  0.00     0.016 A 
ATOM     27  C   UNL A   1      40.668  23.621  28.170  1.00  0.00     0.016 A 
ATOM     28  C   UNL A   1      39.923  25.955  26.844  1.00  0.00     0.010 A 
ATOM     29  C   UNL A   1      41.223  24.852  28.543  1.00  0.00     0.010 A 
ATOM     30  C   UNL A   1      40.906  26.029  27.839  1.00  0.00    -0.014 A 
BRANCH  30  31
ATOM     31  C   UNL A   1      41.606  27.321  28.117  1.00  0.00     0.031 A 
ATOM     32  C   UNL A   1      40.907  28.422  28.882  1.00  0.00     0.074 A 
ATOM     33  C   UNL A   1      42.880  27.507  27.709  1.00  0.00     0.049 A 
ATOM     34  N   UNL A   1      41.268  29.669  29.049  1.00  0.00    -0.248 NA
ATOM     35  C   UNL A   1      39.630  28.082  29.531  1.00  0.00     0.031 C 
ATOM     36  C   UNL A   1      43.705  26.514  27.013  1.00  0.00     0.029 A 
ATOM     37  N   UNL A   1      43.717  28.591  27.830  1.00  0.00    -0.354 N 
ATOM     38  C   UNL A   1      40.240  30.274  29.768  1.00  0.00     0.074 A 
ATOM     39  C   UNL A   1      39.234  29.260  29.996  1.00  0.00     0.031 C 
ATOM     40  C   UNL A   1      44.935  27.007  26.826  1.00  0.00     0.029 A 
ATOM     41  C   UNL A   1      44.958  28.394  27.269  1.00  0.00     0.049 A 
ATOM     42  H   UNL A   1      43.453  29.428  28.274  1.00  0.00     0.167 HD
ATOM     43  C   UNL A   1      40.149  31.555  30.200  1.00  0.00     0.037 A 
ATOM     44  C   UNL A   1      45.986  29.243  27.072  1.00  0.00     0.037 A 
ATOM     45  C   UNL A   1      41.182  32.542  30.015  1.00  0.00     0.049 A 
ATOM     46  C   UNL A   1      45.835  30.674  27.497  1.00  0.00     0.074 A 
ATOM     47  C   UNL A   1      41.190  33.866  30.418  1.00  0.00     0.029 A 
ATOM     48  N   UNL A   1      42.399  32.310  29.389  1.00  0.00    -0.354 N 
ATOM     49  N   UNL A   1      44.827  31.247  28.110  1.00  0.00    -0.248 NA
ATOM     50  C   UNL A   1      46.947  31.581  27.183  1.00  0.00     0.031 C 
ATOM     51  C   UNL A   1      42.390  34.446  29.995  1.00  0.00     0.029 A 
ATOM     52  C   UNL A   1      43.156  33.470  29.379  1.00  0.00     0.049 A 
ATOM     53  H   UNL A   1      42.683  31.447  29.009  1.00  0.00     0.167 HD
ATOM     54  C   UNL A   1      45.187  32.580  28.265  1.00  0.00     0.074 A 
ATOM     55  C   UNL A   1      46.515  32.721  27.702  1.00  0.00     0.031 C 
ATOM     56  C   UNL A   1      44.478  33.595  28.818  1.00  0.00     0.037 A 
BRANCH  43  57
ATOM     57  C   UNL A   1      38.882  31.982  30.897  1.00  0.00     0.058 A 
ATOM     58  C   UNL A   1      38.745  31.933  32.293  1.00  0.00     0.135 A 
ATOM     59  C   UNL A   1      37.810  32.511  30.156  1.00  0.00     0.135 A 
ATOM     60  F   UNL A   1      39.728  31.422  33.051  1.00  0.00    -0.206 F 
ATOM     61  C   UNL A   1      37.586  32.373  32.928  1.00  0.00     0.059 A 
ATOM     62  C   UNL A   1      36.654  32.985  30.772  1.00  0.00     0.059 A 
ATOM     63  F   UNL A   1      37.885  32.585  28.818  1.00  0.00    -0.206 F 
ATOM     64  C   UNL A   1      36.548  32.902  32.159  1.00  0.00     0.060 A 
BRANCH  64  65
ATOM     65  S   UNL A   1      35.061  33.484  33.002  1.00  0.00     0.124 S 
ATOM     66  O   UNL A   1      34.027  32.678  32.361  1.00  0.00    -0.237 OA
ATOM     67  O   UNL A   1      35.347  33.156  34.395  1.00  0.00    -0.237 OA
ATOM     68  O   UNL A   1      35.025  34.910  32.690  1.00  0.00    -0.744 OA
ENDBRANCH  64  65
ENDBRANCH  43  57
BRANCH  44  69
ATOM     69  C   UNL A   1      47.225  28.762  26.399  1.00  0.00     0.058 A 
ATOM     70  C   UNL A   1      48.437  28.676  27.099  1.00  0.00     0.135 A 
ATOM     71  C   UNL A   1      47.214  28.343  25.058  1.00  0.00     0.135 A 
ATOM     72  F   UNL A   1      48.502  29.075  28.378  1.00  0.00    -0.206 F 
ATOM     73  C   UNL A   1      49.593  28.191  26.496  1.00  0.00     0.059 A 
ATOM     74  C   UNL A   1      48.349  27.824  24.443  1.00  0.00     0.059 A 
ATOM     75  F   UNL A   1      46.078  28.395  24.344  1.00  0.00    -0.206 F 
ATOM     76  C   UNL A   1      49.536  27.758  25.169  1.00  0.00     0.060 A 
BRANCH  76  77
ATOM     77  S   UNL A   1      51.028  27.072  24.419  1.00  0.00     0.124 S 
ATOM     78  O   UNL A   1      52.008  28.115  24.706  1.00  0.00    -0.237 OA
ATOM     79  O   UNL A   1      51.191  25.823  25.155  1.00  0.00    -0.237 OA
ATOM     80  O   UNL A   1      50.660  26.921  23.014  1.00  0.00    -0.744 OA
ENDBRANCH  76  77
ENDBRANCH  44  69
BRANCH  56  81
ATOM     81  C   UNL A   1      45.133  34.946  28.867  1.00  0.00     0.058 A 
ATOM     82  C   UNL A   1      44.957  35.886  27.840  1.00  0.00     0.135 A 
ATOM     83  C   UNL A   1      45.898  35.326  29.983  1.00  0.00     0.135 A 
ATOM     84  F   UNL A   1      44.244  35.569  26.748  1.00  0.00    -0.206 F 
ATOM     85  C   UNL A   1      45.530  37.151  27.909  1.00  0.00     0.059 A 
ATOM     86  C   UNL A   1      46.455  36.595  30.086  1.00  0.00     0.059 A 
ATOM     87  F   UNL A   1      46.090  34.466  30.996  1.00  0.00    -0.206 F 
ATOM     88  C   UNL A   1      46.274  37.499  29.039  1.00  0.00     0.060 A 
BRANCH  88  89
ATOM     89  S   UNL A   1      46.977  39.158  29.131  1.00  0.00     0.124 S 
ATOM     90  O   UNL A   1      46.634  39.695  27.817  1.00  0.00    -0.237 OA
ATOM     91  O   UNL A   1      46.256  39.737  30.261  1.00  0.00    -0.237 OA
ATOM     92  O   UNL A   1      48.397  38.915  29.358  1.00  0.00    -0.744 OA
ENDBRANCH  88  89
ENDBRANCH  56  81
ENDBRANCH  30  31
ENDBRANCH  23  25
ENDBRANCH  22  23
ENDBRANCH   1  22
TORSDOF 15
ENDMDL
