MODEL 1
REMARK VINA RESULT:     -13.4      0.000      0.000
REMARK SMILES O=C(OCCOC(=O)c1ccc(-c2c3nc(c(-c4c(F)cc(S(=O)(=O)[O-])cc4F)c4ccc([nH]4)c(-c4c(F)cc(S(=O)(=O)[O-])cc4F)c4nc(c(-c5c(F)cc(S(=O)(=O)[O-])cc5F)c5ccc2[nH]5)C=C4)C=C3)cc1)C1=Cc2cc(Cl)c(Cl)cc2O[C@@H]1C(F)(F)F
REMARK SMILES IDX 5 1 4 2 3 3 2 4 1 5 75 6 76 7 86 8 77 9 85 10 78 11 84 12
REMARK SMILES IDX 79 13 83 14 80 15 81 16 82 17 87 18 88 19 89 20 90 21 6 22
REMARK SMILES IDX 7 23 8 24 9 25 10 26 74 27 11 28 73 29 12 30 13 31 14 32
REMARK SMILES IDX 67 33 15 34 72 35 66 36 68 37 16 38 71 39 65 40 64 41 17 43
REMARK SMILES IDX 51 44 30 45 50 46 31 47 34 48 49 49 69 50 32 51 33 52 48 54
REMARK SMILES IDX 70 55 35 56 18 57 19 58 28 59 20 60 21 61 27 62 29 63 22 64
REMARK SMILES IDX 23 65 24 66 25 67 26 68 52 69 53 70 62 71 54 72 55 73 61 74
REMARK SMILES IDX 63 75 56 76 57 77 58 78 59 79 60 80 36 81 37 82 46 83 38 84
REMARK SMILES IDX 39 85 45 86 47 87 40 88 41 89 42 90 43 91 44 92
REMARK H PARENT 68 42 34 53
REMARK Flexibility Score: inf
ROOT
ATOM      1  C   UNL A   1      33.711  32.043  27.994  1.00  0.00     0.275 C 
ENDROOT
BRANCH   1   2
ATOM      2  C   UNL A   1      32.733  30.330  27.061  1.00  0.00     0.275 C 
BRANCH   2   3
ATOM      3  O   UNL A   1      33.010  28.842  27.367  1.00  0.00    -0.459 OA
BRANCH   3   4
ATOM      4  C   UNL A   1      32.016  28.028  26.990  1.00  0.00     0.338 C 
ATOM      5  O   UNL A   1      31.115  27.565  27.639  1.00  0.00    -0.246 OA
BRANCH   4   6
ATOM      6  C   UNL A   1      32.646  27.615  25.757  1.00  0.00     0.087 C 
ATOM      7  C   UNL A   1      33.630  26.551  25.943  1.00  0.00     0.027 C 
ATOM      8  C   UNL A   1      31.003  27.467  24.756  1.00  0.00     0.316 C 
ATOM      9  C   UNL A   1      33.348  24.851  25.438  1.00  0.00     0.019 A 
ATOM     10  O   UNL A   1      30.647  25.626  24.265  1.00  0.00    -0.475 OA
ATOM     11  C   UNL A   1      34.239  23.909  25.863  1.00  0.00     0.034 A 
ATOM     12  C   UNL A   1      31.865  24.332  24.701  1.00  0.00     0.129 A 
ATOM     13  C   UNL A   1      33.828  22.576  25.681  1.00  0.00     0.060 A 
ATOM     14  C   UNL A   1      31.535  23.015  24.557  1.00  0.00     0.069 A 
ATOM     15  Cl  UNL A   1      34.967  21.401  26.291  1.00  0.00    -0.083 Cl
ATOM     16  C   UNL A   1      32.549  22.154  25.078  1.00  0.00     0.063 A 
ATOM     17  Cl  UNL A   1      32.189  20.446  25.029  1.00  0.00    -0.083 Cl
BRANCH   8  18
ATOM     18  C   UNL A   1      31.233  28.820  23.950  1.00  0.00     0.430 C 
ATOM     19  F   UNL A   1      30.713  28.749  22.718  1.00  0.00    -0.167 F 
ATOM     20  F   UNL A   1      30.503  29.817  24.543  1.00  0.00    -0.167 F 
ATOM     21  F   UNL A   1      32.467  29.345  23.937  1.00  0.00    -0.167 F 
ENDBRANCH   8  18
ENDBRANCH   4   6
ENDBRANCH   3   4
ENDBRANCH   2   3
ENDBRANCH   1   2
BRANCH   1  22
ATOM     22  O   UNL A   1      35.148  31.953  28.969  1.00  0.00    -0.458 OA
BRANCH  22  23
ATOM     23  C   UNL A   1      35.640  31.571  30.201  1.00  0.00     0.338 C 
ATOM     24  O   UNL A   1      35.162  31.731  31.310  1.00  0.00    -0.246 OA
BRANCH  23  25
ATOM     25  C   UNL A   1      36.677  30.522  29.925  1.00  0.00     0.060 A 
ATOM     26  C   UNL A   1      37.159  30.382  28.609  1.00  0.00     0.016 A 
ATOM     27  C   UNL A   1      37.419  30.006  30.986  1.00  0.00     0.016 A 
ATOM     28  C   UNL A   1      38.492  29.971  28.393  1.00  0.00     0.010 A 
ATOM     29  C   UNL A   1      38.733  29.580  30.762  1.00  0.00     0.010 A 
ATOM     30  C   UNL A   1      39.312  29.643  29.481  1.00  0.00    -0.014 A 
BRANCH  30  31
ATOM     31  C   UNL A   1      40.696  29.120  29.304  1.00  0.00     0.031 A 
ATOM     32  C   UNL A   1      41.783  30.144  29.424  1.00  0.00     0.074 A 
ATOM     33  C   UNL A   1      40.993  27.855  28.930  1.00  0.00     0.049 A 
ATOM     34  N   UNL A   1      43.053  30.052  29.147  1.00  0.00    -0.248 NA
ATOM     35  C   UNL A   1      41.353  31.478  29.880  1.00  0.00     0.031 C 
ATOM     36  C   UNL A   1      40.041  26.756  28.768  1.00  0.00     0.029 A 
ATOM     37  N   UNL A   1      42.202  27.282  28.585  1.00  0.00    -0.354 N 
ATOM     38  C   UNL A   1      43.567  31.319  29.376  1.00  0.00     0.074 A 
ATOM     39  C   UNL A   1      42.468  32.173  29.760  1.00  0.00     0.031 C 
ATOM     40  C   UNL A   1      40.696  25.656  28.340  1.00  0.00     0.029 A 
ATOM     41  C   UNL A   1      42.116  25.969  28.169  1.00  0.00     0.049 A 
ATOM     42  H   UNL A   1      43.056  27.771  28.633  1.00  0.00     0.167 HD
ATOM     43  C   UNL A   1      44.846  31.742  29.290  1.00  0.00     0.037 A 
ATOM     44  C   UNL A   1      43.068  25.131  27.695  1.00  0.00     0.037 A 
ATOM     45  C   UNL A   1      45.938  30.903  28.895  1.00  0.00     0.049 A 
ATOM     46  C   UNL A   1      44.493  25.639  27.564  1.00  0.00     0.074 A 
ATOM     47  C   UNL A   1      47.277  31.228  28.800  1.00  0.00     0.029 A 
ATOM     48  N   UNL A   1      45.812  29.575  28.517  1.00  0.00    -0.354 N 
ATOM     49  N   UNL A   1      44.979  26.824  27.861  1.00  0.00    -0.248 NA
ATOM     50  C   UNL A   1      45.500  24.705  27.031  1.00  0.00     0.031 C 
ATOM     51  C   UNL A   1      47.957  30.107  28.316  1.00  0.00     0.029 A 
ATOM     52  C   UNL A   1      47.048  29.070  28.166  1.00  0.00     0.049 A 
ATOM     53  H   UNL A   1      44.966  29.069  28.502  1.00  0.00     0.167 HD
ATOM     54  C   UNL A   1      46.345  26.759  27.590  1.00  0.00     0.074 A 
ATOM     55  C   UNL A   1      46.613  25.421  27.109  1.00  0.00     0.031 C 
ATOM     56  C   UNL A   1      47.294  27.719  27.723  1.00  0.00     0.037 A 
BRANCH  43  57
ATOM     57  C   UNL A   1      45.098  33.183  29.614  1.00  0.00     0.058 A 
ATOM     58  C   UNL A   1      45.349  33.602  30.931  1.00  0.00     0.135 A 
ATOM     59  C   UNL A   1      45.030  34.160  28.611  1.00  0.00     0.135 A 
ATOM     60  F   UNL A   1      45.382  32.708  31.932  1.00  0.00    -0.206 F 
ATOM     61  C   UNL A   1      45.483  34.947  31.249  1.00  0.00     0.059 A 
ATOM     62  C   UNL A   1      45.196  35.509  28.901  1.00  0.00     0.059 A 
ATOM     63  F   UNL A   1      44.772  33.811  27.341  1.00  0.00    -0.206 F 
ATOM     64  C   UNL A   1      45.404  35.893  30.226  1.00  0.00     0.060 A 
BRANCH  64  65
ATOM     65  S   UNL A   1      45.575  37.635  30.658  1.00  0.00     0.124 S 
ATOM     66  O   UNL A   1      46.642  38.055  29.753  1.00  0.00    -0.237 OA
ATOM     67  O   UNL A   1      44.247  38.161  30.357  1.00  0.00    -0.237 OA
ATOM     68  O   UNL A   1      45.930  37.602  32.073  1.00  0.00    -0.744 OA
ENDBRANCH  64  65
ENDBRANCH  43  57
BRANCH  44  69
ATOM     69  C   UNL A   1      42.752  23.721  27.290  1.00  0.00     0.058 A 
ATOM     70  C   UNL A   1      42.643  22.697  28.248  1.00  0.00     0.135 A 
ATOM     71  C   UNL A   1      42.635  23.346  25.942  1.00  0.00     0.135 A 
ATOM     72  F   UNL A   1      42.774  22.985  29.552  1.00  0.00    -0.206 F 
ATOM     73  C   UNL A   1      42.459  21.361  27.888  1.00  0.00     0.059 A 
ATOM     74  C   UNL A   1      42.424  22.020  25.557  1.00  0.00     0.059 A 
ATOM     75  F   UNL A   1      42.736  24.273  24.976  1.00  0.00    -0.206 F 
ATOM     76  C   UNL A   1      42.351  21.032  26.538  1.00  0.00     0.060 A 
BRANCH  76  77
ATOM     77  S   UNL A   1      42.093  19.299  26.083  1.00  0.00     0.124 S 
ATOM     78  O   UNL A   1      40.674  19.286  25.747  1.00  0.00    -0.237 OA
ATOM     79  O   UNL A   1      43.014  19.136  24.961  1.00  0.00    -0.237 OA
ATOM     80  O   UNL A   1      42.461  18.573  27.295  1.00  0.00    -0.744 OA
ENDBRANCH  76  77
ENDBRANCH  44  69
BRANCH  56  81
ATOM     81  C   UNL A   1      48.721  27.367  27.403  1.00  0.00     0.058 A 
ATOM     82  C   UNL A   1      49.630  26.987  28.402  1.00  0.00     0.135 A 
ATOM     83  C   UNL A   1      49.140  27.274  26.065  1.00  0.00     0.135 A 
ATOM     84  F   UNL A   1      49.282  27.058  29.697  1.00  0.00    -0.206 F 
ATOM     85  C   UNL A   1      50.904  26.526  28.085  1.00  0.00     0.059 A 
ATOM     86  C   UNL A   1      50.398  26.788  25.724  1.00  0.00     0.059 A 
ATOM     87  F   UNL A   1      48.303  27.610  25.070  1.00  0.00    -0.206 F 
ATOM     88  C   UNL A   1      51.274  26.417  26.742  1.00  0.00     0.060 A 
BRANCH  88  89
ATOM     89  S   UNL A   1      52.898  25.735  26.344  1.00  0.00     0.124 S 
ATOM     90  O   UNL A   1      53.418  26.733  25.417  1.00  0.00    -0.237 OA
ATOM     91  O   UNL A   1      53.544  25.685  27.651  1.00  0.00    -0.237 OA
ATOM     92  O   UNL A   1      52.587  24.434  25.756  1.00  0.00    -0.744 OA
ENDBRANCH  88  89
ENDBRANCH  56  81
ENDBRANCH  30  31
ENDBRANCH  23  25
ENDBRANCH  22  23
ENDBRANCH   1  22
TORSDOF 15
ENDMDL
MODEL 2
REMARK VINA RESULT:     -13.2      6.411     11.074
REMARK SMILES O=C(OCCOC(=O)c1ccc(-c2c3nc(c(-c4c(F)cc(S(=O)(=O)[O-])cc4F)c4ccc([nH]4)c(-c4c(F)cc(S(=O)(=O)[O-])cc4F)c4nc(c(-c5c(F)cc(S(=O)(=O)[O-])cc5F)c5ccc2[nH]5)C=C4)C=C3)cc1)C1=Cc2cc(Cl)c(Cl)cc2O[C@@H]1C(F)(F)F
REMARK SMILES IDX 5 1 4 2 3 3 2 4 1 5 75 6 76 7 86 8 77 9 85 10 78 11 84 12
REMARK SMILES IDX 79 13 83 14 80 15 81 16 82 17 87 18 88 19 89 20 90 21 6 22
REMARK SMILES IDX 7 23 8 24 9 25 10 26 74 27 11 28 73 29 12 30 13 31 14 32
REMARK SMILES IDX 67 33 15 34 72 35 66 36 68 37 16 38 71 39 65 40 64 41 17 43
REMARK SMILES IDX 51 44 30 45 50 46 31 47 34 48 49 49 69 50 32 51 33 52 48 54
REMARK SMILES IDX 70 55 35 56 18 57 19 58 28 59 20 60 21 61 27 62 29 63 22 64
REMARK SMILES IDX 23 65 24 66 25 67 26 68 52 69 53 70 62 71 54 72 55 73 61 74
REMARK SMILES IDX 63 75 56 76 57 77 58 78 59 79 60 80 36 81 37 82 46 83 38 84
REMARK SMILES IDX 39 85 45 86 47 87 40 88 41 89 42 90 43 91 44 92
REMARK H PARENT 68 42 34 53
REMARK Flexibility Score: inf
ROOT
ATOM      1  C   UNL A   1      39.325  23.151  26.501  1.00  0.00     0.275 C 
ENDROOT
BRANCH   1   2
ATOM      2  C   UNL A   1      37.401  23.555  25.551  1.00  0.00     0.275 C 
BRANCH   2   3
ATOM      3  O   UNL A   1      36.008  23.336  26.181  1.00  0.00    -0.459 OA
BRANCH   3   4
ATOM      4  C   UNL A   1      35.518  22.107  25.972  1.00  0.00     0.338 C 
ATOM      5  O   UNL A   1      36.086  21.101  25.636  1.00  0.00    -0.246 OA
BRANCH   4   6
ATOM      6  C   UNL A   1      34.140  22.531  25.876  1.00  0.00     0.087 C 
ATOM      7  C   UNL A   1      33.911  23.867  26.422  1.00  0.00     0.027 C 
ATOM      8  C   UNL A   1      33.921  22.016  24.030  1.00  0.00     0.316 C 
ATOM      9  C   UNL A   1      33.592  25.307  25.397  1.00  0.00     0.019 A 
ATOM     10  O   UNL A   1      33.648  23.566  22.900  1.00  0.00    -0.475 OA
ATOM     11  C   UNL A   1      33.617  26.530  26.001  1.00  0.00     0.034 A 
ATOM     12  C   UNL A   1      33.551  25.226  23.665  1.00  0.00     0.129 A 
ATOM     13  C   UNL A   1      33.640  27.627  25.121  1.00  0.00     0.060 A 
ATOM     14  C   UNL A   1      33.575  26.339  22.874  1.00  0.00     0.069 A 
ATOM     15  Cl  UNL A   1      33.733  29.173  25.928  1.00  0.00    -0.083 Cl
ATOM     16  C   UNL A   1      33.634  27.538  23.647  1.00  0.00     0.063 A 
ATOM     17  Cl  UNL A   1      33.763  29.021  22.735  1.00  0.00    -0.083 Cl
BRANCH   8  18
ATOM     18  C   UNL A   1      33.075  20.711  24.370  1.00  0.00     0.430 C 
ATOM     19  F   UNL A   1      31.962  21.014  25.049  1.00  0.00    -0.167 F 
ATOM     20  F   UNL A   1      32.597  20.178  23.202  1.00  0.00    -0.167 F 
ATOM     21  F   UNL A   1      33.718  19.666  24.914  1.00  0.00    -0.167 F 
ENDBRANCH   8  18
ENDBRANCH   4   6
ENDBRANCH   3   4
ENDBRANCH   2   3
ENDBRANCH   1   2
BRANCH   1  22
ATOM     22  O   UNL A   1      40.627  24.297  26.627  1.00  0.00    -0.458 OA
BRANCH  22  23
ATOM     23  C   UNL A   1      41.086  25.518  26.178  1.00  0.00     0.338 C 
ATOM     24  O   UNL A   1      41.529  25.826  25.086  1.00  0.00    -0.246 OA
BRANCH  23  25
ATOM     25  C   UNL A   1      40.548  26.540  27.137  1.00  0.00     0.060 A 
ATOM     26  C   UNL A   1      39.608  26.129  28.101  1.00  0.00     0.016 A 
ATOM     27  C   UNL A   1      41.252  27.728  27.326  1.00  0.00     0.016 A 
ATOM     28  C   UNL A   1      39.576  26.763  29.361  1.00  0.00     0.010 A 
ATOM     29  C   UNL A   1      41.200  28.365  28.571  1.00  0.00     0.010 A 
ATOM     30  C   UNL A   1      40.433  27.840  29.628  1.00  0.00    -0.014 A 
BRANCH  30  31
ATOM     31  C   UNL A   1      40.378  28.600  30.908  1.00  0.00     0.031 A 
ATOM     32  C   UNL A   1      39.378  29.715  30.942  1.00  0.00     0.074 A 
ATOM     33  C   UNL A   1      41.235  28.424  31.940  1.00  0.00     0.049 A 
ATOM     34  N   UNL A   1      39.213  30.664  31.821  1.00  0.00    -0.248 NA
ATOM     35  C   UNL A   1      38.467  29.789  29.786  1.00  0.00     0.031 C 
ATOM     36  C   UNL A   1      42.261  27.386  32.043  1.00  0.00     0.029 A 
ATOM     37  N   UNL A   1      41.395  29.149  33.106  1.00  0.00    -0.354 N 
ATOM     38  C   UNL A   1      38.194  31.455  31.313  1.00  0.00     0.074 A 
ATOM     39  C   UNL A   1      37.817  30.911  30.029  1.00  0.00     0.031 C 
ATOM     40  C   UNL A   1      42.951  27.553  33.191  1.00  0.00     0.029 A 
ATOM     41  C   UNL A   1      42.440  28.725  33.903  1.00  0.00     0.049 A 
ATOM     42  H   UNL A   1      40.812  29.904  33.348  1.00  0.00     0.167 HD
ATOM     43  C   UNL A   1      37.606  32.537  31.867  1.00  0.00     0.037 A 
ATOM     44  C   UNL A   1      42.928  29.235  35.059  1.00  0.00     0.037 A 
ATOM     45  C   UNL A   1      37.986  33.090  33.133  1.00  0.00     0.049 A 
ATOM     46  C   UNL A   1      42.281  30.479  35.642  1.00  0.00     0.074 A 
ATOM     47  C   UNL A   1      37.436  34.169  33.795  1.00  0.00     0.029 A 
ATOM     48  N   UNL A   1      39.021  32.611  33.920  1.00  0.00    -0.354 N 
ATOM     49  N   UNL A   1      41.261  31.172  35.187  1.00  0.00    -0.248 NA
ATOM     50  C   UNL A   1      42.847  31.014  36.893  1.00  0.00     0.031 C 
ATOM     51  C   UNL A   1      38.173  34.376  34.964  1.00  0.00     0.029 A 
ATOM     52  C   UNL A   1      39.143  33.388  35.055  1.00  0.00     0.049 A 
ATOM     53  H   UNL A   1      39.585  31.833  33.701  1.00  0.00     0.167 HD
ATOM     54  C   UNL A   1      41.045  32.192  36.112  1.00  0.00     0.074 A 
ATOM     55  C   UNL A   1      42.032  32.027  37.156  1.00  0.00     0.031 C 
ATOM     56  C   UNL A   1      40.115  33.180  36.100  1.00  0.00     0.037 A 
BRANCH  43  57
ATOM     57  C   UNL A   1      36.510  33.182  31.075  1.00  0.00     0.058 A 
ATOM     58  C   UNL A   1      36.792  33.968  29.944  1.00  0.00     0.135 A 
ATOM     59  C   UNL A   1      35.174  33.065  31.482  1.00  0.00     0.135 A 
ATOM     60  F   UNL A   1      38.060  34.144  29.540  1.00  0.00    -0.206 F 
ATOM     61  C   UNL A   1      35.787  34.648  29.268  1.00  0.00     0.059 A 
ATOM     62  C   UNL A   1      34.149  33.709  30.799  1.00  0.00     0.059 A 
ATOM     63  F   UNL A   1      34.857  32.343  32.568  1.00  0.00    -0.206 F 
ATOM     64  C   UNL A   1      34.469  34.513  29.705  1.00  0.00     0.060 A 
BRANCH  64  65
ATOM     65  S   UNL A   1      33.179  35.407  28.818  1.00  0.00     0.124 S 
ATOM     66  O   UNL A   1      33.968  36.341  28.020  1.00  0.00    -0.237 OA
ATOM     67  O   UNL A   1      32.519  34.339  28.072  1.00  0.00    -0.237 OA
ATOM     68  O   UNL A   1      32.386  36.007  29.885  1.00  0.00    -0.744 OA
ENDBRANCH  64  65
ENDBRANCH  43  57
BRANCH  44  69
ATOM     69  C   UNL A   1      44.092  28.611  35.770  1.00  0.00     0.058 A 
ATOM     70  C   UNL A   1      43.898  27.623  36.754  1.00  0.00     0.135 A 
ATOM     71  C   UNL A   1      45.411  29.039  35.550  1.00  0.00     0.135 A 
ATOM     72  F   UNL A   1      42.658  27.192  37.032  1.00  0.00    -0.206 F 
ATOM     73  C   UNL A   1      44.955  27.108  37.506  1.00  0.00     0.059 A 
ATOM     74  C   UNL A   1      46.489  28.519  36.271  1.00  0.00     0.059 A 
ATOM     75  F   UNL A   1      45.666  29.983  34.631  1.00  0.00    -0.206 F 
ATOM     76  C   UNL A   1      46.249  27.563  37.257  1.00  0.00     0.060 A 
BRANCH  76  77
ATOM     77  S   UNL A   1      47.615  26.874  38.224  1.00  0.00     0.124 S 
ATOM     78  O   UNL A   1      46.984  25.717  38.849  1.00  0.00    -0.237 OA
ATOM     79  O   UNL A   1      48.604  26.579  37.192  1.00  0.00    -0.237 OA
ATOM     80  O   UNL A   1      47.971  27.964  39.128  1.00  0.00    -0.744 OA
ENDBRANCH  76  77
ENDBRANCH  44  69
BRANCH  56  81
ATOM     81  C   UNL A   1      40.066  34.134  37.262  1.00  0.00     0.058 A 
ATOM     82  C   UNL A   1      40.713  35.379  37.225  1.00  0.00     0.135 A 
ATOM     83  C   UNL A   1      39.244  33.855  38.367  1.00  0.00     0.135 A 
ATOM     84  F   UNL A   1      41.511  35.695  36.193  1.00  0.00    -0.206 F 
ATOM     85  C   UNL A   1      40.547  36.313  38.242  1.00  0.00     0.059 A 
ATOM     86  C   UNL A   1      39.040  34.786  39.381  1.00  0.00     0.059 A 
ATOM     87  F   UNL A   1      38.589  32.685  38.444  1.00  0.00    -0.206 F 
ATOM     88  C   UNL A   1      39.697  36.013  39.310  1.00  0.00     0.060 A 
BRANCH  88  89
ATOM     89  S   UNL A   1      39.422  37.269  40.577  1.00  0.00     0.124 S 
ATOM     90  O   UNL A   1      38.729  36.503  41.606  1.00  0.00    -0.237 OA
ATOM     91  O   UNL A   1      40.782  37.685  40.903  1.00  0.00    -0.237 OA
ATOM     92  O   UNL A   1      38.614  38.274  39.892  1.00  0.00    -0.744 OA
ENDBRANCH  88  89
ENDBRANCH  56  81
ENDBRANCH  30  31
ENDBRANCH  23  25
ENDBRANCH  22  23
ENDBRANCH   1  22
TORSDOF 15
ENDMDL
MODEL 3
REMARK VINA RESULT:     -13.1      5.941     11.326
REMARK SMILES O=C(OCCOC(=O)c1ccc(-c2c3nc(c(-c4c(F)cc(S(=O)(=O)[O-])cc4F)c4ccc([nH]4)c(-c4c(F)cc(S(=O)(=O)[O-])cc4F)c4nc(c(-c5c(F)cc(S(=O)(=O)[O-])cc5F)c5ccc2[nH]5)C=C4)C=C3)cc1)C1=Cc2cc(Cl)c(Cl)cc2O[C@@H]1C(F)(F)F
REMARK SMILES IDX 5 1 4 2 3 3 2 4 1 5 75 6 76 7 86 8 77 9 85 10 78 11 84 12
REMARK SMILES IDX 79 13 83 14 80 15 81 16 82 17 87 18 88 19 89 20 90 21 6 22
REMARK SMILES IDX 7 23 8 24 9 25 10 26 74 27 11 28 73 29 12 30 13 31 14 32
REMARK SMILES IDX 67 33 15 34 72 35 66 36 68 37 16 38 71 39 65 40 64 41 17 43
REMARK SMILES IDX 51 44 30 45 50 46 31 47 34 48 49 49 69 50 32 51 33 52 48 54
REMARK SMILES IDX 70 55 35 56 18 57 19 58 28 59 20 60 21 61 27 62 29 63 22 64
REMARK SMILES IDX 23 65 24 66 25 67 26 68 52 69 53 70 62 71 54 72 55 73 61 74
REMARK SMILES IDX 63 75 56 76 57 77 58 78 59 79 60 80 36 81 37 82 46 83 38 84
REMARK SMILES IDX 39 85 45 86 47 87 40 88 41 89 42 90 43 91 44 92
REMARK H PARENT 68 42 34 53
REMARK Flexibility Score: inf
ROOT
ATOM      1  C   UNL A   1      39.424  21.604  26.146  1.00  0.00     0.275 C 
ENDROOT
BRANCH   1   2
ATOM      2  C   UNL A   1      37.705  21.980  24.855  1.00  0.00     0.275 C 
BRANCH   2   3
ATOM      3  O   UNL A   1      36.522  22.925  25.161  1.00  0.00    -0.459 OA
BRANCH   3   4
ATOM      4  C   UNL A   1      35.592  22.941  24.198  1.00  0.00     0.338 C 
ATOM      5  O   UNL A   1      35.681  23.292  23.051  1.00  0.00    -0.246 OA
BRANCH   4   6
ATOM      6  C   UNL A   1      34.469  22.817  25.099  1.00  0.00     0.087 C 
ATOM      7  C   UNL A   1      34.100  24.082  25.733  1.00  0.00     0.027 C 
ATOM      8  C   UNL A   1      33.369  21.806  23.879  1.00  0.00     0.316 C 
ATOM      9  C   UNL A   1      32.624  25.007  25.295  1.00  0.00     0.019 A 
ATOM     10  O   UNL A   1      31.808  22.820  23.339  1.00  0.00    -0.475 OA
ATOM     11  C   UNL A   1      32.502  26.273  25.789  1.00  0.00     0.034 A 
ATOM     12  C   UNL A   1      31.525  24.478  24.061  1.00  0.00     0.129 A 
ATOM     13  C   UNL A   1      31.486  27.046  25.201  1.00  0.00     0.060 A 
ATOM     14  C   UNL A   1      30.559  25.288  23.538  1.00  0.00     0.069 A 
ATOM     15  Cl  UNL A   1      31.400  28.679  25.815  1.00  0.00    -0.083 Cl
ATOM     16  C   UNL A   1      30.578  26.588  24.130  1.00  0.00     0.063 A 
ATOM     17  Cl  UNL A   1      29.441  27.738  23.470  1.00  0.00    -0.083 Cl
BRANCH   8  18
ATOM     18  C   UNL A   1      33.605  20.421  24.627  1.00  0.00     0.430 C 
ATOM     19  F   UNL A   1      32.980  20.393  25.811  1.00  0.00    -0.167 F 
ATOM     20  F   UNL A   1      32.984  19.425  23.919  1.00  0.00    -0.167 F 
ATOM     21  F   UNL A   1      34.861  19.959  24.719  1.00  0.00    -0.167 F 
ENDBRANCH   8  18
ENDBRANCH   4   6
ENDBRANCH   3   4
ENDBRANCH   2   3
ENDBRANCH   1   2
BRANCH   1  22
ATOM     22  O   UNL A   1      40.465  22.838  26.794  1.00  0.00    -0.458 OA
BRANCH  22  23
ATOM     23  C   UNL A   1      41.473  23.725  26.479  1.00  0.00     0.338 C 
ATOM     24  O   UNL A   1      42.380  23.614  25.673  1.00  0.00    -0.246 OA
BRANCH  23  25
ATOM     25  C   UNL A   1      41.023  25.061  26.994  1.00  0.00     0.060 A 
ATOM     26  C   UNL A   1      39.885  25.116  27.819  1.00  0.00     0.016 A 
ATOM     27  C   UNL A   1      41.924  26.125  26.995  1.00  0.00     0.016 A 
ATOM     28  C   UNL A   1      39.797  26.101  28.826  1.00  0.00     0.010 A 
ATOM     29  C   UNL A   1      41.820  27.111  27.983  1.00  0.00     0.010 A 
ATOM     30  C   UNL A   1      40.811  27.059  28.962  1.00  0.00    -0.014 A 
BRANCH  30  31
ATOM     31  C   UNL A   1      40.725  28.172  29.949  1.00  0.00     0.031 A 
ATOM     32  C   UNL A   1      41.654  28.057  31.119  1.00  0.00     0.074 A 
ATOM     33  C   UNL A   1      39.804  29.162  29.907  1.00  0.00     0.049 A 
ATOM     34  N   UNL A   1      41.697  28.748  32.224  1.00  0.00    -0.248 NA
ATOM     35  C   UNL A   1      42.644  26.968  31.041  1.00  0.00     0.031 C 
ATOM     36  C   UNL A   1      38.835  29.395  28.837  1.00  0.00     0.029 A 
ATOM     37  N   UNL A   1      39.515  30.156  30.822  1.00  0.00    -0.354 N 
ATOM     38  C   UNL A   1      42.705  28.164  32.977  1.00  0.00     0.074 A 
ATOM     39  C   UNL A   1      43.208  27.034  32.232  1.00  0.00     0.031 C 
ATOM     40  C   UNL A   1      38.051  30.444  29.164  1.00  0.00     0.029 A 
ATOM     41  C   UNL A   1      38.439  30.952  30.481  1.00  0.00     0.049 A 
ATOM     42  H   UNL A   1      40.034  30.286  31.649  1.00  0.00     0.167 HD
ATOM     43  C   UNL A   1      43.186  28.538  34.181  1.00  0.00     0.037 A 
ATOM     44  C   UNL A   1      37.836  31.956  31.161  1.00  0.00     0.037 A 
ATOM     45  C   UNL A   1      42.680  29.649  34.931  1.00  0.00     0.049 A 
ATOM     46  C   UNL A   1      38.365  32.332  32.534  1.00  0.00     0.074 A 
ATOM     47  C   UNL A   1      43.115  30.128  36.151  1.00  0.00     0.029 A 
ATOM     48  N   UNL A   1      41.617  30.446  34.535  1.00  0.00    -0.354 N 
ATOM     49  N   UNL A   1      39.374  31.819  33.202  1.00  0.00    -0.248 NA
ATOM     50  C   UNL A   1      37.676  33.420  33.251  1.00  0.00     0.031 C 
ATOM     51  C   UNL A   1      42.282  31.187  36.519  1.00  0.00     0.029 A 
ATOM     52  C   UNL A   1      41.366  31.403  35.499  1.00  0.00     0.049 A 
ATOM     53  H   UNL A   1      41.117  30.344  33.692  1.00  0.00     0.167 HD
ATOM     54  C   UNL A   1      39.461  32.545  34.389  1.00  0.00     0.074 A 
ATOM     55  C   UNL A   1      38.409  33.536  34.350  1.00  0.00     0.031 C 
ATOM     56  C   UNL A   1      40.331  32.404  35.420  1.00  0.00     0.037 A 
BRANCH  43  57
ATOM     57  C   UNL A   1      44.299  27.709  34.744  1.00  0.00     0.058 A 
ATOM     58  C   UNL A   1      44.040  26.606  35.575  1.00  0.00     0.135 A 
ATOM     59  C   UNL A   1      45.636  28.054  34.502  1.00  0.00     0.135 A 
ATOM     60  F   UNL A   1      42.776  26.262  35.869  1.00  0.00    -0.206 F 
ATOM     61  C   UNL A   1      45.071  25.897  36.178  1.00  0.00     0.059 A 
ATOM     62  C   UNL A   1      46.684  27.337  35.067  1.00  0.00     0.059 A 
ATOM     63  F   UNL A   1      45.934  29.113  33.732  1.00  0.00    -0.206 F 
ATOM     64  C   UNL A   1      46.389  26.272  35.919  1.00  0.00     0.060 A 
BRANCH  64  65
ATOM     65  S   UNL A   1      47.714  25.344  36.714  1.00  0.00     0.124 S 
ATOM     66  O   UNL A   1      48.629  25.127  35.597  1.00  0.00    -0.237 OA
ATOM     67  O   UNL A   1      48.176  26.277  37.737  1.00  0.00    -0.237 OA
ATOM     68  O   UNL A   1      47.041  24.150  37.215  1.00  0.00    -0.744 OA
ENDBRANCH  64  65
ENDBRANCH  43  57
BRANCH  44  69
ATOM     69  C   UNL A   1      36.660  32.698  30.599  1.00  0.00     0.058 A 
ATOM     70  C   UNL A   1      36.817  33.623  29.551  1.00  0.00     0.135 A 
ATOM     71  C   UNL A   1      35.372  32.566  31.144  1.00  0.00     0.135 A 
ATOM     72  F   UNL A   1      38.028  33.816  29.007  1.00  0.00    -0.206 F 
ATOM     73  C   UNL A   1      35.758  34.405  29.087  1.00  0.00     0.059 A 
ATOM     74  C   UNL A   1      34.290  33.318  30.679  1.00  0.00     0.059 A 
ATOM     75  F   UNL A   1      35.154  31.707  32.151  1.00  0.00    -0.206 F 
ATOM     76  C   UNL A   1      34.497  34.245  29.658  1.00  0.00     0.060 A 
BRANCH  76  77
ATOM     77  S   UNL A   1      33.126  35.250  29.035  1.00  0.00     0.124 S 
ATOM     78  O   UNL A   1      32.322  35.436  30.238  1.00  0.00    -0.237 OA
ATOM     79  O   UNL A   1      33.816  36.438  28.541  1.00  0.00    -0.237 OA
ATOM     80  O   UNL A   1      32.531  34.406  28.003  1.00  0.00    -0.744 OA
ENDBRANCH  76  77
ENDBRANCH  44  69
BRANCH  56  81
ATOM     81  C   UNL A   1      40.237  33.365  36.574  1.00  0.00     0.058 A 
ATOM     82  C   UNL A   1      40.914  34.593  36.571  1.00  0.00     0.135 A 
ATOM     83  C   UNL A   1      39.344  33.110  37.630  1.00  0.00     0.135 A 
ATOM     84  F   UNL A   1      41.779  34.886  35.587  1.00  0.00    -0.206 F 
ATOM     85  C   UNL A   1      40.710  35.536  37.574  1.00  0.00     0.059 A 
ATOM     86  C   UNL A   1      39.102  34.049  38.627  1.00  0.00     0.059 A 
ATOM     87  F   UNL A   1      38.658  31.956  37.671  1.00  0.00    -0.206 F 
ATOM     88  C   UNL A   1      39.792  35.260  38.590  1.00  0.00     0.060 A 
BRANCH  88  89
ATOM     89  S   UNL A   1      39.472  36.528  39.836  1.00  0.00     0.124 S 
ATOM     90  O   UNL A   1      40.810  36.765  40.366  1.00  0.00    -0.237 OA
ATOM     91  O   UNL A   1      38.904  37.611  39.039  1.00  0.00    -0.237 OA
ATOM     92  O   UNL A   1      38.539  35.878  40.753  1.00  0.00    -0.744 OA
ENDBRANCH  88  89
ENDBRANCH  56  81
ENDBRANCH  30  31
ENDBRANCH  23  25
ENDBRANCH  22  23
ENDBRANCH   1  22
TORSDOF 15
ENDMDL
