MODEL 1
REMARK VINA RESULT:     -12.5      0.000      0.000
REMARK SMILES COc1ccccc1[C@@H]1C[N@@H+](Cc2cn3cc(C)ccc3n2)C[C@H]1C(=O)OCCOC(=O)c1ccc(-c2c3nc(c(-c4c(F)cc(S(=O)(=O)[O-])cc4F)c4ccc([nH]4)c(-c4c(F)cc(S(=O)(=O)[O-])cc4F)c4nc(c(-c5c(F)cc(S(=O)(=O)[O-])cc5F)c5ccc2[nH]5)C=C4)C=C3)cc1
REMARK SMILES IDX 29 1 28 2 27 3 25 4 26 5 24 6 9 7 10 8 11 9 23 10 8 12 3 13
REMARK SMILES IDX 4 14 5 15 7 16 6 17 2 18 1 19 12 20 13 21 14 22 22 23 15 24
REMARK SMILES IDX 21 25 16 26 20 27 17 28 19 29 18 30 30 31 31 32 32 33 33 34
REMARK SMILES IDX 34 35 98 36 35 37 97 38 36 39 37 40 38 41 91 42 39 43 96 44
REMARK SMILES IDX 90 45 92 46 40 47 95 48 89 49 88 50 41 52 75 53 54 54 74 55
REMARK SMILES IDX 55 56 58 57 73 58 93 59 56 60 57 61 72 63 94 64 59 65 42 66
REMARK SMILES IDX 43 67 52 68 44 69 45 70 51 71 53 72 46 73 47 74 48 75 49 76
REMARK SMILES IDX 50 77 76 78 77 79 86 80 78 81 79 82 85 83 87 84 80 85 81 86
REMARK SMILES IDX 82 87 83 88 84 89 60 90 61 91 70 92 62 93 63 94 69 95 71 96
REMARK SMILES IDX 64 97 65 98 66 99 67 100 68 101
REMARK H PARENT 11 11 92 51 58 62
REMARK Flexibility Score: inf
ROOT
ATOM      1  C   UNL A   1      37.850  21.383  25.342  1.00  0.00     0.275 C 
ENDROOT
BRANCH   1   2
ATOM      2  C   UNL A   1      37.010  21.853  24.156  1.00  0.00     0.274 C 
BRANCH   2   3
ATOM      3  O   UNL A   1      36.756  23.273  24.150  1.00  0.00    -0.462 OA
BRANCH   3   4
ATOM      4  C   UNL A   1      35.504  23.696  23.835  1.00  0.00     0.315 C 
ATOM      5  O   UNL A   1      34.990  23.561  22.728  1.00  0.00    -0.252 OA
BRANCH   4   6
ATOM      6  C   UNL A   1      34.835  24.491  24.940  1.00  0.00     0.167 C 
ATOM      7  C   UNL A   1      33.418  25.040  24.751  1.00  0.00     0.098 C 
ATOM      8  C   UNL A   1      32.893  25.037  26.199  1.00  0.00     0.272 C 
ATOM      9  N   UNL A   1      33.436  23.828  26.829  1.00  0.00    -0.329 N 
ATOM     10  C   UNL A   1      34.728  23.578  26.173  1.00  0.00     0.278 C 
ATOM     11  H   UNL A   1      33.567  23.978  27.829  1.00  0.00     0.348 HD
BRANCH   7  12
ATOM     12  C   UNL A   1      33.132  26.380  24.085  1.00  0.00     0.004 A 
ATOM     13  C   UNL A   1      32.524  26.554  22.831  1.00  0.00     0.122 A 
ATOM     14  C   UNL A   1      32.403  27.826  22.252  1.00  0.00     0.047 A 
ATOM     15  C   UNL A   1      32.891  28.953  22.912  1.00  0.00     0.004 A 
ATOM     16  C   UNL A   1      33.630  27.540  24.722  1.00  0.00     0.008 A 
ATOM     17  C   UNL A   1      33.509  28.810  24.148  1.00  0.00     0.001 A 
BRANCH  13  18
ATOM     18  O   UNL A   1      32.203  25.472  22.056  1.00  0.00    -0.496 OA
ATOM     19  C   UNL A   1      32.583  25.640  20.694  1.00  0.00     0.278 C 
ENDBRANCH  13  18
ENDBRANCH   7  12
BRANCH   9  20
ATOM     20  C   UNL A   1      32.518  22.671  26.844  1.00  0.00     0.321 C 
BRANCH  20  21
ATOM     21  C   UNL A   1      32.823  21.590  25.849  1.00  0.00     0.114 A 
ATOM     22  C   UNL A   1      33.728  20.551  25.974  1.00  0.00     0.122 A 
ATOM     23  N   UNL A   1      32.151  21.493  24.648  1.00  0.00    -0.228 NA
ATOM     24  N   UNL A   1      33.474  19.709  24.925  1.00  0.00    -0.306 N 
ATOM     25  C   UNL A   1      32.530  20.341  24.127  1.00  0.00     0.137 A 
ATOM     26  C   UNL A   1      33.989  18.442  24.666  1.00  0.00     0.096 A 
ATOM     27  C   UNL A   1      32.107  19.642  22.963  1.00  0.00     0.048 A 
ATOM     28  C   UNL A   1      33.571  17.765  23.579  1.00  0.00    -0.034 A 
ATOM     29  C   UNL A   1      32.589  18.408  22.705  1.00  0.00     0.009 A 
ATOM     30  C   UNL A   1      34.032  16.383  23.238  1.00  0.00     0.046 C 
ENDBRANCH  20  21
ENDBRANCH   9  20
ENDBRANCH   4   6
ENDBRANCH   3   4
ENDBRANCH   2   3
ENDBRANCH   1   2
BRANCH   1  31
ATOM     31  O   UNL A   1      38.359  22.485  26.087  1.00  0.00    -0.458 OA
BRANCH  31  32
ATOM     32  C   UNL A   1      39.589  22.241  26.576  1.00  0.00     0.338 C 
ATOM     33  O   UNL A   1      40.012  21.188  27.048  1.00  0.00    -0.246 OA
BRANCH  32  34
ATOM     34  C   UNL A   1      40.373  23.458  26.612  1.00  0.00     0.060 A 
ATOM     35  C   UNL A   1      41.612  23.413  27.256  1.00  0.00     0.016 A 
ATOM     36  C   UNL A   1      39.677  24.645  26.387  1.00  0.00     0.016 A 
ATOM     37  C   UNL A   1      42.066  24.548  27.888  1.00  0.00     0.010 A 
ATOM     38  C   UNL A   1      40.133  25.775  27.013  1.00  0.00     0.010 A 
ATOM     39  C   UNL A   1      41.268  25.687  27.831  1.00  0.00    -0.014 A 
BRANCH  39  40
ATOM     40  C   UNL A   1      41.608  26.819  28.673  1.00  0.00     0.031 A 
ATOM     41  C   UNL A   1      42.874  27.508  28.312  1.00  0.00     0.074 A 
ATOM     42  C   UNL A   1      40.670  27.303  29.513  1.00  0.00     0.049 A 
ATOM     43  N   UNL A   1      43.830  27.935  29.073  1.00  0.00    -0.248 NA
ATOM     44  C   UNL A   1      43.144  27.669  26.869  1.00  0.00     0.031 C 
ATOM     45  C   UNL A   1      39.279  26.837  29.640  1.00  0.00     0.029 A 
ATOM     46  N   UNL A   1      40.689  28.420  30.285  1.00  0.00    -0.354 N 
ATOM     47  C   UNL A   1      44.725  28.576  28.218  1.00  0.00     0.074 A 
ATOM     48  C   UNL A   1      44.341  28.244  26.874  1.00  0.00     0.031 C 
ATOM     49  C   UNL A   1      38.543  27.807  30.221  1.00  0.00     0.029 A 
ATOM     50  C   UNL A   1      39.425  28.899  30.597  1.00  0.00     0.049 A 
ATOM     51  H   UNL A   1      41.521  28.848  30.594  1.00  0.00     0.167 HD
ATOM     52  C   UNL A   1      45.597  29.530  28.639  1.00  0.00     0.037 A 
ATOM     53  C   UNL A   1      39.120  30.153  31.009  1.00  0.00     0.037 A 
ATOM     54  C   UNL A   1      45.810  29.484  30.055  1.00  0.00     0.049 A 
ATOM     55  C   UNL A   1      40.382  30.801  31.448  1.00  0.00     0.074 A 
ATOM     56  C   UNL A   1      46.374  28.570  30.921  1.00  0.00     0.029 A 
ATOM     57  N   UNL A   1      45.105  30.369  30.830  1.00  0.00    -0.354 N 
ATOM     58  N   UNL A   1      41.092  30.427  32.478  1.00  0.00    -0.248 NA
ATOM     59  C   UNL A   1      41.075  31.664  30.502  1.00  0.00     0.031 C 
ATOM     60  C   UNL A   1      45.660  28.714  32.143  1.00  0.00     0.029 A 
ATOM     61  C   UNL A   1      44.700  29.711  31.963  1.00  0.00     0.049 A 
ATOM     62  H   UNL A   1      44.924  31.313  30.612  1.00  0.00     0.167 HD
ATOM     63  C   UNL A   1      42.410  30.685  32.124  1.00  0.00     0.074 A 
ATOM     64  C   UNL A   1      42.324  31.560  30.962  1.00  0.00     0.031 C 
ATOM     65  C   UNL A   1      43.436  29.945  32.634  1.00  0.00     0.037 A 
BRANCH  52  66
ATOM     66  C   UNL A   1      46.001  30.701  27.783  1.00  0.00     0.058 A 
ATOM     67  C   UNL A   1      47.358  30.944  27.510  1.00  0.00     0.135 A 
ATOM     68  C   UNL A   1      45.106  31.737  27.425  1.00  0.00     0.135 A 
ATOM     69  F   UNL A   1      48.293  30.040  27.840  1.00  0.00    -0.206 F 
ATOM     70  C   UNL A   1      47.799  32.147  26.954  1.00  0.00     0.059 A 
ATOM     71  C   UNL A   1      45.515  32.913  26.812  1.00  0.00     0.059 A 
ATOM     72  F   UNL A   1      43.805  31.693  27.743  1.00  0.00    -0.206 F 
ATOM     73  C   UNL A   1      46.868  33.129  26.621  1.00  0.00     0.060 A 
BRANCH  73  74
ATOM     74  S   UNL A   1      47.433  34.728  26.012  1.00  0.00     0.124 S 
ATOM     75  O   UNL A   1      47.905  35.351  27.243  1.00  0.00    -0.237 OA
ATOM     76  O   UNL A   1      48.461  34.348  25.050  1.00  0.00    -0.237 OA
ATOM     77  O   UNL A   1      46.225  35.309  25.432  1.00  0.00    -0.744 OA
ENDBRANCH  73  74
ENDBRANCH  52  66
BRANCH  53  78
ATOM     78  C   UNL A   1      37.883  30.921  30.710  1.00  0.00     0.058 A 
ATOM     79  C   UNL A   1      37.143  31.533  31.736  1.00  0.00     0.135 A 
ATOM     80  C   UNL A   1      37.528  31.274  29.391  1.00  0.00     0.135 A 
ATOM     81  F   UNL A   1      37.437  31.280  33.020  1.00  0.00    -0.206 F 
ATOM     82  C   UNL A   1      36.130  32.460  31.471  1.00  0.00     0.059 A 
ATOM     83  C   UNL A   1      36.509  32.180  29.102  1.00  0.00     0.059 A 
ATOM     84  F   UNL A   1      38.221  30.816  28.338  1.00  0.00    -0.206 F 
ATOM     85  C   UNL A   1      35.828  32.786  30.149  1.00  0.00     0.060 A 
BRANCH  85  86
ATOM     86  S   UNL A   1      34.627  34.092  29.807  1.00  0.00     0.124 S 
ATOM     87  O   UNL A   1      33.470  33.327  29.356  1.00  0.00    -0.237 OA
ATOM     88  O   UNL A   1      34.498  34.737  31.109  1.00  0.00    -0.237 OA
ATOM     89  O   UNL A   1      35.283  34.897  28.779  1.00  0.00    -0.744 OA
ENDBRANCH  85  86
ENDBRANCH  53  78
BRANCH  65  90
ATOM     90  C   UNL A   1      43.151  29.084  33.836  1.00  0.00     0.058 A 
ATOM     91  C   UNL A   1      42.700  27.756  33.746  1.00  0.00     0.135 A 
ATOM     92  C   UNL A   1      43.527  29.550  35.104  1.00  0.00     0.135 A 
ATOM     93  F   UNL A   1      42.421  27.205  32.557  1.00  0.00    -0.206 F 
ATOM     94  C   UNL A   1      42.603  26.934  34.868  1.00  0.00     0.059 A 
ATOM     95  C   UNL A   1      43.468  28.737  36.235  1.00  0.00     0.059 A 
ATOM     96  F   UNL A   1      44.027  30.789  35.243  1.00  0.00    -0.206 F 
ATOM     97  C   UNL A   1      43.000  27.430  36.108  1.00  0.00     0.060 A 
BRANCH  97  98
ATOM     98  S   UNL A   1      43.014  26.317  37.530  1.00  0.00     0.124 S 
ATOM     99  O   UNL A   1      43.892  27.020  38.460  1.00  0.00    -0.237 OA
ATOM    100  O   UNL A   1      41.605  26.261  37.908  1.00  0.00    -0.237 OA
ATOM    101  O   UNL A   1      43.551  25.073  36.981  1.00  0.00    -0.744 OA
ENDBRANCH  97  98
ENDBRANCH  65  90
ENDBRANCH  39  40
ENDBRANCH  32  34
ENDBRANCH  31  32
ENDBRANCH   1  31
TORSDOF 18
ENDMDL
MODEL 2
REMARK VINA RESULT:     -12.2      1.257      3.927
REMARK SMILES COc1ccccc1[C@@H]1C[N@@H+](Cc2cn3cc(C)ccc3n2)C[C@H]1C(=O)OCCOC(=O)c1ccc(-c2c3nc(c(-c4c(F)cc(S(=O)(=O)[O-])cc4F)c4ccc([nH]4)c(-c4c(F)cc(S(=O)(=O)[O-])cc4F)c4nc(c(-c5c(F)cc(S(=O)(=O)[O-])cc5F)c5ccc2[nH]5)C=C4)C=C3)cc1
REMARK SMILES IDX 29 1 28 2 27 3 25 4 26 5 24 6 9 7 10 8 11 9 23 10 8 12 3 13
REMARK SMILES IDX 4 14 5 15 7 16 6 17 2 18 1 19 12 20 13 21 14 22 22 23 15 24
REMARK SMILES IDX 21 25 16 26 20 27 17 28 19 29 18 30 30 31 31 32 32 33 33 34
REMARK SMILES IDX 34 35 98 36 35 37 97 38 36 39 37 40 38 41 91 42 39 43 96 44
REMARK SMILES IDX 90 45 92 46 40 47 95 48 89 49 88 50 41 52 75 53 54 54 74 55
REMARK SMILES IDX 55 56 58 57 73 58 93 59 56 60 57 61 72 63 94 64 59 65 42 66
REMARK SMILES IDX 43 67 52 68 44 69 45 70 51 71 53 72 46 73 47 74 48 75 49 76
REMARK SMILES IDX 50 77 76 78 77 79 86 80 78 81 79 82 85 83 87 84 80 85 81 86
REMARK SMILES IDX 82 87 83 88 84 89 60 90 61 91 70 92 62 93 63 94 69 95 71 96
REMARK SMILES IDX 64 97 65 98 66 99 67 100 68 101
REMARK H PARENT 11 11 92 51 58 62
REMARK Flexibility Score: inf
ROOT
ATOM      1  C   UNL A   1      37.774  21.500  25.264  1.00  0.00     0.275 C 
ENDROOT
BRANCH   1   2
ATOM      2  C   UNL A   1      36.727  22.034  24.289  1.00  0.00     0.274 C 
BRANCH   2   3
ATOM      3  O   UNL A   1      36.493  23.452  24.405  1.00  0.00    -0.462 OA
BRANCH   3   4
ATOM      4  C   UNL A   1      35.206  23.884  24.470  1.00  0.00     0.315 C 
ATOM      5  O   UNL A   1      34.770  24.615  25.354  1.00  0.00    -0.252 OA
BRANCH   4   6
ATOM      6  C   UNL A   1      34.303  23.261  23.422  1.00  0.00     0.167 C 
ATOM      7  C   UNL A   1      32.946  22.674  23.820  1.00  0.00     0.098 C 
ATOM      8  C   UNL A   1      32.129  22.894  22.534  1.00  0.00     0.272 C 
ATOM      9  N   UNL A   1      32.553  24.192  21.995  1.00  0.00    -0.329 N 
ATOM     10  C   UNL A   1      33.959  24.352  22.394  1.00  0.00     0.278 C 
ATOM     11  H   UNL A   1      32.467  24.199  20.980  1.00  0.00     0.348 HD
BRANCH   7  12
ATOM     12  C   UNL A   1      32.778  21.244  24.319  1.00  0.00     0.004 A 
ATOM     13  C   UNL A   1      32.869  20.832  25.659  1.00  0.00     0.122 A 
ATOM     14  C   UNL A   1      32.809  19.475  26.007  1.00  0.00     0.047 A 
ATOM     15  C   UNL A   1      32.659  18.497  25.023  1.00  0.00     0.004 A 
ATOM     16  C   UNL A   1      32.642  20.229  23.344  1.00  0.00     0.008 A 
ATOM     17  C   UNL A   1      32.580  18.875  23.689  1.00  0.00     0.001 A 
BRANCH  13  18
ATOM     18  O   UNL A   1      33.208  21.724  26.641  1.00  0.00    -0.496 OA
ATOM     19  C   UNL A   1      34.527  21.521  27.135  1.00  0.00     0.278 C 
ENDBRANCH  13  18
ENDBRANCH   7  12
BRANCH   9  20
ATOM     20  C   UNL A   1      31.678  25.326  22.351  1.00  0.00     0.321 C 
BRANCH  20  21
ATOM     21  C   UNL A   1      32.096  26.112  23.559  1.00  0.00     0.114 A 
ATOM     22  C   UNL A   1      33.009  27.150  23.624  1.00  0.00     0.122 A 
ATOM     23  N   UNL A   1      31.538  25.892  24.802  1.00  0.00    -0.228 NA
ATOM     24  N   UNL A   1      32.870  27.690  24.875  1.00  0.00    -0.306 N 
ATOM     25  C   UNL A   1      31.988  26.870  25.566  1.00  0.00     0.137 A 
ATOM     26  C   UNL A   1      33.435  28.847  25.404  1.00  0.00     0.096 A 
ATOM     27  C   UNL A   1      31.689  27.242  26.906  1.00  0.00     0.048 A 
ATOM     28  C   UNL A   1      33.132  29.217  26.663  1.00  0.00    -0.034 A 
ATOM     29  C   UNL A   1      32.220  28.366  27.429  1.00  0.00     0.009 A 
ATOM     30  C   UNL A   1      33.653  30.464  27.306  1.00  0.00     0.046 C 
ENDBRANCH  20  21
ENDBRANCH   9  20
ENDBRANCH   4   6
ENDBRANCH   3   4
ENDBRANCH   2   3
ENDBRANCH   1   2
BRANCH   1  31
ATOM     31  O   UNL A   1      38.340  22.549  26.043  1.00  0.00    -0.458 OA
BRANCH  31  32
ATOM     32  C   UNL A   1      39.592  22.263  26.446  1.00  0.00     0.338 C 
ATOM     33  O   UNL A   1      40.027  21.178  26.825  1.00  0.00    -0.246 OA
BRANCH  32  34
ATOM     34  C   UNL A   1      40.392  23.468  26.515  1.00  0.00     0.060 A 
ATOM     35  C   UNL A   1      41.590  23.411  27.231  1.00  0.00     0.016 A 
ATOM     36  C   UNL A   1      39.730  24.663  26.238  1.00  0.00     0.016 A 
ATOM     37  C   UNL A   1      42.025  24.546  27.877  1.00  0.00     0.010 A 
ATOM     38  C   UNL A   1      40.166  25.793  26.878  1.00  0.00     0.010 A 
ATOM     39  C   UNL A   1      41.250  25.696  27.762  1.00  0.00    -0.014 A 
BRANCH  39  40
ATOM     40  C   UNL A   1      41.558  26.833  28.611  1.00  0.00     0.031 A 
ATOM     41  C   UNL A   1      42.816  27.547  28.267  1.00  0.00     0.074 A 
ATOM     42  C   UNL A   1      40.602  27.295  29.441  1.00  0.00     0.049 A 
ATOM     43  N   UNL A   1      43.754  27.989  29.040  1.00  0.00    -0.248 NA
ATOM     44  C   UNL A   1      43.099  27.716  26.828  1.00  0.00     0.031 C 
ATOM     45  C   UNL A   1      39.219  26.803  29.551  1.00  0.00     0.029 A 
ATOM     46  N   UNL A   1      40.591  28.410  30.217  1.00  0.00    -0.354 N 
ATOM     47  C   UNL A   1      44.647  28.650  28.197  1.00  0.00     0.074 A 
ATOM     48  C   UNL A   1      44.285  28.314  26.848  1.00  0.00     0.031 C 
ATOM     49  C   UNL A   1      38.457  27.757  30.126  1.00  0.00     0.029 A 
ATOM     50  C   UNL A   1      39.314  28.865  30.515  1.00  0.00     0.049 A 
ATOM     51  H   UNL A   1      41.411  28.853  30.536  1.00  0.00     0.167 HD
ATOM     52  C   UNL A   1      45.495  29.618  28.631  1.00  0.00     0.037 A 
ATOM     53  C   UNL A   1      38.980  30.111  30.927  1.00  0.00     0.037 A 
ATOM     54  C   UNL A   1      45.693  29.572  30.049  1.00  0.00     0.049 A 
ATOM     55  C   UNL A   1      40.225  30.781  31.383  1.00  0.00     0.074 A 
ATOM     56  C   UNL A   1      46.264  28.667  30.919  1.00  0.00     0.029 A 
ATOM     57  N   UNL A   1      44.962  30.442  30.818  1.00  0.00    -0.354 N 
ATOM     58  N   UNL A   1      40.930  30.418  32.419  1.00  0.00    -0.248 NA
ATOM     59  C   UNL A   1      40.912  31.661  30.447  1.00  0.00     0.031 C 
ATOM     60  C   UNL A   1      45.534  28.794  32.133  1.00  0.00     0.029 A 
ATOM     61  C   UNL A   1      44.556  29.773  31.944  1.00  0.00     0.049 A 
ATOM     62  H   UNL A   1      44.765  31.382  30.600  1.00  0.00     0.167 HD
ATOM     63  C   UNL A   1      42.246  30.702  32.081  1.00  0.00     0.074 A 
ATOM     64  C   UNL A   1      42.157  31.579  30.921  1.00  0.00     0.031 C 
ATOM     65  C   UNL A   1      43.281  29.981  32.602  1.00  0.00     0.037 A 
BRANCH  52  66
ATOM     66  C   UNL A   1      45.887  30.800  27.783  1.00  0.00     0.058 A 
ATOM     67  C   UNL A   1      47.238  31.034  27.474  1.00  0.00     0.135 A 
ATOM     68  C   UNL A   1      44.992  31.851  27.468  1.00  0.00     0.135 A 
ATOM     69  F   UNL A   1      48.172  30.115  27.762  1.00  0.00    -0.206 F 
ATOM     70  C   UNL A   1      47.676  32.241  26.925  1.00  0.00     0.059 A 
ATOM     71  C   UNL A   1      45.396  33.033  26.863  1.00  0.00     0.059 A 
ATOM     72  F   UNL A   1      43.701  31.815  27.824  1.00  0.00    -0.206 F 
ATOM     73  C   UNL A   1      46.746  33.239  26.636  1.00  0.00     0.060 A 
BRANCH  73  74
ATOM     74  S   UNL A   1      47.309  34.841  26.038  1.00  0.00     0.124 S 
ATOM     75  O   UNL A   1      47.861  35.423  27.255  1.00  0.00    -0.237 OA
ATOM     76  O   UNL A   1      48.276  34.467  25.011  1.00  0.00    -0.237 OA
ATOM     77  O   UNL A   1      46.084  35.461  25.540  1.00  0.00    -0.744 OA
ENDBRANCH  73  74
ENDBRANCH  52  66
BRANCH  53  78
ATOM     78  C   UNL A   1      37.732  30.856  30.616  1.00  0.00     0.058 A 
ATOM     79  C   UNL A   1      36.953  31.425  31.637  1.00  0.00     0.135 A 
ATOM     80  C   UNL A   1      37.401  31.234  29.297  1.00  0.00     0.135 A 
ATOM     81  F   UNL A   1      37.222  31.147  32.922  1.00  0.00    -0.206 F 
ATOM     82  C   UNL A   1      35.924  32.334  31.370  1.00  0.00     0.059 A 
ATOM     83  C   UNL A   1      36.368  32.121  29.005  1.00  0.00     0.059 A 
ATOM     84  F   UNL A   1      38.131  30.818  28.251  1.00  0.00    -0.206 F 
ATOM     85  C   UNL A   1      35.647  32.685  30.048  1.00  0.00     0.060 A 
BRANCH  85  86
ATOM     86  S   UNL A   1      34.422  33.970  29.708  1.00  0.00     0.124 S 
ATOM     87  O   UNL A   1      33.551  33.308  28.743  1.00  0.00    -0.237 OA
ATOM     88  O   UNL A   1      33.849  34.204  31.030  1.00  0.00    -0.237 OA
ATOM     89  O   UNL A   1      35.223  35.070  29.176  1.00  0.00    -0.744 OA
ENDBRANCH  85  86
ENDBRANCH  53  78
BRANCH  65  90
ATOM     90  C   UNL A   1      42.998  29.111  33.797  1.00  0.00     0.058 A 
ATOM     91  C   UNL A   1      42.544  27.785  33.699  1.00  0.00     0.135 A 
ATOM     92  C   UNL A   1      43.380  29.566  35.068  1.00  0.00     0.135 A 
ATOM     93  F   UNL A   1      42.259  27.244  32.507  1.00  0.00    -0.206 F 
ATOM     94  C   UNL A   1      42.449  26.954  34.815  1.00  0.00     0.059 A 
ATOM     95  C   UNL A   1      43.324  28.744  36.192  1.00  0.00     0.059 A 
ATOM     96  F   UNL A   1      43.883  30.803  35.214  1.00  0.00    -0.206 F 
ATOM     97  C   UNL A   1      42.852  27.439  36.057  1.00  0.00     0.060 A 
BRANCH  97  98
ATOM     98  S   UNL A   1      42.869  26.315  37.470  1.00  0.00     0.124 S 
ATOM     99  O   UNL A   1      41.464  26.292  37.861  1.00  0.00    -0.237 OA
ATOM    100  O   UNL A   1      43.385  25.078  36.890  1.00  0.00    -0.237 OA
ATOM    101  O   UNL A   1      43.772  26.971  38.414  1.00  0.00    -0.744 OA
ENDBRANCH  97  98
ENDBRANCH  65  90
ENDBRANCH  39  40
ENDBRANCH  32  34
ENDBRANCH  31  32
ENDBRANCH   1  31
TORSDOF 18
ENDMDL
MODEL 3
REMARK VINA RESULT:     -11.8      2.912      9.179
REMARK SMILES COc1ccccc1[C@@H]1C[N@@H+](Cc2cn3cc(C)ccc3n2)C[C@H]1C(=O)OCCOC(=O)c1ccc(-c2c3nc(c(-c4c(F)cc(S(=O)(=O)[O-])cc4F)c4ccc([nH]4)c(-c4c(F)cc(S(=O)(=O)[O-])cc4F)c4nc(c(-c5c(F)cc(S(=O)(=O)[O-])cc5F)c5ccc2[nH]5)C=C4)C=C3)cc1
REMARK SMILES IDX 29 1 28 2 27 3 25 4 26 5 24 6 9 7 10 8 11 9 23 10 8 12 3 13
REMARK SMILES IDX 4 14 5 15 7 16 6 17 2 18 1 19 12 20 13 21 14 22 22 23 15 24
REMARK SMILES IDX 21 25 16 26 20 27 17 28 19 29 18 30 30 31 31 32 32 33 33 34
REMARK SMILES IDX 34 35 98 36 35 37 97 38 36 39 37 40 38 41 91 42 39 43 96 44
REMARK SMILES IDX 90 45 92 46 40 47 95 48 89 49 88 50 41 52 75 53 54 54 74 55
REMARK SMILES IDX 55 56 58 57 73 58 93 59 56 60 57 61 72 63 94 64 59 65 42 66
REMARK SMILES IDX 43 67 52 68 44 69 45 70 51 71 53 72 46 73 47 74 48 75 49 76
REMARK SMILES IDX 50 77 76 78 77 79 86 80 78 81 79 82 85 83 87 84 80 85 81 86
REMARK SMILES IDX 82 87 83 88 84 89 60 90 61 91 70 92 62 93 63 94 69 95 71 96
REMARK SMILES IDX 64 97 65 98 66 99 67 100 68 101
REMARK H PARENT 11 11 92 51 58 62
REMARK Flexibility Score: inf
ROOT
ATOM      1  C   UNL A   1      33.796  28.786  26.368  1.00  0.00     0.275 C 
ENDROOT
BRANCH   1   2
ATOM      2  C   UNL A   1      33.633  28.576  24.865  1.00  0.00     0.274 C 
BRANCH   2   3
ATOM      3  O   UNL A   1      33.884  27.222  24.436  1.00  0.00    -0.462 OA
BRANCH   3   4
ATOM      4  C   UNL A   1      33.866  26.961  23.102  1.00  0.00     0.315 C 
ATOM      5  O   UNL A   1      34.133  27.789  22.236  1.00  0.00    -0.252 OA
BRANCH   4   6
ATOM      6  C   UNL A   1      33.340  25.581  22.760  1.00  0.00     0.167 C 
ATOM      7  C   UNL A   1      33.338  24.470  23.815  1.00  0.00     0.098 C 
ATOM      8  C   UNL A   1      32.125  23.630  23.373  1.00  0.00     0.272 C 
ATOM      9  N   UNL A   1      31.114  24.585  22.905  1.00  0.00    -0.329 N 
ATOM     10  C   UNL A   1      31.862  25.729  22.362  1.00  0.00     0.278 C 
ATOM     11  H   UNL A   1      30.535  24.162  22.181  1.00  0.00     0.348 HD
BRANCH   7  12
ATOM     12  C   UNL A   1      34.542  23.571  24.072  1.00  0.00     0.004 A 
ATOM     13  C   UNL A   1      34.837  22.933  25.288  1.00  0.00     0.122 A 
ATOM     14  C   UNL A   1      36.029  22.212  25.459  1.00  0.00     0.047 A 
ATOM     15  C   UNL A   1      36.954  22.117  24.420  1.00  0.00     0.004 A 
ATOM     16  C   UNL A   1      35.506  23.469  23.043  1.00  0.00     0.008 A 
ATOM     17  C   UNL A   1      36.694  22.750  23.211  1.00  0.00     0.001 A 
BRANCH  13  18
ATOM     18  O   UNL A   1      34.063  23.151  26.396  1.00  0.00    -0.496 OA
ATOM     19  C   UNL A   1      34.207  22.127  27.375  1.00  0.00     0.278 C 
ENDBRANCH  13  18
ENDBRANCH   7  12
BRANCH   9  20
ATOM     20  C   UNL A   1      30.087  24.939  23.904  1.00  0.00     0.321 C 
BRANCH  20  21
ATOM     21  C   UNL A   1      29.593  26.355  23.851  1.00  0.00     0.114 A 
ATOM     22  C   UNL A   1      30.332  27.519  23.973  1.00  0.00     0.122 A 
ATOM     23  N   UNL A   1      28.267  26.657  23.612  1.00  0.00    -0.228 NA
ATOM     24  N   UNL A   1      29.486  28.536  23.622  1.00  0.00    -0.306 N 
ATOM     25  C   UNL A   1      28.232  27.966  23.443  1.00  0.00     0.137 A 
ATOM     26  C   UNL A   1      29.763  29.885  23.423  1.00  0.00     0.096 A 
ATOM     27  C   UNL A   1      27.179  28.846  23.067  1.00  0.00     0.048 A 
ATOM     28  C   UNL A   1      28.774  30.716  23.041  1.00  0.00    -0.034 A 
ATOM     29  C   UNL A   1      27.435  30.154  22.861  1.00  0.00     0.009 A 
ATOM     30  C   UNL A   1      28.980  32.172  22.761  1.00  0.00     0.046 C 
ENDBRANCH  20  21
ENDBRANCH   9  20
ENDBRANCH   4   6
ENDBRANCH   3   4
ENDBRANCH   2   3
ENDBRANCH   1   2
BRANCH   1  31
ATOM     31  O   UNL A   1      35.101  29.257  26.688  1.00  0.00    -0.458 OA
BRANCH  31  32
ATOM     32  C   UNL A   1      35.069  30.357  27.463  1.00  0.00     0.338 C 
ATOM     33  O   UNL A   1      34.348  31.344  27.331  1.00  0.00    -0.246 OA
BRANCH  32  34
ATOM     34  C   UNL A   1      36.124  30.314  28.453  1.00  0.00     0.060 A 
ATOM     35  C   UNL A   1      36.922  31.452  28.600  1.00  0.00     0.016 A 
ATOM     36  C   UNL A   1      36.527  29.046  28.868  1.00  0.00     0.016 A 
ATOM     37  C   UNL A   1      38.239  31.289  28.967  1.00  0.00     0.010 A 
ATOM     38  C   UNL A   1      37.837  28.886  29.237  1.00  0.00     0.010 A 
ATOM     39  C   UNL A   1      38.696  29.993  29.188  1.00  0.00    -0.014 A 
BRANCH  39  40
ATOM     40  C   UNL A   1      40.122  29.775  29.350  1.00  0.00     0.031 A 
ATOM     41  C   UNL A   1      40.608  29.833  30.753  1.00  0.00     0.074 A 
ATOM     42  C   UNL A   1      40.823  29.299  28.301  1.00  0.00     0.049 A 
ATOM     43  N   UNL A   1      41.657  30.412  31.241  1.00  0.00    -0.248 NA
ATOM     44  C   UNL A   1      39.738  29.216  31.773  1.00  0.00     0.031 C 
ATOM     45  C   UNL A   1      40.287  28.909  26.987  1.00  0.00     0.029 A 
ATOM     46  N   UNL A   1      42.115  28.882  28.238  1.00  0.00    -0.354 N 
ATOM     47  C   UNL A   1      41.670  30.074  32.594  1.00  0.00     0.074 A 
ATOM     48  C   UNL A   1      40.397  29.482  32.896  1.00  0.00     0.031 C 
ATOM     49  C   UNL A   1      41.167  28.088  26.378  1.00  0.00     0.029 A 
ATOM     50  C   UNL A   1      42.358  27.988  27.205  1.00  0.00     0.049 A 
ATOM     51  H   UNL A   1      42.810  29.185  28.866  1.00  0.00     0.167 HD
ATOM     52  C   UNL A   1      42.800  30.085  33.348  1.00  0.00     0.037 A 
ATOM     53  C   UNL A   1      43.404  27.132  27.113  1.00  0.00     0.037 A 
ATOM     54  C   UNL A   1      43.839  30.878  32.761  1.00  0.00     0.049 A 
ATOM     55  C   UNL A   1      44.438  27.581  28.081  1.00  0.00     0.074 A 
ATOM     56  C   UNL A   1      43.995  32.221  32.488  1.00  0.00     0.029 A 
ATOM     57  N   UNL A   1      44.811  30.222  32.051  1.00  0.00    -0.354 N 
ATOM     58  N   UNL A   1      45.099  28.703  27.996  1.00  0.00    -0.248 NA
ATOM     59  C   UNL A   1      44.484  26.934  29.385  1.00  0.00     0.031 C 
ATOM     60  C   UNL A   1      44.802  32.280  31.318  1.00  0.00     0.029 A 
ATOM     61  C   UNL A   1      45.101  30.970  30.938  1.00  0.00     0.049 A 
ATOM     62  H   UNL A   1      45.229  29.364  32.297  1.00  0.00     0.167 HD
ATOM     63  C   UNL A   1      45.320  29.094  29.310  1.00  0.00     0.074 A 
ATOM     64  C   UNL A   1      45.037  27.908  30.109  1.00  0.00     0.031 C 
ATOM     65  C   UNL A   1      45.443  30.411  29.645  1.00  0.00     0.037 A 
BRANCH  52  66
ATOM     66  C   UNL A   1      43.045  29.104  34.465  1.00  0.00     0.058 A 
ATOM     67  C   UNL A   1      43.335  29.563  35.761  1.00  0.00     0.135 A 
ATOM     68  C   UNL A   1      43.247  27.721  34.242  1.00  0.00     0.135 A 
ATOM     69  F   UNL A   1      43.208  30.863  36.068  1.00  0.00    -0.206 F 
ATOM     70  C   UNL A   1      43.824  28.716  36.757  1.00  0.00     0.059 A 
ATOM     71  C   UNL A   1      43.671  26.848  35.235  1.00  0.00     0.059 A 
ATOM     72  F   UNL A   1      43.134  27.173  33.025  1.00  0.00    -0.206 F 
ATOM     73  C   UNL A   1      44.001  27.361  36.477  1.00  0.00     0.060 A 
BRANCH  73  74
ATOM     74  S   UNL A   1      44.741  26.281  37.714  1.00  0.00     0.124 S 
ATOM     75  O   UNL A   1      45.944  27.027  38.062  1.00  0.00    -0.237 OA
ATOM     76  O   UNL A   1      43.703  26.225  38.738  1.00  0.00    -0.237 OA
ATOM     77  O   UNL A   1      44.958  25.036  36.982  1.00  0.00    -0.744 OA
ENDBRANCH  73  74
ENDBRANCH  52  66
BRANCH  53  78
ATOM     78  C   UNL A   1      43.403  25.775  26.508  1.00  0.00     0.058 A 
ATOM     79  C   UNL A   1      44.188  25.483  25.379  1.00  0.00     0.135 A 
ATOM     80  C   UNL A   1      42.820  24.669  27.162  1.00  0.00     0.135 A 
ATOM     81  F   UNL A   1      44.808  26.472  24.717  1.00  0.00    -0.206 F 
ATOM     82  C   UNL A   1      44.403  24.172  24.941  1.00  0.00     0.059 A 
ATOM     83  C   UNL A   1      43.003  23.357  26.732  1.00  0.00     0.059 A 
ATOM     84  F   UNL A   1      42.122  24.823  28.297  1.00  0.00    -0.206 F 
ATOM     85  C   UNL A   1      43.815  23.113  25.633  1.00  0.00     0.060 A 
BRANCH  85  86
ATOM     86  S   UNL A   1      44.211  21.414  25.162  1.00  0.00     0.124 S 
ATOM     87  O   UNL A   1      44.334  21.524  23.713  1.00  0.00    -0.237 OA
ATOM     88  O   UNL A   1      45.452  21.176  25.892  1.00  0.00    -0.237 OA
ATOM     89  O   UNL A   1      43.057  20.653  25.635  1.00  0.00    -0.744 OA
ENDBRANCH  85  86
ENDBRANCH  53  78
BRANCH  65  90
ATOM     90  C   UNL A   1      45.677  31.398  28.533  1.00  0.00     0.058 A 
ATOM     91  C   UNL A   1      44.639  32.065  27.860  1.00  0.00     0.135 A 
ATOM     92  C   UNL A   1      46.989  31.823  28.274  1.00  0.00     0.135 A 
ATOM     93  F   UNL A   1      43.357  31.789  28.130  1.00  0.00    -0.206 F 
ATOM     94  C   UNL A   1      44.892  33.092  26.951  1.00  0.00     0.059 A 
ATOM     95  C   UNL A   1      47.263  32.868  27.393  1.00  0.00     0.059 A 
ATOM     96  F   UNL A   1      48.017  31.267  28.935  1.00  0.00    -0.206 F 
ATOM     97  C   UNL A   1      46.208  33.495  26.733  1.00  0.00     0.060 A 
BRANCH  97  98
ATOM     98  S   UNL A   1      46.519  34.923  25.671  1.00  0.00     0.124 S 
ATOM     99  O   UNL A   1      47.969  34.877  25.513  1.00  0.00    -0.237 OA
ATOM    100  O   UNL A   1      45.742  34.609  24.475  1.00  0.00    -0.237 OA
ATOM    101  O   UNL A   1      46.008  36.046  26.455  1.00  0.00    -0.744 OA
ENDBRANCH  97  98
ENDBRANCH  65  90
ENDBRANCH  39  40
ENDBRANCH  32  34
ENDBRANCH  31  32
ENDBRANCH   1  31
TORSDOF 18
ENDMDL
