MODEL 1
REMARK VINA RESULT:     -10.7      0.000      0.000
REMARK SMILES CCC[NH+]1CCC(NC(=O)NC2(CC(=O)OCCOC(=O)c3ccc(-c4c5nc(c(-c6c(F)cc(S(=O)(=O)[O-])cc6F)c6ccc([nH]6)c(-c6c(F)cc(S(=O)(=O)[O-])cc6F)c6nc(c(-c7c(F)cc(S(=O)(=O)[O-])cc7F)c7ccc4[nH]7)C=C6)C=C5)cc3)CCC2)CC1
REMARK SMILES IDX 17 1 16 2 14 3 15 4 13 5 12 6 88 7 90 8 89 9 11 10 8 11 9 12
REMARK SMILES IDX 10 14 7 16 4 17 5 18 92 19 6 21 91 22 3 23 2 24 1 25 18 26
REMARK SMILES IDX 19 27 20 28 21 29 22 30 23 31 87 32 24 33 86 34 25 35 26 36
REMARK SMILES IDX 27 37 80 38 28 39 85 40 79 41 81 42 29 43 84 44 78 45 77 46
REMARK SMILES IDX 30 48 64 49 43 50 63 51 44 52 47 53 62 54 82 55 45 56 46 57
REMARK SMILES IDX 61 59 83 60 48 61 31 62 32 63 41 64 33 65 34 66 40 67 42 68
REMARK SMILES IDX 35 69 36 70 37 71 38 72 39 73 65 74 66 75 75 76 67 77 68 78
REMARK SMILES IDX 74 79 76 80 69 81 70 82 71 83 72 84 73 85 49 86 50 87 59 88
REMARK SMILES IDX 51 89 52 90 58 91 60 92 53 93 54 94 55 95 56 96 57 97
REMARK H PARENT 8 13 11 15 4 20 81 47 47 58
REMARK Flexibility Score: inf
ROOT
ATOM      1  C   UNL A   1      35.585  22.768  25.784  1.00  0.00     0.274 C 
ENDROOT
BRANCH   1   2
ATOM      2  O   UNL A   1      35.483  22.134  24.492  1.00  0.00    -0.462 OA
BRANCH   2   3
ATOM      3  C   UNL A   1      34.768  22.821  23.571  1.00  0.00     0.308 C 
ATOM      4  O   UNL A   1      35.203  23.173  22.478  1.00  0.00    -0.252 OA
BRANCH   3   5
ATOM      5  C   UNL A   1      33.371  23.174  23.990  1.00  0.00     0.151 C 
BRANCH   5   6
ATOM      6  C   UNL A   1      32.737  24.536  23.635  1.00  0.00     0.052 C 
ATOM      7  C   UNL A   1      33.463  25.572  24.533  1.00  0.00     0.029 C 
ATOM      8  C   UNL A   1      31.426  24.806  24.404  1.00  0.00     0.029 C 
ATOM      9  C   UNL A   1      32.247  25.539  25.488  1.00  0.00     0.005 C 
BRANCH   6  10
ATOM     10  N   UNL A   1      32.721  24.787  22.169  1.00  0.00    -0.332 N 
ATOM     11  N   UNL A   1      32.766  27.108  21.548  1.00  0.00    -0.335 N 
ATOM     12  C   UNL A   1      32.829  25.801  21.289  1.00  0.00     0.315 C 
ATOM     13  H   UNL A   1      32.974  27.663  20.761  1.00  0.00     0.165 HD
ATOM     14  O   UNL A   1      32.989  25.509  20.098  1.00  0.00    -0.249 OA
ATOM     15  H   UNL A   1      32.589  23.939  21.687  1.00  0.00     0.165 HD
BRANCH  11  16
ATOM     16  C   UNL A   1      32.462  27.890  22.714  1.00  0.00     0.095 C 
ATOM     17  N   UNL A   1      31.923  29.926  24.705  1.00  0.00    -0.335 N 
ATOM     18  C   UNL A   1      33.290  29.415  24.453  1.00  0.00     0.264 C 
ATOM     19  C   UNL A   1      30.844  29.158  24.062  1.00  0.00     0.264 C 
ATOM     20  H   UNL A   1      31.841  30.844  24.269  1.00  0.00     0.348 HD
ATOM     21  C   UNL A   1      33.549  28.899  23.041  1.00  0.00     0.086 C 
ATOM     22  C   UNL A   1      31.143  28.637  22.651  1.00  0.00     0.086 C 
BRANCH  17  23
ATOM     23  C   UNL A   1      31.750  30.012  26.175  1.00  0.00     0.261 C 
BRANCH  23  24
ATOM     24  C   UNL A   1      32.397  28.923  27.041  1.00  0.00     0.058 C 
ATOM     25  C   UNL A   1      31.422  28.041  27.810  1.00  0.00     0.010 C 
ENDBRANCH  23  24
ENDBRANCH  17  23
ENDBRANCH  11  16
ENDBRANCH   6  10
ENDBRANCH   5   6
ENDBRANCH   3   5
ENDBRANCH   2   3
ENDBRANCH   1   2
BRANCH   1  26
ATOM     26  C   UNL A   1      36.528  23.978  25.785  1.00  0.00     0.275 C 
BRANCH  26  27
ATOM     27  O   UNL A   1      37.782  23.718  25.125  1.00  0.00    -0.458 OA
BRANCH  27  28
ATOM     28  C   UNL A   1      38.754  23.282  25.962  1.00  0.00     0.338 C 
ATOM     29  O   UNL A   1      39.250  22.169  25.970  1.00  0.00    -0.246 OA
BRANCH  28  30
ATOM     30  C   UNL A   1      39.301  24.383  26.762  1.00  0.00     0.060 A 
ATOM     31  C   UNL A   1      38.917  24.451  28.101  1.00  0.00     0.016 A 
ATOM     32  C   UNL A   1      40.059  25.404  26.194  1.00  0.00     0.016 A 
ATOM     33  C   UNL A   1      39.275  25.538  28.885  1.00  0.00     0.010 A 
ATOM     34  C   UNL A   1      40.454  26.483  26.994  1.00  0.00     0.010 A 
ATOM     35  C   UNL A   1      40.064  26.556  28.343  1.00  0.00    -0.014 A 
BRANCH  35  36
ATOM     36  C   UNL A   1      40.483  27.682  29.210  1.00  0.00     0.031 A 
ATOM     37  C   UNL A   1      41.787  27.626  29.950  1.00  0.00     0.074 A 
ATOM     38  C   UNL A   1      39.692  28.768  29.304  1.00  0.00     0.049 A 
ATOM     39  N   UNL A   1      42.254  28.447  30.855  1.00  0.00    -0.248 NA
ATOM     40  C   UNL A   1      42.681  26.502  29.633  1.00  0.00     0.031 C 
ATOM     41  C   UNL A   1      38.431  28.959  28.582  1.00  0.00     0.029 A 
ATOM     42  N   UNL A   1      39.829  29.916  30.042  1.00  0.00    -0.354 N 
ATOM     43  C   UNL A   1      43.478  27.919  31.248  1.00  0.00     0.074 A 
ATOM     44  C   UNL A   1      43.684  26.711  30.476  1.00  0.00     0.031 C 
ATOM     45  C   UNL A   1      37.917  30.156  28.904  1.00  0.00     0.029 A 
ATOM     46  C   UNL A   1      38.774  30.785  29.903  1.00  0.00     0.049 A 
ATOM     47  H   UNL A   1      40.609  30.099  30.614  1.00  0.00     0.167 HD
ATOM     48  C   UNL A   1      44.341  28.400  32.173  1.00  0.00     0.037 A 
ATOM     49  C   UNL A   1      38.503  31.939  30.542  1.00  0.00     0.037 A 
ATOM     50  C   UNL A   1      44.137  29.621  32.911  1.00  0.00     0.049 A 
ATOM     51  C   UNL A   1      39.453  32.428  31.596  1.00  0.00     0.074 A 
ATOM     52  C   UNL A   1      44.955  30.199  33.866  1.00  0.00     0.029 A 
ATOM     53  N   UNL A   1      43.036  30.455  32.770  1.00  0.00    -0.354 N 
ATOM     54  N   UNL A   1      40.582  31.894  31.996  1.00  0.00    -0.248 NA
ATOM     55  C   UNL A   1      39.082  33.660  32.304  1.00  0.00     0.031 C 
ATOM     56  C   UNL A   1      44.336  31.368  34.322  1.00  0.00     0.029 A 
ATOM     57  C   UNL A   1      43.147  31.535  33.631  1.00  0.00     0.049 A 
ATOM     58  H   UNL A   1      42.288  30.302  32.149  1.00  0.00     0.167 HD
ATOM     59  C   UNL A   1      41.058  32.723  33.002  1.00  0.00     0.074 A 
ATOM     60  C   UNL A   1      40.104  33.806  33.138  1.00  0.00     0.031 C 
ATOM     61  C   UNL A   1      42.180  32.596  33.753  1.00  0.00     0.037 A 
BRANCH  48  62
ATOM     62  C   UNL A   1      45.566  27.583  32.468  1.00  0.00     0.058 A 
ATOM     63  C   UNL A   1      45.544  26.517  33.380  1.00  0.00     0.135 A 
ATOM     64  C   UNL A   1      46.774  27.858  31.808  1.00  0.00     0.135 A 
ATOM     65  F   UNL A   1      44.419  26.223  34.050  1.00  0.00    -0.206 F 
ATOM     66  C   UNL A   1      46.685  25.764  33.643  1.00  0.00     0.059 A 
ATOM     67  C   UNL A   1      47.923  27.108  32.041  1.00  0.00     0.059 A 
ATOM     68  F   UNL A   1      46.847  28.869  30.927  1.00  0.00    -0.206 F 
ATOM     69  C   UNL A   1      47.872  26.071  32.972  1.00  0.00     0.060 A 
BRANCH  69  70
ATOM     70  S   UNL A   1      49.347  25.090  33.320  1.00  0.00     0.124 S 
ATOM     71  O   UNL A   1      49.868  24.862  31.976  1.00  0.00    -0.237 OA
ATOM     72  O   UNL A   1      50.134  25.989  34.159  1.00  0.00    -0.237 OA
ATOM     73  O   UNL A   1      48.818  23.911  33.998  1.00  0.00    -0.744 OA
ENDBRANCH  69  70
ENDBRANCH  48  62
BRANCH  49  74
ATOM     74  C   UNL A   1      37.252  32.676  30.230  1.00  0.00     0.058 A 
ATOM     75  C   UNL A   1      37.219  33.650  29.225  1.00  0.00     0.135 A 
ATOM     76  C   UNL A   1      36.057  32.392  30.910  1.00  0.00     0.135 A 
ATOM     77  F   UNL A   1      38.339  33.962  28.554  1.00  0.00    -0.206 F 
ATOM     78  C   UNL A   1      36.044  34.320  28.901  1.00  0.00     0.059 A 
ATOM     79  C   UNL A   1      34.864  33.032  30.590  1.00  0.00     0.059 A 
ATOM     80  F   UNL A   1      36.037  31.457  31.873  1.00  0.00    -0.206 F 
ATOM     81  C   UNL A   1      34.870  34.001  29.587  1.00  0.00     0.060 A 
BRANCH  81  82
ATOM     82  S   UNL A   1      33.331  34.821  29.117  1.00  0.00     0.124 S 
ATOM     83  O   UNL A   1      32.646  34.916  30.401  1.00  0.00    -0.237 OA
ATOM     84  O   UNL A   1      33.808  36.081  28.553  1.00  0.00    -0.237 OA
ATOM     85  O   UNL A   1      32.743  33.898  28.152  1.00  0.00    -0.744 OA
ENDBRANCH  81  82
ENDBRANCH  49  74
BRANCH  61  86
ATOM     86  C   UNL A   1      42.434  33.659  34.781  1.00  0.00     0.058 A 
ATOM     87  C   UNL A   1      43.128  34.833  34.456  1.00  0.00     0.135 A 
ATOM     88  C   UNL A   1      41.946  33.520  36.089  1.00  0.00     0.135 A 
ATOM     89  F   UNL A   1      43.623  35.007  33.219  1.00  0.00    -0.206 F 
ATOM     90  C   UNL A   1      43.343  35.832  35.399  1.00  0.00     0.059 A 
ATOM     91  C   UNL A   1      42.133  34.513  37.043  1.00  0.00     0.059 A 
ATOM     92  F   UNL A   1      41.272  32.414  36.445  1.00  0.00    -0.206 F 
ATOM     93  C   UNL A   1      42.842  35.663  36.692  1.00  0.00     0.060 A 
BRANCH  93  94
ATOM     94  S   UNL A   1      43.092  36.979  37.902  1.00  0.00     0.124 S 
ATOM     95  O   UNL A   1      43.966  36.324  38.870  1.00  0.00    -0.237 OA
ATOM     96  O   UNL A   1      43.709  38.032  37.102  1.00  0.00    -0.237 OA
ATOM     97  O   UNL A   1      41.740  37.268  38.370  1.00  0.00    -0.744 OA
ENDBRANCH  93  94
ENDBRANCH  61  86
ENDBRANCH  35  36
ENDBRANCH  28  30
ENDBRANCH  27  28
ENDBRANCH  26  27
ENDBRANCH   1  26
TORSDOF 19
ENDMDL
MODEL 2
REMARK VINA RESULT:     -10.7      3.721      9.641
REMARK SMILES CCC[NH+]1CCC(NC(=O)NC2(CC(=O)OCCOC(=O)c3ccc(-c4c5nc(c(-c6c(F)cc(S(=O)(=O)[O-])cc6F)c6ccc([nH]6)c(-c6c(F)cc(S(=O)(=O)[O-])cc6F)c6nc(c(-c7c(F)cc(S(=O)(=O)[O-])cc7F)c7ccc4[nH]7)C=C6)C=C5)cc3)CCC2)CC1
REMARK SMILES IDX 17 1 16 2 14 3 15 4 13 5 12 6 88 7 90 8 89 9 11 10 8 11 9 12
REMARK SMILES IDX 10 14 7 16 4 17 5 18 92 19 6 21 91 22 3 23 2 24 1 25 18 26
REMARK SMILES IDX 19 27 20 28 21 29 22 30 23 31 87 32 24 33 86 34 25 35 26 36
REMARK SMILES IDX 27 37 80 38 28 39 85 40 79 41 81 42 29 43 84 44 78 45 77 46
REMARK SMILES IDX 30 48 64 49 43 50 63 51 44 52 47 53 62 54 82 55 45 56 46 57
REMARK SMILES IDX 61 59 83 60 48 61 31 62 32 63 41 64 33 65 34 66 40 67 42 68
REMARK SMILES IDX 35 69 36 70 37 71 38 72 39 73 65 74 66 75 75 76 67 77 68 78
REMARK SMILES IDX 74 79 76 80 69 81 70 82 71 83 72 84 73 85 49 86 50 87 59 88
REMARK SMILES IDX 51 89 52 90 58 91 60 92 53 93 54 94 55 95 56 96 57 97
REMARK H PARENT 8 13 11 15 4 20 81 47 47 58
REMARK Flexibility Score: inf
ROOT
ATOM      1  C   UNL A   1      32.476  29.534  25.523  1.00  0.00     0.274 C 
ENDROOT
BRANCH   1   2
ATOM      2  O   UNL A   1      31.153  29.381  24.968  1.00  0.00    -0.462 OA
BRANCH   2   3
ATOM      3  C   UNL A   1      31.013  28.357  24.094  1.00  0.00     0.308 C 
ATOM      4  O   UNL A   1      30.011  28.161  23.412  1.00  0.00    -0.252 OA
BRANCH   3   5
ATOM      5  C   UNL A   1      32.181  27.418  24.030  1.00  0.00     0.151 C 
BRANCH   5   6
ATOM      6  C   UNL A   1      32.130  26.014  24.671  1.00  0.00     0.052 C 
ATOM      7  C   UNL A   1      33.434  25.898  25.504  1.00  0.00     0.029 C 
ATOM      8  C   UNL A   1      32.647  24.905  23.731  1.00  0.00     0.029 C 
ATOM      9  C   UNL A   1      34.051  25.073  24.352  1.00  0.00     0.005 C 
BRANCH   6  10
ATOM     10  N   UNL A   1      30.842  25.758  25.369  1.00  0.00    -0.332 N 
ATOM     11  N   UNL A   1      30.845  23.832  26.807  1.00  0.00    -0.335 N 
ATOM     12  C   UNL A   1      30.313  24.950  26.308  1.00  0.00     0.315 C 
ATOM     13  H   UNL A   1      30.324  23.464  27.557  1.00  0.00     0.165 HD
ATOM     14  O   UNL A   1      29.203  25.250  26.762  1.00  0.00    -0.249 OA
ATOM     15  H   UNL A   1      30.154  26.379  25.038  1.00  0.00     0.165 HD
BRANCH  11  16
ATOM     16  C   UNL A   1      32.005  23.043  26.497  1.00  0.00     0.095 C 
ATOM     17  N   UNL A   1      34.086  21.046  26.209  1.00  0.00    -0.335 N 
ATOM     18  C   UNL A   1      34.102  22.047  27.300  1.00  0.00     0.264 C 
ATOM     19  C   UNL A   1      33.090  21.294  25.152  1.00  0.00     0.264 C 
ATOM     20  H   UNL A   1      33.785  20.153  26.600  1.00  0.00     0.348 HD
ATOM     21  C   UNL A   1      32.736  22.564  27.739  1.00  0.00     0.086 C 
ATOM     22  C   UNL A   1      31.734  21.831  25.625  1.00  0.00     0.086 C 
BRANCH  17  23
ATOM     23  C   UNL A   1      35.464  20.960  25.669  1.00  0.00     0.261 C 
BRANCH  23  24
ATOM     24  C   UNL A   1      35.812  21.814  24.444  1.00  0.00     0.058 C 
ATOM     25  C   UNL A   1      37.299  21.955  24.152  1.00  0.00     0.010 C 
ENDBRANCH  23  24
ENDBRANCH  17  23
ENDBRANCH  11  16
ENDBRANCH   6  10
ENDBRANCH   5   6
ENDBRANCH   3   5
ENDBRANCH   2   3
ENDBRANCH   1   2
BRANCH   1  26
ATOM     26  C   UNL A   1      32.521  29.293  27.038  1.00  0.00     0.275 C 
BRANCH  26  27
ATOM     27  O   UNL A   1      33.856  29.081  27.537  1.00  0.00    -0.458 OA
BRANCH  27  28
ATOM     28  C   UNL A   1      34.452  30.212  27.984  1.00  0.00     0.338 C 
ATOM     29  O   UNL A   1      33.894  31.261  28.254  1.00  0.00    -0.246 OA
BRANCH  28  30
ATOM     30  C   UNL A   1      35.866  29.979  28.301  1.00  0.00     0.060 A 
ATOM     31  C   UNL A   1      36.778  30.070  27.251  1.00  0.00     0.016 A 
ATOM     32  C   UNL A   1      36.279  29.548  29.559  1.00  0.00     0.016 A 
ATOM     33  C   UNL A   1      38.109  29.725  27.439  1.00  0.00     0.010 A 
ATOM     34  C   UNL A   1      37.629  29.236  29.761  1.00  0.00     0.010 A 
ATOM     35  C   UNL A   1      38.551  29.322  28.703  1.00  0.00    -0.014 A 
BRANCH  35  36
ATOM     36  C   UNL A   1      39.986  29.010  28.899  1.00  0.00     0.031 A 
ATOM     37  C   UNL A   1      40.924  30.053  29.431  1.00  0.00     0.074 A 
ATOM     38  C   UNL A   1      40.433  27.770  28.618  1.00  0.00     0.049 A 
ATOM     39  N   UNL A   1      42.227  30.009  29.538  1.00  0.00    -0.248 NA
ATOM     40  C   UNL A   1      40.321  31.308  29.903  1.00  0.00     0.031 C 
ATOM     41  C   UNL A   1      39.600  26.658  28.154  1.00  0.00     0.029 A 
ATOM     42  N   UNL A   1      41.694  27.235  28.685  1.00  0.00    -0.354 N 
ATOM     43  C   UNL A   1      42.606  31.243  30.050  1.00  0.00     0.074 A 
ATOM     44  C   UNL A   1      41.394  32.012  30.240  1.00  0.00     0.031 C 
ATOM     45  C   UNL A   1      40.370  25.571  27.988  1.00  0.00     0.029 A 
ATOM     46  C   UNL A   1      41.756  25.928  28.268  1.00  0.00     0.049 A 
ATOM     47  H   UNL A   1      42.477  27.740  29.002  1.00  0.00     0.167 HD
ATOM     48  C   UNL A   1      43.854  31.689  30.328  1.00  0.00     0.037 A 
ATOM     49  C   UNL A   1      42.817  25.119  28.088  1.00  0.00     0.037 A 
ATOM     50  C   UNL A   1      45.048  30.901  30.164  1.00  0.00     0.049 A 
ATOM     51  C   UNL A   1      44.194  25.651  28.359  1.00  0.00     0.074 A 
ATOM     52  C   UNL A   1      46.360  31.259  30.423  1.00  0.00     0.029 A 
ATOM     53  N   UNL A   1      45.075  29.592  29.702  1.00  0.00    -0.354 N 
ATOM     54  N   UNL A   1      44.544  26.837  28.795  1.00  0.00    -0.248 NA
ATOM     55  C   UNL A   1      45.320  24.748  28.091  1.00  0.00     0.031 C 
ATOM     56  C   UNL A   1      47.182  30.175  30.093  1.00  0.00     0.029 A 
ATOM     57  C   UNL A   1      46.381  29.132  29.656  1.00  0.00     0.049 A 
ATOM     58  H   UNL A   1      44.282  29.068  29.447  1.00  0.00     0.167 HD
ATOM     59  C   UNL A   1      45.931  26.824  28.854  1.00  0.00     0.074 A 
ATOM     60  C   UNL A   1      46.356  25.505  28.427  1.00  0.00     0.031 C 
ATOM     61  C   UNL A   1      46.778  27.818  29.220  1.00  0.00     0.037 A 
BRANCH  48  62
ATOM     62  C   UNL A   1      43.993  33.108  30.800  1.00  0.00     0.058 A 
ATOM     63  C   UNL A   1      43.945  33.445  32.160  1.00  0.00     0.135 A 
ATOM     64  C   UNL A   1      44.202  34.142  29.873  1.00  0.00     0.135 A 
ATOM     65  F   UNL A   1      43.731  32.495  33.085  1.00  0.00    -0.206 F 
ATOM     66  C   UNL A   1      44.078  34.763  32.586  1.00  0.00     0.059 A 
ATOM     67  C   UNL A   1      44.356  35.465  30.277  1.00  0.00     0.059 A 
ATOM     68  F   UNL A   1      44.255  33.872  28.560  1.00  0.00    -0.206 F 
ATOM     69  C   UNL A   1      44.279  35.768  31.636  1.00  0.00     0.060 A 
BRANCH  69  70
ATOM     70  S   UNL A   1      44.450  37.476  32.197  1.00  0.00     0.124 S 
ATOM     71  O   UNL A   1      45.898  37.589  32.347  1.00  0.00    -0.237 OA
ATOM     72  O   UNL A   1      43.868  38.232  31.092  1.00  0.00    -0.237 OA
ATOM     73  O   UNL A   1      43.685  37.502  33.439  1.00  0.00    -0.744 OA
ENDBRANCH  69  70
ENDBRANCH  48  62
BRANCH  49  74
ATOM     74  C   UNL A   1      42.611  23.738  27.579  1.00  0.00     0.058 A 
ATOM     75  C   UNL A   1      42.634  23.464  26.206  1.00  0.00     0.135 A 
ATOM     76  C   UNL A   1      42.424  22.662  28.462  1.00  0.00     0.135 A 
ATOM     77  F   UNL A   1      42.801  24.461  25.324  1.00  0.00    -0.206 F 
ATOM     78  C   UNL A   1      42.478  22.169  25.722  1.00  0.00     0.059 A 
ATOM     79  C   UNL A   1      42.288  21.357  28.004  1.00  0.00     0.059 A 
ATOM     80  F   UNL A   1      42.407  22.875  29.787  1.00  0.00    -0.206 F 
ATOM     81  C   UNL A   1      42.310  21.121  26.629  1.00  0.00     0.060 A 
BRANCH  81  82
ATOM     82  S   UNL A   1      42.179  19.433  26.001  1.00  0.00     0.124 S 
ATOM     83  O   UNL A   1      42.680  18.660  27.131  1.00  0.00    -0.237 OA
ATOM     84  O   UNL A   1      40.750  19.311  25.728  1.00  0.00    -0.237 OA
ATOM     85  O   UNL A   1      43.033  19.451  24.818  1.00  0.00    -0.744 OA
ENDBRANCH  81  82
ENDBRANCH  49  74
BRANCH  61  86
ATOM     86  C   UNL A   1      48.246  27.509  29.179  1.00  0.00     0.058 A 
ATOM     87  C   UNL A   1      49.018  27.795  28.045  1.00  0.00     0.135 A 
ATOM     88  C   UNL A   1      48.892  26.959  30.297  1.00  0.00     0.135 A 
ATOM     89  F   UNL A   1      48.442  28.312  26.947  1.00  0.00    -0.206 F 
ATOM     90  C   UNL A   1      50.384  27.535  28.013  1.00  0.00     0.059 A 
ATOM     91  C   UNL A   1      50.259  26.707  30.294  1.00  0.00     0.059 A 
ATOM     92  F   UNL A   1      48.194  26.672  31.408  1.00  0.00    -0.206 F 
ATOM     93  C   UNL A   1      50.996  26.989  29.144  1.00  0.00     0.060 A 
BRANCH  93  94
ATOM     94  S   UNL A   1      52.776  26.687  29.109  1.00  0.00     0.124 S 
ATOM     95  O   UNL A   1      52.969  25.933  30.344  1.00  0.00    -0.237 OA
ATOM     96  O   UNL A   1      52.945  25.931  27.872  1.00  0.00    -0.237 OA
ATOM     97  O   UNL A   1      53.346  28.031  29.098  1.00  0.00    -0.744 OA
ENDBRANCH  93  94
ENDBRANCH  61  86
ENDBRANCH  35  36
ENDBRANCH  28  30
ENDBRANCH  27  28
ENDBRANCH  26  27
ENDBRANCH   1  26
TORSDOF 19
ENDMDL
MODEL 3
REMARK VINA RESULT:     -10.5      4.263     10.066
REMARK SMILES CCC[NH+]1CCC(NC(=O)NC2(CC(=O)OCCOC(=O)c3ccc(-c4c5nc(c(-c6c(F)cc(S(=O)(=O)[O-])cc6F)c6ccc([nH]6)c(-c6c(F)cc(S(=O)(=O)[O-])cc6F)c6nc(c(-c7c(F)cc(S(=O)(=O)[O-])cc7F)c7ccc4[nH]7)C=C6)C=C5)cc3)CCC2)CC1
REMARK SMILES IDX 17 1 16 2 14 3 15 4 13 5 12 6 88 7 90 8 89 9 11 10 8 11 9 12
REMARK SMILES IDX 10 14 7 16 4 17 5 18 92 19 6 21 91 22 3 23 2 24 1 25 18 26
REMARK SMILES IDX 19 27 20 28 21 29 22 30 23 31 87 32 24 33 86 34 25 35 26 36
REMARK SMILES IDX 27 37 80 38 28 39 85 40 79 41 81 42 29 43 84 44 78 45 77 46
REMARK SMILES IDX 30 48 64 49 43 50 63 51 44 52 47 53 62 54 82 55 45 56 46 57
REMARK SMILES IDX 61 59 83 60 48 61 31 62 32 63 41 64 33 65 34 66 40 67 42 68
REMARK SMILES IDX 35 69 36 70 37 71 38 72 39 73 65 74 66 75 75 76 67 77 68 78
REMARK SMILES IDX 74 79 76 80 69 81 70 82 71 83 72 84 73 85 49 86 50 87 59 88
REMARK SMILES IDX 51 89 52 90 58 91 60 92 53 93 54 94 55 95 56 96 57 97
REMARK H PARENT 8 13 11 15 4 20 81 47 47 58
REMARK Flexibility Score: inf
ROOT
ATOM      1  C   UNL A   1      33.174  29.336  25.511  1.00  0.00     0.274 C 
ENDROOT
BRANCH   1   2
ATOM      2  O   UNL A   1      31.846  29.294  24.948  1.00  0.00    -0.462 OA
BRANCH   2   3
ATOM      3  C   UNL A   1      31.602  28.241  24.134  1.00  0.00     0.308 C 
ATOM      4  O   UNL A   1      30.550  28.064  23.527  1.00  0.00    -0.252 OA
BRANCH   3   5
ATOM      5  C   UNL A   1      32.719  27.243  24.039  1.00  0.00     0.151 C 
BRANCH   5   6
ATOM      6  C   UNL A   1      32.593  25.825  24.636  1.00  0.00     0.052 C 
ATOM      7  C   UNL A   1      33.881  25.620  25.477  1.00  0.00     0.029 C 
ATOM      8  C   UNL A   1      33.065  24.721  23.666  1.00  0.00     0.029 C 
ATOM      9  C   UNL A   1      34.469  24.801  24.304  1.00  0.00     0.005 C 
BRANCH   6  10
ATOM     10  N   UNL A   1      31.287  25.610  25.314  1.00  0.00    -0.332 N 
ATOM     11  N   UNL A   1      31.120  23.554  26.545  1.00  0.00    -0.335 N 
ATOM     12  C   UNL A   1      30.689  24.758  26.169  1.00  0.00     0.315 C 
ATOM     13  H   UNL A   1      30.568  23.156  27.258  1.00  0.00     0.165 HD
ATOM     14  O   UNL A   1      29.609  25.105  26.660  1.00  0.00    -0.249 OA
ATOM     15  H   UNL A   1      30.656  26.320  25.054  1.00  0.00     0.165 HD
BRANCH  11  16
ATOM     16  C   UNL A   1      32.208  22.703  26.147  1.00  0.00     0.095 C 
ATOM     17  N   UNL A   1      34.165  20.607  25.725  1.00  0.00    -0.335 N 
ATOM     18  C   UNL A   1      34.342  21.652  26.760  1.00  0.00     0.264 C 
ATOM     19  C   UNL A   1      33.068  20.854  24.774  1.00  0.00     0.264 C 
ATOM     20  H   UNL A   1      33.877  19.746  26.188  1.00  0.00     0.348 HD
ATOM     21  C   UNL A   1      33.054  22.245  27.321  1.00  0.00     0.086 C 
ATOM     22  C   UNL A   1      31.795  21.468  25.368  1.00  0.00     0.086 C 
BRANCH  17  23
ATOM     23  C   UNL A   1      35.470  20.440  25.042  1.00  0.00     0.261 C 
BRANCH  23  24
ATOM     24  C   UNL A   1      36.562  21.484  25.308  1.00  0.00     0.058 C 
ATOM     25  C   UNL A   1      37.009  22.281  24.090  1.00  0.00     0.010 C 
ENDBRANCH  23  24
ENDBRANCH  17  23
ENDBRANCH  11  16
ENDBRANCH   6  10
ENDBRANCH   5   6
ENDBRANCH   3   5
ENDBRANCH   2   3
ENDBRANCH   1   2
BRANCH   1  26
ATOM     26  C   UNL A   1      33.183  29.710  26.999  1.00  0.00     0.275 C 
BRANCH  26  27
ATOM     27  O   UNL A   1      34.373  29.275  27.685  1.00  0.00    -0.458 OA
BRANCH  27  28
ATOM     28  C   UNL A   1      34.977  30.257  28.394  1.00  0.00     0.338 C 
ATOM     29  O   UNL A   1      34.420  31.167  28.983  1.00  0.00    -0.246 OA
BRANCH  28  30
ATOM     30  C   UNL A   1      36.414  29.999  28.544  1.00  0.00     0.060 A 
ATOM     31  C   UNL A   1      37.199  30.078  27.395  1.00  0.00     0.016 A 
ATOM     32  C   UNL A   1      36.964  29.556  29.744  1.00  0.00     0.016 A 
ATOM     33  C   UNL A   1      38.536  29.709  27.425  1.00  0.00     0.010 A 
ATOM     34  C   UNL A   1      38.323  29.220  29.786  1.00  0.00     0.010 A 
ATOM     35  C   UNL A   1      39.116  29.294  28.627  1.00  0.00    -0.014 A 
BRANCH  35  36
ATOM     36  C   UNL A   1      40.558  28.957  28.654  1.00  0.00     0.031 A 
ATOM     37  C   UNL A   1      41.575  30.000  29.012  1.00  0.00     0.074 A 
ATOM     38  C   UNL A   1      40.942  27.695  28.379  1.00  0.00     0.049 A 
ATOM     39  N   UNL A   1      42.880  29.929  28.954  1.00  0.00    -0.248 NA
ATOM     40  C   UNL A   1      41.061  31.289  29.496  1.00  0.00     0.031 C 
ATOM     41  C   UNL A   1      40.037  26.583  28.078  1.00  0.00     0.029 A 
ATOM     42  N   UNL A   1      42.192  27.133  28.310  1.00  0.00    -0.354 N 
ATOM     43  C   UNL A   1      43.344  31.175  29.354  1.00  0.00     0.074 A 
ATOM     44  C   UNL A   1      42.181  31.981  29.659  1.00  0.00     0.031 C 
ATOM     45  C   UNL A   1      40.760  25.472  27.867  1.00  0.00     0.029 A 
ATOM     46  C   UNL A   1      42.176  25.807  27.951  1.00  0.00     0.049 A 
ATOM     47  H   UNL A   1      43.018  27.633  28.499  1.00  0.00     0.167 HD
ATOM     48  C   UNL A   1      44.625  31.603  29.449  1.00  0.00     0.037 A 
ATOM     49  C   UNL A   1      43.190  24.965  27.677  1.00  0.00     0.037 A 
ATOM     50  C   UNL A   1      45.775  30.780  29.172  1.00  0.00     0.049 A 
ATOM     51  C   UNL A   1      44.600  25.476  27.745  1.00  0.00     0.074 A 
ATOM     52  C   UNL A   1      47.115  31.117  29.245  1.00  0.00     0.029 A 
ATOM     53  N   UNL A   1      45.718  29.451  28.774  1.00  0.00    -0.354 N 
ATOM     54  N   UNL A   1      45.025  26.672  28.075  1.00  0.00    -0.248 NA
ATOM     55  C   UNL A   1      45.666  24.534  27.379  1.00  0.00     0.031 C 
ATOM     56  C   UNL A   1      47.868  30.000  28.865  1.00  0.00     0.029 A 
ATOM     57  C   UNL A   1      46.998  28.958  28.584  1.00  0.00     0.049 A 
ATOM     58  H   UNL A   1      44.889  28.935  28.647  1.00  0.00     0.167 HD
ATOM     59  C   UNL A   1      46.408  26.628  27.957  1.00  0.00     0.074 A 
ATOM     60  C   UNL A   1      46.750  25.281  27.544  1.00  0.00     0.031 C 
ATOM     61  C   UNL A   1      47.313  27.616  28.165  1.00  0.00     0.037 A 
BRANCH  48  62
ATOM     62  C   UNL A   1      44.850  33.038  29.831  1.00  0.00     0.058 A 
ATOM     63  C   UNL A   1      45.058  33.427  31.162  1.00  0.00     0.135 A 
ATOM     64  C   UNL A   1      44.881  34.035  28.842  1.00  0.00     0.135 A 
ATOM     65  F   UNL A   1      45.022  32.516  32.147  1.00  0.00    -0.206 F 
ATOM     66  C   UNL A   1      45.268  34.760  31.504  1.00  0.00     0.059 A 
ATOM     67  C   UNL A   1      45.108  35.371  29.158  1.00  0.00     0.059 A 
ATOM     68  F   UNL A   1      44.686  33.714  27.553  1.00  0.00    -0.206 F 
ATOM     69  C   UNL A   1      45.286  35.726  30.495  1.00  0.00     0.060 A 
BRANCH  69  70
ATOM     70  S   UNL A   1      45.559  37.453  30.946  1.00  0.00     0.124 S 
ATOM     71  O   UNL A   1      45.739  37.351  32.391  1.00  0.00    -0.237 OA
ATOM     72  O   UNL A   1      46.755  37.795  30.182  1.00  0.00    -0.237 OA
ATOM     73  O   UNL A   1      44.333  38.115  30.510  1.00  0.00    -0.744 OA
ENDBRANCH  69  70
ENDBRANCH  48  62
BRANCH  49  74
ATOM     74  C   UNL A   1      42.896  23.569  27.265  1.00  0.00     0.058 A 
ATOM     75  C   UNL A   1      42.931  23.191  25.917  1.00  0.00     0.135 A 
ATOM     76  C   UNL A   1      42.609  22.579  28.219  1.00  0.00     0.135 A 
ATOM     77  F   UNL A   1      43.192  24.104  24.970  1.00  0.00    -0.206 F 
ATOM     78  C   UNL A   1      42.692  21.878  25.525  1.00  0.00     0.059 A 
ATOM     79  C   UNL A   1      42.388  21.255  27.854  1.00  0.00     0.059 A 
ATOM     80  F   UNL A   1      42.576  22.891  29.523  1.00  0.00    -0.206 F 
ATOM     81  C   UNL A   1      42.426  20.916  26.501  1.00  0.00     0.060 A 
BRANCH  81  82
ATOM     82  S   UNL A   1      42.186  19.199  25.996  1.00  0.00     0.124 S 
ATOM     83  O   UNL A   1      43.035  19.119  24.813  1.00  0.00    -0.237 OA
ATOM     84  O   UNL A   1      42.651  18.460  27.167  1.00  0.00    -0.237 OA
ATOM     85  O   UNL A   1      40.749  19.122  25.750  1.00  0.00    -0.744 OA
ENDBRANCH  81  82
ENDBRANCH  49  74
BRANCH  61  86
ATOM     86  C   UNL A   1      48.757  27.270  27.952  1.00  0.00     0.058 A 
ATOM     87  C   UNL A   1      49.498  26.605  28.940  1.00  0.00     0.135 A 
ATOM     88  C   UNL A   1      49.393  27.569  26.738  1.00  0.00     0.135 A 
ATOM     89  F   UNL A   1      48.935  26.307  30.122  1.00  0.00    -0.206 F 
ATOM     90  C   UNL A   1      50.830  26.260  28.736  1.00  0.00     0.059 A 
ATOM     91  C   UNL A   1      50.718  27.218  26.506  1.00  0.00     0.059 A 
ATOM     92  F   UNL A   1      48.722  28.202  25.762  1.00  0.00    -0.206 F 
ATOM     93  C   UNL A   1      51.432  26.571  27.515  1.00  0.00     0.060 A 
BRANCH  93  94
ATOM     94  S   UNL A   1      53.150  26.087  27.244  1.00  0.00     0.124 S 
ATOM     95  O   UNL A   1      52.989  24.836  26.508  1.00  0.00    -0.237 OA
ATOM     96  O   UNL A   1      53.679  27.210  26.476  1.00  0.00    -0.237 OA
ATOM     97  O   UNL A   1      53.681  25.956  28.597  1.00  0.00    -0.744 OA
ENDBRANCH  93  94
ENDBRANCH  61  86
ENDBRANCH  35  36
ENDBRANCH  28  30
ENDBRANCH  27  28
ENDBRANCH  26  27
ENDBRANCH   1  26
TORSDOF 19
ENDMDL
