MODEL 1
REMARK VINA RESULT:     -11.2      0.000      0.000
REMARK SMILES CCC[C@H](C)NC(=O)C[NH+]1CC(n2cc(C(=O)OCCOC(=O)c3ccc(-c4c5nc(c(-c6c(F)cc(S(=O)(=O)[O-])cc6F)c6ccc([nH]6)c(-c6c(F)cc(S(=O)(=O)[O-])cc6F)c6nc(c(-c7c(F)cc(S(=O)(=O)[O-])cc7F)c7ccc4[nH]7)C=C6)C=C5)cc3)nn2)C1
REMARK SMILES IDX 18 1 16 2 17 3 15 4 13 5 14 6 91 7 90 8 12 9 10 10 11 11
REMARK SMILES IDX 92 12 9 14 7 15 6 16 8 18 4 19 5 20 3 21 2 22 1 23 19 24
REMARK SMILES IDX 20 25 21 26 22 27 23 28 24 29 25 30 89 31 26 32 88 33 27 34
REMARK SMILES IDX 28 35 29 36 82 37 30 38 87 39 81 40 83 41 31 42 86 43 80 44
REMARK SMILES IDX 79 45 32 47 66 48 45 49 65 50 46 51 49 52 64 53 84 54 47 55
REMARK SMILES IDX 48 56 63 58 85 59 50 60 33 61 34 62 43 63 35 64 36 65 42 66
REMARK SMILES IDX 44 67 37 68 38 69 39 70 40 71 41 72 67 73 68 74 77 75 69 76
REMARK SMILES IDX 70 77 76 78 78 79 71 80 72 81 73 82 74 83 75 84 51 85 52 86
REMARK SMILES IDX 61 87 53 88 54 89 60 90 62 91 55 92 56 93 57 94 58 95 59 96
REMARK H PARENT 10 13 6 17 83 46 49 57
REMARK Flexibility Score: inf
ROOT
ATOM      1  O   UNL A   1      42.121  19.271  25.365  1.00  0.00    -0.457 OA
ENDROOT
BRANCH   1   2
ATOM      2  C   UNL A   1      41.434  19.856  26.399  1.00  0.00     0.360 C 
ATOM      3  O   UNL A   1      41.898  20.016  27.526  1.00  0.00    -0.244 OA
BRANCH   2   4
ATOM      4  C   UNL A   1      40.108  20.297  26.004  1.00  0.00     0.190 A 
ATOM      5  N   UNL A   1      38.329  21.458  25.578  1.00  0.00    -0.237 N 
ATOM      6  C   UNL A   1      39.533  21.533  26.217  1.00  0.00     0.147 A 
ATOM      7  N   UNL A   1      38.131  20.241  25.050  1.00  0.00    -0.066 NA
ATOM      8  N   UNL A   1      39.202  19.506  25.335  1.00  0.00    -0.123 NA
BRANCH   5   9
ATOM      9  C   UNL A   1      37.617  22.638  25.218  1.00  0.00     0.218 C 
ATOM     10  N   UNL A   1      35.828  23.342  24.411  1.00  0.00    -0.323 N 
ATOM     11  C   UNL A   1      36.221  22.915  25.814  1.00  0.00     0.296 C 
ATOM     12  C   UNL A   1      36.796  22.311  23.950  1.00  0.00     0.296 C 
ATOM     13  H   UNL A   1      35.861  24.307  24.083  1.00  0.00     0.348 HD
BRANCH  10  14
ATOM     14  C   UNL A   1      34.424  22.998  24.109  1.00  0.00     0.363 C 
BRANCH  14  15
ATOM     15  C   UNL A   1      33.737  23.867  23.044  1.00  0.00     0.275 C 
ATOM     16  N   UNL A   1      32.938  24.925  23.368  1.00  0.00    -0.349 N 
ATOM     17  H   UNL A   1      32.497  25.361  22.604  1.00  0.00     0.163 HD
ATOM     18  O   UNL A   1      33.854  23.597  21.844  1.00  0.00    -0.268 OA
BRANCH  16  19
ATOM     19  C   UNL A   1      32.635  25.516  24.672  1.00  0.00     0.079 C 
ATOM     20  C   UNL A   1      33.893  26.219  25.208  1.00  0.00     0.031 C 
BRANCH  19  21
ATOM     21  C   UNL A   1      31.454  26.491  24.534  1.00  0.00     0.024 C 
BRANCH  21  22
ATOM     22  C   UNL A   1      30.085  25.877  24.837  1.00  0.00    -0.001 C 
ATOM     23  C   UNL A   1      28.934  26.396  23.990  1.00  0.00     0.004 C 
ENDBRANCH  21  22
ENDBRANCH  19  21
ENDBRANCH  16  19
ENDBRANCH  14  15
ENDBRANCH  10  14
ENDBRANCH   5   9
ENDBRANCH   2   4
ENDBRANCH   1   2
BRANCH   1  24
ATOM     24  C   UNL A   1      43.394  18.696  25.701  1.00  0.00     0.275 C 
BRANCH  24  25
ATOM     25  C   UNL A   1      44.460  19.131  24.706  1.00  0.00     0.275 C 
BRANCH  25  26
ATOM     26  O   UNL A   1      44.116  20.383  24.118  1.00  0.00    -0.458 OA
BRANCH  26  27
ATOM     27  C   UNL A   1      44.902  21.424  24.478  1.00  0.00     0.338 C 
ATOM     28  O   UNL A   1      46.098  21.542  24.274  1.00  0.00    -0.246 OA
BRANCH  27  29
ATOM     29  C   UNL A   1      44.144  22.295  25.380  1.00  0.00     0.060 A 
ATOM     30  C   UNL A   1      43.338  23.274  24.792  1.00  0.00     0.016 A 
ATOM     31  C   UNL A   1      44.508  22.341  26.733  1.00  0.00     0.016 A 
ATOM     32  C   UNL A   1      43.071  24.416  25.514  1.00  0.00     0.010 A 
ATOM     33  C   UNL A   1      44.267  23.490  27.439  1.00  0.00     0.010 A 
ATOM     34  C   UNL A   1      43.623  24.541  26.792  1.00  0.00    -0.014 A 
BRANCH  34  35
ATOM     35  C   UNL A   1      43.436  25.782  27.507  1.00  0.00     0.031 A 
ATOM     36  C   UNL A   1      44.486  26.779  27.197  1.00  0.00     0.074 A 
ATOM     37  C   UNL A   1      42.324  26.023  28.226  1.00  0.00     0.049 A 
ATOM     38  N   UNL A   1      45.402  27.238  27.981  1.00  0.00    -0.248 NA
ATOM     39  C   UNL A   1      44.657  27.160  25.783  1.00  0.00     0.031 C 
ATOM     40  C   UNL A   1      41.109  25.210  28.324  1.00  0.00     0.029 A 
ATOM     41  N   UNL A   1      42.005  27.127  28.945  1.00  0.00    -0.354 N 
ATOM     42  C   UNL A   1      46.111  28.155  27.212  1.00  0.00     0.074 A 
ATOM     43  C   UNL A   1      45.771  27.888  25.841  1.00  0.00     0.031 C 
ATOM     44  C   UNL A   1      40.116  25.957  28.860  1.00  0.00     0.029 A 
ATOM     45  C   UNL A   1      40.656  27.247  29.253  1.00  0.00     0.049 A 
ATOM     46  H   UNL A   1      42.676  27.791  29.227  1.00  0.00     0.167 HD
ATOM     47  C   UNL A   1      46.690  29.248  27.777  1.00  0.00     0.037 A 
ATOM     48  C   UNL A   1      40.044  28.377  29.697  1.00  0.00     0.037 A 
ATOM     49  C   UNL A   1      46.855  29.076  29.199  1.00  0.00     0.049 A 
ATOM     50  C   UNL A   1      41.117  29.257  30.245  1.00  0.00     0.074 A 
ATOM     51  C   UNL A   1      47.508  28.149  29.987  1.00  0.00     0.029 A 
ATOM     52  N   UNL A   1      45.961  29.709  30.031  1.00  0.00    -0.354 N 
ATOM     53  N   UNL A   1      41.834  28.957  31.298  1.00  0.00    -0.248 NA
ATOM     54  C   UNL A   1      41.725  30.221  29.337  1.00  0.00     0.031 C 
ATOM     55  C   UNL A   1      46.643  27.933  31.099  1.00  0.00     0.029 A 
ATOM     56  C   UNL A   1      45.547  28.788  30.962  1.00  0.00     0.049 A 
ATOM     57  H   UNL A   1      45.670  30.647  29.970  1.00  0.00     0.167 HD
ATOM     58  C   UNL A   1      43.125  29.361  30.984  1.00  0.00     0.074 A 
ATOM     59  C   UNL A   1      42.983  30.187  29.786  1.00  0.00     0.031 C 
ATOM     60  C   UNL A   1      44.220  28.760  31.540  1.00  0.00     0.037 A 
BRANCH  47  61
ATOM     61  C   UNL A   1      46.742  30.597  27.102  1.00  0.00     0.058 A 
ATOM     62  C   UNL A   1      47.967  31.288  27.042  1.00  0.00     0.135 A 
ATOM     63  C   UNL A   1      45.598  31.357  26.758  1.00  0.00     0.135 A 
ATOM     64  F   UNL A   1      49.116  30.671  27.360  1.00  0.00    -0.206 F 
ATOM     65  C   UNL A   1      48.041  32.648  26.734  1.00  0.00     0.059 A 
ATOM     66  C   UNL A   1      45.656  32.693  26.389  1.00  0.00     0.059 A 
ATOM     67  F   UNL A   1      44.353  30.877  26.859  1.00  0.00    -0.206 F 
ATOM     68  C   UNL A   1      46.876  33.343  26.423  1.00  0.00     0.060 A 
BRANCH  68  69
ATOM     69  S   UNL A   1      46.949  35.117  26.136  1.00  0.00     0.124 S 
ATOM     70  O   UNL A   1      48.167  35.231  25.342  1.00  0.00    -0.237 OA
ATOM     71  O   UNL A   1      45.696  35.359  25.428  1.00  0.00    -0.237 OA
ATOM     72  O   UNL A   1      47.019  35.673  27.484  1.00  0.00    -0.744 OA
ENDBRANCH  68  69
ENDBRANCH  47  61
BRANCH  48  73
ATOM     73  C   UNL A   1      38.707  28.889  29.280  1.00  0.00     0.058 A 
ATOM     74  C   UNL A   1      37.669  29.078  30.212  1.00  0.00     0.135 A 
ATOM     75  C   UNL A   1      38.498  29.457  28.006  1.00  0.00     0.135 A 
ATOM     76  F   UNL A   1      37.790  28.599  31.460  1.00  0.00    -0.206 F 
ATOM     77  C   UNL A   1      36.514  29.812  29.909  1.00  0.00     0.059 A 
ATOM     78  C   UNL A   1      37.352  30.181  27.677  1.00  0.00     0.059 A 
ATOM     79  F   UNL A   1      39.443  29.404  27.056  1.00  0.00    -0.206 F 
ATOM     80  C   UNL A   1      36.372  30.376  28.641  1.00  0.00     0.060 A 
BRANCH  80  81
ATOM     81  S   UNL A   1      34.962  31.453  28.286  1.00  0.00     0.124 S 
ATOM     82  O   UNL A   1      35.566  32.467  27.428  1.00  0.00    -0.237 OA
ATOM     83  O   UNL A   1      34.031  30.538  27.635  1.00  0.00    -0.237 OA
ATOM     84  O   UNL A   1      34.551  31.920  29.608  1.00  0.00    -0.744 OA
ENDBRANCH  80  81
ENDBRANCH  48  73
BRANCH  60  85
ATOM     85  C   UNL A   1      44.015  27.811  32.696  1.00  0.00     0.058 A 
ATOM     86  C   UNL A   1      43.777  28.214  34.023  1.00  0.00     0.135 A 
ATOM     87  C   UNL A   1      43.865  26.445  32.410  1.00  0.00     0.135 A 
ATOM     88  F   UNL A   1      43.799  29.510  34.362  1.00  0.00    -0.206 F 
ATOM     89  C   UNL A   1      43.432  27.300  35.022  1.00  0.00     0.059 A 
ATOM     90  C   UNL A   1      43.492  25.520  33.383  1.00  0.00     0.059 A 
ATOM     91  F   UNL A   1      44.017  26.002  31.151  1.00  0.00    -0.206 F 
ATOM     92  C   UNL A   1      43.285  25.954  34.690  1.00  0.00     0.060 A 
BRANCH  92  93
ATOM     93  S   UNL A   1      42.743  24.788  35.960  1.00  0.00     0.124 S 
ATOM     94  O   UNL A   1      42.451  23.593  35.175  1.00  0.00    -0.237 OA
ATOM     95  O   UNL A   1      43.910  24.703  36.834  1.00  0.00    -0.237 OA
ATOM     96  O   UNL A   1      41.579  25.444  36.553  1.00  0.00    -0.744 OA
ENDBRANCH  92  93
ENDBRANCH  60  85
ENDBRANCH  34  35
ENDBRANCH  27  29
ENDBRANCH  26  27
ENDBRANCH  25  26
ENDBRANCH  24  25
ENDBRANCH   1  24
TORSDOF 20
ENDMDL
MODEL 2
REMARK VINA RESULT:     -10.8      1.115      1.911
REMARK SMILES CCC[C@H](C)NC(=O)C[NH+]1CC(n2cc(C(=O)OCCOC(=O)c3ccc(-c4c5nc(c(-c6c(F)cc(S(=O)(=O)[O-])cc6F)c6ccc([nH]6)c(-c6c(F)cc(S(=O)(=O)[O-])cc6F)c6nc(c(-c7c(F)cc(S(=O)(=O)[O-])cc7F)c7ccc4[nH]7)C=C6)C=C5)cc3)nn2)C1
REMARK SMILES IDX 18 1 16 2 17 3 15 4 13 5 14 6 91 7 90 8 12 9 10 10 11 11
REMARK SMILES IDX 92 12 9 14 7 15 6 16 8 18 4 19 5 20 3 21 2 22 1 23 19 24
REMARK SMILES IDX 20 25 21 26 22 27 23 28 24 29 25 30 89 31 26 32 88 33 27 34
REMARK SMILES IDX 28 35 29 36 82 37 30 38 87 39 81 40 83 41 31 42 86 43 80 44
REMARK SMILES IDX 79 45 32 47 66 48 45 49 65 50 46 51 49 52 64 53 84 54 47 55
REMARK SMILES IDX 48 56 63 58 85 59 50 60 33 61 34 62 43 63 35 64 36 65 42 66
REMARK SMILES IDX 44 67 37 68 38 69 39 70 40 71 41 72 67 73 68 74 77 75 69 76
REMARK SMILES IDX 70 77 76 78 78 79 71 80 72 81 73 82 74 83 75 84 51 85 52 86
REMARK SMILES IDX 61 87 53 88 54 89 60 90 62 91 55 92 56 93 57 94 58 95 59 96
REMARK H PARENT 10 13 6 17 83 46 49 57
REMARK Flexibility Score: inf
ROOT
ATOM      1  O   UNL A   1      42.417  19.289  25.300  1.00  0.00    -0.457 OA
ENDROOT
BRANCH   1   2
ATOM      2  C   UNL A   1      41.870  19.731  26.478  1.00  0.00     0.360 C 
ATOM      3  O   UNL A   1      42.271  19.392  27.590  1.00  0.00    -0.244 OA
BRANCH   2   4
ATOM      4  C   UNL A   1      40.784  20.672  26.266  1.00  0.00     0.190 A 
ATOM      5  N   UNL A   1      38.887  21.607  25.794  1.00  0.00    -0.237 N 
ATOM      6  C   UNL A   1      39.570  20.433  25.654  1.00  0.00     0.147 A 
ATOM      7  N   UNL A   1      39.638  22.540  26.399  1.00  0.00    -0.066 NA
ATOM      8  N   UNL A   1      40.818  21.989  26.663  1.00  0.00    -0.123 NA
BRANCH   5   9
ATOM      9  C   UNL A   1      37.470  21.648  25.662  1.00  0.00     0.218 C 
ATOM     10  N   UNL A   1      35.873  22.836  25.040  1.00  0.00    -0.323 N 
ATOM     11  C   UNL A   1      36.826  21.925  24.288  1.00  0.00     0.296 C 
ATOM     12  C   UNL A   1      37.023  23.101  25.946  1.00  0.00     0.296 C 
ATOM     13  H   UNL A   1      34.962  22.539  25.388  1.00  0.00     0.348 HD
BRANCH  10  14
ATOM     14  C   UNL A   1      35.487  24.010  24.232  1.00  0.00     0.363 C 
BRANCH  14  15
ATOM     15  C   UNL A   1      34.169  24.692  24.629  1.00  0.00     0.275 C 
ATOM     16  N   UNL A   1      33.164  24.025  25.268  1.00  0.00    -0.349 N 
ATOM     17  H   UNL A   1      32.342  24.548  25.407  1.00  0.00     0.163 HD
ATOM     18  O   UNL A   1      33.961  25.874  24.335  1.00  0.00    -0.268 OA
BRANCH  16  19
ATOM     19  C   UNL A   1      33.116  22.655  25.781  1.00  0.00     0.079 C 
ATOM     20  C   UNL A   1      32.752  22.692  27.274  1.00  0.00     0.031 C 
BRANCH  19  21
ATOM     21  C   UNL A   1      32.100  21.836  24.968  1.00  0.00     0.024 C 
BRANCH  21  22
ATOM     22  C   UNL A   1      32.726  20.863  23.965  1.00  0.00    -0.001 C 
ATOM     23  C   UNL A   1      33.652  19.817  24.561  1.00  0.00     0.004 C 
ENDBRANCH  21  22
ENDBRANCH  19  21
ENDBRANCH  16  19
ENDBRANCH  14  15
ENDBRANCH  10  14
ENDBRANCH   5   9
ENDBRANCH   2   4
ENDBRANCH   1   2
BRANCH   1  24
ATOM     24  C   UNL A   1      43.708  18.665  25.400  1.00  0.00     0.275 C 
BRANCH  24  25
ATOM     25  C   UNL A   1      44.646  19.198  24.328  1.00  0.00     0.275 C 
BRANCH  25  26
ATOM     26  O   UNL A   1      44.256  20.507  23.923  1.00  0.00    -0.458 OA
BRANCH  26  27
ATOM     27  C   UNL A   1      45.054  21.508  24.362  1.00  0.00     0.338 C 
ATOM     28  O   UNL A   1      46.263  21.591  24.227  1.00  0.00    -0.246 OA
BRANCH  27  29
ATOM     29  C   UNL A   1      44.276  22.374  25.252  1.00  0.00     0.060 A 
ATOM     30  C   UNL A   1      43.521  23.388  24.654  1.00  0.00     0.016 A 
ATOM     31  C   UNL A   1      44.580  22.377  26.620  1.00  0.00     0.016 A 
ATOM     32  C   UNL A   1      43.250  24.518  25.393  1.00  0.00     0.010 A 
ATOM     33  C   UNL A   1      44.334  23.513  27.345  1.00  0.00     0.010 A 
ATOM     34  C   UNL A   1      43.745  24.596  26.697  1.00  0.00    -0.014 A 
BRANCH  34  35
ATOM     35  C   UNL A   1      43.555  25.823  27.436  1.00  0.00     0.031 A 
ATOM     36  C   UNL A   1      44.615  26.819  27.163  1.00  0.00     0.074 A 
ATOM     37  C   UNL A   1      42.434  26.056  28.144  1.00  0.00     0.049 A 
ATOM     38  N   UNL A   1      45.523  27.256  27.969  1.00  0.00    -0.248 NA
ATOM     39  C   UNL A   1      44.810  27.229  25.760  1.00  0.00     0.031 C 
ATOM     40  C   UNL A   1      41.213  25.248  28.207  1.00  0.00     0.029 A 
ATOM     41  N   UNL A   1      42.112  27.147  28.882  1.00  0.00    -0.354 N 
ATOM     42  C   UNL A   1      46.248  28.184  27.230  1.00  0.00     0.074 A 
ATOM     43  C   UNL A   1      45.927  27.949  25.849  1.00  0.00     0.031 C 
ATOM     44  C   UNL A   1      40.217  25.991  28.744  1.00  0.00     0.029 A 
ATOM     45  C   UNL A   1      40.759  27.268  29.172  1.00  0.00     0.049 A 
ATOM     46  H   UNL A   1      42.782  27.800  29.187  1.00  0.00     0.167 HD
ATOM     47  C   UNL A   1      46.826  29.262  27.826  1.00  0.00     0.037 A 
ATOM     48  C   UNL A   1      40.148  28.393  29.631  1.00  0.00     0.037 A 
ATOM     49  C   UNL A   1      46.969  29.059  29.246  1.00  0.00     0.049 A 
ATOM     50  C   UNL A   1      41.218  29.254  30.214  1.00  0.00     0.074 A 
ATOM     51  C   UNL A   1      47.605  28.111  30.024  1.00  0.00     0.029 A 
ATOM     52  N   UNL A   1      46.066  29.679  30.079  1.00  0.00    -0.354 N 
ATOM     53  N   UNL A   1      41.917  28.927  31.270  1.00  0.00    -0.248 NA
ATOM     54  C   UNL A   1      41.845  30.233  29.334  1.00  0.00     0.031 C 
ATOM     55  C   UNL A   1      46.722  27.878  31.119  1.00  0.00     0.029 A 
ATOM     56  C   UNL A   1      45.634  28.742  30.984  1.00  0.00     0.049 A 
ATOM     57  H   UNL A   1      45.783  30.621  30.034  1.00  0.00     0.167 HD
ATOM     58  C   UNL A   1      43.216  29.329  30.983  1.00  0.00     0.074 A 
ATOM     59  C   UNL A   1      43.095  30.182  29.801  1.00  0.00     0.031 C 
ATOM     60  C   UNL A   1      44.299  28.710  31.542  1.00  0.00     0.037 A 
BRANCH  47  61
ATOM     61  C   UNL A   1      46.896  30.625  27.181  1.00  0.00     0.058 A 
ATOM     62  C   UNL A   1      48.126  31.308  27.153  1.00  0.00     0.135 A 
ATOM     63  C   UNL A   1      45.761  31.399  26.838  1.00  0.00     0.135 A 
ATOM     64  F   UNL A   1      49.266  30.677  27.472  1.00  0.00    -0.206 F 
ATOM     65  C   UNL A   1      48.214  32.673  26.875  1.00  0.00     0.059 A 
ATOM     66  C   UNL A   1      45.833  32.743  26.499  1.00  0.00     0.059 A 
ATOM     67  F   UNL A   1      44.513  30.926  26.912  1.00  0.00    -0.206 F 
ATOM     68  C   UNL A   1      47.057  33.383  26.563  1.00  0.00     0.060 A 
BRANCH  68  69
ATOM     69  S   UNL A   1      47.146  35.163  26.315  1.00  0.00     0.124 S 
ATOM     70  O   UNL A   1      45.744  35.492  26.087  1.00  0.00    -0.237 OA
ATOM     71  O   UNL A   1      47.714  35.614  27.581  1.00  0.00    -0.237 OA
ATOM     72  O   UNL A   1      48.024  35.297  25.156  1.00  0.00    -0.744 OA
ENDBRANCH  68  69
ENDBRANCH  47  61
BRANCH  48  73
ATOM     73  C   UNL A   1      38.820  28.922  29.206  1.00  0.00     0.058 A 
ATOM     74  C   UNL A   1      37.808  29.208  30.142  1.00  0.00     0.135 A 
ATOM     75  C   UNL A   1      38.603  29.411  27.900  1.00  0.00     0.135 A 
ATOM     76  F   UNL A   1      37.940  28.810  31.417  1.00  0.00    -0.206 F 
ATOM     77  C   UNL A   1      36.672  29.961  29.813  1.00  0.00     0.059 A 
ATOM     78  C   UNL A   1      37.475  30.151  27.546  1.00  0.00     0.059 A 
ATOM     79  F   UNL A   1      39.526  29.262  26.939  1.00  0.00    -0.206 F 
ATOM     80  C   UNL A   1      36.522  30.443  28.512  1.00  0.00     0.060 A 
BRANCH  80  81
ATOM     81  S   UNL A   1      35.143  31.542  28.112  1.00  0.00     0.124 S 
ATOM     82  O   UNL A   1      34.371  30.730  27.177  1.00  0.00    -0.237 OA
ATOM     83  O   UNL A   1      34.534  31.762  29.420  1.00  0.00    -0.237 OA
ATOM     84  O   UNL A   1      35.797  32.711  27.528  1.00  0.00    -0.744 OA
ENDBRANCH  80  81
ENDBRANCH  48  73
BRANCH  60  85
ATOM     85  C   UNL A   1      44.071  27.738  32.675  1.00  0.00     0.058 A 
ATOM     86  C   UNL A   1      43.881  26.353  32.507  1.00  0.00     0.135 A 
ATOM     87  C   UNL A   1      44.245  28.201  33.988  1.00  0.00     0.135 A 
ATOM     88  F   UNL A   1      43.807  25.812  31.284  1.00  0.00    -0.206 F 
ATOM     89  C   UNL A   1      43.838  25.477  33.594  1.00  0.00     0.059 A 
ATOM     90  C   UNL A   1      44.237  27.342  35.084  1.00  0.00     0.059 A 
ATOM     91  F   UNL A   1      44.493  29.502  34.213  1.00  0.00    -0.206 F 
ATOM     92  C   UNL A   1      44.024  25.981  34.881  1.00  0.00     0.060 A 
BRANCH  92  93
ATOM     93  S   UNL A   1      44.067  24.835  36.278  1.00  0.00     0.124 S 
ATOM     94  O   UNL A   1      42.757  25.041  36.885  1.00  0.00    -0.237 OA
ATOM     95  O   UNL A   1      44.268  23.544  35.626  1.00  0.00    -0.237 OA
ATOM     96  O   UNL A   1      45.202  25.305  37.071  1.00  0.00    -0.744 OA
ENDBRANCH  92  93
ENDBRANCH  60  85
ENDBRANCH  34  35
ENDBRANCH  27  29
ENDBRANCH  26  27
ENDBRANCH  25  26
ENDBRANCH  24  25
ENDBRANCH   1  24
TORSDOF 20
ENDMDL
MODEL 3
REMARK VINA RESULT:     -10.7      2.319      4.043
REMARK SMILES CCC[C@H](C)NC(=O)C[NH+]1CC(n2cc(C(=O)OCCOC(=O)c3ccc(-c4c5nc(c(-c6c(F)cc(S(=O)(=O)[O-])cc6F)c6ccc([nH]6)c(-c6c(F)cc(S(=O)(=O)[O-])cc6F)c6nc(c(-c7c(F)cc(S(=O)(=O)[O-])cc7F)c7ccc4[nH]7)C=C6)C=C5)cc3)nn2)C1
REMARK SMILES IDX 18 1 16 2 17 3 15 4 13 5 14 6 91 7 90 8 12 9 10 10 11 11
REMARK SMILES IDX 92 12 9 14 7 15 6 16 8 18 4 19 5 20 3 21 2 22 1 23 19 24
REMARK SMILES IDX 20 25 21 26 22 27 23 28 24 29 25 30 89 31 26 32 88 33 27 34
REMARK SMILES IDX 28 35 29 36 82 37 30 38 87 39 81 40 83 41 31 42 86 43 80 44
REMARK SMILES IDX 79 45 32 47 66 48 45 49 65 50 46 51 49 52 64 53 84 54 47 55
REMARK SMILES IDX 48 56 63 58 85 59 50 60 33 61 34 62 43 63 35 64 36 65 42 66
REMARK SMILES IDX 44 67 37 68 38 69 39 70 40 71 41 72 67 73 68 74 77 75 69 76
REMARK SMILES IDX 70 77 76 78 78 79 71 80 72 81 73 82 74 83 75 84 51 85 52 86
REMARK SMILES IDX 61 87 53 88 54 89 60 90 62 91 55 92 56 93 57 94 58 95 59 96
REMARK H PARENT 10 13 6 17 83 46 49 57
REMARK Flexibility Score: inf
ROOT
ATOM      1  O   UNL A   1      36.709  21.777  24.633  1.00  0.00    -0.457 OA
ENDROOT
BRANCH   1   2
ATOM      2  C   UNL A   1      35.416  21.930  25.068  1.00  0.00     0.360 C 
ATOM      3  O   UNL A   1      34.990  21.464  26.123  1.00  0.00    -0.244 OA
BRANCH   2   4
ATOM      4  C   UNL A   1      34.616  22.733  24.160  1.00  0.00     0.190 A 
ATOM      5  N   UNL A   1      33.075  23.954  23.251  1.00  0.00    -0.237 N 
ATOM      6  C   UNL A   1      33.321  23.173  24.343  1.00  0.00     0.147 A 
ATOM      7  N   UNL A   1      34.118  23.958  22.408  1.00  0.00    -0.066 NA
ATOM      8  N   UNL A   1      35.059  23.184  22.937  1.00  0.00    -0.123 NA
BRANCH   5   9
ATOM      9  C   UNL A   1      32.016  24.906  23.257  1.00  0.00     0.218 C 
ATOM     10  N   UNL A   1      31.576  26.929  23.508  1.00  0.00    -0.323 N 
ATOM     11  C   UNL A   1      32.065  26.127  22.315  1.00  0.00     0.296 C 
ATOM     12  C   UNL A   1      32.357  25.966  24.329  1.00  0.00     0.296 C 
ATOM     13  H   UNL A   1      30.593  27.130  23.690  1.00  0.00     0.348 HD
BRANCH  10  14
ATOM     14  C   UNL A   1      32.140  28.294  23.516  1.00  0.00     0.363 C 
BRANCH  14  15
ATOM     15  C   UNL A   1      31.276  29.371  24.190  1.00  0.00     0.275 C 
ATOM     16  N   UNL A   1      30.092  29.795  23.660  1.00  0.00    -0.349 N 
ATOM     17  H   UNL A   1      29.664  30.538  24.143  1.00  0.00     0.163 HD
ATOM     18  O   UNL A   1      31.659  29.924  25.226  1.00  0.00    -0.268 OA
BRANCH  16  19
ATOM     19  C   UNL A   1      29.357  29.320  22.487  1.00  0.00     0.079 C 
ATOM     20  C   UNL A   1      28.008  28.739  22.943  1.00  0.00     0.031 C 
BRANCH  19  21
ATOM     21  C   UNL A   1      29.170  30.477  21.493  1.00  0.00     0.024 C 
BRANCH  21  22
ATOM     22  C   UNL A   1      28.675  31.782  22.122  1.00  0.00    -0.001 C 
ATOM     23  C   UNL A   1      27.959  32.733  21.177  1.00  0.00     0.004 C 
ENDBRANCH  21  22
ENDBRANCH  19  21
ENDBRANCH  16  19
ENDBRANCH  14  15
ENDBRANCH  10  14
ENDBRANCH   5   9
ENDBRANCH   2   4
ENDBRANCH   1   2
BRANCH   1  24
ATOM     24  C   UNL A   1      37.719  22.440  25.411  1.00  0.00     0.275 C 
BRANCH  24  25
ATOM     25  C   UNL A   1      38.814  21.463  25.813  1.00  0.00     0.275 C 
BRANCH  25  26
ATOM     26  O   UNL A   1      39.697  22.060  26.759  1.00  0.00    -0.458 OA
BRANCH  26  27
ATOM     27  C   UNL A   1      40.995  22.117  26.379  1.00  0.00     0.338 C 
ATOM     28  O   UNL A   1      41.705  21.177  26.061  1.00  0.00    -0.246 OA
BRANCH  27  29
ATOM     29  C   UNL A   1      41.504  23.464  26.645  1.00  0.00     0.060 A 
ATOM     30  C   UNL A   1      42.410  23.606  27.701  1.00  0.00     0.016 A 
ATOM     31  C   UNL A   1      40.830  24.560  26.087  1.00  0.00     0.016 A 
ATOM     32  C   UNL A   1      42.479  24.825  28.338  1.00  0.00     0.010 A 
ATOM     33  C   UNL A   1      40.879  25.763  26.740  1.00  0.00     0.010 A 
ATOM     34  C   UNL A   1      41.639  25.854  27.902  1.00  0.00    -0.014 A 
BRANCH  34  35
ATOM     35  C   UNL A   1      41.631  27.098  28.638  1.00  0.00     0.031 A 
ATOM     36  C   UNL A   1      42.830  27.922  28.369  1.00  0.00     0.074 A 
ATOM     37  C   UNL A   1      40.553  27.498  29.337  1.00  0.00     0.049 A 
ATOM     38  N   UNL A   1      43.788  28.220  29.180  1.00  0.00    -0.248 NA
ATOM     39  C   UNL A   1      43.093  28.294  26.967  1.00  0.00     0.031 C 
ATOM     40  C   UNL A   1      39.224  26.883  29.394  1.00  0.00     0.029 A 
ATOM     41  N   UNL A   1      40.394  28.627  30.071  1.00  0.00    -0.354 N 
ATOM     42  C   UNL A   1      44.649  29.027  28.444  1.00  0.00     0.074 A 
ATOM     43  C   UNL A   1      44.305  28.838  27.062  1.00  0.00     0.031 C 
ATOM     44  C   UNL A   1      38.348  27.769  29.924  1.00  0.00     0.029 A 
ATOM     45  C   UNL A   1      39.073  28.951  30.352  1.00  0.00     0.049 A 
ATOM     46  H   UNL A   1      41.153  29.173  30.379  1.00  0.00     0.167 HD
ATOM     47  C   UNL A   1      45.379  30.007  29.042  1.00  0.00     0.037 A 
ATOM     48  C   UNL A   1      38.635  30.156  30.805  1.00  0.00     0.037 A 
ATOM     49  C   UNL A   1      45.480  29.789  30.464  1.00  0.00     0.049 A 
ATOM     50  C   UNL A   1      39.818  30.849  31.393  1.00  0.00     0.074 A 
ATOM     51  C   UNL A   1      45.962  28.759  31.247  1.00  0.00     0.029 A 
ATOM     52  N   UNL A   1      44.676  30.541  31.289  1.00  0.00    -0.354 N 
ATOM     53  N   UNL A   1      40.454  30.424  32.455  1.00  0.00    -0.248 NA
ATOM     54  C   UNL A   1      40.591  31.720  30.516  1.00  0.00     0.031 C 
ATOM     55  C   UNL A   1      45.048  28.664  32.337  1.00  0.00     0.029 A 
ATOM     56  C   UNL A   1      44.103  29.681  32.193  1.00  0.00     0.049 A 
ATOM     57  H   UNL A   1      44.538  31.514  31.240  1.00  0.00     0.167 HD
ATOM     58  C   UNL A   1      41.800  30.626  32.175  1.00  0.00     0.074 A 
ATOM     59  C   UNL A   1      41.816  31.483  30.991  1.00  0.00     0.031 C 
ATOM     60  C   UNL A   1      42.774  29.852  32.743  1.00  0.00     0.037 A 
BRANCH  47  61
ATOM     61  C   UNL A   1      45.656  31.342  28.395  1.00  0.00     0.058 A 
ATOM     62  C   UNL A   1      44.576  32.121  27.938  1.00  0.00     0.135 A 
ATOM     63  C   UNL A   1      46.936  31.762  27.958  1.00  0.00     0.135 A 
ATOM     64  F   UNL A   1      43.316  31.807  28.278  1.00  0.00    -0.206 F 
ATOM     65  C   UNL A   1      44.748  33.191  27.058  1.00  0.00     0.059 A 
ATOM     66  C   UNL A   1      47.135  32.860  27.134  1.00  0.00     0.059 A 
ATOM     67  F   UNL A   1      48.052  31.074  28.222  1.00  0.00    -0.206 F 
ATOM     68  C   UNL A   1      46.033  33.542  26.652  1.00  0.00     0.060 A 
BRANCH  68  69
ATOM     69  S   UNL A   1      46.254  34.846  25.433  1.00  0.00     0.124 S 
ATOM     70  O   UNL A   1      47.662  34.683  25.089  1.00  0.00    -0.237 OA
ATOM     71  O   UNL A   1      45.293  34.460  24.403  1.00  0.00    -0.237 OA
ATOM     72  O   UNL A   1      45.919  36.058  26.173  1.00  0.00    -0.744 OA
ENDBRANCH  68  69
ENDBRANCH  47  61
BRANCH  48  73
ATOM     73  C   UNL A   1      37.404  30.878  30.370  1.00  0.00     0.058 A 
ATOM     74  C   UNL A   1      36.438  31.310  31.299  1.00  0.00     0.135 A 
ATOM     75  C   UNL A   1      37.273  31.396  29.064  1.00  0.00     0.135 A 
ATOM     76  F   UNL A   1      36.497  30.894  32.573  1.00  0.00    -0.206 F 
ATOM     77  C   UNL A   1      35.429  32.223  30.962  1.00  0.00     0.059 A 
ATOM     78  C   UNL A   1      36.271  32.296  28.702  1.00  0.00     0.059 A 
ATOM     79  F   UNL A   1      38.172  31.112  28.111  1.00  0.00    -0.206 F 
ATOM     80  C   UNL A   1      35.364  32.725  29.661  1.00  0.00     0.060 A 
BRANCH  80  81
ATOM     81  S   UNL A   1      34.167  34.017  29.253  1.00  0.00     0.124 S 
ATOM     82  O   UNL A   1      33.247  33.308  28.370  1.00  0.00    -0.237 OA
ATOM     83  O   UNL A   1      33.641  34.378  30.566  1.00  0.00    -0.237 OA
ATOM     84  O   UNL A   1      34.982  35.044  28.608  1.00  0.00    -0.744 OA
ENDBRANCH  80  81
ENDBRANCH  48  73
BRANCH  60  85
ATOM     85  C   UNL A   1      42.396  28.928  33.875  1.00  0.00     0.058 A 
ATOM     86  C   UNL A   1      41.742  27.694  33.709  1.00  0.00     0.135 A 
ATOM     87  C   UNL A   1      42.888  29.220  35.157  1.00  0.00     0.135 A 
ATOM     88  F   UNL A   1      41.331  27.290  32.500  1.00  0.00    -0.206 F 
ATOM     89  C   UNL A   1      41.562  26.804  34.772  1.00  0.00     0.059 A 
ATOM     90  C   UNL A   1      42.747  28.335  36.224  1.00  0.00     0.059 A 
ATOM     91  F   UNL A   1      43.576  30.353  35.370  1.00  0.00    -0.206 F 
ATOM     92  C   UNL A   1      42.075  27.131  36.026  1.00  0.00     0.060 A 
BRANCH  92  93
ATOM     93  S   UNL A   1      41.930  25.939  37.376  1.00  0.00     0.124 S 
ATOM     94  O   UNL A   1      42.349  24.697  36.736  1.00  0.00    -0.237 OA
ATOM     95  O   UNL A   1      42.847  26.477  38.377  1.00  0.00    -0.237 OA
ATOM     96  O   UNL A   1      40.516  26.006  37.741  1.00  0.00    -0.744 OA
ENDBRANCH  92  93
ENDBRANCH  60  85
ENDBRANCH  34  35
ENDBRANCH  27  29
ENDBRANCH  26  27
ENDBRANCH  25  26
ENDBRANCH  24  25
ENDBRANCH   1  24
TORSDOF 20
ENDMDL
