MODEL 1
REMARK VINA RESULT:     -11.4      0.000      0.000
REMARK SMILES O=C(CCCN1C(=O)/C(=C/c2ccccc2Cl)SC1=S)Nc1cccc(C(=O)OCCOC(=O)c2ccc(-c3c4nc(c(-c5c(F)cc(S(=O)(=O)[O-])cc5F)c5ccc([nH]5)c(-c5c(F)cc(S(=O)(=O)[O-])cc5F)c5nc(c(-c6c(F)cc(S(=O)(=O)[O-])cc6F)c6ccc3[nH]6)C=C5)C=C4)cc2)c1
REMARK SMILES IDX 29 1 27 2 28 3 26 4 22 5 23 6 101 7 24 8 25 9 21 10 1 11
REMARK SMILES IDX 2 12 3 14 4 15 5 16 6 17 7 18 19 19 8 20 9 21 18 22 20 23
REMARK SMILES IDX 10 24 11 25 12 26 16 27 13 28 15 29 17 30 14 31 30 32 31 33
REMARK SMILES IDX 32 34 33 35 34 36 35 37 36 38 100 39 37 40 99 41 38 42 39 43
REMARK SMILES IDX 40 44 93 45 41 46 98 47 92 48 94 49 42 50 97 51 91 52 90 53
REMARK SMILES IDX 43 55 77 56 56 57 76 58 57 59 60 60 75 61 95 62 58 63 59 64
REMARK SMILES IDX 74 66 96 67 61 68 44 69 45 70 54 71 46 72 47 73 53 74 55 75
REMARK SMILES IDX 48 76 49 77 50 78 51 79 52 80 78 81 79 82 88 83 80 84 81 85
REMARK SMILES IDX 87 86 89 87 82 88 83 89 84 90 85 91 86 92 62 93 63 94 72 95
REMARK SMILES IDX 64 96 65 97 71 98 73 99 66 100 67 101 68 102 69 103 70 104
REMARK H PARENT 21 13 94 54 60 65
REMARK Flexibility Score: inf
ROOT
ATOM      1  O   UNL A   1      33.984  32.926  29.831  1.00  0.00    -0.458 OA
ENDROOT
BRANCH   1   2
ATOM      2  C   UNL A   1      34.412  32.999  28.546  1.00  0.00     0.338 C 
ATOM      3  O   UNL A   1      34.757  34.007  27.951  1.00  0.00    -0.246 OA
BRANCH   2   4
ATOM      4  C   UNL A   1      34.539  31.634  27.978  1.00  0.00     0.062 A 
ATOM      5  C   UNL A   1      33.578  29.573  27.166  1.00  0.00     0.042 A 
ATOM      6  C   UNL A   1      34.839  28.967  27.239  1.00  0.00     0.026 A 
ATOM      7  C   UNL A   1      33.424  30.902  27.561  1.00  0.00     0.041 A 
ATOM      8  C   UNL A   1      35.961  29.715  27.588  1.00  0.00     0.003 A 
ATOM      9  C   UNL A   1      35.816  31.058  27.922  1.00  0.00     0.016 A 
BRANCH   5  10
ATOM     10  N   UNL A   1      32.511  28.782  26.701  1.00  0.00    -0.326 N 
ATOM     11  O   UNL A   1      32.608  29.249  24.430  1.00  0.00    -0.275 OA
ATOM     12  C   UNL A   1      32.095  28.681  25.391  1.00  0.00     0.224 C 
ATOM     13  H   UNL A   1      32.018  28.254  27.371  1.00  0.00     0.169 HD
BRANCH  12  14
ATOM     14  C   UNL A   1      30.897  27.775  25.186  1.00  0.00     0.102 C 
BRANCH  14  15
ATOM     15  C   UNL A   1      30.639  27.346  23.738  1.00  0.00     0.032 C 
BRANCH  15  16
ATOM     16  C   UNL A   1      30.501  25.834  23.478  1.00  0.00     0.128 C 
BRANCH  16  17
ATOM     17  N   UNL A   1      31.765  25.095  23.504  1.00  0.00    -0.293 N 
ATOM     18  C   UNL A   1      32.101  24.387  24.648  1.00  0.00     0.266 C 
ATOM     19  C   UNL A   1      32.644  24.987  22.444  1.00  0.00     0.148 C 
ATOM     20  O   UNL A   1      31.408  24.259  25.648  1.00  0.00    -0.268 OA
ATOM     21  C   UNL A   1      33.452  23.789  24.505  1.00  0.00     0.081 C 
ATOM     22  S   UNL A   1      34.056  24.061  22.922  1.00  0.00    -0.054 SA
ATOM     23  S   UNL A   1      32.485  25.609  20.908  1.00  0.00    -0.052 S 
ATOM     24  C   UNL A   1      34.069  23.167  25.518  1.00  0.00     0.031 C 
BRANCH  24  25
ATOM     25  C   UNL A   1      35.426  22.613  25.421  1.00  0.00    -0.006 A 
ATOM     26  C   UNL A   1      36.504  23.443  25.755  1.00  0.00     0.010 A 
ATOM     27  C   UNL A   1      35.675  21.275  25.072  1.00  0.00     0.048 A 
ATOM     28  C   UNL A   1      37.808  22.943  25.756  1.00  0.00     0.001 A 
ATOM     29  C   UNL A   1      36.981  20.778  25.076  1.00  0.00     0.021 A 
ATOM     30  Cl  UNL A   1      34.398  20.194  24.633  1.00  0.00    -0.084 Cl
ATOM     31  C   UNL A   1      38.045  21.612  25.422  1.00  0.00     0.002 A 
ENDBRANCH  24  25
ENDBRANCH  16  17
ENDBRANCH  15  16
ENDBRANCH  14  15
ENDBRANCH  12  14
ENDBRANCH   5  10
ENDBRANCH   2   4
ENDBRANCH   1   2
BRANCH   1  32
ATOM     32  C   UNL A   1      34.880  33.438  30.836  1.00  0.00     0.275 C 
BRANCH  32  33
ATOM     33  C   UNL A   1      35.465  32.301  31.676  1.00  0.00     0.275 C 
BRANCH  33  34
ATOM     34  O   UNL A   1      36.762  31.924  31.174  1.00  0.00    -0.458 OA
BRANCH  34  35
ATOM     35  C   UNL A   1      37.066  30.609  31.267  1.00  0.00     0.338 C 
ATOM     36  O   UNL A   1      36.310  29.685  31.516  1.00  0.00    -0.246 OA
BRANCH  35  37
ATOM     37  C   UNL A   1      38.471  30.410  30.882  1.00  0.00     0.060 A 
ATOM     38  C   UNL A   1      38.815  30.698  29.564  1.00  0.00     0.016 A 
ATOM     39  C   UNL A   1      39.408  29.847  31.747  1.00  0.00     0.016 A 
ATOM     40  C   UNL A   1      40.095  30.424  29.092  1.00  0.00     0.010 A 
ATOM     41  C   UNL A   1      40.704  29.581  31.276  1.00  0.00     0.010 A 
ATOM     42  C   UNL A   1      41.055  29.849  29.938  1.00  0.00    -0.014 A 
BRANCH  42  43
ATOM     43  C   UNL A   1      42.374  29.454  29.372  1.00  0.00     0.031 A 
ATOM     44  C   UNL A   1      42.574  28.061  28.830  1.00  0.00     0.074 A 
ATOM     45  C   UNL A   1      43.368  30.358  29.263  1.00  0.00     0.049 A 
ATOM     46  N   UNL A   1      43.654  27.514  28.328  1.00  0.00    -0.248 NA
ATOM     47  C   UNL A   1      41.408  27.166  28.858  1.00  0.00     0.031 C 
ATOM     48  C   UNL A   1      43.295  31.752  29.705  1.00  0.00     0.029 A 
ATOM     49  N   UNL A   1      44.628  30.247  28.725  1.00  0.00    -0.354 N 
ATOM     50  C   UNL A   1      43.306  26.204  28.011  1.00  0.00     0.074 A 
ATOM     51  C   UNL A   1      41.920  26.035  28.392  1.00  0.00     0.031 C 
ATOM     52  C   UNL A   1      44.443  32.375  29.389  1.00  0.00     0.029 A 
ATOM     53  C   UNL A   1      45.354  31.414  28.770  1.00  0.00     0.049 A 
ATOM     54  H   UNL A   1      44.978  29.410  28.343  1.00  0.00     0.167 HD
ATOM     55  C   UNL A   1      44.068  25.234  27.448  1.00  0.00     0.037 A 
ATOM     56  C   UNL A   1      46.614  31.680  28.373  1.00  0.00     0.037 A 
ATOM     57  C   UNL A   1      45.435  25.414  27.030  1.00  0.00     0.049 A 
ATOM     58  C   UNL A   1      47.445  30.581  27.763  1.00  0.00     0.074 A 
ATOM     59  C   UNL A   1      46.291  24.486  26.460  1.00  0.00     0.029 A 
ATOM     60  N   UNL A   1      46.143  26.603  27.119  1.00  0.00    -0.354 N 
ATOM     61  N   UNL A   1      47.113  29.336  27.518  1.00  0.00    -0.248 NA
ATOM     62  C   UNL A   1      48.822  30.925  27.381  1.00  0.00     0.031 C 
ATOM     63  C   UNL A   1      47.524  25.108  26.226  1.00  0.00     0.029 A 
ATOM     64  C   UNL A   1      47.423  26.434  26.615  1.00  0.00     0.049 A 
ATOM     65  H   UNL A   1      45.787  27.444  27.486  1.00  0.00     0.167 HD
ATOM     66  C   UNL A   1      48.235  28.752  26.941  1.00  0.00     0.074 A 
ATOM     67  C   UNL A   1      49.246  29.786  26.851  1.00  0.00     0.031 C 
ATOM     68  C   UNL A   1      48.418  27.472  26.529  1.00  0.00     0.037 A 
BRANCH  55  69
ATOM     69  C   UNL A   1      43.444  23.877  27.271  1.00  0.00     0.058 A 
ATOM     70  C   UNL A   1      42.995  23.424  26.021  1.00  0.00     0.135 A 
ATOM     71  C   UNL A   1      43.324  23.004  28.365  1.00  0.00     0.135 A 
ATOM     72  F   UNL A   1      43.069  24.225  24.946  1.00  0.00    -0.206 F 
ATOM     73  C   UNL A   1      42.425  22.164  25.866  1.00  0.00     0.059 A 
ATOM     74  C   UNL A   1      42.781  21.730  28.227  1.00  0.00     0.059 A 
ATOM     75  F   UNL A   1      43.738  23.386  29.583  1.00  0.00    -0.206 F 
ATOM     76  C   UNL A   1      42.321  21.324  26.976  1.00  0.00     0.060 A 
BRANCH  76  77
ATOM     77  S   UNL A   1      41.585  19.689  26.760  1.00  0.00     0.124 S 
ATOM     78  O   UNL A   1      42.521  18.849  27.501  1.00  0.00    -0.237 OA
ATOM     79  O   UNL A   1      40.268  19.856  27.367  1.00  0.00    -0.237 OA
ATOM     80  O   UNL A   1      41.585  19.504  25.312  1.00  0.00    -0.744 OA
ENDBRANCH  76  77
ENDBRANCH  55  69
BRANCH  56  81
ATOM     81  C   UNL A   1      47.185  33.043  28.553  1.00  0.00     0.058 A 
ATOM     82  C   UNL A   1      47.820  33.413  29.748  1.00  0.00     0.135 A 
ATOM     83  C   UNL A   1      47.092  34.007  27.537  1.00  0.00     0.135 A 
ATOM     84  F   UNL A   1      47.922  32.531  30.753  1.00  0.00    -0.206 F 
ATOM     85  C   UNL A   1      48.323  34.697  29.939  1.00  0.00     0.059 A 
ATOM     86  C   UNL A   1      47.613  35.288  27.694  1.00  0.00     0.059 A 
ATOM     87  F   UNL A   1      46.501  33.703  26.371  1.00  0.00    -0.206 F 
ATOM     88  C   UNL A   1      48.215  35.627  28.905  1.00  0.00     0.060 A 
BRANCH  88  89
ATOM     89  S   UNL A   1      48.904  37.280  29.142  1.00  0.00     0.124 S 
ATOM     90  O   UNL A   1      49.960  37.019  30.114  1.00  0.00    -0.237 OA
ATOM     91  O   UNL A   1      49.349  37.627  27.796  1.00  0.00    -0.237 OA
ATOM     92  O   UNL A   1      47.766  38.049  29.635  1.00  0.00    -0.744 OA
ENDBRANCH  88  89
ENDBRANCH  56  81
BRANCH  68  93
ATOM     93  C   UNL A   1      49.748  27.136  25.913  1.00  0.00     0.058 A 
ATOM     94  C   UNL A   1      50.858  26.789  26.699  1.00  0.00     0.135 A 
ATOM     95  C   UNL A   1      49.914  27.164  24.519  1.00  0.00     0.135 A 
ATOM     96  F   UNL A   1      50.754  26.750  28.036  1.00  0.00    -0.206 F 
ATOM     97  C   UNL A   1      52.100  26.525  26.126  1.00  0.00     0.059 A 
ATOM     98  C   UNL A   1      51.140  26.879  23.924  1.00  0.00     0.059 A 
ATOM     99  F   UNL A   1      48.882  27.476  23.720  1.00  0.00    -0.206 F 
ATOM    100  C   UNL A   1      52.232  26.583  24.738  1.00  0.00     0.060 A 
BRANCH 100 101
ATOM    101  S   UNL A   1      53.849  26.256  24.003  1.00  0.00     0.124 S 
ATOM    102  O   UNL A   1      54.193  24.975  24.611  1.00  0.00    -0.237 OA
ATOM    103  O   UNL A   1      53.546  26.219  22.575  1.00  0.00    -0.237 OA
ATOM    104  O   UNL A   1      54.653  27.394  24.436  1.00  0.00    -0.744 OA
ENDBRANCH 100 101
ENDBRANCH  68  93
ENDBRANCH  42  43
ENDBRANCH  35  37
ENDBRANCH  34  35
ENDBRANCH  33  34
ENDBRANCH  32  33
ENDBRANCH   1  32
TORSDOF 20
ENDMDL
MODEL 2
REMARK VINA RESULT:     -11.3      0.806      7.930
REMARK SMILES O=C(CCCN1C(=O)/C(=C/c2ccccc2Cl)SC1=S)Nc1cccc(C(=O)OCCOC(=O)c2ccc(-c3c4nc(c(-c5c(F)cc(S(=O)(=O)[O-])cc5F)c5ccc([nH]5)c(-c5c(F)cc(S(=O)(=O)[O-])cc5F)c5nc(c(-c6c(F)cc(S(=O)(=O)[O-])cc6F)c6ccc3[nH]6)C=C5)C=C4)cc2)c1
REMARK SMILES IDX 29 1 27 2 28 3 26 4 22 5 23 6 101 7 24 8 25 9 21 10 1 11
REMARK SMILES IDX 2 12 3 14 4 15 5 16 6 17 7 18 19 19 8 20 9 21 18 22 20 23
REMARK SMILES IDX 10 24 11 25 12 26 16 27 13 28 15 29 17 30 14 31 30 32 31 33
REMARK SMILES IDX 32 34 33 35 34 36 35 37 36 38 100 39 37 40 99 41 38 42 39 43
REMARK SMILES IDX 40 44 93 45 41 46 98 47 92 48 94 49 42 50 97 51 91 52 90 53
REMARK SMILES IDX 43 55 77 56 56 57 76 58 57 59 60 60 75 61 95 62 58 63 59 64
REMARK SMILES IDX 74 66 96 67 61 68 44 69 45 70 54 71 46 72 47 73 53 74 55 75
REMARK SMILES IDX 48 76 49 77 50 78 51 79 52 80 78 81 79 82 88 83 80 84 81 85
REMARK SMILES IDX 87 86 89 87 82 88 83 89 84 90 85 91 86 92 62 93 63 94 72 95
REMARK SMILES IDX 64 96 65 97 71 98 73 99 66 100 67 101 68 102 69 103 70 104
REMARK H PARENT 21 13 94 54 60 65
REMARK Flexibility Score: inf
ROOT
ATOM      1  O   UNL A   1      34.020  33.036  29.896  1.00  0.00    -0.458 OA
ENDROOT
BRANCH   1   2
ATOM      2  C   UNL A   1      34.366  33.166  28.591  1.00  0.00     0.338 C 
ATOM      3  O   UNL A   1      34.575  34.210  27.995  1.00  0.00    -0.246 OA
BRANCH   2   4
ATOM      4  C   UNL A   1      34.597  31.827  27.995  1.00  0.00     0.062 A 
ATOM      5  C   UNL A   1      33.797  29.712  27.147  1.00  0.00     0.042 A 
ATOM      6  C   UNL A   1      35.102  29.207  27.200  1.00  0.00     0.026 A 
ATOM      7  C   UNL A   1      33.540  31.016  27.570  1.00  0.00     0.041 A 
ATOM      8  C   UNL A   1      36.164  30.035  27.557  1.00  0.00     0.003 A 
ATOM      9  C   UNL A   1      35.915  31.356  27.919  1.00  0.00     0.016 A 
BRANCH   5  10
ATOM     10  N   UNL A   1      32.793  28.847  26.673  1.00  0.00    -0.326 N 
ATOM     11  O   UNL A   1      32.631  29.568  24.473  1.00  0.00    -0.275 OA
ATOM     12  C   UNL A   1      32.277  28.838  25.395  1.00  0.00     0.224 C 
ATOM     13  H   UNL A   1      32.427  28.192  27.311  1.00  0.00     0.169 HD
BRANCH  12  14
ATOM     14  C   UNL A   1      31.178  27.815  25.175  1.00  0.00     0.102 C 
BRANCH  14  15
ATOM     15  C   UNL A   1      30.912  27.445  23.713  1.00  0.00     0.032 C 
BRANCH  15  16
ATOM     16  C   UNL A   1      30.485  25.992  23.432  1.00  0.00     0.128 C 
BRANCH  16  17
ATOM     17  N   UNL A   1      31.584  25.024  23.443  1.00  0.00    -0.293 N 
ATOM     18  C   UNL A   1      31.729  24.190  24.541  1.00  0.00     0.266 C 
ATOM     19  C   UNL A   1      32.472  24.819  22.404  1.00  0.00     0.148 C 
ATOM     20  O   UNL A   1      30.982  24.131  25.507  1.00  0.00    -0.268 OA
ATOM     21  C   UNL A   1      32.947  23.354  24.396  1.00  0.00     0.081 C 
ATOM     22  S   UNL A   1      33.660  23.610  22.856  1.00  0.00    -0.054 SA
ATOM     23  S   UNL A   1      32.501  25.561  20.914  1.00  0.00    -0.052 S 
ATOM     24  C   UNL A   1      33.391  22.560  25.378  1.00  0.00     0.031 C 
BRANCH  24  25
ATOM     25  C   UNL A   1      34.621  21.764  25.281  1.00  0.00    -0.006 A 
ATOM     26  C   UNL A   1      34.503  20.397  24.998  1.00  0.00     0.010 A 
ATOM     27  C   UNL A   1      35.902  22.330  25.397  1.00  0.00     0.048 A 
ATOM     28  C   UNL A   1      35.644  19.611  24.818  1.00  0.00     0.001 A 
ATOM     29  C   UNL A   1      37.040  21.541  25.215  1.00  0.00     0.021 A 
ATOM     30  Cl  UNL A   1      36.128  24.007  25.760  1.00  0.00    -0.084 Cl
ATOM     31  C   UNL A   1      36.909  20.183  24.921  1.00  0.00     0.002 A 
ENDBRANCH  24  25
ENDBRANCH  16  17
ENDBRANCH  15  16
ENDBRANCH  14  15
ENDBRANCH  12  14
ENDBRANCH   5  10
ENDBRANCH   2   4
ENDBRANCH   1   2
BRANCH   1  32
ATOM     32  C   UNL A   1      34.850  33.724  30.851  1.00  0.00     0.275 C 
BRANCH  32  33
ATOM     33  C   UNL A   1      35.481  32.738  31.837  1.00  0.00     0.275 C 
BRANCH  33  34
ATOM     34  O   UNL A   1      36.743  32.264  31.331  1.00  0.00    -0.458 OA
BRANCH  34  35
ATOM     35  C   UNL A   1      36.975  30.940  31.484  1.00  0.00     0.338 C 
ATOM     36  O   UNL A   1      36.173  30.073  31.787  1.00  0.00    -0.246 OA
BRANCH  35  37
ATOM     37  C   UNL A   1      38.361  30.643  31.090  1.00  0.00     0.060 A 
ATOM     38  C   UNL A   1      38.742  30.994  29.797  1.00  0.00     0.016 A 
ATOM     39  C   UNL A   1      39.235  29.937  31.914  1.00  0.00     0.016 A 
ATOM     40  C   UNL A   1      39.997  30.641  29.311  1.00  0.00     0.010 A 
ATOM     41  C   UNL A   1      40.507  29.591  31.430  1.00  0.00     0.010 A 
ATOM     42  C   UNL A   1      40.893  29.923  30.116  1.00  0.00    -0.014 A 
BRANCH  42  43
ATOM     43  C   UNL A   1      42.178  29.452  29.527  1.00  0.00     0.031 A 
ATOM     44  C   UNL A   1      43.390  30.347  29.551  1.00  0.00     0.074 A 
ATOM     45  C   UNL A   1      42.288  28.197  29.048  1.00  0.00     0.049 A 
ATOM     46  N   UNL A   1      44.587  30.136  29.063  1.00  0.00    -0.248 NA
ATOM     47  C   UNL A   1      43.235  31.654  30.209  1.00  0.00     0.031 C 
ATOM     48  C   UNL A   1      41.208  27.210  29.005  1.00  0.00     0.029 A 
ATOM     49  N   UNL A   1      43.368  27.527  28.525  1.00  0.00    -0.354 N 
ATOM     50  C   UNL A   1      45.317  31.291  29.325  1.00  0.00     0.074 A 
ATOM     51  C   UNL A   1      44.423  32.206  30.002  1.00  0.00     0.031 C 
ATOM     52  C   UNL A   1      41.687  26.053  28.519  1.00  0.00     0.029 A 
ATOM     53  C   UNL A   1      43.094  26.228  28.166  1.00  0.00     0.049 A 
ATOM     54  H   UNL A   1      44.256  27.939  28.418  1.00  0.00     0.167 HD
ATOM     55  C   UNL A   1      46.613  31.563  29.036  1.00  0.00     0.037 A 
ATOM     56  C   UNL A   1      43.880  25.289  27.603  1.00  0.00     0.037 A 
ATOM     57  C   UNL A   1      47.516  30.637  28.399  1.00  0.00     0.049 A 
ATOM     58  C   UNL A   1      45.313  25.620  27.279  1.00  0.00     0.074 A 
ATOM     59  C   UNL A   1      48.844  30.827  28.055  1.00  0.00     0.029 A 
ATOM     60  N   UNL A   1      47.191  29.342  28.025  1.00  0.00    -0.354 N 
ATOM     61  N   UNL A   1      45.970  26.736  27.489  1.00  0.00    -0.248 NA
ATOM     62  C   UNL A   1      46.108  24.565  26.635  1.00  0.00     0.031 C 
ATOM     63  C   UNL A   1      49.316  29.654  27.452  1.00  0.00     0.029 A 
ATOM     64  C   UNL A   1      48.292  28.721  27.456  1.00  0.00     0.049 A 
ATOM     65  H   UNL A   1      46.308  28.925  28.147  1.00  0.00     0.167 HD
ATOM     66  C   UNL A   1      47.259  26.512  27.018  1.00  0.00     0.074 A 
ATOM     67  C   UNL A   1      47.295  25.147  26.533  1.00  0.00     0.031 C 
ATOM     68  C   UNL A   1      48.316  27.361  26.980  1.00  0.00     0.037 A 
BRANCH  55  69
ATOM     69  C   UNL A   1      47.131  32.931  29.386  1.00  0.00     0.058 A 
ATOM     70  C   UNL A   1      47.829  33.177  30.579  1.00  0.00     0.135 A 
ATOM     71  C   UNL A   1      46.952  34.005  28.498  1.00  0.00     0.135 A 
ATOM     72  F   UNL A   1      48.012  32.191  31.470  1.00  0.00    -0.206 F 
ATOM     73  C   UNL A   1      48.310  34.446  30.891  1.00  0.00     0.059 A 
ATOM     74  C   UNL A   1      47.447  35.276  28.779  1.00  0.00     0.059 A 
ATOM     75  F   UNL A   1      46.292  33.825  27.344  1.00  0.00    -0.206 F 
ATOM     76  C   UNL A   1      48.113  35.489  29.985  1.00  0.00     0.060 A 
BRANCH  76  77
ATOM     77  S   UNL A   1      48.746  37.129  30.399  1.00  0.00     0.124 S 
ATOM     78  O   UNL A   1      49.793  37.298  29.397  1.00  0.00    -0.237 OA
ATOM     79  O   UNL A   1      47.567  37.972  30.232  1.00  0.00    -0.237 OA
ATOM     80  O   UNL A   1      49.212  36.975  31.774  1.00  0.00    -0.744 OA
ENDBRANCH  76  77
ENDBRANCH  55  69
BRANCH  56  81
ATOM     81  C   UNL A   1      43.329  23.942  27.288  1.00  0.00     0.058 A 
ATOM     82  C   UNL A   1      42.748  23.667  26.041  1.00  0.00     0.135 A 
ATOM     83  C   UNL A   1      43.359  22.908  28.237  1.00  0.00     0.135 A 
ATOM     84  F   UNL A   1      42.684  24.628  25.106  1.00  0.00    -0.206 F 
ATOM     85  C   UNL A   1      42.198  22.423  25.751  1.00  0.00     0.059 A 
ATOM     86  C   UNL A   1      42.841  21.646  27.960  1.00  0.00     0.059 A 
ATOM     87  F   UNL A   1      43.910  23.115  29.443  1.00  0.00    -0.206 F 
ATOM     88  C   UNL A   1      42.249  21.418  26.719  1.00  0.00     0.060 A 
BRANCH  88  89
ATOM     89  S   UNL A   1      41.568  19.792  26.325  1.00  0.00     0.124 S 
ATOM     90  O   UNL A   1      40.175  20.119  26.042  1.00  0.00    -0.237 OA
ATOM     91  O   UNL A   1      42.373  19.389  25.176  1.00  0.00    -0.237 OA
ATOM     92  O   UNL A   1      41.804  19.027  27.545  1.00  0.00    -0.744 OA
ENDBRANCH  88  89
ENDBRANCH  56  81
BRANCH  68  93
ATOM     93  C   UNL A   1      49.606  26.821  26.429  1.00  0.00     0.058 A 
ATOM     94  C   UNL A   1      50.486  26.065  27.219  1.00  0.00     0.135 A 
ATOM     95  C   UNL A   1      49.969  27.066  25.095  1.00  0.00     0.135 A 
ATOM     96  F   UNL A   1      50.189  25.805  28.501  1.00  0.00    -0.206 F 
ATOM     97  C   UNL A   1      51.702  25.608  26.718  1.00  0.00     0.059 A 
ATOM     98  C   UNL A   1      51.168  26.597  24.566  1.00  0.00     0.059 A 
ATOM     99  F   UNL A   1      49.158  27.772  24.292  1.00  0.00    -0.206 F 
ATOM    100  C   UNL A   1      52.038  25.888  25.393  1.00  0.00     0.060 A 
BRANCH 100 101
ATOM    101  S   UNL A   1      53.624  25.306  24.754  1.00  0.00     0.124 S 
ATOM    102  O   UNL A   1      53.460  25.524  23.321  1.00  0.00    -0.237 OA
ATOM    103  O   UNL A   1      54.577  26.188  25.424  1.00  0.00    -0.237 OA
ATOM    104  O   UNL A   1      53.668  23.911  25.179  1.00  0.00    -0.744 OA
ENDBRANCH 100 101
ENDBRANCH  68  93
ENDBRANCH  42  43
ENDBRANCH  35  37
ENDBRANCH  34  35
ENDBRANCH  33  34
ENDBRANCH  32  33
ENDBRANCH   1  32
TORSDOF 20
ENDMDL
MODEL 3
REMARK VINA RESULT:     -11.2      2.264      8.812
REMARK SMILES O=C(CCCN1C(=O)/C(=C/c2ccccc2Cl)SC1=S)Nc1cccc(C(=O)OCCOC(=O)c2ccc(-c3c4nc(c(-c5c(F)cc(S(=O)(=O)[O-])cc5F)c5ccc([nH]5)c(-c5c(F)cc(S(=O)(=O)[O-])cc5F)c5nc(c(-c6c(F)cc(S(=O)(=O)[O-])cc6F)c6ccc3[nH]6)C=C5)C=C4)cc2)c1
REMARK SMILES IDX 29 1 27 2 28 3 26 4 22 5 23 6 101 7 24 8 25 9 21 10 1 11
REMARK SMILES IDX 2 12 3 14 4 15 5 16 6 17 7 18 19 19 8 20 9 21 18 22 20 23
REMARK SMILES IDX 10 24 11 25 12 26 16 27 13 28 15 29 17 30 14 31 30 32 31 33
REMARK SMILES IDX 32 34 33 35 34 36 35 37 36 38 100 39 37 40 99 41 38 42 39 43
REMARK SMILES IDX 40 44 93 45 41 46 98 47 92 48 94 49 42 50 97 51 91 52 90 53
REMARK SMILES IDX 43 55 77 56 56 57 76 58 57 59 60 60 75 61 95 62 58 63 59 64
REMARK SMILES IDX 74 66 96 67 61 68 44 69 45 70 54 71 46 72 47 73 53 74 55 75
REMARK SMILES IDX 48 76 49 77 50 78 51 79 52 80 78 81 79 82 88 83 80 84 81 85
REMARK SMILES IDX 87 86 89 87 82 88 83 89 84 90 85 91 86 92 62 93 63 94 72 95
REMARK SMILES IDX 64 96 65 97 71 98 73 99 66 100 67 101 68 102 69 103 70 104
REMARK H PARENT 21 13 94 54 60 65
REMARK Flexibility Score: inf
ROOT
ATOM      1  O   UNL A   1      34.302  33.031  29.421  1.00  0.00    -0.458 OA
ENDROOT
BRANCH   1   2
ATOM      2  C   UNL A   1      34.682  32.609  28.189  1.00  0.00     0.338 C 
ATOM      3  O   UNL A   1      35.782  32.753  27.679  1.00  0.00    -0.246 OA
BRANCH   2   4
ATOM      4  C   UNL A   1      33.597  31.808  27.572  1.00  0.00     0.062 A 
ATOM      5  C   UNL A   1      32.768  29.781  26.552  1.00  0.00     0.042 A 
ATOM      6  C   UNL A   1      31.631  30.475  26.120  1.00  0.00     0.026 A 
ATOM      7  C   UNL A   1      33.765  30.456  27.258  1.00  0.00     0.041 A 
ATOM      8  C   UNL A   1      31.431  31.803  26.492  1.00  0.00     0.003 A 
ATOM      9  C   UNL A   1      32.398  32.458  27.250  1.00  0.00     0.016 A 
BRANCH   5  10
ATOM     10  N   UNL A   1      32.848  28.414  26.229  1.00  0.00    -0.326 N 
ATOM     11  O   UNL A   1      31.208  27.561  27.632  1.00  0.00    -0.275 OA
ATOM     12  C   UNL A   1      32.086  27.410  26.786  1.00  0.00     0.224 C 
ATOM     13  H   UNL A   1      33.507  28.152  25.546  1.00  0.00     0.169 HD
BRANCH  12  14
ATOM     14  C   UNL A   1      32.410  26.022  26.268  1.00  0.00     0.102 C 
BRANCH  14  15
ATOM     15  C   UNL A   1      31.236  25.266  25.641  1.00  0.00     0.032 C 
BRANCH  15  16
ATOM     16  C   UNL A   1      31.123  25.310  24.105  1.00  0.00     0.128 C 
BRANCH  16  17
ATOM     17  N   UNL A   1      30.874  26.644  23.553  1.00  0.00    -0.293 N 
ATOM     18  C   UNL A   1      29.596  27.175  23.639  1.00  0.00     0.266 C 
ATOM     19  C   UNL A   1      31.836  27.465  22.997  1.00  0.00     0.148 C 
ATOM     20  O   UNL A   1      28.636  26.660  24.196  1.00  0.00    -0.268 OA
ATOM     21  C   UNL A   1      29.535  28.485  22.944  1.00  0.00     0.081 C 
ATOM     22  S   UNL A   1      31.100  28.946  22.410  1.00  0.00    -0.054 SA
ATOM     23  S   UNL A   1      33.471  27.183  22.851  1.00  0.00    -0.052 S 
ATOM     24  C   UNL A   1      28.385  29.145  22.763  1.00  0.00     0.031 C 
BRANCH  24  25
ATOM     25  C   UNL A   1      28.287  30.416  22.033  1.00  0.00    -0.006 A 
ATOM     26  C   UNL A   1      27.908  30.377  20.685  1.00  0.00     0.010 A 
ATOM     27  C   UNL A   1      28.493  31.662  22.650  1.00  0.00     0.048 A 
ATOM     28  C   UNL A   1      27.724  31.560  19.967  1.00  0.00     0.001 A 
ATOM     29  C   UNL A   1      28.306  32.844  21.928  1.00  0.00     0.021 A 
ATOM     30  Cl  UNL A   1      28.977  31.791  24.306  1.00  0.00    -0.084 Cl
ATOM     31  C   UNL A   1      27.917  32.791  20.589  1.00  0.00     0.002 A 
ENDBRANCH  24  25
ENDBRANCH  16  17
ENDBRANCH  15  16
ENDBRANCH  14  15
ENDBRANCH  12  14
ENDBRANCH   5  10
ENDBRANCH   2   4
ENDBRANCH   1   2
BRANCH   1  32
ATOM     32  C   UNL A   1      34.791  32.266  30.540  1.00  0.00     0.275 C 
BRANCH  32  33
ATOM     33  C   UNL A   1      35.687  33.123  31.436  1.00  0.00     0.275 C 
BRANCH  33  34
ATOM     34  O   UNL A   1      37.030  32.602  31.446  1.00  0.00    -0.458 OA
BRANCH  34  35
ATOM     35  C   UNL A   1      37.155  31.316  31.845  1.00  0.00     0.338 C 
ATOM     36  O   UNL A   1      36.405  30.683  32.568  1.00  0.00    -0.246 OA
BRANCH  35  37
ATOM     37  C   UNL A   1      38.302  30.706  31.155  1.00  0.00     0.060 A 
ATOM     38  C   UNL A   1      39.229  30.028  31.943  1.00  0.00     0.016 A 
ATOM     39  C   UNL A   1      38.534  30.885  29.792  1.00  0.00     0.016 A 
ATOM     40  C   UNL A   1      40.399  29.525  31.382  1.00  0.00     0.010 A 
ATOM     41  C   UNL A   1      39.708  30.368  29.222  1.00  0.00     0.010 A 
ATOM     42  C   UNL A   1      40.662  29.700  30.015  1.00  0.00    -0.014 A 
BRANCH  42  43
ATOM     43  C   UNL A   1      41.977  29.262  29.469  1.00  0.00     0.031 A 
ATOM     44  C   UNL A   1      43.165  30.188  29.532  1.00  0.00     0.074 A 
ATOM     45  C   UNL A   1      42.135  28.010  28.994  1.00  0.00     0.049 A 
ATOM     46  N   UNL A   1      44.382  30.006  29.083  1.00  0.00    -0.248 NA
ATOM     47  C   UNL A   1      42.955  31.489  30.184  1.00  0.00     0.031 C 
ATOM     48  C   UNL A   1      41.081  26.996  28.917  1.00  0.00     0.029 A 
ATOM     49  N   UNL A   1      43.248  27.368  28.508  1.00  0.00    -0.354 N 
ATOM     50  C   UNL A   1      45.073  31.180  29.369  1.00  0.00     0.074 A 
ATOM     51  C   UNL A   1      44.134  32.072  30.015  1.00  0.00     0.031 C 
ATOM     52  C   UNL A   1      41.606  25.851  28.448  1.00  0.00     0.029 A 
ATOM     53  C   UNL A   1      43.019  26.063  28.141  1.00  0.00     0.049 A 
ATOM     54  H   UNL A   1      44.128  27.802  28.429  1.00  0.00     0.167 HD
ATOM     55  C   UNL A   1      46.371  31.484  29.122  1.00  0.00     0.037 A 
ATOM     56  C   UNL A   1      43.846  25.143  27.604  1.00  0.00     0.037 A 
ATOM     57  C   UNL A   1      47.317  30.581  28.516  1.00  0.00     0.049 A 
ATOM     58  C   UNL A   1      45.280  25.511  27.327  1.00  0.00     0.074 A 
ATOM     59  C   UNL A   1      48.651  30.805  28.216  1.00  0.00     0.029 A 
ATOM     60  N   UNL A   1      47.038  29.278  28.133  1.00  0.00    -0.354 N 
ATOM     61  N   UNL A   1      45.901  26.643  27.559  1.00  0.00    -0.248 NA
ATOM     62  C   UNL A   1      46.122  24.476  26.711  1.00  0.00     0.031 C 
ATOM     63  C   UNL A   1      49.172  29.645  27.629  1.00  0.00     0.029 A 
ATOM     64  C   UNL A   1      48.173  28.686  27.600  1.00  0.00     0.049 A 
ATOM     65  H   UNL A   1      46.162  28.839  28.226  1.00  0.00     0.167 HD
ATOM     66  C   UNL A   1      47.210  26.452  27.130  1.00  0.00     0.074 A 
ATOM     67  C   UNL A   1      47.297  25.088  26.648  1.00  0.00     0.031 C 
ATOM     68  C   UNL A   1      48.246  27.327  27.126  1.00  0.00     0.037 A 
BRANCH  55  69
ATOM     69  C   UNL A   1      46.842  32.865  29.488  1.00  0.00     0.058 A 
ATOM     70  C   UNL A   1      46.746  33.943  28.595  1.00  0.00     0.135 A 
ATOM     71  C   UNL A   1      47.371  33.118  30.765  1.00  0.00     0.135 A 
ATOM     72  F   UNL A   1      46.266  33.753  27.356  1.00  0.00    -0.206 F 
ATOM     73  C   UNL A   1      47.180  35.219  28.945  1.00  0.00     0.059 A 
ATOM     74  C   UNL A   1      47.787  34.390  31.145  1.00  0.00     0.059 A 
ATOM     75  F   UNL A   1      47.486  32.122  31.658  1.00  0.00    -0.206 F 
ATOM     76  C   UNL A   1      47.700  35.432  30.223  1.00  0.00     0.060 A 
BRANCH  76  77
ATOM     77  S   UNL A   1      48.254  37.092  30.667  1.00  0.00     0.124 S 
ATOM     78  O   UNL A   1      49.369  37.283  29.746  1.00  0.00    -0.237 OA
ATOM     79  O   UNL A   1      47.068  37.900  30.402  1.00  0.00    -0.237 OA
ATOM     80  O   UNL A   1      48.618  36.964  32.075  1.00  0.00    -0.744 OA
ENDBRANCH  76  77
ENDBRANCH  55  69
BRANCH  56  81
ATOM     81  C   UNL A   1      43.340  23.783  27.273  1.00  0.00     0.058 A 
ATOM     82  C   UNL A   1      43.215  22.793  28.260  1.00  0.00     0.135 A 
ATOM     83  C   UNL A   1      42.989  23.441  25.958  1.00  0.00     0.135 A 
ATOM     84  F   UNL A   1      43.551  23.068  29.530  1.00  0.00    -0.206 F 
ATOM     85  C   UNL A   1      42.779  21.508  27.952  1.00  0.00     0.059 A 
ATOM     86  C   UNL A   1      42.523  22.172  25.631  1.00  0.00     0.059 A 
ATOM     87  F   UNL A   1      43.083  24.353  24.977  1.00  0.00    -0.206 F 
ATOM     88  C   UNL A   1      42.435  21.207  26.634  1.00  0.00     0.060 A 
BRANCH  88  89
ATOM     89  S   UNL A   1      41.833  19.549  26.246  1.00  0.00     0.124 S 
ATOM     90  O   UNL A   1      42.619  19.222  25.061  1.00  0.00    -0.237 OA
ATOM     91  O   UNL A   1      42.166  18.806  27.457  1.00  0.00    -0.237 OA
ATOM     92  O   UNL A   1      40.405  19.757  26.021  1.00  0.00    -0.744 OA
ENDBRANCH  88  89
ENDBRANCH  56  81
BRANCH  68  93
ATOM     93  C   UNL A   1      49.567  26.820  26.618  1.00  0.00     0.058 A 
ATOM     94  C   UNL A   1      49.932  26.939  25.267  1.00  0.00     0.135 A 
ATOM     95  C   UNL A   1      50.478  26.206  27.491  1.00  0.00     0.135 A 
ATOM     96  F   UNL A   1      49.096  27.516  24.390  1.00  0.00    -0.206 F 
ATOM     97  C   UNL A   1      51.136  26.425  24.792  1.00  0.00     0.059 A 
ATOM     98  C   UNL A   1      51.697  25.708  27.042  1.00  0.00     0.059 A 
ATOM     99  F   UNL A   1      50.185  26.079  28.795  1.00  0.00    -0.206 F 
ATOM    100  C   UNL A   1      52.007  25.803  25.687  1.00  0.00     0.060 A 
BRANCH 100 101
ATOM    101  S   UNL A   1      53.560  25.124  25.061  1.00  0.00     0.124 S 
ATOM    102  O   UNL A   1      53.550  25.595  23.680  1.00  0.00    -0.237 OA
ATOM    103  O   UNL A   1      54.551  25.744  25.936  1.00  0.00    -0.237 OA
ATOM    104  O   UNL A   1      53.394  23.685  25.236  1.00  0.00    -0.744 OA
ENDBRANCH 100 101
ENDBRANCH  68  93
ENDBRANCH  42  43
ENDBRANCH  35  37
ENDBRANCH  34  35
ENDBRANCH  33  34
ENDBRANCH  32  33
ENDBRANCH   1  32
TORSDOF 20
ENDMDL
