MODEL 1
REMARK VINA RESULT:     -10.9      0.000      0.000
REMARK SMILES C[C@H](C(=O)OCCOC(=O)c1ccc(-c2c3nc(c(-c4c(F)cc(S(=O)(=O)[O-])cc4F)c4ccc([nH]4)c(-c4c(F)cc(S(=O)(=O)[O-])cc4F)c4nc(c(-c5c(F)cc(S(=O)(=O)[O-])cc5F)c5ccc2[nH]5)C=C4)C=C3)cc1)[C@H](C)S(=O)(=O)C1CCOCC1
REMARK SMILES IDX 6 1 5 2 3 3 4 4 2 5 1 6 77 7 78 8 79 9 80 10 81 11 82 12
REMARK SMILES IDX 83 13 87 14 84 15 86 16 85 17 7 18 8 19 9 20 10 21 11 22
REMARK SMILES IDX 12 23 76 24 13 25 75 26 14 27 15 28 16 29 69 30 17 31 74 32
REMARK SMILES IDX 68 33 70 34 18 35 73 36 67 37 66 38 19 40 53 41 32 42 52 43
REMARK SMILES IDX 33 44 36 45 51 46 71 47 34 48 35 49 50 51 72 52 37 53 20 54
REMARK SMILES IDX 21 55 30 56 22 57 23 58 29 59 31 60 24 61 25 62 26 63 27 64
REMARK SMILES IDX 28 65 54 66 55 67 64 68 56 69 57 70 63 71 65 72 58 73 59 74
REMARK SMILES IDX 60 75 61 76 62 77 38 78 39 79 48 80 40 81 41 82 47 83 49 84
REMARK SMILES IDX 42 85 43 86 44 87 45 88 46 89
REMARK H PARENT 70 39 36 50
REMARK Flexibility Score: inf
ROOT
ATOM      1  C   UNL A   1      37.747  22.307  25.854  1.00  0.00     0.274 C 
ENDROOT
BRANCH   1   2
ATOM      2  O   UNL A   1      37.603  22.046  24.441  1.00  0.00    -0.462 OA
BRANCH   2   3
ATOM      3  C   UNL A   1      36.533  22.582  23.819  1.00  0.00     0.310 C 
ATOM      4  O   UNL A   1      36.567  23.076  22.701  1.00  0.00    -0.252 OA
BRANCH   3   5
ATOM      5  C   UNL A   1      35.302  22.607  24.728  1.00  0.00     0.114 C 
ATOM      6  C   UNL A   1      34.991  24.096  25.013  1.00  0.00     0.021 C 
BRANCH   5   7
ATOM      7  C   UNL A   1      34.060  21.861  24.185  1.00  0.00     0.119 C 
ATOM      8  C   UNL A   1      33.047  22.818  23.533  1.00  0.00     0.026 C 
BRANCH   7   9
ATOM      9  S   UNL A   1      33.155  20.751  25.330  1.00  0.00     0.156 S 
ATOM     10  O   UNL A   1      33.906  20.769  26.577  1.00  0.00    -0.228 OA
ATOM     11  O   UNL A   1      31.761  21.132  25.372  1.00  0.00    -0.228 OA
BRANCH   9  12
ATOM     12  C   UNL A   1      33.201  19.022  24.787  1.00  0.00     0.113 C 
ATOM     13  C   UNL A   1      32.543  18.044  25.758  1.00  0.00     0.048 C 
ATOM     14  C   UNL A   1      34.689  18.639  24.629  1.00  0.00     0.048 C 
ATOM     15  C   UNL A   1      32.835  16.601  25.386  1.00  0.00     0.161 C 
ATOM     16  C   UNL A   1      34.891  17.155  24.376  1.00  0.00     0.161 C 
ATOM     17  O   UNL A   1      34.237  16.369  25.366  1.00  0.00    -0.381 OA
ENDBRANCH   9  12
ENDBRANCH   7   9
ENDBRANCH   5   7
ENDBRANCH   3   5
ENDBRANCH   2   3
ENDBRANCH   1   2
BRANCH   1  18
ATOM     18  C   UNL A   1      39.169  22.714  26.244  1.00  0.00     0.275 C 
BRANCH  18  19
ATOM     19  O   UNL A   1      39.222  24.130  26.507  1.00  0.00    -0.458 OA
BRANCH  19  20
ATOM     20  C   UNL A   1      40.444  24.680  26.551  1.00  0.00     0.338 C 
ATOM     21  O   UNL A   1      41.389  24.519  25.789  1.00  0.00    -0.246 OA
BRANCH  20  22
ATOM     22  C   UNL A   1      40.529  25.594  27.685  1.00  0.00     0.060 A 
ATOM     23  C   UNL A   1      39.461  25.658  28.586  1.00  0.00     0.016 A 
ATOM     24  C   UNL A   1      41.601  26.485  27.772  1.00  0.00     0.016 A 
ATOM     25  C   UNL A   1      39.454  26.628  29.577  1.00  0.00     0.010 A 
ATOM     26  C   UNL A   1      41.599  27.445  28.779  1.00  0.00     0.010 A 
ATOM     27  C   UNL A   1      40.520  27.529  29.673  1.00  0.00    -0.014 A 
BRANCH  27  28
ATOM     28  C   UNL A   1      40.485  28.588  30.699  1.00  0.00     0.031 A 
ATOM     29  C   UNL A   1      41.443  28.536  31.849  1.00  0.00     0.074 A 
ATOM     30  C   UNL A   1      39.595  29.587  30.570  1.00  0.00     0.049 A 
ATOM     31  N   UNL A   1      41.485  29.283  32.919  1.00  0.00    -0.248 NA
ATOM     32  C   UNL A   1      42.492  27.504  31.790  1.00  0.00     0.031 C 
ATOM     33  C   UNL A   1      38.663  29.745  29.452  1.00  0.00     0.029 A 
ATOM     34  N   UNL A   1      39.329  30.656  31.383  1.00  0.00    -0.354 N 
ATOM     35  C   UNL A   1      42.536  28.789  33.682  1.00  0.00     0.074 A 
ATOM     36  C   UNL A   1      43.114  27.685  32.947  1.00  0.00     0.031 C 
ATOM     37  C   UNL A   1      37.930  30.853  29.647  1.00  0.00     0.029 A 
ATOM     38  C   UNL A   1      38.301  31.444  30.927  1.00  0.00     0.049 A 
ATOM     39  H   UNL A   1      39.825  30.840  32.213  1.00  0.00     0.167 HD
ATOM     40  C   UNL A   1      42.963  29.218  34.892  1.00  0.00     0.037 A 
ATOM     41  C   UNL A   1      37.702  32.503  31.503  1.00  0.00     0.037 A 
ATOM     42  C   UNL A   1      42.377  30.332  35.592  1.00  0.00     0.049 A 
ATOM     43  C   UNL A   1      38.177  32.945  32.856  1.00  0.00     0.074 A 
ATOM     44  C   UNL A   1      42.718  30.854  36.827  1.00  0.00     0.029 A 
ATOM     45  N   UNL A   1      41.326  31.101  35.108  1.00  0.00    -0.354 N 
ATOM     46  N   UNL A   1      39.140  32.441  33.593  1.00  0.00    -0.248 NA
ATOM     47  C   UNL A   1      37.479  34.083  33.464  1.00  0.00     0.031 C 
ATOM     48  C   UNL A   1      41.856  31.924  37.099  1.00  0.00     0.029 A 
ATOM     49  C   UNL A   1      40.999  32.087  36.021  1.00  0.00     0.049 A 
ATOM     50  H   UNL A   1      40.880  30.963  34.241  1.00  0.00     0.167 HD
ATOM     51  C   UNL A   1      39.164  33.199  34.756  1.00  0.00     0.074 A 
ATOM     52  C   UNL A   1      38.131  34.209  34.613  1.00  0.00     0.031 C 
ATOM     53  C   UNL A   1      39.959  33.070  35.845  1.00  0.00     0.037 A 
BRANCH  40  54
ATOM     54  C   UNL A   1      44.077  28.454  35.547  1.00  0.00     0.058 A 
ATOM     55  C   UNL A   1      43.830  27.402  36.443  1.00  0.00     0.135 A 
ATOM     56  C   UNL A   1      45.415  28.774  35.265  1.00  0.00     0.135 A 
ATOM     57  F   UNL A   1      42.569  27.070  36.764  1.00  0.00    -0.206 F 
ATOM     58  C   UNL A   1      44.871  26.705  37.050  1.00  0.00     0.059 A 
ATOM     59  C   UNL A   1      46.472  28.080  35.847  1.00  0.00     0.059 A 
ATOM     60  F   UNL A   1      45.706  29.777  34.421  1.00  0.00    -0.206 F 
ATOM     61  C   UNL A   1      46.190  27.055  36.750  1.00  0.00     0.060 A 
BRANCH  61  62
ATOM     62  S   UNL A   1      47.535  26.147  37.541  1.00  0.00     0.124 S 
ATOM     63  O   UNL A   1      47.398  24.830  36.926  1.00  0.00    -0.237 OA
ATOM     64  O   UNL A   1      48.712  26.911  37.142  1.00  0.00    -0.237 OA
ATOM     65  O   UNL A   1      47.200  26.215  38.960  1.00  0.00    -0.744 OA
ENDBRANCH  61  62
ENDBRANCH  40  54
BRANCH  41  66
ATOM     66  C   UNL A   1      36.578  33.178  30.807  1.00  0.00     0.058 A 
ATOM     67  C   UNL A   1      35.260  33.033  31.258  1.00  0.00     0.135 A 
ATOM     68  C   UNL A   1      36.809  34.031  29.716  1.00  0.00     0.135 A 
ATOM     69  F   UNL A   1      34.991  32.224  32.295  1.00  0.00    -0.206 F 
ATOM     70  C   UNL A   1      34.206  33.713  30.654  1.00  0.00     0.059 A 
ATOM     71  C   UNL A   1      35.776  34.738  29.110  1.00  0.00     0.059 A 
ATOM     72  F   UNL A   1      38.057  34.215  29.258  1.00  0.00    -0.206 F 
ATOM     73  C   UNL A   1      34.475  34.569  29.585  1.00  0.00     0.060 A 
BRANCH  73  74
ATOM     74  S   UNL A   1      33.119  35.516  28.859  1.00  0.00     0.124 S 
ATOM     75  O   UNL A   1      32.413  35.975  30.051  1.00  0.00    -0.237 OA
ATOM     76  O   UNL A   1      33.826  36.543  28.101  1.00  0.00    -0.237 OA
ATOM     77  O   UNL A   1      32.418  34.525  28.050  1.00  0.00    -0.744 OA
ENDBRANCH  73  74
ENDBRANCH  41  66
BRANCH  53  78
ATOM     78  C   UNL A   1      39.742  34.055  36.954  1.00  0.00     0.058 A 
ATOM     79  C   UNL A   1      38.910  33.753  38.042  1.00  0.00     0.135 A 
ATOM     80  C   UNL A   1      40.394  35.296  36.942  1.00  0.00     0.135 A 
ATOM     81  F   UNL A   1      38.260  32.580  38.090  1.00  0.00    -0.206 F 
ATOM     82  C   UNL A   1      38.716  34.661  39.076  1.00  0.00     0.059 A 
ATOM     83  C   UNL A   1      40.228  36.213  37.974  1.00  0.00     0.059 A 
ATOM     84  F   UNL A   1      41.205  35.624  35.922  1.00  0.00    -0.206 F 
ATOM     85  C   UNL A   1      39.376  35.890  39.031  1.00  0.00     0.060 A 
BRANCH  85  86
ATOM     86  S   UNL A   1      39.137  37.058  40.386  1.00  0.00     0.124 S 
ATOM     87  O   UNL A   1      40.502  37.522  40.615  1.00  0.00    -0.237 OA
ATOM     88  O   UNL A   1      38.225  38.038  39.803  1.00  0.00    -0.237 OA
ATOM     89  O   UNL A   1      38.566  36.231  41.445  1.00  0.00    -0.744 OA
ENDBRANCH  85  86
ENDBRANCH  53  78
ENDBRANCH  27  28
ENDBRANCH  20  22
ENDBRANCH  19  20
ENDBRANCH  18  19
ENDBRANCH   1  18
TORSDOF 17
ENDMDL
MODEL 2
REMARK VINA RESULT:     -10.8      5.585     12.635
REMARK SMILES C[C@H](C(=O)OCCOC(=O)c1ccc(-c2c3nc(c(-c4c(F)cc(S(=O)(=O)[O-])cc4F)c4ccc([nH]4)c(-c4c(F)cc(S(=O)(=O)[O-])cc4F)c4nc(c(-c5c(F)cc(S(=O)(=O)[O-])cc5F)c5ccc2[nH]5)C=C4)C=C3)cc1)[C@H](C)S(=O)(=O)C1CCOCC1
REMARK SMILES IDX 6 1 5 2 3 3 4 4 2 5 1 6 77 7 78 8 79 9 80 10 81 11 82 12
REMARK SMILES IDX 83 13 87 14 84 15 86 16 85 17 7 18 8 19 9 20 10 21 11 22
REMARK SMILES IDX 12 23 76 24 13 25 75 26 14 27 15 28 16 29 69 30 17 31 74 32
REMARK SMILES IDX 68 33 70 34 18 35 73 36 67 37 66 38 19 40 53 41 32 42 52 43
REMARK SMILES IDX 33 44 36 45 51 46 71 47 34 48 35 49 50 51 72 52 37 53 20 54
REMARK SMILES IDX 21 55 30 56 22 57 23 58 29 59 31 60 24 61 25 62 26 63 27 64
REMARK SMILES IDX 28 65 54 66 55 67 64 68 56 69 57 70 63 71 65 72 58 73 59 74
REMARK SMILES IDX 60 75 61 76 62 77 38 78 39 79 48 80 40 81 41 82 47 83 49 84
REMARK SMILES IDX 42 85 43 86 44 87 45 88 46 89
REMARK H PARENT 70 39 36 50
REMARK Flexibility Score: inf
ROOT
ATOM      1  C   UNL A   1      33.759  33.976  28.584  1.00  0.00     0.274 C 
ENDROOT
BRANCH   1   2
ATOM      2  O   UNL A   1      33.660  33.880  30.021  1.00  0.00    -0.462 OA
BRANCH   2   3
ATOM      3  C   UNL A   1      33.732  35.029  30.724  1.00  0.00     0.310 C 
ATOM      4  O   UNL A   1      33.108  36.043  30.446  1.00  0.00    -0.252 OA
BRANCH   3   5
ATOM      5  C   UNL A   1      34.779  34.948  31.838  1.00  0.00     0.114 C 
ATOM      6  C   UNL A   1      34.392  36.017  32.888  1.00  0.00     0.021 C 
BRANCH   5   7
ATOM      7  C   UNL A   1      34.953  33.553  32.485  1.00  0.00     0.119 C 
ATOM      8  C   UNL A   1      34.733  33.588  34.008  1.00  0.00     0.026 C 
BRANCH   7   9
ATOM      9  S   UNL A   1      36.505  32.636  32.146  1.00  0.00     0.156 S 
ATOM     10  O   UNL A   1      36.270  31.275  32.603  1.00  0.00    -0.228 OA
ATOM     11  O   UNL A   1      36.890  32.832  30.766  1.00  0.00    -0.228 OA
BRANCH   9  12
ATOM     12  C   UNL A   1      37.887  33.233  33.156  1.00  0.00     0.113 C 
ATOM     13  C   UNL A   1      38.748  34.294  32.474  1.00  0.00     0.048 C 
ATOM     14  C   UNL A   1      38.771  32.008  33.478  1.00  0.00     0.048 C 
ATOM     15  C   UNL A   1      40.024  34.565  33.251  1.00  0.00     0.161 C 
ATOM     16  C   UNL A   1      40.080  32.386  34.149  1.00  0.00     0.161 C 
ATOM     17  O   UNL A   1      40.780  33.370  33.394  1.00  0.00    -0.381 OA
ENDBRANCH   9  12
ENDBRANCH   7   9
ENDBRANCH   5   7
ENDBRANCH   3   5
ENDBRANCH   2   3
ENDBRANCH   1   2
BRANCH   1  18
ATOM     18  C   UNL A   1      33.777  32.610  27.895  1.00  0.00     0.275 C 
BRANCH  18  19
ATOM     19  O   UNL A   1      34.460  31.649  28.722  1.00  0.00    -0.458 OA
BRANCH  19  20
ATOM     20  C   UNL A   1      34.557  30.404  28.230  1.00  0.00     0.338 C 
ATOM     21  O   UNL A   1      33.692  29.715  27.706  1.00  0.00    -0.246 OA
BRANCH  20  22
ATOM     22  C   UNL A   1      35.929  29.929  28.370  1.00  0.00     0.060 A 
ATOM     23  C   UNL A   1      36.382  29.524  29.630  1.00  0.00     0.016 A 
ATOM     24  C   UNL A   1      36.802  30.020  27.284  1.00  0.00     0.016 A 
ATOM     25  C   UNL A   1      37.722  29.219  29.814  1.00  0.00     0.010 A 
ATOM     26  C   UNL A   1      38.142  29.695  27.468  1.00  0.00     0.010 A 
ATOM     27  C   UNL A   1      38.609  29.310  28.736  1.00  0.00    -0.014 A 
BRANCH  27  28
ATOM     28  C   UNL A   1      40.041  29.030  28.947  1.00  0.00     0.031 A 
ATOM     29  C   UNL A   1      40.934  30.106  29.483  1.00  0.00     0.074 A 
ATOM     30  C   UNL A   1      40.511  27.804  28.661  1.00  0.00     0.049 A 
ATOM     31  N   UNL A   1      42.234  30.109  29.610  1.00  0.00    -0.248 NA
ATOM     32  C   UNL A   1      40.279  31.345  29.935  1.00  0.00     0.031 C 
ATOM     33  C   UNL A   1      39.701  26.680  28.187  1.00  0.00     0.029 A 
ATOM     34  N   UNL A   1      41.781  27.297  28.726  1.00  0.00    -0.354 N 
ATOM     35  C   UNL A   1      42.559  31.361  30.117  1.00  0.00     0.074 A 
ATOM     36  C   UNL A   1      41.320  32.088  30.286  1.00  0.00     0.031 C 
ATOM     37  C   UNL A   1      40.493  25.611  28.010  1.00  0.00     0.029 A 
ATOM     38  C   UNL A   1      41.870  25.994  28.302  1.00  0.00     0.049 A 
ATOM     39  H   UNL A   1      42.555  27.816  29.046  1.00  0.00     0.167 HD
ATOM     40  C   UNL A   1      43.788  31.853  30.399  1.00  0.00     0.037 A 
ATOM     41  C   UNL A   1      42.952  25.212  28.131  1.00  0.00     0.037 A 
ATOM     42  C   UNL A   1      45.003  31.098  30.235  1.00  0.00     0.049 A 
ATOM     43  C   UNL A   1      44.305  25.788  28.428  1.00  0.00     0.074 A 
ATOM     44  C   UNL A   1      46.306  31.492  30.480  1.00  0.00     0.029 A 
ATOM     45  N   UNL A   1      45.059  29.784  29.789  1.00  0.00    -0.354 N 
ATOM     46  N   UNL A   1      44.608  26.990  28.860  1.00  0.00    -0.248 NA
ATOM     47  C   UNL A   1      45.462  24.915  28.199  1.00  0.00     0.031 C 
ATOM     48  C   UNL A   1      47.151  30.424  30.157  1.00  0.00     0.029 A 
ATOM     49  C   UNL A   1      46.373  29.354  29.741  1.00  0.00     0.049 A 
ATOM     50  H   UNL A   1      44.277  29.239  29.542  1.00  0.00     0.167 HD
ATOM     51  C   UNL A   1      45.993  27.022  28.954  1.00  0.00     0.074 A 
ATOM     52  C   UNL A   1      46.465  25.709  28.553  1.00  0.00     0.031 C 
ATOM     53  C   UNL A   1      46.803  28.041  29.330  1.00  0.00     0.037 A 
BRANCH  40  54
ATOM     54  C   UNL A   1      43.875  33.279  30.863  1.00  0.00     0.058 A 
ATOM     55  C   UNL A   1      43.818  34.357  29.967  1.00  0.00     0.135 A 
ATOM     56  C   UNL A   1      44.007  33.570  32.230  1.00  0.00     0.135 A 
ATOM     57  F   UNL A   1      43.714  34.133  28.647  1.00  0.00    -0.206 F 
ATOM     58  C   UNL A   1      43.908  35.674  30.407  1.00  0.00     0.059 A 
ATOM     59  C   UNL A   1      44.082  34.880  32.695  1.00  0.00     0.059 A 
ATOM     60  F   UNL A   1      44.074  32.575  33.129  1.00  0.00    -0.206 F 
ATOM     61  C   UNL A   1      44.045  35.926  31.774  1.00  0.00     0.060 A 
BRANCH  61  62
ATOM     62  S   UNL A   1      44.161  37.637  32.338  1.00  0.00     0.124 S 
ATOM     63  O   UNL A   1      43.900  38.369  31.102  1.00  0.00    -0.237 OA
ATOM     64  O   UNL A   1      43.111  37.710  33.349  1.00  0.00    -0.237 OA
ATOM     65  O   UNL A   1      45.524  37.734  32.850  1.00  0.00    -0.744 OA
ENDBRANCH  61  62
ENDBRANCH  40  54
BRANCH  41  66
ATOM     66  C   UNL A   1      42.783  23.825  27.628  1.00  0.00     0.058 A 
ATOM     67  C   UNL A   1      42.638  22.750  28.514  1.00  0.00     0.135 A 
ATOM     68  C   UNL A   1      42.701  23.559  26.252  1.00  0.00     0.135 A 
ATOM     69  F   UNL A   1      42.714  22.957  29.838  1.00  0.00    -0.206 F 
ATOM     70  C   UNL A   1      42.413  21.456  28.055  1.00  0.00     0.059 A 
ATOM     71  C   UNL A   1      42.456  22.278  25.770  1.00  0.00     0.059 A 
ATOM     72  F   UNL A   1      42.817  24.558  25.365  1.00  0.00    -0.206 F 
ATOM     73  C   UNL A   1      42.317  21.230  26.681  1.00  0.00     0.060 A 
BRANCH  73  74
ATOM     74  S   UNL A   1      41.940  19.565  26.091  1.00  0.00     0.124 S 
ATOM     75  O   UNL A   1      42.804  19.467  24.921  1.00  0.00    -0.237 OA
ATOM     76  O   UNL A   1      42.316  18.737  27.234  1.00  0.00    -0.237 OA
ATOM     77  O   UNL A   1      40.508  19.626  25.819  1.00  0.00    -0.744 OA
ENDBRANCH  73  74
ENDBRANCH  41  66
BRANCH  53  78
ATOM     78  C   UNL A   1      48.276  27.762  29.332  1.00  0.00     0.058 A 
ATOM     79  C   UNL A   1      48.885  27.082  30.397  1.00  0.00     0.135 A 
ATOM     80  C   UNL A   1      49.075  28.151  28.248  1.00  0.00     0.135 A 
ATOM     81  F   UNL A   1      48.159  26.698  31.458  1.00  0.00    -0.206 F 
ATOM     82  C   UNL A   1      50.248  26.813  30.395  1.00  0.00     0.059 A 
ATOM     83  C   UNL A   1      50.438  27.878  28.217  1.00  0.00     0.059 A 
ATOM     84  F   UNL A   1      48.532  28.799  27.204  1.00  0.00    -0.206 F 
ATOM     85  C   UNL A   1      51.018  27.219  29.302  1.00  0.00     0.060 A 
BRANCH  85  86
ATOM     86  S   UNL A   1      52.784  26.850  29.296  1.00  0.00     0.124 S 
ATOM     87  O   UNL A   1      52.896  25.981  28.129  1.00  0.00    -0.237 OA
ATOM     88  O   UNL A   1      53.385  28.174  29.159  1.00  0.00    -0.237 OA
ATOM     89  O   UNL A   1      52.997  26.203  30.587  1.00  0.00    -0.744 OA
ENDBRANCH  85  86
ENDBRANCH  53  78
ENDBRANCH  27  28
ENDBRANCH  20  22
ENDBRANCH  19  20
ENDBRANCH  18  19
ENDBRANCH   1  18
TORSDOF 17
ENDMDL
MODEL 3
REMARK VINA RESULT:     -10.6      6.594     11.191
REMARK SMILES C[C@H](C(=O)OCCOC(=O)c1ccc(-c2c3nc(c(-c4c(F)cc(S(=O)(=O)[O-])cc4F)c4ccc([nH]4)c(-c4c(F)cc(S(=O)(=O)[O-])cc4F)c4nc(c(-c5c(F)cc(S(=O)(=O)[O-])cc5F)c5ccc2[nH]5)C=C4)C=C3)cc1)[C@H](C)S(=O)(=O)C1CCOCC1
REMARK SMILES IDX 6 1 5 2 3 3 4 4 2 5 1 6 77 7 78 8 79 9 80 10 81 11 82 12
REMARK SMILES IDX 83 13 87 14 84 15 86 16 85 17 7 18 8 19 9 20 10 21 11 22
REMARK SMILES IDX 12 23 76 24 13 25 75 26 14 27 15 28 16 29 69 30 17 31 74 32
REMARK SMILES IDX 68 33 70 34 18 35 73 36 67 37 66 38 19 40 53 41 32 42 52 43
REMARK SMILES IDX 33 44 36 45 51 46 71 47 34 48 35 49 50 51 72 52 37 53 20 54
REMARK SMILES IDX 21 55 30 56 22 57 23 58 29 59 31 60 24 61 25 62 26 63 27 64
REMARK SMILES IDX 28 65 54 66 55 67 64 68 56 69 57 70 63 71 65 72 58 73 59 74
REMARK SMILES IDX 60 75 61 76 62 77 38 78 39 79 48 80 40 81 41 82 47 83 49 84
REMARK SMILES IDX 42 85 43 86 44 87 45 88 46 89
REMARK H PARENT 70 39 36 50
REMARK Flexibility Score: inf
ROOT
ATOM      1  C   UNL A   1      38.904  21.000  25.537  1.00  0.00     0.274 C 
ENDROOT
BRANCH   1   2
ATOM      2  O   UNL A   1      37.590  20.552  25.138  1.00  0.00    -0.462 OA
BRANCH   2   3
ATOM      3  C   UNL A   1      36.673  21.499  24.853  1.00  0.00     0.310 C 
ATOM      4  O   UNL A   1      36.942  22.586  24.360  1.00  0.00    -0.252 OA
BRANCH   3   5
ATOM      5  C   UNL A   1      35.276  21.099  25.332  1.00  0.00     0.114 C 
ATOM      6  C   UNL A   1      34.941  22.015  26.534  1.00  0.00     0.021 C 
BRANCH   5   7
ATOM      7  C   UNL A   1      34.166  21.145  24.255  1.00  0.00     0.119 C 
ATOM      8  C   UNL A   1      33.518  22.537  24.149  1.00  0.00     0.026 C 
BRANCH   7   9
ATOM      9  S   UNL A   1      32.833  19.889  24.341  1.00  0.00     0.156 S 
ATOM     10  O   UNL A   1      31.869  20.399  25.305  1.00  0.00    -0.228 OA
ATOM     11  O   UNL A   1      32.365  19.589  23.006  1.00  0.00    -0.228 OA
BRANCH   9  12
ATOM     12  C   UNL A   1      33.412  18.324  25.049  1.00  0.00     0.113 C 
ATOM     13  C   UNL A   1      34.521  17.648  24.247  1.00  0.00     0.048 C 
ATOM     14  C   UNL A   1      32.193  17.377  25.105  1.00  0.00     0.048 C 
ATOM     15  C   UNL A   1      34.784  16.234  24.735  1.00  0.00     0.161 C 
ATOM     16  C   UNL A   1      32.568  15.956  25.487  1.00  0.00     0.161 C 
ATOM     17  O   UNL A   1      33.601  15.452  24.647  1.00  0.00    -0.381 OA
ENDBRANCH   9  12
ENDBRANCH   7   9
ENDBRANCH   5   7
ENDBRANCH   3   5
ENDBRANCH   2   3
ENDBRANCH   1   2
BRANCH   1  18
ATOM     18  C   UNL A   1      39.756  19.883  26.143  1.00  0.00     0.275 C 
BRANCH  18  19
ATOM     19  O   UNL A   1      40.967  19.718  25.380  1.00  0.00    -0.458 OA
BRANCH  19  20
ATOM     20  C   UNL A   1      42.113  19.721  26.078  1.00  0.00     0.338 C 
ATOM     21  O   UNL A   1      42.823  18.776  26.395  1.00  0.00    -0.246 OA
BRANCH  20  22
ATOM     22  C   UNL A   1      42.471  21.092  26.424  1.00  0.00     0.060 A 
ATOM     23  C   UNL A   1      42.712  22.010  25.396  1.00  0.00     0.016 A 
ATOM     24  C   UNL A   1      42.706  21.426  27.760  1.00  0.00     0.016 A 
ATOM     25  C   UNL A   1      43.204  23.270  25.701  1.00  0.00     0.010 A 
ATOM     26  C   UNL A   1      43.182  22.697  28.063  1.00  0.00     0.010 A 
ATOM     27  C   UNL A   1      43.448  23.616  27.035  1.00  0.00    -0.014 A 
BRANCH  27  28
ATOM     28  C   UNL A   1      44.015  24.940  27.350  1.00  0.00     0.031 A 
ATOM     29  C   UNL A   1      43.118  26.030  27.849  1.00  0.00     0.074 A 
ATOM     30  C   UNL A   1      45.335  25.135  27.190  1.00  0.00     0.049 A 
ATOM     31  N   UNL A   1      43.388  27.292  28.049  1.00  0.00    -0.248 NA
ATOM     32  C   UNL A   1      41.729  25.653  28.161  1.00  0.00     0.031 C 
ATOM     33  C   UNL A   1      46.291  24.112  26.761  1.00  0.00     0.029 A 
ATOM     34  N   UNL A   1      46.101  26.256  27.368  1.00  0.00    -0.354 N 
ATOM     35  C   UNL A   1      42.198  27.870  28.472  1.00  0.00     0.074 A 
ATOM     36  C   UNL A   1      41.204  26.819  28.511  1.00  0.00     0.031 C 
ATOM     37  C   UNL A   1      47.520  24.652  26.716  1.00  0.00     0.029 A 
ATOM     38  C   UNL A   1      47.424  26.067  27.054  1.00  0.00     0.049 A 
ATOM     39  H   UNL A   1      45.738  27.113  27.689  1.00  0.00     0.167 HD
ATOM     40  C   UNL A   1      41.964  29.166  28.784  1.00  0.00     0.037 A 
ATOM     41  C   UNL A   1      48.437  26.952  27.009  1.00  0.00     0.037 A 
ATOM     42  C   UNL A   1      42.979  30.187  28.751  1.00  0.00     0.049 A 
ATOM     43  C   UNL A   1      48.147  28.388  27.336  1.00  0.00     0.074 A 
ATOM     44  C   UNL A   1      42.860  31.535  29.038  1.00  0.00     0.029 A 
ATOM     45  N   UNL A   1      44.308  29.964  28.415  1.00  0.00    -0.354 N 
ATOM     46  N   UNL A   1      47.007  28.936  27.687  1.00  0.00    -0.248 NA
ATOM     47  C   UNL A   1      49.270  29.328  27.244  1.00  0.00     0.031 C 
ATOM     48  C   UNL A   1      44.113  32.131  28.850  1.00  0.00     0.029 A 
ATOM     49  C   UNL A   1      45.019  31.150  28.477  1.00  0.00     0.049 A 
ATOM     50  H   UNL A   1      44.688  29.090  28.167  1.00  0.00     0.167 HD
ATOM     51  C   UNL A   1      47.272  30.288  27.858  1.00  0.00     0.074 A 
ATOM     52  C   UNL A   1      48.687  30.469  27.590  1.00  0.00     0.031 C 
ATOM     53  C   UNL A   1      46.426  31.290  28.197  1.00  0.00     0.037 A 
BRANCH  40  54
ATOM     54  C   UNL A   1      40.557  29.552  29.137  1.00  0.00     0.058 A 
ATOM     55  C   UNL A   1      40.178  29.860  30.452  1.00  0.00     0.135 A 
ATOM     56  C   UNL A   1      39.572  29.626  28.138  1.00  0.00     0.135 A 
ATOM     57  F   UNL A   1      41.076  29.785  31.448  1.00  0.00    -0.206 F 
ATOM     58  C   UNL A   1      38.868  30.210  30.769  1.00  0.00     0.059 A 
ATOM     59  C   UNL A   1      38.260  29.989  28.428  1.00  0.00     0.059 A 
ATOM     60  F   UNL A   1      39.880  29.333  26.864  1.00  0.00    -0.206 F 
ATOM     61  C   UNL A   1      37.915  30.266  29.750  1.00  0.00     0.060 A 
BRANCH  61  62
ATOM     62  S   UNL A   1      36.217  30.720  30.169  1.00  0.00     0.124 S 
ATOM     63  O   UNL A   1      35.527  30.460  28.909  1.00  0.00    -0.237 OA
ATOM     64  O   UNL A   1      35.905  29.805  31.262  1.00  0.00    -0.237 OA
ATOM     65  O   UNL A   1      36.327  32.126  30.547  1.00  0.00    -0.744 OA
ENDBRANCH  61  62
ENDBRANCH  40  54
BRANCH  41  66
ATOM     66  C   UNL A   1      49.792  26.497  26.609  1.00  0.00     0.058 A 
ATOM     67  C   UNL A   1      50.719  26.066  27.567  1.00  0.00     0.135 A 
ATOM     68  C   UNL A   1      50.163  26.424  25.257  1.00  0.00     0.135 A 
ATOM     69  F   UNL A   1      50.410  26.122  28.872  1.00  0.00    -0.206 F 
ATOM     70  C   UNL A   1      51.969  25.576  27.200  1.00  0.00     0.059 A 
ATOM     71  C   UNL A   1      51.397  25.918  24.864  1.00  0.00     0.059 A 
ATOM     72  F   UNL A   1      49.303  26.809  24.302  1.00  0.00    -0.206 F 
ATOM     73  C   UNL A   1      52.296  25.499  25.845  1.00  0.00     0.060 A 
BRANCH  73  74
ATOM     74  S   UNL A   1      53.884  24.781  25.368  1.00  0.00     0.124 S 
ATOM     75  O   UNL A   1      53.494  23.422  25.009  1.00  0.00    -0.237 OA
ATOM     76  O   UNL A   1      54.294  25.640  24.261  1.00  0.00    -0.237 OA
ATOM     77  O   UNL A   1      54.685  24.913  26.580  1.00  0.00    -0.744 OA
ENDBRANCH  73  74
ENDBRANCH  41  66
BRANCH  53  78
ATOM     78  C   UNL A   1      47.021  32.662  28.305  1.00  0.00     0.058 A 
ATOM     79  C   UNL A   1      47.620  33.102  29.495  1.00  0.00     0.135 A 
ATOM     80  C   UNL A   1      47.016  33.529  27.203  1.00  0.00     0.135 A 
ATOM     81  F   UNL A   1      47.639  32.308  30.576  1.00  0.00    -0.206 F 
ATOM     82  C   UNL A   1      48.180  34.370  29.593  1.00  0.00     0.059 A 
ATOM     83  C   UNL A   1      47.586  34.795  27.274  1.00  0.00     0.059 A 
ATOM     84  F   UNL A   1      46.458  33.145  26.043  1.00  0.00    -0.206 F 
ATOM     85  C   UNL A   1      48.155  35.211  28.479  1.00  0.00     0.060 A 
BRANCH  85  86
ATOM     86  S   UNL A   1      48.902  36.849  28.606  1.00  0.00     0.124 S 
ATOM     87  O   UNL A   1      49.509  36.995  27.287  1.00  0.00    -0.237 OA
ATOM     88  O   UNL A   1      47.749  37.704  28.871  1.00  0.00    -0.237 OA
ATOM     89  O   UNL A   1      49.837  36.706  29.717  1.00  0.00    -0.744 OA
ENDBRANCH  85  86
ENDBRANCH  53  78
ENDBRANCH  27  28
ENDBRANCH  20  22
ENDBRANCH  19  20
ENDBRANCH  18  19
ENDBRANCH   1  18
TORSDOF 17
ENDMDL
