MODEL 1
REMARK VINA RESULT:     -11.4      0.000      0.000
REMARK SMILES CC1(C)CSC[C@H](Nc2cc(C(=O)OCCOC(=O)c3ccc(-c4c5nc(c(-c6c(F)cc(S(=O)(=O)[O-])cc6F)c6ccc([nH]6)c(-c6c(F)cc(S(=O)(=O)[O-])cc6F)c6nc(c(-c7c(F)cc(S(=O)(=O)[O-])cc7F)c7ccc4[nH]7)C=C6)C=C5)cc3)ccc2F)C1
REMARK SMILES IDX 16 1 15 2 14 3 12 4 13 5 11 6 9 7 10 8 88 9 87 10 89 11
REMARK SMILES IDX 86 12 8 13 7 15 1 16 2 17 3 18 4 19 90 20 5 21 6 22 17 23
REMARK SMILES IDX 18 24 19 25 20 26 21 27 85 28 22 29 84 30 23 31 24 32 25 33
REMARK SMILES IDX 78 34 26 35 83 36 77 37 79 38 27 39 82 40 76 41 75 42 28 44
REMARK SMILES IDX 62 45 41 46 61 47 42 48 45 49 60 50 80 51 43 52 44 53 59 55
REMARK SMILES IDX 81 56 46 57 29 58 30 59 39 60 31 61 32 62 38 63 40 64 33 65
REMARK SMILES IDX 34 66 35 67 36 68 37 69 63 70 64 71 73 72 65 73 66 74 72 75
REMARK SMILES IDX 74 76 67 77 68 78 69 79 70 80 71 81 47 82 48 83 57 84 49 85
REMARK SMILES IDX 50 86 56 87 58 88 51 89 52 90 53 91 54 92 55 93
REMARK H PARENT 8 14 79 43 45 54
REMARK Flexibility Score: inf
ROOT
ATOM      1  C   UNL A   1      43.149  23.477  25.166  1.00  0.00     0.275 C 
ENDROOT
BRANCH   1   2
ATOM      2  C   UNL A   1      42.715  22.516  26.276  1.00  0.00     0.275 C 
BRANCH   2   3
ATOM      3  O   UNL A   1      41.699  21.593  25.824  1.00  0.00    -0.458 OA
BRANCH   3   4
ATOM      4  C   UNL A   1      40.712  21.336  26.718  1.00  0.00     0.338 C 
ATOM      5  O   UNL A   1      40.779  20.586  27.674  1.00  0.00    -0.246 OA
BRANCH   4   6
ATOM      6  C   UNL A   1      39.509  22.154  26.439  1.00  0.00     0.062 A 
ATOM      7  C   UNL A   1      37.424  22.362  25.162  1.00  0.00     0.071 A 
ATOM      8  C   UNL A   1      38.548  21.636  25.559  1.00  0.00     0.044 A 
ATOM      9  C   UNL A   1      37.330  23.680  25.618  1.00  0.00     0.146 A 
ATOM     10  C   UNL A   1      38.274  24.217  26.502  1.00  0.00     0.042 A 
ATOM     11  F   UNL A   1      36.313  24.462  25.223  1.00  0.00    -0.205 F 
ATOM     12  C   UNL A   1      39.363  23.449  26.928  1.00  0.00     0.019 A 
BRANCH   7  13
ATOM     13  N   UNL A   1      36.551  21.769  24.252  1.00  0.00    -0.379 N 
ATOM     14  H   UNL A   1      36.833  21.626  23.320  1.00  0.00     0.160 HD
BRANCH  13  15
ATOM     15  C   UNL A   1      35.208  21.356  24.685  1.00  0.00     0.089 C 
ATOM     16  C   UNL A   1      32.334  20.416  23.755  1.00  0.00     0.012 C 
ATOM     17  C   UNL A   1      32.688  21.850  24.202  1.00  0.00    -0.024 C 
ATOM     18  C   UNL A   1      31.788  22.819  23.404  1.00  0.00     0.012 C 
ATOM     19  C   UNL A   1      32.382  22.059  25.701  1.00  0.00     0.076 C 
ATOM     20  C   UNL A   1      34.172  22.169  23.876  1.00  0.00     0.033 C 
ATOM     21  S   UNL A   1      33.424  21.072  26.816  1.00  0.00    -0.159 SA
ATOM     22  C   UNL A   1      35.042  21.607  26.195  1.00  0.00     0.094 C 
ENDBRANCH  13  15
ENDBRANCH   7  13
ENDBRANCH   4   6
ENDBRANCH   3   4
ENDBRANCH   2   3
ENDBRANCH   1   2
BRANCH   1  23
ATOM     23  O   UNL A   1      43.492  24.770  25.699  1.00  0.00    -0.458 OA
BRANCH  23  24
ATOM     24  C   UNL A   1      42.452  25.623  25.820  1.00  0.00     0.338 C 
ATOM     25  O   UNL A   1      41.552  25.812  25.017  1.00  0.00    -0.246 OA
BRANCH  24  26
ATOM     26  C   UNL A   1      42.467  26.276  27.136  1.00  0.00     0.060 A 
ATOM     27  C   UNL A   1      41.666  25.735  28.132  1.00  0.00     0.016 A 
ATOM     28  C   UNL A   1      43.059  27.521  27.321  1.00  0.00     0.016 A 
ATOM     29  C   UNL A   1      41.300  26.504  29.231  1.00  0.00     0.010 A 
ATOM     30  C   UNL A   1      42.820  28.226  28.510  1.00  0.00     0.010 A 
ATOM     31  C   UNL A   1      41.892  27.753  29.457  1.00  0.00    -0.014 A 
BRANCH  31  32
ATOM     32  C   UNL A   1      41.524  28.556  30.665  1.00  0.00     0.031 A 
ATOM     33  C   UNL A   1      40.344  29.502  30.628  1.00  0.00     0.074 A 
ATOM     34  C   UNL A   1      42.227  28.420  31.812  1.00  0.00     0.049 A 
ATOM     35  N   UNL A   1      39.983  30.406  31.504  1.00  0.00    -0.248 NA
ATOM     36  C   UNL A   1      39.460  29.431  29.452  1.00  0.00     0.031 C 
ATOM     37  C   UNL A   1      43.355  27.508  32.017  1.00  0.00     0.029 A 
ATOM     38  N   UNL A   1      42.089  29.037  33.033  1.00  0.00    -0.354 N 
ATOM     39  C   UNL A   1      38.864  31.037  30.967  1.00  0.00     0.074 A 
ATOM     40  C   UNL A   1      38.616  30.429  29.680  1.00  0.00     0.031 C 
ATOM     41  C   UNL A   1      43.760  27.574  33.292  1.00  0.00     0.029 A 
ATOM     42  C   UNL A   1      43.007  28.620  33.970  1.00  0.00     0.049 A 
ATOM     43  H   UNL A   1      41.400  29.715  33.219  1.00  0.00     0.167 HD
ATOM     44  C   UNL A   1      38.106  32.024  31.507  1.00  0.00     0.037 A 
ATOM     45  C   UNL A   1      43.258  29.057  35.220  1.00  0.00     0.037 A 
ATOM     46  C   UNL A   1      38.332  32.591  32.813  1.00  0.00     0.049 A 
ATOM     47  C   UNL A   1      42.458  30.209  35.759  1.00  0.00     0.074 A 
ATOM     48  C   UNL A   1      37.630  33.607  33.441  1.00  0.00     0.029 A 
ATOM     49  N   UNL A   1      39.312  32.177  33.701  1.00  0.00    -0.354 N 
ATOM     50  N   UNL A   1      41.455  30.846  35.203  1.00  0.00    -0.248 NA
ATOM     51  C   UNL A   1      42.837  30.717  37.083  1.00  0.00     0.031 C 
ATOM     52  C   UNL A   1      38.210  33.832  34.694  1.00  0.00     0.029 A 
ATOM     53  C   UNL A   1      39.239  32.921  34.869  1.00  0.00     0.049 A 
ATOM     54  H   UNL A   1      39.965  31.461  33.529  1.00  0.00     0.167 HD
ATOM     55  C   UNL A   1      41.069  31.815  36.122  1.00  0.00     0.074 A 
ATOM     56  C   UNL A   1      41.932  31.664  37.276  1.00  0.00     0.031 C 
ATOM     57  C   UNL A   1      40.093  32.749  36.017  1.00  0.00     0.037 A 
BRANCH  44  58
ATOM     58  C   UNL A   1      36.955  32.565  30.701  1.00  0.00     0.058 A 
ATOM     59  C   UNL A   1      37.160  33.599  29.770  1.00  0.00     0.135 A 
ATOM     60  C   UNL A   1      35.636  32.138  30.918  1.00  0.00     0.135 A 
ATOM     61  F   UNL A   1      38.400  34.044  29.516  1.00  0.00    -0.206 F 
ATOM     62  C   UNL A   1      36.097  34.207  29.108  1.00  0.00     0.059 A 
ATOM     63  C   UNL A   1      34.560  32.714  30.247  1.00  0.00     0.059 A 
ATOM     64  F   UNL A   1      35.385  31.140  31.780  1.00  0.00    -0.206 F 
ATOM     65  C   UNL A   1      34.799  33.762  29.359  1.00  0.00     0.060 A 
BRANCH  65  66
ATOM     66  S   UNL A   1      33.432  34.568  28.496  1.00  0.00     0.124 S 
ATOM     67  O   UNL A   1      34.113  35.650  27.796  1.00  0.00    -0.237 OA
ATOM     68  O   UNL A   1      32.924  33.487  27.656  1.00  0.00    -0.237 OA
ATOM     69  O   UNL A   1      32.543  34.979  29.578  1.00  0.00    -0.744 OA
ENDBRANCH  65  66
ENDBRANCH  44  58
BRANCH  45  70
ATOM     70  C   UNL A   1      44.334  28.428  36.037  1.00  0.00     0.058 A 
ATOM     71  C   UNL A   1      45.671  28.843  35.938  1.00  0.00     0.135 A 
ATOM     72  C   UNL A   1      44.037  27.396  36.940  1.00  0.00     0.135 A 
ATOM     73  F   UNL A   1      46.013  29.822  35.085  1.00  0.00    -0.206 F 
ATOM     74  C   UNL A   1      46.678  28.246  36.687  1.00  0.00     0.059 A 
ATOM     75  C   UNL A   1      45.023  26.806  37.728  1.00  0.00     0.059 A 
ATOM     76  F   UNL A   1      42.773  26.972  37.080  1.00  0.00    -0.206 F 
ATOM     77  C   UNL A   1      46.343  27.230  37.583  1.00  0.00     0.060 A 
BRANCH  77  78
ATOM     78  S   UNL A   1      47.660  26.496  38.575  1.00  0.00     0.124 S 
ATOM     79  O   UNL A   1      47.393  27.074  39.888  1.00  0.00    -0.237 OA
ATOM     80  O   UNL A   1      47.382  25.070  38.442  1.00  0.00    -0.237 OA
ATOM     81  O   UNL A   1      48.877  26.961  37.919  1.00  0.00    -0.744 OA
ENDBRANCH  77  78
ENDBRANCH  45  70
BRANCH  57  82
ATOM     82  C   UNL A   1      39.871  33.653  37.196  1.00  0.00     0.058 A 
ATOM     83  C   UNL A   1      38.933  33.313  38.184  1.00  0.00     0.135 A 
ATOM     84  C   UNL A   1      40.549  34.875  37.329  1.00  0.00     0.135 A 
ATOM     85  F   UNL A   1      38.253  32.158  38.103  1.00  0.00    -0.206 F 
ATOM     86  C   UNL A   1      38.667  34.157  39.255  1.00  0.00     0.059 A 
ATOM     87  C   UNL A   1      40.323  35.721  38.410  1.00  0.00     0.059 A 
ATOM     88  F   UNL A   1      41.466  35.239  36.418  1.00  0.00    -0.206 F 
ATOM     89  C   UNL A   1      39.368  35.359  39.360  1.00  0.00     0.060 A 
BRANCH  89  90
ATOM     90  S   UNL A   1      39.034  36.428  40.776  1.00  0.00     0.124 S 
ATOM     91  O   UNL A   1      40.347  36.514  41.403  1.00  0.00    -0.237 OA
ATOM     92  O   UNL A   1      38.554  37.648  40.133  1.00  0.00    -0.237 OA
ATOM     93  O   UNL A   1      38.025  35.687  41.529  1.00  0.00    -0.744 OA
ENDBRANCH  89  90
ENDBRANCH  57  82
ENDBRANCH  31  32
ENDBRANCH  24  26
ENDBRANCH  23  24
ENDBRANCH   1  23
TORSDOF 16
ENDMDL
MODEL 2
REMARK VINA RESULT:     -11.3      5.109     10.353
REMARK SMILES CC1(C)CSC[C@H](Nc2cc(C(=O)OCCOC(=O)c3ccc(-c4c5nc(c(-c6c(F)cc(S(=O)(=O)[O-])cc6F)c6ccc([nH]6)c(-c6c(F)cc(S(=O)(=O)[O-])cc6F)c6nc(c(-c7c(F)cc(S(=O)(=O)[O-])cc7F)c7ccc4[nH]7)C=C6)C=C5)cc3)ccc2F)C1
REMARK SMILES IDX 16 1 15 2 14 3 12 4 13 5 11 6 9 7 10 8 88 9 87 10 89 11
REMARK SMILES IDX 86 12 8 13 7 15 1 16 2 17 3 18 4 19 90 20 5 21 6 22 17 23
REMARK SMILES IDX 18 24 19 25 20 26 21 27 85 28 22 29 84 30 23 31 24 32 25 33
REMARK SMILES IDX 78 34 26 35 83 36 77 37 79 38 27 39 82 40 76 41 75 42 28 44
REMARK SMILES IDX 62 45 41 46 61 47 42 48 45 49 60 50 80 51 43 52 44 53 59 55
REMARK SMILES IDX 81 56 46 57 29 58 30 59 39 60 31 61 32 62 38 63 40 64 33 65
REMARK SMILES IDX 34 66 35 67 36 68 37 69 63 70 64 71 73 72 65 73 66 74 72 75
REMARK SMILES IDX 74 76 67 77 68 78 69 79 70 80 71 81 47 82 48 83 57 84 49 85
REMARK SMILES IDX 50 86 56 87 58 88 51 89 52 90 53 91 54 92 55 93
REMARK H PARENT 8 14 79 43 45 54
REMARK Flexibility Score: inf
ROOT
ATOM      1  C   UNL A   1      32.482  28.418  27.360  1.00  0.00     0.275 C 
ENDROOT
BRANCH   1   2
ATOM      2  C   UNL A   1      32.131  27.022  26.842  1.00  0.00     0.275 C 
BRANCH   2   3
ATOM      3  O   UNL A   1      30.703  26.826  26.743  1.00  0.00    -0.458 OA
BRANCH   3   4
ATOM      4  C   UNL A   1      30.316  25.658  26.172  1.00  0.00     0.338 C 
ATOM      5  O   UNL A   1      29.669  24.773  26.701  1.00  0.00    -0.246 OA
BRANCH   4   6
ATOM      6  C   UNL A   1      30.723  25.597  24.749  1.00  0.00     0.062 A 
ATOM      7  C   UNL A   1      31.832  24.296  22.989  1.00  0.00     0.071 A 
ATOM      8  C   UNL A   1      31.334  24.423  24.286  1.00  0.00     0.044 A 
ATOM      9  C   UNL A   1      31.773  25.432  22.176  1.00  0.00     0.146 A 
ATOM     10  C   UNL A   1      31.163  26.614  22.615  1.00  0.00     0.042 A 
ATOM     11  F   UNL A   1      32.294  25.407  20.940  1.00  0.00    -0.205 F 
ATOM     12  C   UNL A   1      30.622  26.697  23.901  1.00  0.00     0.019 A 
BRANCH   7  13
ATOM     13  N   UNL A   1      32.456  23.099  22.642  1.00  0.00    -0.379 N 
ATOM     14  H   UNL A   1      32.701  22.924  21.706  1.00  0.00     0.160 HD
BRANCH  13  15
ATOM     15  C   UNL A   1      32.748  22.097  23.678  1.00  0.00     0.089 C 
ATOM     16  C   UNL A   1      34.169  21.536  26.447  1.00  0.00     0.012 C 
ATOM     17  C   UNL A   1      34.748  21.153  25.069  1.00  0.00    -0.024 C 
ATOM     18  C   UNL A   1      36.286  21.246  25.171  1.00  0.00     0.012 C 
ATOM     19  C   UNL A   1      34.393  19.697  24.700  1.00  0.00     0.076 C 
ATOM     20  C   UNL A   1      34.262  22.148  23.982  1.00  0.00     0.033 C 
ATOM     21  S   UNL A   1      32.618  19.411  24.433  1.00  0.00    -0.159 SA
ATOM     22  C   UNL A   1      32.336  20.697  23.186  1.00  0.00     0.094 C 
ENDBRANCH  13  15
ENDBRANCH   7  13
ENDBRANCH   4   6
ENDBRANCH   3   4
ENDBRANCH   2   3
ENDBRANCH   1   2
BRANCH   1  23
ATOM     23  O   UNL A   1      33.908  28.592  27.468  1.00  0.00    -0.458 OA
BRANCH  23  24
ATOM     24  C   UNL A   1      34.304  29.860  27.712  1.00  0.00     0.338 C 
ATOM     25  O   UNL A   1      33.623  30.872  27.658  1.00  0.00    -0.246 OA
BRANCH  24  26
ATOM     26  C   UNL A   1      35.702  29.889  28.164  1.00  0.00     0.060 A 
ATOM     27  C   UNL A   1      36.669  30.267  27.243  1.00  0.00     0.016 A 
ATOM     28  C   UNL A   1      36.082  29.332  29.381  1.00  0.00     0.016 A 
ATOM     29  C   UNL A   1      38.000  29.924  27.445  1.00  0.00     0.010 A 
ATOM     30  C   UNL A   1      37.444  29.139  29.652  1.00  0.00     0.010 A 
ATOM     31  C   UNL A   1      38.420  29.379  28.665  1.00  0.00    -0.014 A 
BRANCH  31  32
ATOM     32  C   UNL A   1      39.862  29.051  28.890  1.00  0.00     0.031 A 
ATOM     33  C   UNL A   1      40.795  30.070  29.506  1.00  0.00     0.074 A 
ATOM     34  C   UNL A   1      40.339  27.826  28.572  1.00  0.00     0.049 A 
ATOM     35  N   UNL A   1      42.099  30.038  29.612  1.00  0.00    -0.248 NA
ATOM     36  C   UNL A   1      40.185  31.288  30.068  1.00  0.00     0.031 C 
ATOM     37  C   UNL A   1      39.549  26.721  28.021  1.00  0.00     0.029 A 
ATOM     38  N   UNL A   1      41.602  27.294  28.679  1.00  0.00    -0.354 N 
ATOM     39  C   UNL A   1      42.467  31.241  30.208  1.00  0.00     0.074 A 
ATOM     40  C   UNL A   1      41.252  31.993  30.422  1.00  0.00     0.031 C 
ATOM     41  C   UNL A   1      40.322  25.633  27.903  1.00  0.00     0.029 A 
ATOM     42  C   UNL A   1      41.691  25.989  28.250  1.00  0.00     0.049 A 
ATOM     43  H   UNL A   1      42.372  27.799  29.028  1.00  0.00     0.167 HD
ATOM     44  C   UNL A   1      43.706  31.671  30.556  1.00  0.00     0.037 A 
ATOM     45  C   UNL A   1      42.755  25.175  28.101  1.00  0.00     0.037 A 
ATOM     46  C   UNL A   1      44.908  30.895  30.383  1.00  0.00     0.049 A 
ATOM     47  C   UNL A   1      44.124  25.710  28.414  1.00  0.00     0.074 A 
ATOM     48  C   UNL A   1      46.212  31.250  30.688  1.00  0.00     0.029 A 
ATOM     49  N   UNL A   1      44.954  29.600  29.889  1.00  0.00    -0.354 N 
ATOM     50  N   UNL A   1      44.460  26.880  28.900  1.00  0.00    -0.248 NA
ATOM     51  C   UNL A   1      45.260  24.822  28.136  1.00  0.00     0.031 C 
ATOM     52  C   UNL A   1      47.049  30.185  30.342  1.00  0.00     0.029 A 
ATOM     53  C   UNL A   1      46.263  29.145  29.872  1.00  0.00     0.049 A 
ATOM     54  H   UNL A   1      44.172  29.081  29.591  1.00  0.00     0.167 HD
ATOM     55  C   UNL A   1      45.845  26.860  29.009  1.00  0.00     0.074 A 
ATOM     56  C   UNL A   1      46.281  25.554  28.558  1.00  0.00     0.031 C 
ATOM     57  C   UNL A   1      46.681  27.836  29.438  1.00  0.00     0.037 A 
BRANCH  44  58
ATOM     58  C   UNL A   1      43.843  33.043  31.162  1.00  0.00     0.058 A 
ATOM     59  C   UNL A   1      43.854  33.209  32.558  1.00  0.00     0.135 A 
ATOM     60  C   UNL A   1      43.861  34.202  30.369  1.00  0.00     0.135 A 
ATOM     61  F   UNL A   1      43.844  32.137  33.366  1.00  0.00    -0.206 F 
ATOM     62  C   UNL A   1      43.846  34.471  33.144  1.00  0.00     0.059 A 
ATOM     63  C   UNL A   1      43.881  35.475  30.935  1.00  0.00     0.059 A 
ATOM     64  F   UNL A   1      43.874  34.102  29.031  1.00  0.00    -0.206 F 
ATOM     65  C   UNL A   1      43.853  35.599  32.323  1.00  0.00     0.060 A 
BRANCH  65  66
ATOM     66  S   UNL A   1      43.838  37.230  33.102  1.00  0.00     0.124 S 
ATOM     67  O   UNL A   1      42.658  37.145  33.954  1.00  0.00    -0.237 OA
ATOM     68  O   UNL A   1      45.123  37.248  33.794  1.00  0.00    -0.237 OA
ATOM     69  O   UNL A   1      43.732  38.145  31.969  1.00  0.00    -0.744 OA
ENDBRANCH  65  66
ENDBRANCH  44  58
BRANCH  45  70
ATOM     70  C   UNL A   1      42.576  23.784  27.600  1.00  0.00     0.058 A 
ATOM     71  C   UNL A   1      42.536  23.494  26.227  1.00  0.00     0.135 A 
ATOM     72  C   UNL A   1      42.444  22.712  28.496  1.00  0.00     0.135 A 
ATOM     73  F   UNL A   1      42.650  24.482  25.325  1.00  0.00    -0.206 F 
ATOM     74  C   UNL A   1      42.352  22.198  25.760  1.00  0.00     0.059 A 
ATOM     75  C   UNL A   1      42.296  21.400  28.052  1.00  0.00     0.059 A 
ATOM     76  F   UNL A   1      42.489  22.935  29.818  1.00  0.00    -0.206 F 
ATOM     77  C   UNL A   1      42.237  21.156  26.680  1.00  0.00     0.060 A 
BRANCH  77  78
ATOM     78  S   UNL A   1      42.039  19.476  26.051  1.00  0.00     0.124 S 
ATOM     79  O   UNL A   1      42.907  19.500  24.878  1.00  0.00    -0.237 OA
ATOM     80  O   UNL A   1      42.513  18.673  27.174  1.00  0.00    -0.237 OA
ATOM     81  O   UNL A   1      40.611  19.385  25.775  1.00  0.00    -0.744 OA
ENDBRANCH  77  78
ENDBRANCH  45  70
BRANCH  57  82
ATOM     82  C   UNL A   1      48.149  27.519  29.484  1.00  0.00     0.058 A 
ATOM     83  C   UNL A   1      48.716  26.957  30.640  1.00  0.00     0.135 A 
ATOM     84  C   UNL A   1      49.003  27.809  28.409  1.00  0.00     0.135 A 
ATOM     85  F   UNL A   1      47.945  26.664  31.699  1.00  0.00    -0.206 F 
ATOM     86  C   UNL A   1      50.080  26.706  30.731  1.00  0.00     0.059 A 
ATOM     87  C   UNL A   1      50.366  27.536  28.466  1.00  0.00     0.059 A 
ATOM     88  F   UNL A   1      48.507  28.335  27.278  1.00  0.00    -0.206 F 
ATOM     89  C   UNL A   1      50.897  26.997  29.638  1.00  0.00     0.060 A 
BRANCH  89  90
ATOM     90  S   UNL A   1      52.661  26.633  29.763  1.00  0.00     0.124 S 
ATOM     91  O   UNL A   1      52.933  26.028  28.465  1.00  0.00    -0.237 OA
ATOM     92  O   UNL A   1      53.233  27.959  29.980  1.00  0.00    -0.237 OA
ATOM     93  O   UNL A   1      52.739  25.729  30.907  1.00  0.00    -0.744 OA
ENDBRANCH  89  90
ENDBRANCH  57  82
ENDBRANCH  31  32
ENDBRANCH  24  26
ENDBRANCH  23  24
ENDBRANCH   1  23
TORSDOF 16
ENDMDL
MODEL 3
REMARK VINA RESULT:     -11.2      2.966      9.509
REMARK SMILES CC1(C)CSC[C@H](Nc2cc(C(=O)OCCOC(=O)c3ccc(-c4c5nc(c(-c6c(F)cc(S(=O)(=O)[O-])cc6F)c6ccc([nH]6)c(-c6c(F)cc(S(=O)(=O)[O-])cc6F)c6nc(c(-c7c(F)cc(S(=O)(=O)[O-])cc7F)c7ccc4[nH]7)C=C6)C=C5)cc3)ccc2F)C1
REMARK SMILES IDX 16 1 15 2 14 3 12 4 13 5 11 6 9 7 10 8 88 9 87 10 89 11
REMARK SMILES IDX 86 12 8 13 7 15 1 16 2 17 3 18 4 19 90 20 5 21 6 22 17 23
REMARK SMILES IDX 18 24 19 25 20 26 21 27 85 28 22 29 84 30 23 31 24 32 25 33
REMARK SMILES IDX 78 34 26 35 83 36 77 37 79 38 27 39 82 40 76 41 75 42 28 44
REMARK SMILES IDX 62 45 41 46 61 47 42 48 45 49 60 50 80 51 43 52 44 53 59 55
REMARK SMILES IDX 81 56 46 57 29 58 30 59 39 60 31 61 32 62 38 63 40 64 33 65
REMARK SMILES IDX 34 66 35 67 36 68 37 69 63 70 64 71 73 72 65 73 66 74 72 75
REMARK SMILES IDX 74 76 67 77 68 78 69 79 70 80 71 81 47 82 48 83 57 84 49 85
REMARK SMILES IDX 50 86 56 87 58 88 51 89 52 90 53 91 54 92 55 93
REMARK H PARENT 8 14 79 43 45 54
REMARK Flexibility Score: inf
ROOT
ATOM      1  C   UNL A   1      39.504  22.662  26.419  1.00  0.00     0.275 C 
ENDROOT
BRANCH   1   2
ATOM      2  C   UNL A   1      39.866  21.178  26.321  1.00  0.00     0.275 C 
BRANCH   2   3
ATOM      3  O   UNL A   1      41.204  20.916  26.798  1.00  0.00    -0.458 OA
BRANCH   3   4
ATOM      4  C   UNL A   1      41.922  20.036  26.056  1.00  0.00     0.338 C 
ATOM      5  O   UNL A   1      41.563  18.931  25.696  1.00  0.00    -0.246 OA
BRANCH   4   6
ATOM      6  C   UNL A   1      43.224  20.615  25.650  1.00  0.00     0.062 A 
ATOM      7  C   UNL A   1      44.456  22.636  25.004  1.00  0.00     0.071 A 
ATOM      8  C   UNL A   1      43.302  22.003  25.468  1.00  0.00     0.044 A 
ATOM      9  C   UNL A   1      45.525  21.813  24.642  1.00  0.00     0.146 A 
ATOM     10  C   UNL A   1      45.473  20.424  24.820  1.00  0.00     0.042 A 
ATOM     11  F   UNL A   1      46.643  22.344  24.122  1.00  0.00    -0.205 F 
ATOM     12  C   UNL A   1      44.324  19.820  25.339  1.00  0.00     0.019 A 
BRANCH   7  13
ATOM     13  N   UNL A   1      44.414  24.017  24.820  1.00  0.00    -0.379 N 
ATOM     14  H   UNL A   1      43.904  24.399  24.070  1.00  0.00     0.160 HD
BRANCH  13  15
ATOM     15  C   UNL A   1      45.133  24.903  25.748  1.00  0.00     0.089 C 
ATOM     16  C   UNL A   1      46.674  25.109  28.502  1.00  0.00     0.012 C 
ATOM     17  C   UNL A   1      45.211  25.543  28.280  1.00  0.00    -0.024 C 
ATOM     18  C   UNL A   1      44.450  25.298  29.602  1.00  0.00     0.012 C 
ATOM     19  C   UNL A   1      45.117  27.050  27.961  1.00  0.00     0.076 C 
ATOM     20  C   UNL A   1      44.555  24.686  27.165  1.00  0.00     0.033 C 
ATOM     21  S   UNL A   1      45.871  27.523  26.377  1.00  0.00    -0.159 SA
ATOM     22  C   UNL A   1      44.967  26.369  25.309  1.00  0.00     0.094 C 
ENDBRANCH  13  15
ENDBRANCH   7  13
ENDBRANCH   4   6
ENDBRANCH   3   4
ENDBRANCH   2   3
ENDBRANCH   1   2
BRANCH   1  23
ATOM     23  O   UNL A   1      40.452  23.378  27.233  1.00  0.00    -0.458 OA
BRANCH  23  24
ATOM     24  C   UNL A   1      40.905  24.529  26.689  1.00  0.00     0.338 C 
ATOM     25  O   UNL A   1      41.470  24.668  25.616  1.00  0.00    -0.246 OA
BRANCH  24  26
ATOM     26  C   UNL A   1      40.548  25.677  27.533  1.00  0.00     0.060 A 
ATOM     27  C   UNL A   1      41.350  26.808  27.455  1.00  0.00     0.016 A 
ATOM     28  C   UNL A   1      39.602  25.566  28.546  1.00  0.00     0.016 A 
ATOM     29  C   UNL A   1      41.346  27.741  28.485  1.00  0.00     0.010 A 
ATOM     30  C   UNL A   1      39.485  26.594  29.493  1.00  0.00     0.010 A 
ATOM     31  C   UNL A   1      40.394  27.669  29.510  1.00  0.00    -0.014 A 
BRANCH  31  32
ATOM     32  C   UNL A   1      40.369  28.702  30.592  1.00  0.00     0.031 A 
ATOM     33  C   UNL A   1      41.379  28.661  31.717  1.00  0.00     0.074 A 
ATOM     34  C   UNL A   1      39.459  29.702  30.557  1.00  0.00     0.049 A 
ATOM     35  N   UNL A   1      41.405  29.351  32.829  1.00  0.00    -0.248 NA
ATOM     36  C   UNL A   1      42.500  27.714  31.581  1.00  0.00     0.031 C 
ATOM     37  C   UNL A   1      38.458  29.906  29.507  1.00  0.00     0.029 A 
ATOM     38  N   UNL A   1      39.237  30.749  31.419  1.00  0.00    -0.354 N 
ATOM     39  C   UNL A   1      42.512  28.895  33.540  1.00  0.00     0.074 A 
ATOM     40  C   UNL A   1      43.121  27.852  32.746  1.00  0.00     0.031 C 
ATOM     41  C   UNL A   1      37.778  31.035  29.748  1.00  0.00     0.029 A 
ATOM     42  C   UNL A   1      38.206  31.576  31.031  1.00  0.00     0.049 A 
ATOM     43  H   UNL A   1      39.763  30.895  32.238  1.00  0.00     0.167 HD
ATOM     44  C   UNL A   1      42.983  29.318  34.740  1.00  0.00     0.037 A 
ATOM     45  C   UNL A   1      37.628  32.623  31.652  1.00  0.00     0.037 A 
ATOM     46  C   UNL A   1      42.398  30.391  35.503  1.00  0.00     0.049 A 
ATOM     47  C   UNL A   1      38.116  33.013  33.019  1.00  0.00     0.074 A 
ATOM     48  C   UNL A   1      42.790  30.882  36.737  1.00  0.00     0.029 A 
ATOM     49  N   UNL A   1      41.317  31.159  35.096  1.00  0.00    -0.354 N 
ATOM     50  N   UNL A   1      39.113  32.515  33.711  1.00  0.00    -0.248 NA
ATOM     51  C   UNL A   1      37.387  34.091  33.699  1.00  0.00     0.031 C 
ATOM     52  C   UNL A   1      41.925  31.921  37.093  1.00  0.00     0.029 A 
ATOM     53  C   UNL A   1      41.025  32.114  36.057  1.00  0.00     0.049 A 
ATOM     54  H   UNL A   1      40.828  31.043  34.250  1.00  0.00     0.167 HD
ATOM     55  C   UNL A   1      39.144  33.237  34.897  1.00  0.00     0.074 A 
ATOM     56  C   UNL A   1      38.081  34.218  34.820  1.00  0.00     0.031 C 
ATOM     57  C   UNL A   1      39.975  33.096  35.959  1.00  0.00     0.037 A 
BRANCH  44  58
ATOM     58  C   UNL A   1      44.191  28.630  35.317  1.00  0.00     0.058 A 
ATOM     59  C   UNL A   1      45.487  29.046  34.964  1.00  0.00     0.135 A 
ATOM     60  C   UNL A   1      44.074  27.497  36.138  1.00  0.00     0.135 A 
ATOM     61  F   UNL A   1      45.661  30.126  34.186  1.00  0.00    -0.206 F 
ATOM     62  C   UNL A   1      46.618  28.348  35.377  1.00  0.00     0.059 A 
ATOM     63  C   UNL A   1      45.193  26.798  36.586  1.00  0.00     0.059 A 
ATOM     64  F   UNL A   1      42.863  27.067  36.525  1.00  0.00    -0.206 F 
ATOM     65  C   UNL A   1      46.460  27.220  36.183  1.00  0.00     0.060 A 
BRANCH  65  66
ATOM     66  S   UNL A   1      47.938  26.322  36.705  1.00  0.00     0.124 S 
ATOM     67  O   UNL A   1      47.815  25.078  35.955  1.00  0.00    -0.237 OA
ATOM     68  O   UNL A   1      49.006  27.221  36.277  1.00  0.00    -0.237 OA
ATOM     69  O   UNL A   1      47.771  26.205  38.150  1.00  0.00    -0.744 OA
ENDBRANCH  65  66
ENDBRANCH  44  58
BRANCH  45  70
ATOM     70  C   UNL A   1      36.502  33.354  31.007  1.00  0.00     0.058 A 
ATOM     71  C   UNL A   1      35.186  33.250  31.485  1.00  0.00     0.135 A 
ATOM     72  C   UNL A   1      36.727  34.179  29.895  1.00  0.00     0.135 A 
ATOM     73  F   UNL A   1      34.911  32.469  32.542  1.00  0.00    -0.206 F 
ATOM     74  C   UNL A   1      34.132  33.919  30.873  1.00  0.00     0.059 A 
ATOM     75  C   UNL A   1      35.694  34.888  29.287  1.00  0.00     0.059 A 
ATOM     76  F   UNL A   1      37.969  34.322  29.408  1.00  0.00    -0.206 F 
ATOM     77  C   UNL A   1      34.397  34.740  29.777  1.00  0.00     0.060 A 
BRANCH  77  78
ATOM     78  S   UNL A   1      33.020  35.631  29.022  1.00  0.00     0.124 S 
ATOM     79  O   UNL A   1      32.396  34.580  28.225  1.00  0.00    -0.237 OA
ATOM     80  O   UNL A   1      32.266  36.072  30.191  1.00  0.00    -0.237 OA
ATOM     81  O   UNL A   1      33.677  36.689  28.265  1.00  0.00    -0.744 OA
ENDBRANCH  77  78
ENDBRANCH  45  70
BRANCH  57  82
ATOM     82  C   UNL A   1      39.801  34.052  37.105  1.00  0.00     0.058 A 
ATOM     83  C   UNL A   1      39.011  33.697  38.210  1.00  0.00     0.135 A 
ATOM     84  C   UNL A   1      40.374  35.333  37.093  1.00  0.00     0.135 A 
ATOM     85  F   UNL A   1      38.435  32.486  38.271  1.00  0.00    -0.206 F 
ATOM     86  C   UNL A   1      38.786  34.582  39.258  1.00  0.00     0.059 A 
ATOM     87  C   UNL A   1      40.189  36.224  38.146  1.00  0.00     0.059 A 
ATOM     88  F   UNL A   1      41.148  35.715  36.065  1.00  0.00    -0.206 F 
ATOM     89  C   UNL A   1      39.381  35.844  39.217  1.00  0.00     0.060 A 
BRANCH  89  90
ATOM     90  S   UNL A   1      39.106  36.969  40.602  1.00  0.00     0.124 S 
ATOM     91  O   UNL A   1      40.466  37.380  40.928  1.00  0.00    -0.237 OA
ATOM     92  O   UNL A   1      38.257  37.994  40.000  1.00  0.00    -0.237 OA
ATOM     93  O   UNL A   1      38.448  36.126  41.597  1.00  0.00    -0.744 OA
ENDBRANCH  89  90
ENDBRANCH  57  82
ENDBRANCH  31  32
ENDBRANCH  24  26
ENDBRANCH  23  24
ENDBRANCH   1  23
TORSDOF 16
ENDMDL
