MODEL 1
REMARK VINA RESULT:     -12.2      0.000      0.000
REMARK SMILES CC1=Nc2ncnn2[C@H](c2ccc(F)cc2)[C@@H]1C(=O)OCCOC(=O)c1ccc(-c2c3nc(c(-c4c(F)cc(S(=O)(=O)[O-])cc4F)c4ccc([nH]4)c(-c4c(F)cc(S(=O)(=O)[O-])cc4F)c4nc(c(-c5c(F)cc(S(=O)(=O)[O-])cc5F)c5ccc2[nH]5)C=C4)C=C3)cc1
REMARK SMILES IDX 22 1 21 2 20 3 18 4 19 5 17 6 1 7 2 8 3 9 4 10 9 11 5 12
REMARK SMILES IDX 8 13 6 14 7 15 10 16 11 17 16 18 12 19 15 20 13 21 14 22
REMARK SMILES IDX 23 23 24 24 25 25 26 26 27 27 91 28 28 29 90 30 29 31 30 32
REMARK SMILES IDX 31 33 84 34 32 35 89 36 83 37 85 38 33 39 88 40 82 41 81 42
REMARK SMILES IDX 34 44 68 45 47 46 67 47 48 48 51 49 66 50 86 51 49 52 50 53
REMARK SMILES IDX 65 55 87 56 52 57 35 58 36 59 45 60 37 61 38 62 44 63 46 64
REMARK SMILES IDX 39 65 40 66 41 67 42 68 43 69 69 70 70 71 79 72 71 73 72 74
REMARK SMILES IDX 78 75 80 76 73 77 74 78 75 79 76 80 77 81 53 82 54 83 63 84
REMARK SMILES IDX 55 85 56 86 62 87 64 88 57 89 58 90 59 91 60 92 61 93
REMARK H PARENT 85 43 51 54
REMARK Flexibility Score: inf
ROOT
ATOM      1  C   UNL A   1      33.532  29.931  26.611  1.00  0.00     0.275 C 
ENDROOT
BRANCH   1   2
ATOM      2  C   UNL A   1      32.846  28.651  27.037  1.00  0.00     0.274 C 
BRANCH   2   3
ATOM      3  O   UNL A   1      32.592  27.803  25.901  1.00  0.00    -0.461 OA
BRANCH   3   4
ATOM      4  C   UNL A   1      31.597  26.872  26.016  1.00  0.00     0.317 C 
ATOM      5  O   UNL A   1      30.692  26.893  26.845  1.00  0.00    -0.251 OA
BRANCH   4   6
ATOM      6  C   UNL A   1      31.820  25.760  25.027  1.00  0.00     0.173 C 
ATOM      7  C   UNL A   1      34.141  25.048  25.999  1.00  0.00     0.063 C 
ATOM      8  C   UNL A   1      33.300  25.451  24.802  1.00  0.00     0.036 C 
ATOM      9  N   UNL A   1      33.904  25.453  23.655  1.00  0.00    -0.220 NA
ATOM     10  C   UNL A   1      33.194  25.704  22.537  1.00  0.00     0.248 A 
ATOM     11  C   UNL A   1      31.026  26.032  23.727  1.00  0.00     0.161 C 
ATOM     12  N   UNL A   1      33.590  25.665  21.282  1.00  0.00    -0.198 NA
ATOM     13  N   UNL A   1      31.858  25.989  22.542  1.00  0.00    -0.221 N 
ATOM     14  C   UNL A   1      32.447  25.871  20.570  1.00  0.00     0.248 A 
ATOM     15  N   UNL A   1      31.343  26.041  21.298  1.00  0.00    -0.157 NA
BRANCH  11  16
ATOM     16  C   UNL A   1      30.131  27.282  23.694  1.00  0.00    -0.022 A 
ATOM     17  C   UNL A   1      30.733  28.550  23.603  1.00  0.00     0.009 A 
ATOM     18  C   UNL A   1      28.724  27.198  23.627  1.00  0.00     0.009 A 
ATOM     19  C   UNL A   1      29.962  29.684  23.348  1.00  0.00     0.039 A 
ATOM     20  C   UNL A   1      27.963  28.327  23.319  1.00  0.00     0.039 A 
ATOM     21  C   UNL A   1      28.590  29.558  23.174  1.00  0.00     0.123 A 
ATOM     22  F   UNL A   1      27.864  30.634  22.841  1.00  0.00    -0.207 F 
ENDBRANCH  11  16
ENDBRANCH   4   6
ENDBRANCH   3   4
ENDBRANCH   2   3
ENDBRANCH   1   2
BRANCH   1  23
ATOM     23  O   UNL A   1      34.850  29.955  27.147  1.00  0.00    -0.458 OA
BRANCH  23  24
ATOM     24  C   UNL A   1      35.167  31.066  27.848  1.00  0.00     0.338 C 
ATOM     25  O   UNL A   1      34.909  32.226  27.568  1.00  0.00    -0.246 OA
BRANCH  24  26
ATOM     26  C   UNL A   1      36.097  30.694  28.911  1.00  0.00     0.060 A 
ATOM     27  C   UNL A   1      37.029  31.688  29.212  1.00  0.00     0.016 A 
ATOM     28  C   UNL A   1      36.332  29.331  29.135  1.00  0.00     0.016 A 
ATOM     29  C   UNL A   1      38.320  31.292  29.415  1.00  0.00     0.010 A 
ATOM     30  C   UNL A   1      37.628  28.937  29.321  1.00  0.00     0.010 A 
ATOM     31  C   UNL A   1      38.607  29.926  29.353  1.00  0.00    -0.014 A 
BRANCH  31  32
ATOM     32  C   UNL A   1      39.995  29.557  29.447  1.00  0.00     0.031 A 
ATOM     33  C   UNL A   1      40.424  29.391  30.851  1.00  0.00     0.074 A 
ATOM     34  C   UNL A   1      40.732  29.303  28.354  1.00  0.00     0.049 A 
ATOM     35  N   UNL A   1      41.326  30.054  31.492  1.00  0.00    -0.248 NA
ATOM     36  C   UNL A   1      39.589  28.523  31.701  1.00  0.00     0.031 C 
ATOM     37  C   UNL A   1      40.295  29.185  26.960  1.00  0.00     0.029 A 
ATOM     38  N   UNL A   1      42.036  28.953  28.294  1.00  0.00    -0.354 N 
ATOM     39  C   UNL A   1      41.310  29.534  32.780  1.00  0.00     0.074 A 
ATOM     40  C   UNL A   1      40.107  28.756  32.902  1.00  0.00     0.031 C 
ATOM     41  C   UNL A   1      41.254  28.539  26.259  1.00  0.00     0.029 A 
ATOM     42  C   UNL A   1      42.391  28.294  27.130  1.00  0.00     0.049 A 
ATOM     43  H   UNL A   1      42.677  29.150  29.015  1.00  0.00     0.167 HD
ATOM     44  C   UNL A   1      42.403  29.582  33.584  1.00  0.00     0.037 A 
ATOM     45  C   UNL A   1      43.473  27.485  27.000  1.00  0.00     0.037 A 
ATOM     46  C   UNL A   1      43.347  30.571  33.141  1.00  0.00     0.049 A 
ATOM     47  C   UNL A   1      44.411  27.840  28.110  1.00  0.00     0.074 A 
ATOM     48  C   UNL A   1      43.277  31.941  32.970  1.00  0.00     0.029 A 
ATOM     49  N   UNL A   1      44.434  30.153  32.412  1.00  0.00    -0.354 N 
ATOM     50  N   UNL A   1      45.015  28.996  28.214  1.00  0.00    -0.248 NA
ATOM     51  C   UNL A   1      44.311  27.090  29.357  1.00  0.00     0.031 C 
ATOM     52  C   UNL A   1      44.022  32.206  31.786  1.00  0.00     0.029 A 
ATOM     53  C   UNL A   1      44.545  30.994  31.332  1.00  0.00     0.049 A 
ATOM     54  H   UNL A   1      45.024  29.393  32.625  1.00  0.00     0.167 HD
ATOM     55  C   UNL A   1      45.009  29.295  29.572  1.00  0.00     0.074 A 
ATOM     56  C   UNL A   1      44.637  28.046  30.233  1.00  0.00     0.031 C 
ATOM     57  C   UNL A   1      45.018  30.585  30.024  1.00  0.00     0.037 A 
BRANCH  44  58
ATOM     58  C   UNL A   1      42.733  28.490  34.561  1.00  0.00     0.058 A 
ATOM     59  C   UNL A   1      43.139  27.194  34.165  1.00  0.00     0.135 A 
ATOM     60  C   UNL A   1      42.900  28.797  35.922  1.00  0.00     0.135 A 
ATOM     61  F   UNL A   1      43.154  26.806  32.882  1.00  0.00    -0.206 F 
ATOM     62  C   UNL A   1      43.654  26.264  35.052  1.00  0.00     0.059 A 
ATOM     63  C   UNL A   1      43.476  27.899  36.820  1.00  0.00     0.059 A 
ATOM     64  F   UNL A   1      42.568  30.011  36.392  1.00  0.00    -0.206 F 
ATOM     65  C   UNL A   1      43.854  26.636  36.371  1.00  0.00     0.060 A 
BRANCH  65  66
ATOM     66  S   UNL A   1      44.737  25.480  37.432  1.00  0.00     0.124 S 
ATOM     67  O   UNL A   1      44.227  25.849  38.748  1.00  0.00    -0.237 OA
ATOM     68  O   UNL A   1      44.287  24.193  36.912  1.00  0.00    -0.237 OA
ATOM     69  O   UNL A   1      46.137  25.801  37.182  1.00  0.00    -0.744 OA
ENDBRANCH  65  66
ENDBRANCH  44  58
BRANCH  45  70
ATOM     70  C   UNL A   1      43.518  26.185  26.271  1.00  0.00     0.058 A 
ATOM     71  C   UNL A   1      42.661  25.107  26.586  1.00  0.00     0.135 A 
ATOM     72  C   UNL A   1      44.585  25.882  25.404  1.00  0.00     0.135 A 
ATOM     73  F   UNL A   1      41.645  25.242  27.449  1.00  0.00    -0.206 F 
ATOM     74  C   UNL A   1      42.862  23.817  26.106  1.00  0.00     0.059 A 
ATOM     75  C   UNL A   1      44.819  24.587  24.923  1.00  0.00     0.059 A 
ATOM     76  F   UNL A   1      45.464  26.836  25.063  1.00  0.00    -0.206 F 
ATOM     77  C   UNL A   1      43.963  23.556  25.302  1.00  0.00     0.060 A 
BRANCH  77  78
ATOM     78  S   UNL A   1      44.286  21.835  24.864  1.00  0.00     0.124 S 
ATOM     79  O   UNL A   1      43.067  21.178  25.324  1.00  0.00    -0.237 OA
ATOM     80  O   UNL A   1      44.448  21.916  23.415  1.00  0.00    -0.237 OA
ATOM     81  O   UNL A   1      45.495  21.513  25.612  1.00  0.00    -0.744 OA
ENDBRANCH  77  78
ENDBRANCH  45  70
BRANCH  57  82
ATOM     82  C   UNL A   1      45.271  31.697  29.033  1.00  0.00     0.058 A 
ATOM     83  C   UNL A   1      44.178  32.245  28.345  1.00  0.00     0.135 A 
ATOM     84  C   UNL A   1      46.554  32.084  28.605  1.00  0.00     0.135 A 
ATOM     85  F   UNL A   1      42.928  31.871  28.660  1.00  0.00    -0.206 F 
ATOM     86  C   UNL A   1      44.347  33.130  27.283  1.00  0.00     0.059 A 
ATOM     87  C   UNL A   1      46.746  32.997  27.566  1.00  0.00     0.059 A 
ATOM     88  F   UNL A   1      47.651  31.525  29.128  1.00  0.00    -0.206 F 
ATOM     89  C   UNL A   1      45.635  33.499  26.898  1.00  0.00     0.060 A 
BRANCH  89  90
ATOM     90  S   UNL A   1      45.827  34.614  25.492  1.00  0.00     0.124 S 
ATOM     91  O   UNL A   1      44.981  33.978  24.486  1.00  0.00    -0.237 OA
ATOM     92  O   UNL A   1      45.328  35.879  26.025  1.00  0.00    -0.237 OA
ATOM     93  O   UNL A   1      47.259  34.580  25.212  1.00  0.00    -0.744 OA
ENDBRANCH  89  90
ENDBRANCH  57  82
ENDBRANCH  31  32
ENDBRANCH  24  26
ENDBRANCH  23  24
ENDBRANCH   1  23
TORSDOF 15
ENDMDL
MODEL 2
REMARK VINA RESULT:     -12.1      3.486      9.343
REMARK SMILES CC1=Nc2ncnn2[C@H](c2ccc(F)cc2)[C@@H]1C(=O)OCCOC(=O)c1ccc(-c2c3nc(c(-c4c(F)cc(S(=O)(=O)[O-])cc4F)c4ccc([nH]4)c(-c4c(F)cc(S(=O)(=O)[O-])cc4F)c4nc(c(-c5c(F)cc(S(=O)(=O)[O-])cc5F)c5ccc2[nH]5)C=C4)C=C3)cc1
REMARK SMILES IDX 22 1 21 2 20 3 18 4 19 5 17 6 1 7 2 8 3 9 4 10 9 11 5 12
REMARK SMILES IDX 8 13 6 14 7 15 10 16 11 17 16 18 12 19 15 20 13 21 14 22
REMARK SMILES IDX 23 23 24 24 25 25 26 26 27 27 91 28 28 29 90 30 29 31 30 32
REMARK SMILES IDX 31 33 84 34 32 35 89 36 83 37 85 38 33 39 88 40 82 41 81 42
REMARK SMILES IDX 34 44 68 45 47 46 67 47 48 48 51 49 66 50 86 51 49 52 50 53
REMARK SMILES IDX 65 55 87 56 52 57 35 58 36 59 45 60 37 61 38 62 44 63 46 64
REMARK SMILES IDX 39 65 40 66 41 67 42 68 43 69 69 70 70 71 79 72 71 73 72 74
REMARK SMILES IDX 78 75 80 76 73 77 74 78 75 79 76 80 77 81 53 82 54 83 63 84
REMARK SMILES IDX 55 85 56 86 62 87 64 88 57 89 58 90 59 91 60 92 61 93
REMARK H PARENT 85 43 51 54
REMARK Flexibility Score: inf
ROOT
ATOM      1  C   UNL A   1      37.256  22.906  25.823  1.00  0.00     0.275 C 
ENDROOT
BRANCH   1   2
ATOM      2  C   UNL A   1      36.650  23.280  24.487  1.00  0.00     0.274 C 
BRANCH   2   3
ATOM      3  O   UNL A   1      35.247  23.571  24.625  1.00  0.00    -0.461 OA
BRANCH   3   4
ATOM      4  C   UNL A   1      34.482  23.555  23.491  1.00  0.00     0.317 C 
ATOM      5  O   UNL A   1      34.867  23.217  22.376  1.00  0.00    -0.251 OA
BRANCH   4   6
ATOM      6  C   UNL A   1      33.111  24.098  23.791  1.00  0.00     0.173 C 
ATOM      7  C   UNL A   1      33.953  26.465  24.518  1.00  0.00     0.063 C 
ATOM      8  C   UNL A   1      33.129  25.227  24.821  1.00  0.00     0.036 C 
ATOM      9  N   UNL A   1      32.454  25.247  25.928  1.00  0.00    -0.220 NA
ATOM     10  C   UNL A   1      31.625  24.224  26.212  1.00  0.00     0.248 A 
ATOM     11  C   UNL A   1      32.140  22.943  24.135  1.00  0.00     0.161 C 
ATOM     12  N   UNL A   1      30.793  24.093  27.224  1.00  0.00    -0.198 NA
ATOM     13  N   UNL A   1      31.468  23.135  25.403  1.00  0.00    -0.221 N 
ATOM     14  C   UNL A   1      30.116  22.944  26.948  1.00  0.00     0.248 A 
ATOM     15  N   UNL A   1      30.469  22.330  25.817  1.00  0.00    -0.157 NA
BRANCH  11  16
ATOM     16  C   UNL A   1      32.688  21.509  24.042  1.00  0.00    -0.022 A 
ATOM     17  C   UNL A   1      33.520  21.029  25.070  1.00  0.00     0.009 A 
ATOM     18  C   UNL A   1      32.287  20.614  23.027  1.00  0.00     0.009 A 
ATOM     19  C   UNL A   1      33.854  19.676  25.138  1.00  0.00     0.039 A 
ATOM     20  C   UNL A   1      32.580  19.253  23.129  1.00  0.00     0.039 A 
ATOM     21  C   UNL A   1      33.353  18.796  24.189  1.00  0.00     0.123 A 
ATOM     22  F   UNL A   1      33.601  17.484  24.307  1.00  0.00    -0.207 F 
ENDBRANCH  11  16
ENDBRANCH   4   6
ENDBRANCH   3   4
ENDBRANCH   2   3
ENDBRANCH   1   2
BRANCH   1  23
ATOM     23  O   UNL A   1      38.249  23.863  26.170  1.00  0.00    -0.458 OA
BRANCH  23  24
ATOM     24  C   UNL A   1      39.431  23.348  26.575  1.00  0.00     0.338 C 
ATOM     25  O   UNL A   1      39.656  22.215  26.973  1.00  0.00    -0.246 OA
BRANCH  24  26
ATOM     26  C   UNL A   1      40.395  24.437  26.697  1.00  0.00     0.060 A 
ATOM     27  C   UNL A   1      41.287  24.279  27.759  1.00  0.00     0.016 A 
ATOM     28  C   UNL A   1      40.048  25.688  26.167  1.00  0.00     0.016 A 
ATOM     29  C   UNL A   1      41.563  25.386  28.510  1.00  0.00     0.010 A 
ATOM     30  C   UNL A   1      40.312  26.791  26.931  1.00  0.00     0.010 A 
ATOM     31  C   UNL A   1      40.976  26.598  28.139  1.00  0.00    -0.014 A 
BRANCH  31  32
ATOM     32  C   UNL A   1      41.189  27.712  29.025  1.00  0.00     0.031 A 
ATOM     33  C   UNL A   1      42.291  28.580  28.559  1.00  0.00     0.074 A 
ATOM     34  C   UNL A   1      40.383  27.943  30.073  1.00  0.00     0.049 A 
ATOM     35  N   UNL A   1      43.400  28.849  29.158  1.00  0.00    -0.248 NA
ATOM     36  C   UNL A   1      42.235  29.024  27.155  1.00  0.00     0.031 C 
ATOM     37  C   UNL A   1      39.124  27.282  30.424  1.00  0.00     0.029 A 
ATOM     38  N   UNL A   1      40.466  28.940  30.982  1.00  0.00    -0.354 N 
ATOM     39  C   UNL A   1      44.094  29.673  28.282  1.00  0.00     0.074 A 
ATOM     40  C   UNL A   1      43.433  29.581  27.008  1.00  0.00     0.031 C 
ATOM     41  C   UNL A   1      38.451  28.067  31.296  1.00  0.00     0.029 A 
ATOM     42  C   UNL A   1      39.274  29.219  31.626  1.00  0.00     0.049 A 
ATOM     43  H   UNL A   1      41.303  29.426  31.169  1.00  0.00     0.167 HD
ATOM     44  C   UNL A   1      45.024  30.561  28.719  1.00  0.00     0.037 A 
ATOM     45  C   UNL A   1      38.981  30.397  32.234  1.00  0.00     0.037 A 
ATOM     46  C   UNL A   1      45.494  30.234  30.037  1.00  0.00     0.049 A 
ATOM     47  C   UNL A   1      40.287  31.077  32.503  1.00  0.00     0.074 A 
ATOM     48  C   UNL A   1      46.135  29.132  30.571  1.00  0.00     0.029 A 
ATOM     49  N   UNL A   1      44.964  30.919  31.105  1.00  0.00    -0.354 N 
ATOM     50  N   UNL A   1      41.189  30.623  33.333  1.00  0.00    -0.248 NA
ATOM     51  C   UNL A   1      40.793  32.007  31.499  1.00  0.00     0.031 C 
ATOM     52  C   UNL A   1      45.561  28.957  31.862  1.00  0.00     0.029 A 
ATOM     53  C   UNL A   1      44.641  29.988  32.063  1.00  0.00     0.049 A 
ATOM     54  H   UNL A   1      44.839  31.894  31.172  1.00  0.00     0.167 HD
ATOM     55  C   UNL A   1      42.413  30.880  32.725  1.00  0.00     0.074 A 
ATOM     56  C   UNL A   1      42.108  31.808  31.638  1.00  0.00     0.031 C 
ATOM     57  C   UNL A   1      43.512  30.102  32.964  1.00  0.00     0.037 A 
BRANCH  44  58
ATOM     58  C   UNL A   1      45.234  31.896  28.064  1.00  0.00     0.058 A 
ATOM     59  C   UNL A   1      44.291  32.948  28.132  1.00  0.00     0.135 A 
ATOM     60  C   UNL A   1      46.504  32.240  27.571  1.00  0.00     0.135 A 
ATOM     61  F   UNL A   1      43.084  32.796  28.694  1.00  0.00    -0.206 F 
ATOM     62  C   UNL A   1      44.576  34.241  27.724  1.00  0.00     0.059 A 
ATOM     63  C   UNL A   1      46.831  33.549  27.215  1.00  0.00     0.059 A 
ATOM     64  F   UNL A   1      47.477  31.318  27.492  1.00  0.00    -0.206 F 
ATOM     65  C   UNL A   1      45.859  34.541  27.301  1.00  0.00     0.060 A 
BRANCH  65  66
ATOM     66  S   UNL A   1      46.247  36.273  27.003  1.00  0.00     0.124 S 
ATOM     67  O   UNL A   1      44.949  36.903  27.222  1.00  0.00    -0.237 OA
ATOM     68  O   UNL A   1      47.261  36.533  28.021  1.00  0.00    -0.237 OA
ATOM     69  O   UNL A   1      46.728  36.276  25.626  1.00  0.00    -0.744 OA
ENDBRANCH  65  66
ENDBRANCH  44  58
BRANCH  45  70
ATOM     70  C   UNL A   1      37.676  31.116  32.178  1.00  0.00     0.058 A 
ATOM     71  C   UNL A   1      37.127  31.601  30.970  1.00  0.00     0.135 A 
ATOM     72  C   UNL A   1      37.052  31.566  33.356  1.00  0.00     0.135 A 
ATOM     73  F   UNL A   1      37.664  31.304  29.780  1.00  0.00    -0.206 F 
ATOM     74  C   UNL A   1      36.060  32.493  30.931  1.00  0.00     0.059 A 
ATOM     75  C   UNL A   1      35.987  32.478  33.342  1.00  0.00     0.059 A 
ATOM     76  F   UNL A   1      37.514  31.176  34.553  1.00  0.00    -0.206 F 
ATOM     77  C   UNL A   1      35.516  32.954  32.121  1.00  0.00     0.060 A 
BRANCH  77  78
ATOM     78  S   UNL A   1      34.265  34.251  32.020  1.00  0.00     0.124 S 
ATOM     79  O   UNL A   1      33.872  34.175  30.616  1.00  0.00    -0.237 OA
ATOM     80  O   UNL A   1      33.266  33.786  32.979  1.00  0.00    -0.237 OA
ATOM     81  O   UNL A   1      34.989  35.456  32.406  1.00  0.00    -0.744 OA
ENDBRANCH  77  78
ENDBRANCH  45  70
BRANCH  57  82
ATOM     82  C   UNL A   1      43.450  29.089  34.082  1.00  0.00     0.058 A 
ATOM     83  C   UNL A   1      42.934  27.814  33.807  1.00  0.00     0.135 A 
ATOM     84  C   UNL A   1      43.692  29.400  35.432  1.00  0.00     0.135 A 
ATOM     85  F   UNL A   1      42.620  27.473  32.546  1.00  0.00    -0.206 F 
ATOM     86  C   UNL A   1      42.665  26.894  34.817  1.00  0.00     0.059 A 
ATOM     87  C   UNL A   1      43.464  28.482  36.460  1.00  0.00     0.059 A 
ATOM     88  F   UNL A   1      44.077  30.629  35.796  1.00  0.00    -0.206 F 
ATOM     89  C   UNL A   1      42.931  27.237  36.142  1.00  0.00     0.060 A 
BRANCH  89  90
ATOM     90  S   UNL A   1      42.535  26.044  37.437  1.00  0.00     0.124 S 
ATOM     91  O   UNL A   1      43.471  26.422  38.491  1.00  0.00    -0.237 OA
ATOM     92  O   UNL A   1      41.130  26.334  37.710  1.00  0.00    -0.237 OA
ATOM     93  O   UNL A   1      42.792  24.751  36.811  1.00  0.00    -0.744 OA
ENDBRANCH  89  90
ENDBRANCH  57  82
ENDBRANCH  31  32
ENDBRANCH  24  26
ENDBRANCH  23  24
ENDBRANCH   1  23
TORSDOF 15
ENDMDL
MODEL 3
REMARK VINA RESULT:     -12.1      3.122      9.074
REMARK SMILES CC1=Nc2ncnn2[C@H](c2ccc(F)cc2)[C@@H]1C(=O)OCCOC(=O)c1ccc(-c2c3nc(c(-c4c(F)cc(S(=O)(=O)[O-])cc4F)c4ccc([nH]4)c(-c4c(F)cc(S(=O)(=O)[O-])cc4F)c4nc(c(-c5c(F)cc(S(=O)(=O)[O-])cc5F)c5ccc2[nH]5)C=C4)C=C3)cc1
REMARK SMILES IDX 22 1 21 2 20 3 18 4 19 5 17 6 1 7 2 8 3 9 4 10 9 11 5 12
REMARK SMILES IDX 8 13 6 14 7 15 10 16 11 17 16 18 12 19 15 20 13 21 14 22
REMARK SMILES IDX 23 23 24 24 25 25 26 26 27 27 91 28 28 29 90 30 29 31 30 32
REMARK SMILES IDX 31 33 84 34 32 35 89 36 83 37 85 38 33 39 88 40 82 41 81 42
REMARK SMILES IDX 34 44 68 45 47 46 67 47 48 48 51 49 66 50 86 51 49 52 50 53
REMARK SMILES IDX 65 55 87 56 52 57 35 58 36 59 45 60 37 61 38 62 44 63 46 64
REMARK SMILES IDX 39 65 40 66 41 67 42 68 43 69 69 70 70 71 79 72 71 73 72 74
REMARK SMILES IDX 78 75 80 76 73 77 74 78 75 79 76 80 77 81 53 82 54 83 63 84
REMARK SMILES IDX 55 85 56 86 62 87 64 88 57 89 58 90 59 91 60 92 61 93
REMARK H PARENT 85 43 51 54
REMARK Flexibility Score: inf
ROOT
ATOM      1  C   UNL A   1      37.726  22.420  25.676  1.00  0.00     0.275 C 
ENDROOT
BRANCH   1   2
ATOM      2  C   UNL A   1      37.208  23.108  24.431  1.00  0.00     0.274 C 
BRANCH   2   3
ATOM      3  O   UNL A   1      36.104  23.976  24.748  1.00  0.00    -0.461 OA
BRANCH   3   4
ATOM      4  C   UNL A   1      34.849  23.561  24.394  1.00  0.00     0.317 C 
ATOM      5  O   UNL A   1      34.339  23.698  23.286  1.00  0.00    -0.251 OA
BRANCH   4   6
ATOM      6  C   UNL A   1      34.145  22.984  25.592  1.00  0.00     0.173 C 
ATOM      7  C   UNL A   1      34.382  20.495  24.824  1.00  0.00     0.063 C 
ATOM      8  C   UNL A   1      33.497  21.629  25.307  1.00  0.00     0.036 C 
ATOM      9  N   UNL A   1      32.248  21.339  25.491  1.00  0.00    -0.220 NA
ATOM     10  C   UNL A   1      31.425  22.270  26.013  1.00  0.00     0.248 A 
ATOM     11  C   UNL A   1      33.183  24.030  26.203  1.00  0.00     0.161 C 
ATOM     12  N   UNL A   1      30.160  22.152  26.359  1.00  0.00    -0.198 NA
ATOM     13  N   UNL A   1      31.829  23.532  26.342  1.00  0.00    -0.221 N 
ATOM     14  C   UNL A   1      29.867  23.346  26.946  1.00  0.00     0.248 A 
ATOM     15  N   UNL A   1      30.872  24.222  26.994  1.00  0.00    -0.157 NA
BRANCH  11  16
ATOM     16  C   UNL A   1      33.165  25.430  25.568  1.00  0.00    -0.022 A 
ATOM     17  C   UNL A   1      32.241  25.702  24.542  1.00  0.00     0.009 A 
ATOM     18  C   UNL A   1      33.956  26.490  26.060  1.00  0.00     0.009 A 
ATOM     19  C   UNL A   1      32.041  27.009  24.096  1.00  0.00     0.039 A 
ATOM     20  C   UNL A   1      33.714  27.802  25.649  1.00  0.00     0.039 A 
ATOM     21  C   UNL A   1      32.753  28.049  24.677  1.00  0.00     0.123 A 
ATOM     22  F   UNL A   1      32.495  29.312  24.311  1.00  0.00    -0.207 F 
ENDBRANCH  11  16
ENDBRANCH   4   6
ENDBRANCH   3   4
ENDBRANCH   2   3
ENDBRANCH   1   2
BRANCH   1  23
ATOM     23  O   UNL A   1      38.347  23.383  26.518  1.00  0.00    -0.458 OA
BRANCH  23  24
ATOM     24  C   UNL A   1      39.629  23.118  26.851  1.00  0.00     0.338 C 
ATOM     25  O   UNL A   1      40.085  22.080  27.304  1.00  0.00    -0.246 OA
BRANCH  24  26
ATOM     26  C   UNL A   1      40.387  24.366  26.811  1.00  0.00     0.060 A 
ATOM     27  C   UNL A   1      41.517  24.361  27.629  1.00  0.00     0.016 A 
ATOM     28  C   UNL A   1      39.709  25.538  26.448  1.00  0.00     0.016 A 
ATOM     29  C   UNL A   1      41.763  25.488  28.360  1.00  0.00     0.010 A 
ATOM     30  C   UNL A   1      39.946  26.659  27.192  1.00  0.00     0.010 A 
ATOM     31  C   UNL A   1      40.900  26.576  28.204  1.00  0.00    -0.014 A 
BRANCH  31  32
ATOM     32  C   UNL A   1      41.115  27.697  29.080  1.00  0.00     0.031 A 
ATOM     33  C   UNL A   1      42.203  28.572  28.592  1.00  0.00     0.074 A 
ATOM     34  C   UNL A   1      40.323  27.927  30.138  1.00  0.00     0.049 A 
ATOM     35  N   UNL A   1      43.318  28.855  29.174  1.00  0.00    -0.248 NA
ATOM     36  C   UNL A   1      42.122  29.007  27.186  1.00  0.00     0.031 C 
ATOM     37  C   UNL A   1      39.074  27.257  30.511  1.00  0.00     0.029 A 
ATOM     38  N   UNL A   1      40.410  28.931  31.039  1.00  0.00    -0.354 N 
ATOM     39  C   UNL A   1      43.991  29.680  28.282  1.00  0.00     0.074 A 
ATOM     40  C   UNL A   1      43.312  29.575  27.020  1.00  0.00     0.031 C 
ATOM     41  C   UNL A   1      38.407  28.041  31.388  1.00  0.00     0.029 A 
ATOM     42  C   UNL A   1      39.224  29.202  31.699  1.00  0.00     0.049 A 
ATOM     43  H   UNL A   1      41.244  29.425  31.211  1.00  0.00     0.167 HD
ATOM     44  C   UNL A   1      44.918  30.579  28.701  1.00  0.00     0.037 A 
ATOM     45  C   UNL A   1      38.929  30.381  32.304  1.00  0.00     0.037 A 
ATOM     46  C   UNL A   1      45.411  30.264  30.014  1.00  0.00     0.049 A 
ATOM     47  C   UNL A   1      40.232  31.075  32.550  1.00  0.00     0.074 A 
ATOM     48  C   UNL A   1      46.070  29.171  30.545  1.00  0.00     0.029 A 
ATOM     49  N   UNL A   1      44.890  30.951  31.086  1.00  0.00    -0.354 N 
ATOM     50  N   UNL A   1      41.151  30.634  33.370  1.00  0.00    -0.248 NA
ATOM     51  C   UNL A   1      40.716  32.003  31.533  1.00  0.00     0.031 C 
ATOM     52  C   UNL A   1      45.516  28.999  31.845  1.00  0.00     0.029 A 
ATOM     53  C   UNL A   1      44.590  30.023  32.054  1.00  0.00     0.049 A 
ATOM     54  H   UNL A   1      44.757  31.925  31.148  1.00  0.00     0.167 HD
ATOM     55  C   UNL A   1      42.363  30.898  32.743  1.00  0.00     0.074 A 
ATOM     56  C   UNL A   1      42.034  31.817  31.655  1.00  0.00     0.031 C 
ATOM     57  C   UNL A   1      43.472  30.132  32.970  1.00  0.00     0.037 A 
BRANCH  44  58
ATOM     58  C   UNL A   1      45.107  31.912  28.035  1.00  0.00     0.058 A 
ATOM     59  C   UNL A   1      44.205  32.990  28.193  1.00  0.00     0.135 A 
ATOM     60  C   UNL A   1      46.336  32.223  27.430  1.00  0.00     0.135 A 
ATOM     61  F   UNL A   1      43.050  32.869  28.863  1.00  0.00    -0.206 F 
ATOM     62  C   UNL A   1      44.489  34.277  27.766  1.00  0.00     0.059 A 
ATOM     63  C   UNL A   1      46.668  33.524  27.051  1.00  0.00     0.059 A 
ATOM     64  F   UNL A   1      47.271  31.274  27.258  1.00  0.00    -0.206 F 
ATOM     65  C   UNL A   1      45.737  34.543  27.229  1.00  0.00     0.060 A 
BRANCH  65  66
ATOM     66  S   UNL A   1      46.146  36.266  26.904  1.00  0.00     0.124 S 
ATOM     67  O   UNL A   1      46.936  36.150  25.683  1.00  0.00    -0.237 OA
ATOM     68  O   UNL A   1      44.824  36.865  26.753  1.00  0.00    -0.237 OA
ATOM     69  O   UNL A   1      46.882  36.665  28.099  1.00  0.00    -0.744 OA
ENDBRANCH  65  66
ENDBRANCH  44  58
BRANCH  45  70
ATOM     70  C   UNL A   1      37.617  31.088  32.263  1.00  0.00     0.058 A 
ATOM     71  C   UNL A   1      36.997  31.470  31.052  1.00  0.00     0.135 A 
ATOM     72  C   UNL A   1      37.055  31.631  33.434  1.00  0.00     0.135 A 
ATOM     73  F   UNL A   1      37.470  31.078  29.862  1.00  0.00    -0.206 F 
ATOM     74  C   UNL A   1      35.922  32.351  31.000  1.00  0.00     0.059 A 
ATOM     75  C   UNL A   1      35.984  32.534  33.405  1.00  0.00     0.059 A 
ATOM     76  F   UNL A   1      37.587  31.342  34.631  1.00  0.00    -0.206 F 
ATOM     77  C   UNL A   1      35.441  32.906  32.178  1.00  0.00     0.060 A 
BRANCH  77  78
ATOM     78  S   UNL A   1      34.175  34.185  32.041  1.00  0.00     0.124 S 
ATOM     79  O   UNL A   1      33.828  34.109  30.625  1.00  0.00    -0.237 OA
ATOM     80  O   UNL A   1      33.154  33.702  32.966  1.00  0.00    -0.237 OA
ATOM     81  O   UNL A   1      34.869  35.399  32.454  1.00  0.00    -0.744 OA
ENDBRANCH  77  78
ENDBRANCH  45  70
BRANCH  57  82
ATOM     82  C   UNL A   1      43.437  29.125  34.095  1.00  0.00     0.058 A 
ATOM     83  C   UNL A   1      42.960  27.833  33.826  1.00  0.00     0.135 A 
ATOM     84  C   UNL A   1      43.663  29.453  35.444  1.00  0.00     0.135 A 
ATOM     85  F   UNL A   1      42.662  27.474  32.567  1.00  0.00    -0.206 F 
ATOM     86  C   UNL A   1      42.714  26.913  34.842  1.00  0.00     0.059 A 
ATOM     87  C   UNL A   1      43.459  28.535  36.477  1.00  0.00     0.059 A 
ATOM     88  F   UNL A   1      44.010  30.695  35.800  1.00  0.00    -0.206 F 
ATOM     89  C   UNL A   1      42.964  27.273  36.166  1.00  0.00     0.060 A 
BRANCH  89  90
ATOM     90  S   UNL A   1      42.598  26.077  37.467  1.00  0.00     0.124 S 
ATOM     91  O   UNL A   1      42.920  24.812  36.812  1.00  0.00    -0.237 OA
ATOM     92  O   UNL A   1      43.510  26.484  38.532  1.00  0.00    -0.237 OA
ATOM     93  O   UNL A   1      41.181  26.289  37.748  1.00  0.00    -0.744 OA
ENDBRANCH  89  90
ENDBRANCH  57  82
ENDBRANCH  31  32
ENDBRANCH  24  26
ENDBRANCH  23  24
ENDBRANCH   1  23
TORSDOF 15
ENDMDL
