MODEL 1
REMARK VINA RESULT:     -12.0      0.000      0.000
REMARK SMILES C[C@H](C(=O)OCCOC(=O)c1ccc(-c2c3nc(c(-c4c(F)cc(S(=O)(=O)[O-])cc4F)c4ccc([nH]4)c(-c4c(F)cc(S(=O)(=O)[O-])cc4F)c4nc(c(-c5c(F)cc(S(=O)(=O)[O-])cc5F)c5ccc2[nH]5)C=C4)C=C3)cc1)c1ccc2c3cc(Cl)ccc3n(C(=O)c3ccc(Cl)cc3)c2c1
REMARK SMILES IDX 6 1 5 2 3 3 4 4 2 5 1 6 77 7 78 8 99 9 79 10 98 11 80 12
REMARK SMILES IDX 88 13 81 14 87 15 82 16 86 17 83 18 85 19 84 20 89 21 90 22
REMARK SMILES IDX 91 23 92 24 97 25 93 26 96 27 94 28 95 29 7 30 8 31 9 32
REMARK SMILES IDX 10 33 11 34 12 35 76 36 13 37 75 38 14 39 15 40 16 41 69 42
REMARK SMILES IDX 17 43 74 44 68 45 70 46 18 47 73 48 67 49 66 50 19 52 53 53
REMARK SMILES IDX 32 54 52 55 33 56 36 57 51 58 71 59 34 60 35 61 50 63 72 64
REMARK SMILES IDX 37 65 20 66 21 67 30 68 22 69 23 70 29 71 31 72 24 73 25 74
REMARK SMILES IDX 26 75 27 76 28 77 54 78 55 79 64 80 56 81 57 82 63 83 65 84
REMARK SMILES IDX 58 85 59 86 60 87 61 88 62 89 38 90 39 91 48 92 40 93 41 94
REMARK SMILES IDX 47 95 49 96 42 97 43 98 44 99 45 100 46 101
REMARK H PARENT 70 51 36 62
REMARK Flexibility Score: inf
ROOT
ATOM      1  C   UNL A   1      42.964  22.724  25.980  1.00  0.00     0.274 C 
ENDROOT
BRANCH   1   2
ATOM      2  O   UNL A   1      41.543  22.898  25.817  1.00  0.00    -0.462 OA
BRANCH   2   3
ATOM      3  C   UNL A   1      40.787  22.883  26.949  1.00  0.00     0.313 C 
ATOM      4  O   UNL A   1      41.121  22.315  27.984  1.00  0.00    -0.252 OA
BRANCH   3   5
ATOM      5  C   UNL A   1      39.421  23.551  26.780  1.00  0.00     0.126 C 
ATOM      6  C   UNL A   1      39.571  24.890  26.040  1.00  0.00     0.025 C 
BRANCH   5   7
ATOM      7  C   UNL A   1      38.313  22.665  26.214  1.00  0.00    -0.032 A 
ATOM      8  C   UNL A   1      38.635  21.372  25.788  1.00  0.00     0.005 A 
ATOM      9  C   UNL A   1      36.976  23.093  26.127  1.00  0.00     0.032 A 
ATOM     10  C   UNL A   1      37.653  20.497  25.316  1.00  0.00     0.011 A 
ATOM     11  C   UNL A   1      35.979  22.203  25.665  1.00  0.00     0.057 A 
ATOM     12  C   UNL A   1      36.304  20.908  25.276  1.00  0.00     0.008 A 
ATOM     13  N   UNL A   1      34.587  22.357  25.565  1.00  0.00    -0.276 N 
ATOM     14  C   UNL A   1      35.101  20.260  24.889  1.00  0.00     0.009 A 
ATOM     15  C   UNL A   1      34.051  21.176  25.029  1.00  0.00     0.057 A 
ATOM     16  C   UNL A   1      34.836  18.961  24.403  1.00  0.00     0.031 A 
ATOM     17  C   UNL A   1      32.748  20.838  24.607  1.00  0.00     0.029 A 
ATOM     18  C   UNL A   1      33.537  18.615  24.040  1.00  0.00     0.041 A 
ATOM     19  C   UNL A   1      32.508  19.542  24.129  1.00  0.00     0.023 A 
ATOM     20  Cl  UNL A   1      33.216  17.028  23.454  1.00  0.00    -0.084 Cl
BRANCH  13  21
ATOM     21  C   UNL A   1      33.894  23.536  25.955  1.00  0.00     0.262 C 
ATOM     22  O   UNL A   1      33.309  23.493  27.038  1.00  0.00    -0.268 OA
BRANCH  21  23
ATOM     23  C   UNL A   1      33.734  24.799  25.176  1.00  0.00     0.040 A 
ATOM     24  C   UNL A   1      33.718  24.706  23.772  1.00  0.00     0.015 A 
ATOM     25  C   UNL A   1      33.746  26.067  25.768  1.00  0.00     0.015 A 
ATOM     26  C   UNL A   1      33.687  25.853  22.975  1.00  0.00     0.021 A 
ATOM     27  C   UNL A   1      33.687  27.217  24.969  1.00  0.00     0.021 A 
ATOM     28  C   UNL A   1      33.663  27.107  23.578  1.00  0.00     0.041 A 
ATOM     29  Cl  UNL A   1      33.632  28.527  22.611  1.00  0.00    -0.084 Cl
ENDBRANCH  21  23
ENDBRANCH  13  21
ENDBRANCH   5   7
ENDBRANCH   3   5
ENDBRANCH   2   3
ENDBRANCH   1   2
BRANCH   1  30
ATOM     30  C   UNL A   1      43.736  23.819  25.250  1.00  0.00     0.275 C 
BRANCH  30  31
ATOM     31  O   UNL A   1      43.936  24.940  26.126  1.00  0.00    -0.458 OA
BRANCH  31  32
ATOM     32  C   UNL A   1      43.109  25.989  25.923  1.00  0.00     0.338 C 
ATOM     33  O   UNL A   1      42.581  26.334  24.878  1.00  0.00    -0.246 OA
BRANCH  32  34
ATOM     34  C   UNL A   1      42.897  26.679  27.200  1.00  0.00     0.060 A 
ATOM     35  C   UNL A   1      42.171  26.038  28.201  1.00  0.00     0.016 A 
ATOM     36  C   UNL A   1      43.328  27.994  27.370  1.00  0.00     0.016 A 
ATOM     37  C   UNL A   1      41.803  26.732  29.350  1.00  0.00     0.010 A 
ATOM     38  C   UNL A   1      43.025  28.664  28.559  1.00  0.00     0.010 A 
ATOM     39  C   UNL A   1      42.233  28.051  29.548  1.00  0.00    -0.014 A 
BRANCH  39  40
ATOM     40  C   UNL A   1      41.829  28.797  30.770  1.00  0.00     0.031 A 
ATOM     41  C   UNL A   1      40.579  29.636  30.763  1.00  0.00     0.074 A 
ATOM     42  C   UNL A   1      42.576  28.720  31.890  1.00  0.00     0.049 A 
ATOM     43  N   UNL A   1      40.147  30.485  31.660  1.00  0.00    -0.248 NA
ATOM     44  C   UNL A   1      39.707  29.515  29.583  1.00  0.00     0.031 C 
ATOM     45  C   UNL A   1      43.788  27.913  32.045  1.00  0.00     0.029 A 
ATOM     46  N   UNL A   1      42.424  29.326  33.113  1.00  0.00    -0.354 N 
ATOM     47  C   UNL A   1      38.988  31.042  31.131  1.00  0.00     0.074 A 
ATOM     48  C   UNL A   1      38.781  30.431  29.835  1.00  0.00     0.031 C 
ATOM     49  C   UNL A   1      44.249  28.046  33.299  1.00  0.00     0.029 A 
ATOM     50  C   UNL A   1      43.413  29.006  34.013  1.00  0.00     0.049 A 
ATOM     51  H   UNL A   1      41.678  29.932  33.324  1.00  0.00     0.167 HD
ATOM     52  C   UNL A   1      38.175  31.979  31.676  1.00  0.00     0.037 A 
ATOM     53  C   UNL A   1      43.644  29.458  35.260  1.00  0.00     0.037 A 
ATOM     54  C   UNL A   1      38.355  32.538  32.991  1.00  0.00     0.049 A 
ATOM     55  C   UNL A   1      42.730  30.499  35.843  1.00  0.00     0.074 A 
ATOM     56  C   UNL A   1      37.575  33.478  33.641  1.00  0.00     0.029 A 
ATOM     57  N   UNL A   1      39.378  32.196  33.864  1.00  0.00    -0.354 N 
ATOM     58  N   UNL A   1      41.671  31.056  35.309  1.00  0.00    -0.248 NA
ATOM     59  C   UNL A   1      43.057  30.989  37.189  1.00  0.00     0.031 C 
ATOM     60  C   UNL A   1      38.140  33.723  34.899  1.00  0.00     0.029 A 
ATOM     61  C   UNL A   1      39.254  32.912  35.044  1.00  0.00     0.049 A 
ATOM     62  H   UNL A   1      40.087  31.541  33.674  1.00  0.00     0.167 HD
ATOM     63  C   UNL A   1      41.200  31.959  36.253  1.00  0.00     0.074 A 
ATOM     64  C   UNL A   1      42.079  31.861  37.401  1.00  0.00     0.031 C 
ATOM     65  C   UNL A   1      40.140  32.800  36.174  1.00  0.00     0.037 A 
BRANCH  52  66
ATOM     66  C   UNL A   1      37.037  32.485  30.837  1.00  0.00     0.058 A 
ATOM     67  C   UNL A   1      35.735  31.975  30.962  1.00  0.00     0.135 A 
ATOM     68  C   UNL A   1      37.250  33.518  29.910  1.00  0.00     0.135 A 
ATOM     69  F   UNL A   1      35.480  30.975  31.819  1.00  0.00    -0.206 F 
ATOM     70  C   UNL A   1      34.689  32.454  30.178  1.00  0.00     0.059 A 
ATOM     71  C   UNL A   1      36.215  34.028  29.131  1.00  0.00     0.059 A 
ATOM     72  F   UNL A   1      38.475  34.042  29.752  1.00  0.00    -0.206 F 
ATOM     73  C   UNL A   1      34.941  33.478  29.261  1.00  0.00     0.060 A 
BRANCH  73  74
ATOM     74  S   UNL A   1      33.578  34.087  28.244  1.00  0.00     0.124 S 
ATOM     75  O   UNL A   1      32.760  34.774  29.238  1.00  0.00    -0.237 OA
ATOM     76  O   UNL A   1      34.263  34.948  27.284  1.00  0.00    -0.237 OA
ATOM     77  O   UNL A   1      33.001  32.868  27.687  1.00  0.00    -0.744 OA
ENDBRANCH  73  74
ENDBRANCH  52  66
BRANCH  53  78
ATOM     78  C   UNL A   1      44.810  28.947  36.026  1.00  0.00     0.058 A 
ATOM     79  C   UNL A   1      44.684  27.841  36.877  1.00  0.00     0.135 A 
ATOM     80  C   UNL A   1      46.080  29.532  35.894  1.00  0.00     0.135 A 
ATOM     81  F   UNL A   1      43.488  27.255  37.043  1.00  0.00    -0.206 F 
ATOM     82  C   UNL A   1      45.775  27.330  37.573  1.00  0.00     0.059 A 
ATOM     83  C   UNL A   1      47.189  29.025  36.560  1.00  0.00     0.059 A 
ATOM     84  F   UNL A   1      46.253  30.586  35.082  1.00  0.00    -0.206 F 
ATOM     85  C   UNL A   1      47.026  27.927  37.404  1.00  0.00     0.060 A 
BRANCH  85  86
ATOM     86  S   UNL A   1      48.455  27.215  38.249  1.00  0.00     0.124 S 
ATOM     87  O   UNL A   1      48.531  25.896  37.633  1.00  0.00    -0.237 OA
ATOM     88  O   UNL A   1      49.522  28.147  37.899  1.00  0.00    -0.237 OA
ATOM     89  O   UNL A   1      48.054  27.236  39.654  1.00  0.00    -0.744 OA
ENDBRANCH  85  86
ENDBRANCH  53  78
BRANCH  65  90
ATOM     90  C   UNL A   1      39.864  33.664  37.370  1.00  0.00     0.058 A 
ATOM     91  C   UNL A   1      40.511  34.896  37.547  1.00  0.00     0.135 A 
ATOM     92  C   UNL A   1      38.916  33.273  38.329  1.00  0.00     0.135 A 
ATOM     93  F   UNL A   1      41.430  35.310  36.660  1.00  0.00    -0.206 F 
ATOM     94  C   UNL A   1      40.242  35.704  38.646  1.00  0.00     0.059 A 
ATOM     95  C   UNL A   1      38.619  34.074  39.426  1.00  0.00     0.059 A 
ATOM     96  F   UNL A   1      38.266  32.105  38.200  1.00  0.00    -0.206 F 
ATOM     97  C   UNL A   1      39.296  35.283  39.582  1.00  0.00     0.060 A 
BRANCH  97  98
ATOM     98  S   UNL A   1      38.933  36.350  40.994  1.00  0.00     0.124 S 
ATOM     99  O   UNL A   1      40.223  36.384  41.674  1.00  0.00    -0.237 OA
ATOM    100  O   UNL A   1      38.522  37.595  40.352  1.00  0.00    -0.237 OA
ATOM    101  O   UNL A   1      37.871  35.633  41.694  1.00  0.00    -0.744 OA
ENDBRANCH  97  98
ENDBRANCH  65  90
ENDBRANCH  39  40
ENDBRANCH  32  34
ENDBRANCH  31  32
ENDBRANCH  30  31
ENDBRANCH   1  30
TORSDOF 17
ENDMDL
MODEL 2
REMARK VINA RESULT:     -11.9      1.402      8.631
REMARK SMILES C[C@H](C(=O)OCCOC(=O)c1ccc(-c2c3nc(c(-c4c(F)cc(S(=O)(=O)[O-])cc4F)c4ccc([nH]4)c(-c4c(F)cc(S(=O)(=O)[O-])cc4F)c4nc(c(-c5c(F)cc(S(=O)(=O)[O-])cc5F)c5ccc2[nH]5)C=C4)C=C3)cc1)c1ccc2c3cc(Cl)ccc3n(C(=O)c3ccc(Cl)cc3)c2c1
REMARK SMILES IDX 6 1 5 2 3 3 4 4 2 5 1 6 77 7 78 8 99 9 79 10 98 11 80 12
REMARK SMILES IDX 88 13 81 14 87 15 82 16 86 17 83 18 85 19 84 20 89 21 90 22
REMARK SMILES IDX 91 23 92 24 97 25 93 26 96 27 94 28 95 29 7 30 8 31 9 32
REMARK SMILES IDX 10 33 11 34 12 35 76 36 13 37 75 38 14 39 15 40 16 41 69 42
REMARK SMILES IDX 17 43 74 44 68 45 70 46 18 47 73 48 67 49 66 50 19 52 53 53
REMARK SMILES IDX 32 54 52 55 33 56 36 57 51 58 71 59 34 60 35 61 50 63 72 64
REMARK SMILES IDX 37 65 20 66 21 67 30 68 22 69 23 70 29 71 31 72 24 73 25 74
REMARK SMILES IDX 26 75 27 76 28 77 54 78 55 79 64 80 56 81 57 82 63 83 65 84
REMARK SMILES IDX 58 85 59 86 60 87 61 88 62 89 38 90 39 91 48 92 40 93 41 94
REMARK SMILES IDX 47 95 49 96 42 97 43 98 44 99 45 100 46 101
REMARK H PARENT 70 51 36 62
REMARK Flexibility Score: inf
ROOT
ATOM      1  C   UNL A   1      40.933  21.566  26.894  1.00  0.00     0.274 C 
ENDROOT
BRANCH   1   2
ATOM      2  O   UNL A   1      39.854  21.096  26.061  1.00  0.00    -0.462 OA
BRANCH   2   3
ATOM      3  C   UNL A   1      38.766  21.906  25.948  1.00  0.00     0.313 C 
ATOM      4  O   UNL A   1      38.533  22.844  26.704  1.00  0.00    -0.252 OA
BRANCH   3   5
ATOM      5  C   UNL A   1      37.794  21.473  24.849  1.00  0.00     0.126 C 
ATOM      6  C   UNL A   1      37.558  19.955  24.916  1.00  0.00     0.025 C 
BRANCH   5   7
ATOM      7  C   UNL A   1      36.504  22.284  24.746  1.00  0.00    -0.032 A 
ATOM      8  C   UNL A   1      36.529  23.638  25.097  1.00  0.00     0.005 A 
ATOM      9  C   UNL A   1      35.297  21.726  24.287  1.00  0.00     0.032 A 
ATOM     10  C   UNL A   1      35.394  24.443  24.967  1.00  0.00     0.011 A 
ATOM     11  C   UNL A   1      34.153  22.544  24.140  1.00  0.00     0.057 A 
ATOM     12  C   UNL A   1      34.198  23.897  24.459  1.00  0.00     0.008 A 
ATOM     13  N   UNL A   1      32.876  22.251  23.633  1.00  0.00    -0.276 N 
ATOM     14  C   UNL A   1      32.916  24.445  24.186  1.00  0.00     0.009 A 
ATOM     15  C   UNL A   1      32.093  23.413  23.716  1.00  0.00     0.057 A 
ATOM     16  C   UNL A   1      32.391  25.748  24.329  1.00  0.00     0.031 A 
ATOM     17  C   UNL A   1      30.725  23.648  23.471  1.00  0.00     0.029 A 
ATOM     18  C   UNL A   1      31.052  25.985  24.032  1.00  0.00     0.041 A 
ATOM     19  C   UNL A   1      30.225  24.950  23.619  1.00  0.00     0.023 A 
ATOM     20  Cl  UNL A   1      30.416  27.576  24.202  1.00  0.00    -0.084 Cl
BRANCH  13  21
ATOM     21  C   UNL A   1      32.499  20.975  23.134  1.00  0.00     0.262 C 
ATOM     22  O   UNL A   1      31.901  20.963  22.057  1.00  0.00    -0.268 OA
BRANCH  21  23
ATOM     23  C   UNL A   1      32.681  19.649  23.794  1.00  0.00     0.040 A 
ATOM     24  C   UNL A   1      32.785  18.513  22.969  1.00  0.00     0.015 A 
ATOM     25  C   UNL A   1      32.608  19.470  25.180  1.00  0.00     0.015 A 
ATOM     26  C   UNL A   1      32.842  17.229  23.516  1.00  0.00     0.021 A 
ATOM     27  C   UNL A   1      32.694  18.183  25.730  1.00  0.00     0.021 A 
ATOM     28  C   UNL A   1      32.805  17.069  24.897  1.00  0.00     0.041 A 
ATOM     29  Cl  UNL A   1      32.868  15.495  25.584  1.00  0.00    -0.084 Cl
ENDBRANCH  21  23
ENDBRANCH  13  21
ENDBRANCH   5   7
ENDBRANCH   3   5
ENDBRANCH   2   3
ENDBRANCH   1   2
BRANCH   1  30
ATOM     30  C   UNL A   1      41.952  22.354  26.077  1.00  0.00     0.275 C 
BRANCH  30  31
ATOM     31  O   UNL A   1      41.526  23.720  25.954  1.00  0.00    -0.458 OA
BRANCH  31  32
ATOM     32  C   UNL A   1      42.505  24.644  26.051  1.00  0.00     0.338 C 
ATOM     33  O   UNL A   1      43.541  24.706  25.409  1.00  0.00    -0.246 OA
BRANCH  32  34
ATOM     34  C   UNL A   1      42.124  25.633  27.065  1.00  0.00     0.060 A 
ATOM     35  C   UNL A   1      42.735  26.885  27.050  1.00  0.00     0.016 A 
ATOM     36  C   UNL A   1      41.241  25.289  28.087  1.00  0.00     0.016 A 
ATOM     37  C   UNL A   1      42.527  27.776  28.099  1.00  0.00     0.010 A 
ATOM     38  C   UNL A   1      40.971  26.216  29.098  1.00  0.00     0.010 A 
ATOM     39  C   UNL A   1      41.635  27.457  29.132  1.00  0.00    -0.014 A 
BRANCH  39  40
ATOM     40  C   UNL A   1      41.422  28.403  30.259  1.00  0.00     0.031 A 
ATOM     41  C   UNL A   1      42.327  28.359  31.463  1.00  0.00     0.074 A 
ATOM     42  C   UNL A   1      40.424  29.309  30.206  1.00  0.00     0.049 A 
ATOM     43  N   UNL A   1      42.208  28.978  32.610  1.00  0.00    -0.248 NA
ATOM     44  C   UNL A   1      43.512  27.492  31.369  1.00  0.00     0.031 C 
ATOM     45  C   UNL A   1      39.501  29.486  29.083  1.00  0.00     0.029 A 
ATOM     46  N   UNL A   1      40.022  30.254  31.117  1.00  0.00    -0.354 N 
ATOM     47  C   UNL A   1      43.267  28.533  33.393  1.00  0.00     0.074 A 
ATOM     48  C   UNL A   1      44.020  27.594  32.589  1.00  0.00     0.031 C 
ATOM     49  C   UNL A   1      38.664  30.499  29.356  1.00  0.00     0.029 A 
ATOM     50  C   UNL A   1      38.938  30.992  30.702  1.00  0.00     0.049 A 
ATOM     51  H   UNL A   1      40.466  30.389  31.984  1.00  0.00     0.167 HD
ATOM     52  C   UNL A   1      43.578  28.875  34.667  1.00  0.00     0.037 A 
ATOM     53  C   UNL A   1      38.222  31.936  31.342  1.00  0.00     0.037 A 
ATOM     54  C   UNL A   1      42.858  29.854  35.440  1.00  0.00     0.049 A 
ATOM     55  C   UNL A   1      38.584  32.297  32.755  1.00  0.00     0.074 A 
ATOM     56  C   UNL A   1      43.106  30.285  36.731  1.00  0.00     0.029 A 
ATOM     57  N   UNL A   1      41.759  30.568  34.986  1.00  0.00    -0.354 N 
ATOM     58  N   UNL A   1      39.554  31.827  33.502  1.00  0.00    -0.248 NA
ATOM     59  C   UNL A   1      37.741  33.300  33.420  1.00  0.00     0.031 C 
ATOM     60  C   UNL A   1      42.142  31.242  37.068  1.00  0.00     0.029 A 
ATOM     61  C   UNL A   1      41.312  31.431  35.973  1.00  0.00     0.049 A 
ATOM     62  H   UNL A   1      41.355  30.476  34.093  1.00  0.00     0.167 HD
ATOM     63  C   UNL A   1      39.442  32.478  34.724  1.00  0.00     0.074 A 
ATOM     64  C   UNL A   1      38.321  33.391  34.610  1.00  0.00     0.031 C 
ATOM     65  C   UNL A   1      40.194  32.330  35.841  1.00  0.00     0.037 A 
BRANCH  52  66
ATOM     66  C   UNL A   1      44.726  28.159  35.318  1.00  0.00     0.058 A 
ATOM     67  C   UNL A   1      46.041  28.644  35.252  1.00  0.00     0.135 A 
ATOM     68  C   UNL A   1      44.499  26.978  36.045  1.00  0.00     0.135 A 
ATOM     69  F   UNL A   1      46.317  29.758  34.556  1.00  0.00    -0.206 F 
ATOM     70  C   UNL A   1      47.096  27.970  35.862  1.00  0.00     0.059 A 
ATOM     71  C   UNL A   1      45.535  26.299  36.681  1.00  0.00     0.059 A 
ATOM     72  F   UNL A   1      43.260  26.471  36.140  1.00  0.00    -0.206 F 
ATOM     73  C   UNL A   1      46.833  26.795  36.570  1.00  0.00     0.060 A 
BRANCH  73  74
ATOM     74  S   UNL A   1      48.209  25.925  37.350  1.00  0.00     0.124 S 
ATOM     75  O   UNL A   1      47.505  25.027  38.261  1.00  0.00    -0.237 OA
ATOM     76  O   UNL A   1      48.863  25.285  36.212  1.00  0.00    -0.237 OA
ATOM     77  O   UNL A   1      48.971  26.995  37.985  1.00  0.00    -0.744 OA
ENDBRANCH  73  74
ENDBRANCH  52  66
BRANCH  53  78
ATOM     78  C   UNL A   1      37.072  32.581  30.658  1.00  0.00     0.058 A 
ATOM     79  C   UNL A   1      35.765  32.114  30.851  1.00  0.00     0.135 A 
ATOM     80  C   UNL A   1      37.253  33.698  29.827  1.00  0.00     0.135 A 
ATOM     81  F   UNL A   1      35.544  31.042  31.628  1.00  0.00    -0.206 F 
ATOM     82  C   UNL A   1      34.675  32.730  30.245  1.00  0.00     0.059 A 
ATOM     83  C   UNL A   1      36.178  34.344  29.228  1.00  0.00     0.059 A 
ATOM     84  F   UNL A   1      38.485  34.189  29.619  1.00  0.00    -0.206 F 
ATOM     85  C   UNL A   1      34.892  33.849  29.437  1.00  0.00     0.060 A 
BRANCH  85  86
ATOM     86  S   UNL A   1      33.468  34.691  28.713  1.00  0.00     0.124 S 
ATOM     87  O   UNL A   1      32.651  34.951  29.892  1.00  0.00    -0.237 OA
ATOM     88  O   UNL A   1      34.080  35.860  28.090  1.00  0.00    -0.237 OA
ATOM     89  O   UNL A   1      32.936  33.701  27.780  1.00  0.00    -0.744 OA
ENDBRANCH  85  86
ENDBRANCH  53  78
BRANCH  65  90
ATOM     90  C   UNL A   1      39.840  33.187  37.022  1.00  0.00     0.058 A 
ATOM     91  C   UNL A   1      38.839  32.805  37.927  1.00  0.00     0.135 A 
ATOM     92  C   UNL A   1      40.532  34.383  37.269  1.00  0.00     0.135 A 
ATOM     93  F   UNL A   1      38.143  31.674  37.729  1.00  0.00    -0.206 F 
ATOM     94  C   UNL A   1      38.522  33.591  39.031  1.00  0.00     0.059 A 
ATOM     95  C   UNL A   1      40.245  35.174  38.375  1.00  0.00     0.059 A 
ATOM     96  F   UNL A   1      41.504  34.786  36.434  1.00  0.00    -0.206 F 
ATOM     97  C   UNL A   1      39.230  34.775  39.245  1.00  0.00     0.060 A 
BRANCH  97  98
ATOM     98  S   UNL A   1      38.831  35.777  40.694  1.00  0.00     0.124 S 
ATOM     99  O   UNL A   1      40.010  35.569  41.528  1.00  0.00    -0.237 OA
ATOM    100  O   UNL A   1      38.685  37.113  40.123  1.00  0.00    -0.237 OA
ATOM    101  O   UNL A   1      37.595  35.176  41.189  1.00  0.00    -0.744 OA
ENDBRANCH  97  98
ENDBRANCH  65  90
ENDBRANCH  39  40
ENDBRANCH  32  34
ENDBRANCH  31  32
ENDBRANCH  30  31
ENDBRANCH   1  30
TORSDOF 17
ENDMDL
MODEL 3
REMARK VINA RESULT:     -11.8      1.501      3.571
REMARK SMILES C[C@H](C(=O)OCCOC(=O)c1ccc(-c2c3nc(c(-c4c(F)cc(S(=O)(=O)[O-])cc4F)c4ccc([nH]4)c(-c4c(F)cc(S(=O)(=O)[O-])cc4F)c4nc(c(-c5c(F)cc(S(=O)(=O)[O-])cc5F)c5ccc2[nH]5)C=C4)C=C3)cc1)c1ccc2c3cc(Cl)ccc3n(C(=O)c3ccc(Cl)cc3)c2c1
REMARK SMILES IDX 6 1 5 2 3 3 4 4 2 5 1 6 77 7 78 8 99 9 79 10 98 11 80 12
REMARK SMILES IDX 88 13 81 14 87 15 82 16 86 17 83 18 85 19 84 20 89 21 90 22
REMARK SMILES IDX 91 23 92 24 97 25 93 26 96 27 94 28 95 29 7 30 8 31 9 32
REMARK SMILES IDX 10 33 11 34 12 35 76 36 13 37 75 38 14 39 15 40 16 41 69 42
REMARK SMILES IDX 17 43 74 44 68 45 70 46 18 47 73 48 67 49 66 50 19 52 53 53
REMARK SMILES IDX 32 54 52 55 33 56 36 57 51 58 71 59 34 60 35 61 50 63 72 64
REMARK SMILES IDX 37 65 20 66 21 67 30 68 22 69 23 70 29 71 31 72 24 73 25 74
REMARK SMILES IDX 26 75 27 76 28 77 54 78 55 79 64 80 56 81 57 82 63 83 65 84
REMARK SMILES IDX 58 85 59 86 60 87 61 88 62 89 38 90 39 91 48 92 40 93 41 94
REMARK SMILES IDX 47 95 49 96 42 97 43 98 44 99 45 100 46 101
REMARK H PARENT 70 51 36 62
REMARK Flexibility Score: inf
ROOT
ATOM      1  C   UNL A   1      41.029  21.720  26.711  1.00  0.00     0.274 C 
ENDROOT
BRANCH   1   2
ATOM      2  O   UNL A   1      39.959  21.235  25.876  1.00  0.00    -0.462 OA
BRANCH   2   3
ATOM      3  C   UNL A   1      38.805  21.957  25.873  1.00  0.00     0.313 C 
ATOM      4  O   UNL A   1      38.559  22.851  26.676  1.00  0.00    -0.252 OA
BRANCH   3   5
ATOM      5  C   UNL A   1      37.787  21.476  24.837  1.00  0.00     0.126 C 
ATOM      6  C   UNL A   1      37.544  19.966  24.992  1.00  0.00     0.025 C 
BRANCH   5   7
ATOM      7  C   UNL A   1      36.500  22.292  24.742  1.00  0.00    -0.032 A 
ATOM      8  C   UNL A   1      36.533  23.646  25.093  1.00  0.00     0.005 A 
ATOM      9  C   UNL A   1      35.288  21.740  24.291  1.00  0.00     0.032 A 
ATOM     10  C   UNL A   1      35.400  24.456  24.971  1.00  0.00     0.011 A 
ATOM     11  C   UNL A   1      34.146  22.562  24.151  1.00  0.00     0.057 A 
ATOM     12  C   UNL A   1      34.198  23.914  24.471  1.00  0.00     0.008 A 
ATOM     13  N   UNL A   1      32.865  22.274  23.653  1.00  0.00    -0.276 N 
ATOM     14  C   UNL A   1      32.917  24.467  24.206  1.00  0.00     0.009 A 
ATOM     15  C   UNL A   1      32.087  23.439  23.742  1.00  0.00     0.057 A 
ATOM     16  C   UNL A   1      32.398  25.772  24.353  1.00  0.00     0.031 A 
ATOM     17  C   UNL A   1      30.718  23.680  23.505  1.00  0.00     0.029 A 
ATOM     18  C   UNL A   1      31.058  26.016  24.064  1.00  0.00     0.041 A 
ATOM     19  C   UNL A   1      30.224  24.983  23.656  1.00  0.00     0.023 A 
ATOM     20  Cl  UNL A   1      30.430  27.609  24.240  1.00  0.00    -0.084 Cl
BRANCH  13  21
ATOM     21  C   UNL A   1      32.479  21.000  23.156  1.00  0.00     0.262 C 
ATOM     22  O   UNL A   1      31.865  20.991  22.089  1.00  0.00    -0.268 OA
BRANCH  21  23
ATOM     23  C   UNL A   1      32.672  19.671  23.809  1.00  0.00     0.040 A 
ATOM     24  C   UNL A   1      32.849  18.550  22.977  1.00  0.00     0.015 A 
ATOM     25  C   UNL A   1      32.540  19.473  25.188  1.00  0.00     0.015 A 
ATOM     26  C   UNL A   1      32.920  17.261  23.511  1.00  0.00     0.021 A 
ATOM     27  C   UNL A   1      32.640  18.183  25.726  1.00  0.00     0.021 A 
ATOM     28  C   UNL A   1      32.824  17.083  24.887  1.00  0.00     0.041 A 
ATOM     29  Cl  UNL A   1      32.904  15.503  25.559  1.00  0.00    -0.084 Cl
ENDBRANCH  21  23
ENDBRANCH  13  21
ENDBRANCH   5   7
ENDBRANCH   3   5
ENDBRANCH   2   3
ENDBRANCH   1   2
BRANCH   1  30
ATOM     30  C   UNL A   1      41.776  22.865  26.034  1.00  0.00     0.275 C 
BRANCH  30  31
ATOM     31  O   UNL A   1      41.835  23.997  26.916  1.00  0.00    -0.458 OA
BRANCH  31  32
ATOM     32  C   UNL A   1      41.424  25.169  26.385  1.00  0.00     0.338 C 
ATOM     33  O   UNL A   1      41.283  25.445  25.204  1.00  0.00    -0.246 OA
BRANCH  32  34
ATOM     34  C   UNL A   1      41.127  26.105  27.474  1.00  0.00     0.060 A 
ATOM     35  C   UNL A   1      41.910  27.249  27.613  1.00  0.00     0.016 A 
ATOM     36  C   UNL A   1      40.144  25.801  28.415  1.00  0.00     0.016 A 
ATOM     37  C   UNL A   1      41.768  28.059  28.735  1.00  0.00     0.010 A 
ATOM     38  C   UNL A   1      39.949  26.660  29.500  1.00  0.00     0.010 A 
ATOM     39  C   UNL A   1      40.779  27.781  29.688  1.00  0.00    -0.014 A 
BRANCH  39  40
ATOM     40  C   UNL A   1      40.636  28.640  30.894  1.00  0.00     0.031 A 
ATOM     41  C   UNL A   1      39.562  29.696  30.945  1.00  0.00     0.074 A 
ATOM     42  C   UNL A   1      41.461  28.474  31.948  1.00  0.00     0.049 A 
ATOM     43  N   UNL A   1      39.379  30.647  31.824  1.00  0.00    -0.248 NA
ATOM     44  C   UNL A   1      38.574  29.688  29.854  1.00  0.00     0.031 C 
ATOM     45  C   UNL A   1      42.517  27.465  32.045  1.00  0.00     0.029 A 
ATOM     46  N   UNL A   1      41.538  29.150  33.141  1.00  0.00    -0.354 N 
ATOM     47  C   UNL A   1      38.294  31.386  31.365  1.00  0.00     0.074 A 
ATOM     48  C   UNL A   1      37.857  30.769  30.131  1.00  0.00     0.031 C 
ATOM     49  C   UNL A   1      43.112  27.564  33.244  1.00  0.00     0.029 A 
ATOM     50  C   UNL A   1      42.535  28.691  33.969  1.00  0.00     0.049 A 
ATOM     51  H   UNL A   1      40.938  29.892  33.380  1.00  0.00     0.167 HD
ATOM     52  C   UNL A   1      37.720  32.479  31.922  1.00  0.00     0.037 A 
ATOM     53  C   UNL A   1      42.963  29.146  35.163  1.00  0.00     0.037 A 
ATOM     54  C   UNL A   1      38.123  33.052  33.181  1.00  0.00     0.049 A 
ATOM     55  C   UNL A   1      42.312  30.362  35.759  1.00  0.00     0.074 A 
ATOM     56  C   UNL A   1      37.591  34.147  33.839  1.00  0.00     0.029 A 
ATOM     57  N   UNL A   1      39.146  32.564  33.980  1.00  0.00    -0.354 N 
ATOM     58  N   UNL A   1      41.324  31.082  35.287  1.00  0.00    -0.248 NA
ATOM     59  C   UNL A   1      42.849  30.840  37.041  1.00  0.00     0.031 C 
ATOM     60  C   UNL A   1      38.309  34.337  35.026  1.00  0.00     0.029 A 
ATOM     61  C   UNL A   1      39.267  33.340  35.122  1.00  0.00     0.049 A 
ATOM     62  H   UNL A   1      39.704  31.781  33.769  1.00  0.00     0.167 HD
ATOM     63  C   UNL A   1      41.116  32.097  36.212  1.00  0.00     0.074 A 
ATOM     64  C   UNL A   1      42.069  31.886  37.284  1.00  0.00     0.031 C 
ATOM     65  C   UNL A   1      40.223  33.115  36.176  1.00  0.00     0.037 A 
BRANCH  52  66
ATOM     66  C   UNL A   1      36.616  33.151  31.156  1.00  0.00     0.058 A 
ATOM     67  C   UNL A   1      35.272  33.056  31.548  1.00  0.00     0.135 A 
ATOM     68  C   UNL A   1      36.915  33.926  30.023  1.00  0.00     0.135 A 
ATOM     69  F   UNL A   1      34.929  32.314  32.612  1.00  0.00    -0.206 F 
ATOM     70  C   UNL A   1      34.259  33.685  30.828  1.00  0.00     0.059 A 
ATOM     71  C   UNL A   1      35.921  34.581  29.301  1.00  0.00     0.059 A 
ATOM     72  F   UNL A   1      38.184  34.050  29.605  1.00  0.00    -0.206 F 
ATOM     73  C   UNL A   1      34.594  34.441  29.703  1.00  0.00     0.060 A 
BRANCH  73  74
ATOM     74  S   UNL A   1      33.272  35.246  28.773  1.00  0.00     0.124 S 
ATOM     75  O   UNL A   1      32.700  34.116  28.047  1.00  0.00    -0.237 OA
ATOM     76  O   UNL A   1      32.437  35.805  29.832  1.00  0.00    -0.237 OA
ATOM     77  O   UNL A   1      33.980  36.226  27.955  1.00  0.00    -0.744 OA
ENDBRANCH  73  74
ENDBRANCH  52  66
BRANCH  53  78
ATOM     78  C   UNL A   1      44.086  28.461  35.854  1.00  0.00     0.058 A 
ATOM     79  C   UNL A   1      45.412  28.864  35.646  1.00  0.00     0.135 A 
ATOM     80  C   UNL A   1      43.853  27.417  36.762  1.00  0.00     0.135 A 
ATOM     81  F   UNL A   1      45.685  29.851  34.778  1.00  0.00    -0.206 F 
ATOM     82  C   UNL A   1      46.471  28.256  36.312  1.00  0.00     0.059 A 
ATOM     83  C   UNL A   1      44.891  26.809  37.457  1.00  0.00     0.059 A 
ATOM     84  F   UNL A   1      42.600  27.002  37.003  1.00  0.00    -0.206 F 
ATOM     85  C   UNL A   1      46.199  27.231  37.221  1.00  0.00     0.060 A 
BRANCH  85  86
ATOM     86  S   UNL A   1      47.568  26.495  38.141  1.00  0.00     0.124 S 
ATOM     87  O   UNL A   1      47.060  25.151  38.396  1.00  0.00    -0.237 OA
ATOM     88  O   UNL A   1      48.671  26.590  37.190  1.00  0.00    -0.237 OA
ATOM     89  O   UNL A   1      47.685  27.360  39.312  1.00  0.00    -0.744 OA
ENDBRANCH  85  86
ENDBRANCH  53  78
BRANCH  65  90
ATOM     90  C   UNL A   1      40.223  34.065  37.337  1.00  0.00     0.058 A 
ATOM     91  C   UNL A   1      40.981  35.245  37.316  1.00  0.00     0.135 A 
ATOM     92  C   UNL A   1      39.429  33.811  38.467  1.00  0.00     0.135 A 
ATOM     93  F   UNL A   1      41.762  35.528  36.261  1.00  0.00    -0.206 F 
ATOM     94  C   UNL A   1      40.968  36.134  38.386  1.00  0.00     0.059 A 
ATOM     95  C   UNL A   1      39.387  34.695  39.539  1.00  0.00     0.059 A 
ATOM     96  F   UNL A   1      38.680  32.699  38.531  1.00  0.00    -0.206 F 
ATOM     97  C   UNL A   1      40.169  35.849  39.494  1.00  0.00     0.060 A 
BRANCH  97  98
ATOM     98  S   UNL A   1      40.137  37.021  40.868  1.00  0.00     0.124 S 
ATOM     99  O   UNL A   1      41.327  36.629  41.616  1.00  0.00    -0.237 OA
ATOM    100  O   UNL A   1      40.213  38.310  40.186  1.00  0.00    -0.237 OA
ATOM    101  O   UNL A   1      38.862  36.740  41.521  1.00  0.00    -0.744 OA
ENDBRANCH  97  98
ENDBRANCH  65  90
ENDBRANCH  39  40
ENDBRANCH  32  34
ENDBRANCH  31  32
ENDBRANCH  30  31
ENDBRANCH   1  30
TORSDOF 17
ENDMDL
