MODEL 1
REMARK VINA RESULT:     -11.2      0.000      0.000
REMARK SMILES Cc1cc(C)c2c(OCCCC(=O)OCCOC(=O)c3ccc(-c4c5nc(c(-c6c(F)cc(S(=O)(=O)[O-])cc6F)c6ccc([nH]6)c(-c6c(F)cc(S(=O)(=O)[O-])cc6F)c6nc(c(-c7c(F)cc(S(=O)(=O)[O-])cc7F)c7ccc4[nH]7)C=C6)C=C5)cc3)nsc2n1
REMARK SMILES IDX 15 1 14 2 12 3 13 4 11 5 10 6 9 7 8 8 7 9 1 10 2 11 3 12
REMARK SMILES IDX 89 13 4 14 88 15 5 16 6 17 87 18 86 19 16 20 17 21 18 22
REMARK SMILES IDX 19 23 20 24 21 25 85 26 22 27 84 28 23 29 24 30 25 31 78 32
REMARK SMILES IDX 26 33 83 34 77 35 79 36 27 37 82 38 76 39 75 40 28 42 62 43
REMARK SMILES IDX 41 44 61 45 42 46 45 47 60 48 80 49 43 50 44 51 59 53 81 54
REMARK SMILES IDX 46 55 29 56 30 57 39 58 31 59 32 60 38 61 40 62 33 63 34 64
REMARK SMILES IDX 35 65 36 66 37 67 63 68 64 69 73 70 65 71 66 72 72 73 74 74
REMARK SMILES IDX 67 75 68 76 69 77 70 78 71 79 47 80 48 81 57 82 49 83 50 84
REMARK SMILES IDX 56 85 58 86 51 87 52 88 53 89 54 90 55 91
REMARK H PARENT 79 41 45 52
REMARK Flexibility Score: inf
ROOT
ATOM      1  C   UNL A   1      39.745  22.210  26.524  1.00  0.00     0.274 C 
ENDROOT
BRANCH   1   2
ATOM      2  O   UNL A   1      38.802  21.314  25.857  1.00  0.00    -0.462 OA
BRANCH   2   3
ATOM      3  C   UNL A   1      37.694  21.835  25.276  1.00  0.00     0.306 C 
ATOM      4  O   UNL A   1      37.048  21.237  24.421  1.00  0.00    -0.252 OA
BRANCH   3   5
ATOM      5  C   UNL A   1      37.337  23.259  25.707  1.00  0.00     0.126 C 
BRANCH   5   6
ATOM      6  C   UNL A   1      35.907  23.815  25.712  1.00  0.00     0.053 C 
BRANCH   6   7
ATOM      7  C   UNL A   1      35.149  24.229  24.436  1.00  0.00     0.232 C 
BRANCH   7   8
ATOM      8  O   UNL A   1      34.435  25.458  24.347  1.00  0.00    -0.477 OA
BRANCH   8   9
ATOM      9  C   UNL A   1      33.426  25.575  23.459  1.00  0.00     0.235 A 
ATOM     10  C   UNL A   1      29.502  29.287  22.637  1.00  0.00     0.067 C 
ATOM     11  C   UNL A   1      30.184  27.979  22.931  1.00  0.00     0.039 A 
ATOM     12  C   UNL A   1      30.255  27.498  24.234  1.00  0.00     0.027 A 
ATOM     13  N   UNL A   1      30.794  27.376  21.899  1.00  0.00    -0.240 NA
ATOM     14  C   UNL A   1      31.230  26.546  24.610  1.00  0.00    -0.034 A 
ATOM     15  C   UNL A   1      31.723  26.481  22.275  1.00  0.00     0.147 A 
ATOM     16  C   UNL A   1      31.329  26.106  26.048  1.00  0.00     0.045 C 
ATOM     17  C   UNL A   1      32.109  26.146  23.575  1.00  0.00     0.078 A 
ATOM     18  S   UNL A   1      32.662  25.610  21.156  1.00  0.00    -0.012 S 
ATOM     19  N   UNL A   1      33.770  25.083  22.268  1.00  0.00    -0.153 NA
ENDBRANCH   8   9
ENDBRANCH   7   8
ENDBRANCH   6   7
ENDBRANCH   5   6
ENDBRANCH   3   5
ENDBRANCH   2   3
ENDBRANCH   1   2
BRANCH   1  20
ATOM     20  C   UNL A   1      40.876  21.407  27.186  1.00  0.00     0.275 C 
BRANCH  20  21
ATOM     21  O   UNL A   1      42.128  22.051  27.014  1.00  0.00    -0.458 OA
BRANCH  21  22
ATOM     22  C   UNL A   1      42.804  21.510  25.965  1.00  0.00     0.338 C 
ATOM     23  O   UNL A   1      42.562  20.450  25.452  1.00  0.00    -0.246 OA
BRANCH  22  24
ATOM     24  C   UNL A   1      43.860  22.479  25.544  1.00  0.00     0.060 A 
ATOM     25  C   UNL A   1      44.848  22.648  26.504  1.00  0.00     0.016 A 
ATOM     26  C   UNL A   1      43.467  23.514  24.693  1.00  0.00     0.016 A 
ATOM     27  C   UNL A   1      44.912  23.897  27.051  1.00  0.00     0.010 A 
ATOM     28  C   UNL A   1      43.507  24.755  25.240  1.00  0.00     0.010 A 
ATOM     29  C   UNL A   1      44.076  24.867  26.505  1.00  0.00    -0.014 A 
BRANCH  29  30
ATOM     30  C   UNL A   1      43.713  26.002  27.308  1.00  0.00     0.031 A 
ATOM     31  C   UNL A   1      44.711  27.069  27.182  1.00  0.00     0.074 A 
ATOM     32  C   UNL A   1      42.521  26.080  27.927  1.00  0.00     0.049 A 
ATOM     33  N   UNL A   1      45.734  27.271  27.944  1.00  0.00    -0.248 NA
ATOM     34  C   UNL A   1      44.780  27.751  25.877  1.00  0.00     0.031 C 
ATOM     35  C   UNL A   1      41.347  25.207  27.821  1.00  0.00     0.029 A 
ATOM     36  N   UNL A   1      42.092  27.066  28.751  1.00  0.00    -0.354 N 
ATOM     37  C   UNL A   1      46.421  28.286  27.300  1.00  0.00     0.074 A 
ATOM     38  C   UNL A   1      46.020  28.234  25.921  1.00  0.00     0.031 C 
ATOM     39  C   UNL A   1      40.278  25.830  28.379  1.00  0.00     0.029 A 
ATOM     40  C   UNL A   1      40.718  27.074  28.982  1.00  0.00     0.049 A 
ATOM     41  H   UNL A   1      42.703  27.724  29.155  1.00  0.00     0.167 HD
ATOM     42  C   UNL A   1      46.951  29.339  27.977  1.00  0.00     0.037 A 
ATOM     43  C   UNL A   1      40.057  28.129  29.527  1.00  0.00     0.037 A 
ATOM     44  C   UNL A   1      46.998  29.084  29.393  1.00  0.00     0.049 A 
ATOM     45  C   UNL A   1      41.099  28.974  30.194  1.00  0.00     0.074 A 
ATOM     46  C   UNL A   1      47.631  28.135  30.174  1.00  0.00     0.029 A 
ATOM     47  N   UNL A   1      45.962  29.575  30.157  1.00  0.00    -0.354 N 
ATOM     48  N   UNL A   1      41.809  28.577  31.220  1.00  0.00    -0.248 NA
ATOM     49  C   UNL A   1      41.700  30.041  29.404  1.00  0.00     0.031 C 
ATOM     50  C   UNL A   1      46.686  27.787  31.183  1.00  0.00     0.029 A 
ATOM     51  C   UNL A   1      45.550  28.581  31.015  1.00  0.00     0.049 A 
ATOM     52  H   UNL A   1      45.582  30.481  30.099  1.00  0.00     0.167 HD
ATOM     53  C   UNL A   1      43.095  29.055  30.982  1.00  0.00     0.074 A 
ATOM     54  C   UNL A   1      42.951  29.993  29.872  1.00  0.00     0.031 C 
ATOM     55  C   UNL A   1      44.194  28.433  31.509  1.00  0.00     0.037 A 
BRANCH  42  56
ATOM     56  C   UNL A   1      47.086  30.699  27.354  1.00  0.00     0.058 A 
ATOM     57  C   UNL A   1      48.347  31.299  27.252  1.00  0.00     0.135 A 
ATOM     58  C   UNL A   1      45.987  31.515  26.984  1.00  0.00     0.135 A 
ATOM     59  F   UNL A   1      49.449  30.632  27.631  1.00  0.00    -0.206 F 
ATOM     60  C   UNL A   1      48.506  32.611  26.803  1.00  0.00     0.059 A 
ATOM     61  C   UNL A   1      46.126  32.787  26.454  1.00  0.00     0.059 A 
ATOM     62  F   UNL A   1      44.716  31.153  27.202  1.00  0.00    -0.206 F 
ATOM     63  C   UNL A   1      47.390  33.341  26.397  1.00  0.00     0.060 A 
BRANCH  63  64
ATOM     64  S   UNL A   1      47.579  35.048  25.863  1.00  0.00     0.124 S 
ATOM     65  O   UNL A   1      46.244  35.343  25.357  1.00  0.00    -0.237 OA
ATOM     66  O   UNL A   1      47.958  35.712  27.106  1.00  0.00    -0.237 OA
ATOM     67  O   UNL A   1      48.632  34.972  24.855  1.00  0.00    -0.744 OA
ENDBRANCH  63  64
ENDBRANCH  42  56
BRANCH  43  68
ATOM     68  C   UNL A   1      38.726  28.677  29.140  1.00  0.00     0.058 A 
ATOM     69  C   UNL A   1      37.718  28.872  30.104  1.00  0.00     0.135 A 
ATOM     70  C   UNL A   1      38.518  29.300  27.894  1.00  0.00     0.135 A 
ATOM     71  F   UNL A   1      37.838  28.326  31.324  1.00  0.00    -0.206 F 
ATOM     72  C   UNL A   1      36.607  29.691  29.869  1.00  0.00     0.059 A 
ATOM     73  C   UNL A   1      37.415  30.114  27.635  1.00  0.00     0.059 A 
ATOM     74  F   UNL A   1      39.433  29.221  26.918  1.00  0.00    -0.206 F 
ATOM     75  C   UNL A   1      36.479  30.332  28.638  1.00  0.00     0.060 A 
BRANCH  75  76
ATOM     76  S   UNL A   1      35.160  31.549  28.398  1.00  0.00     0.124 S 
ATOM     77  O   UNL A   1      34.156  30.769  27.682  1.00  0.00    -0.237 OA
ATOM     78  O   UNL A   1      34.827  31.911  29.771  1.00  0.00    -0.237 OA
ATOM     79  O   UNL A   1      35.807  32.600  27.618  1.00  0.00    -0.744 OA
ENDBRANCH  75  76
ENDBRANCH  43  68
BRANCH  55  80
ATOM     80  C   UNL A   1      43.961  27.354  32.544  1.00  0.00     0.058 A 
ATOM     81  C   UNL A   1      43.933  25.975  32.260  1.00  0.00     0.135 A 
ATOM     82  C   UNL A   1      43.922  27.722  33.895  1.00  0.00     0.135 A 
ATOM     83  F   UNL A   1      44.066  25.532  31.003  1.00  0.00    -0.206 F 
ATOM     84  C   UNL A   1      43.833  25.011  33.268  1.00  0.00     0.059 A 
ATOM     85  C   UNL A   1      43.854  26.780  34.920  1.00  0.00     0.059 A 
ATOM     86  F   UNL A   1      44.006  29.018  34.241  1.00  0.00    -0.206 F 
ATOM     87  C   UNL A   1      43.798  25.425  34.599  1.00  0.00     0.060 A 
BRANCH  87  88
ATOM     88  S   UNL A   1      43.740  24.179  35.908  1.00  0.00     0.124 S 
ATOM     89  O   UNL A   1      44.696  23.187  35.430  1.00  0.00    -0.237 OA
ATOM     90  O   UNL A   1      44.148  24.939  37.085  1.00  0.00    -0.237 OA
ATOM     91  O   UNL A   1      42.343  23.749  35.908  1.00  0.00    -0.744 OA
ENDBRANCH  87  88
ENDBRANCH  55  80
ENDBRANCH  29  30
ENDBRANCH  22  24
ENDBRANCH  21  22
ENDBRANCH  20  21
ENDBRANCH   1  20
TORSDOF 18
ENDMDL
MODEL 2
REMARK VINA RESULT:     -11.1      2.144      2.964
REMARK SMILES Cc1cc(C)c2c(OCCCC(=O)OCCOC(=O)c3ccc(-c4c5nc(c(-c6c(F)cc(S(=O)(=O)[O-])cc6F)c6ccc([nH]6)c(-c6c(F)cc(S(=O)(=O)[O-])cc6F)c6nc(c(-c7c(F)cc(S(=O)(=O)[O-])cc7F)c7ccc4[nH]7)C=C6)C=C5)cc3)nsc2n1
REMARK SMILES IDX 15 1 14 2 12 3 13 4 11 5 10 6 9 7 8 8 7 9 1 10 2 11 3 12
REMARK SMILES IDX 89 13 4 14 88 15 5 16 6 17 87 18 86 19 16 20 17 21 18 22
REMARK SMILES IDX 19 23 20 24 21 25 85 26 22 27 84 28 23 29 24 30 25 31 78 32
REMARK SMILES IDX 26 33 83 34 77 35 79 36 27 37 82 38 76 39 75 40 28 42 62 43
REMARK SMILES IDX 41 44 61 45 42 46 45 47 60 48 80 49 43 50 44 51 59 53 81 54
REMARK SMILES IDX 46 55 29 56 30 57 39 58 31 59 32 60 38 61 40 62 33 63 34 64
REMARK SMILES IDX 35 65 36 66 37 67 63 68 64 69 73 70 65 71 66 72 72 73 74 74
REMARK SMILES IDX 67 75 68 76 69 77 70 78 71 79 47 80 48 81 57 82 49 83 50 84
REMARK SMILES IDX 56 85 58 86 51 87 52 88 53 89 54 90 55 91
REMARK H PARENT 79 41 45 52
REMARK Flexibility Score: inf
ROOT
ATOM      1  C   UNL A   1      40.988  21.395  27.734  1.00  0.00     0.274 C 
ENDROOT
BRANCH   1   2
ATOM      2  O   UNL A   1      39.816  21.034  26.939  1.00  0.00    -0.462 OA
BRANCH   2   3
ATOM      3  C   UNL A   1      39.222  21.979  26.171  1.00  0.00     0.306 C 
ATOM      4  O   UNL A   1      39.559  23.160  26.190  1.00  0.00    -0.252 OA
BRANCH   3   5
ATOM      5  C   UNL A   1      38.046  21.490  25.324  1.00  0.00     0.126 C 
BRANCH   5   6
ATOM      6  C   UNL A   1      37.225  22.399  24.400  1.00  0.00     0.053 C 
BRANCH   6   7
ATOM      7  C   UNL A   1      36.520  23.685  24.875  1.00  0.00     0.232 C 
BRANCH   7   8
ATOM      8  O   UNL A   1      35.111  23.856  24.769  1.00  0.00    -0.477 OA
BRANCH   8   9
ATOM      9  C   UNL A   1      34.288  22.951  25.339  1.00  0.00     0.235 A 
ATOM     10  C   UNL A   1      32.531  17.981  23.902  1.00  0.00     0.067 C 
ATOM     11  C   UNL A   1      32.528  19.438  24.277  1.00  0.00     0.039 A 
ATOM     12  C   UNL A   1      32.340  20.416  23.306  1.00  0.00     0.027 A 
ATOM     13  N   UNL A   1      32.815  19.728  25.555  1.00  0.00    -0.240 NA
ATOM     14  C   UNL A   1      32.760  21.749  23.520  1.00  0.00    -0.034 A 
ATOM     15  C   UNL A   1      33.220  20.996  25.738  1.00  0.00     0.147 A 
ATOM     16  C   UNL A   1      32.614  22.764  22.417  1.00  0.00     0.045 C 
ATOM     17  C   UNL A   1      33.379  21.990  24.770  1.00  0.00     0.078 A 
ATOM     18  S   UNL A   1      33.677  21.601  27.260  1.00  0.00    -0.012 S 
ATOM     19  N   UNL A   1      34.393  22.971  26.668  1.00  0.00    -0.153 NA
ENDBRANCH   8   9
ENDBRANCH   7   8
ENDBRANCH   6   7
ENDBRANCH   5   6
ENDBRANCH   3   5
ENDBRANCH   2   3
ENDBRANCH   1   2
BRANCH   1  20
ATOM     20  C   UNL A   1      42.262  20.786  27.126  1.00  0.00     0.275 C 
BRANCH  20  21
ATOM     21  O   UNL A   1      43.084  21.789  26.553  1.00  0.00    -0.458 OA
BRANCH  21  22
ATOM     22  C   UNL A   1      43.812  21.281  25.522  1.00  0.00     0.338 C 
ATOM     23  O   UNL A   1      43.647  20.202  25.018  1.00  0.00    -0.246 OA
BRANCH  22  24
ATOM     24  C   UNL A   1      44.810  22.312  25.107  1.00  0.00     0.060 A 
ATOM     25  C   UNL A   1      45.829  22.476  26.034  1.00  0.00     0.016 A 
ATOM     26  C   UNL A   1      44.342  23.368  24.324  1.00  0.00     0.016 A 
ATOM     27  C   UNL A   1      45.867  23.700  26.638  1.00  0.00     0.010 A 
ATOM     28  C   UNL A   1      44.355  24.583  24.928  1.00  0.00     0.010 A 
ATOM     29  C   UNL A   1      44.972  24.660  26.173  1.00  0.00    -0.014 A 
BRANCH  29  30
ATOM     30  C   UNL A   1      44.598  25.740  27.044  1.00  0.00     0.031 A 
ATOM     31  C   UNL A   1      45.566  26.838  26.956  1.00  0.00     0.074 A 
ATOM     32  C   UNL A   1      43.417  25.754  27.688  1.00  0.00     0.049 A 
ATOM     33  N   UNL A   1      46.600  27.024  27.709  1.00  0.00    -0.248 NA
ATOM     34  C   UNL A   1      45.592  27.590  25.689  1.00  0.00     0.031 C 
ATOM     35  C   UNL A   1      42.262  24.859  27.558  1.00  0.00     0.029 A 
ATOM     36  N   UNL A   1      42.982  26.684  28.573  1.00  0.00    -0.354 N 
ATOM     37  C   UNL A   1      47.249  28.089  27.108  1.00  0.00     0.074 A 
ATOM     38  C   UNL A   1      46.821  28.102  25.736  1.00  0.00     0.031 C 
ATOM     39  C   UNL A   1      41.190  25.423  28.169  1.00  0.00     0.029 A 
ATOM     40  C   UNL A   1      41.613  26.644  28.831  1.00  0.00     0.049 A 
ATOM     41  H   UNL A   1      43.584  27.334  29.001  1.00  0.00     0.167 HD
ATOM     42  C   UNL A   1      47.767  29.117  27.830  1.00  0.00     0.037 A 
ATOM     43  C   UNL A   1      40.938  27.651  29.445  1.00  0.00     0.037 A 
ATOM     44  C   UNL A   1      47.850  28.788  29.230  1.00  0.00     0.049 A 
ATOM     45  C   UNL A   1      41.973  28.485  30.137  1.00  0.00     0.074 A 
ATOM     46  C   UNL A   1      48.521  27.814  29.945  1.00  0.00     0.029 A 
ATOM     47  N   UNL A   1      46.818  29.210  30.039  1.00  0.00    -0.354 N 
ATOM     48  N   UNL A   1      42.713  28.051  31.126  1.00  0.00    -0.248 NA
ATOM     49  C   UNL A   1      42.530  29.608  29.395  1.00  0.00     0.031 C 
ATOM     50  C   UNL A   1      47.606  27.388  30.952  1.00  0.00     0.029 A 
ATOM     51  C   UNL A   1      46.448  28.161  30.850  1.00  0.00     0.049 A 
ATOM     52  H   UNL A   1      46.415  30.108  30.037  1.00  0.00     0.167 HD
ATOM     53  C   UNL A   1      43.982  28.574  30.890  1.00  0.00     0.074 A 
ATOM     54  C   UNL A   1      43.792  29.567  29.835  1.00  0.00     0.031 C 
ATOM     55  C   UNL A   1      45.106  27.952  31.360  1.00  0.00     0.037 A 
BRANCH  42  56
ATOM     56  C   UNL A   1      47.855  30.512  27.280  1.00  0.00     0.058 A 
ATOM     57  C   UNL A   1      49.095  31.161  27.219  1.00  0.00     0.135 A 
ATOM     58  C   UNL A   1      46.730  31.307  26.946  1.00  0.00     0.135 A 
ATOM     59  F   UNL A   1      50.218  30.515  27.569  1.00  0.00    -0.206 F 
ATOM     60  C   UNL A   1      49.209  32.500  26.839  1.00  0.00     0.059 A 
ATOM     61  C   UNL A   1      46.826  32.608  26.483  1.00  0.00     0.059 A 
ATOM     62  F   UNL A   1      45.472  30.888  27.135  1.00  0.00    -0.206 F 
ATOM     63  C   UNL A   1      48.069  33.210  26.464  1.00  0.00     0.060 A 
BRANCH  63  64
ATOM     64  S   UNL A   1      48.199  34.948  26.021  1.00  0.00     0.124 S 
ATOM     65  O   UNL A   1      48.657  35.532  27.276  1.00  0.00    -0.237 OA
ATOM     66  O   UNL A   1      49.172  34.910  24.935  1.00  0.00    -0.237 OA
ATOM     67  O   UNL A   1      46.839  35.298  25.623  1.00  0.00    -0.744 OA
ENDBRANCH  63  64
ENDBRANCH  42  56
BRANCH  43  68
ATOM     68  C   UNL A   1      39.586  28.185  29.114  1.00  0.00     0.058 A 
ATOM     69  C   UNL A   1      38.575  28.245  30.092  1.00  0.00     0.135 A 
ATOM     70  C   UNL A   1      39.351  28.922  27.937  1.00  0.00     0.135 A 
ATOM     71  F   UNL A   1      38.719  27.584  31.252  1.00  0.00    -0.206 F 
ATOM     72  C   UNL A   1      37.433  29.041  29.941  1.00  0.00     0.059 A 
ATOM     73  C   UNL A   1      38.218  29.716  27.761  1.00  0.00     0.059 A 
ATOM     74  F   UNL A   1      40.265  28.976  26.958  1.00  0.00    -0.206 F 
ATOM     75  C   UNL A   1      37.278  29.797  28.780  1.00  0.00     0.060 A 
BRANCH  75  76
ATOM     76  S   UNL A   1      35.914  30.982  28.662  1.00  0.00     0.124 S 
ATOM     77  O   UNL A   1      35.619  31.244  30.066  1.00  0.00    -0.237 OA
ATOM     78  O   UNL A   1      36.527  32.079  27.922  1.00  0.00    -0.237 OA
ATOM     79  O   UNL A   1      34.885  30.242  27.936  1.00  0.00    -0.744 OA
ENDBRANCH  75  76
ENDBRANCH  43  68
BRANCH  55  80
ATOM     80  C   UNL A   1      44.921  26.814  32.340  1.00  0.00     0.058 A 
ATOM     81  C   UNL A   1      44.675  26.982  33.716  1.00  0.00     0.135 A 
ATOM     82  C   UNL A   1      44.834  25.508  31.838  1.00  0.00     0.135 A 
ATOM     83  F   UNL A   1      44.641  28.207  34.260  1.00  0.00    -0.206 F 
ATOM     84  C   UNL A   1      44.393  25.903  34.558  1.00  0.00     0.059 A 
ATOM     85  C   UNL A   1      44.524  24.420  32.651  1.00  0.00     0.059 A 
ATOM     86  F   UNL A   1      44.998  25.282  30.524  1.00  0.00    -0.206 F 
ATOM     87  C   UNL A   1      44.316  24.621  34.014  1.00  0.00     0.060 A 
BRANCH  87  88
ATOM     88  S   UNL A   1      43.882  23.233  35.086  1.00  0.00     0.124 S 
ATOM     89  O   UNL A   1      44.616  23.546  36.307  1.00  0.00    -0.237 OA
ATOM     90  O   UNL A   1      42.430  23.343  35.173  1.00  0.00    -0.237 OA
ATOM     91  O   UNL A   1      44.368  22.068  34.349  1.00  0.00    -0.744 OA
ENDBRANCH  87  88
ENDBRANCH  55  80
ENDBRANCH  29  30
ENDBRANCH  22  24
ENDBRANCH  21  22
ENDBRANCH  20  21
ENDBRANCH   1  20
TORSDOF 18
ENDMDL
MODEL 3
REMARK VINA RESULT:     -11.0      2.588      3.283
REMARK SMILES Cc1cc(C)c2c(OCCCC(=O)OCCOC(=O)c3ccc(-c4c5nc(c(-c6c(F)cc(S(=O)(=O)[O-])cc6F)c6ccc([nH]6)c(-c6c(F)cc(S(=O)(=O)[O-])cc6F)c6nc(c(-c7c(F)cc(S(=O)(=O)[O-])cc7F)c7ccc4[nH]7)C=C6)C=C5)cc3)nsc2n1
REMARK SMILES IDX 15 1 14 2 12 3 13 4 11 5 10 6 9 7 8 8 7 9 1 10 2 11 3 12
REMARK SMILES IDX 89 13 4 14 88 15 5 16 6 17 87 18 86 19 16 20 17 21 18 22
REMARK SMILES IDX 19 23 20 24 21 25 85 26 22 27 84 28 23 29 24 30 25 31 78 32
REMARK SMILES IDX 26 33 83 34 77 35 79 36 27 37 82 38 76 39 75 40 28 42 62 43
REMARK SMILES IDX 41 44 61 45 42 46 45 47 60 48 80 49 43 50 44 51 59 53 81 54
REMARK SMILES IDX 46 55 29 56 30 57 39 58 31 59 32 60 38 61 40 62 33 63 34 64
REMARK SMILES IDX 35 65 36 66 37 67 63 68 64 69 73 70 65 71 66 72 72 73 74 74
REMARK SMILES IDX 67 75 68 76 69 77 70 78 71 79 47 80 48 81 57 82 49 83 50 84
REMARK SMILES IDX 56 85 58 86 51 87 52 88 53 89 54 90 55 91
REMARK H PARENT 79 41 45 52
REMARK Flexibility Score: inf
ROOT
ATOM      1  C   UNL A   1      36.838  23.861  26.051  1.00  0.00     0.274 C 
ENDROOT
BRANCH   1   2
ATOM      2  O   UNL A   1      36.000  22.899  25.337  1.00  0.00    -0.462 OA
BRANCH   2   3
ATOM      3  C   UNL A   1      35.011  22.259  26.008  1.00  0.00     0.306 C 
ATOM      4  O   UNL A   1      34.858  21.041  25.963  1.00  0.00    -0.252 OA
BRANCH   3   5
ATOM      5  C   UNL A   1      34.047  23.165  26.774  1.00  0.00     0.126 C 
BRANCH   5   6
ATOM      6  C   UNL A   1      33.196  24.258  26.113  1.00  0.00     0.053 C 
BRANCH   6   7
ATOM      7  C   UNL A   1      31.750  24.583  26.535  1.00  0.00     0.232 C 
BRANCH   7   8
ATOM      8  O   UNL A   1      31.368  25.879  26.983  1.00  0.00    -0.477 OA
BRANCH   8   9
ATOM      9  C   UNL A   1      31.673  26.957  26.230  1.00  0.00     0.235 A 
ATOM     10  C   UNL A   1      28.758  30.328  23.069  1.00  0.00     0.067 C 
ATOM     11  C   UNL A   1      29.785  29.319  23.505  1.00  0.00     0.039 A 
ATOM     12  C   UNL A   1      29.617  27.970  23.213  1.00  0.00     0.027 A 
ATOM     13  N   UNL A   1      30.791  29.779  24.264  1.00  0.00    -0.240 NA
ATOM     14  C   UNL A   1      30.288  26.972  23.955  1.00  0.00    -0.034 A 
ATOM     15  C   UNL A   1      31.413  28.818  24.968  1.00  0.00     0.147 A 
ATOM     16  C   UNL A   1      30.022  25.518  23.664  1.00  0.00     0.045 C 
ATOM     17  C   UNL A   1      31.115  27.453  24.998  1.00  0.00     0.078 A 
ATOM     18  S   UNL A   1      32.696  29.148  26.033  1.00  0.00    -0.012 S 
ATOM     19  N   UNL A   1      32.654  27.671  26.782  1.00  0.00    -0.153 NA
ENDBRANCH   8   9
ENDBRANCH   7   8
ENDBRANCH   6   7
ENDBRANCH   5   6
ENDBRANCH   3   5
ENDBRANCH   2   3
ENDBRANCH   1   2
BRANCH   1  20
ATOM     20  C   UNL A   1      38.281  23.344  26.159  1.00  0.00     0.275 C 
BRANCH  20  21
ATOM     21  O   UNL A   1      39.182  24.402  26.446  1.00  0.00    -0.458 OA
BRANCH  21  22
ATOM     22  C   UNL A   1      40.317  23.921  27.022  1.00  0.00     0.338 C 
ATOM     23  O   UNL A   1      40.387  22.937  27.708  1.00  0.00    -0.246 OA
BRANCH  22  24
ATOM     24  C   UNL A   1      41.452  24.803  26.616  1.00  0.00     0.060 A 
ATOM     25  C   UNL A   1      42.451  24.870  27.577  1.00  0.00     0.016 A 
ATOM     26  C   UNL A   1      41.150  25.883  25.784  1.00  0.00     0.016 A 
ATOM     27  C   UNL A   1      42.622  26.099  28.145  1.00  0.00     0.010 A 
ATOM     28  C   UNL A   1      41.296  27.106  26.352  1.00  0.00     0.010 A 
ATOM     29  C   UNL A   1      41.873  27.147  27.617  1.00  0.00    -0.014 A 
BRANCH  29  30
ATOM     30  C   UNL A   1      41.610  28.295  28.440  1.00  0.00     0.031 A 
ATOM     31  C   UNL A   1      42.683  29.286  28.310  1.00  0.00     0.074 A 
ATOM     32  C   UNL A   1      40.436  28.454  29.079  1.00  0.00     0.049 A 
ATOM     33  N   UNL A   1      43.730  29.400  29.058  1.00  0.00    -0.248 NA
ATOM     34  C   UNL A   1      42.782  29.978  27.013  1.00  0.00     0.031 C 
ATOM     35  C   UNL A   1      39.198  27.673  28.983  1.00  0.00     0.029 A 
ATOM     36  N   UNL A   1      40.096  29.459  29.923  1.00  0.00    -0.354 N 
ATOM     37  C   UNL A   1      44.482  30.369  28.416  1.00  0.00     0.074 A 
ATOM     38  C   UNL A   1      44.056  30.366  27.043  1.00  0.00     0.031 C 
ATOM     39  C   UNL A   1      38.188  28.367  29.566  1.00  0.00     0.029 A 
ATOM     40  C   UNL A   1      38.730  29.567  30.177  1.00  0.00     0.049 A 
ATOM     41  H   UNL A   1      40.761  30.064  30.325  1.00  0.00     0.167 HD
ATOM     42  C   UNL A   1      45.100  31.369  29.096  1.00  0.00     0.037 A 
ATOM     43  C   UNL A   1      38.159  30.661  30.746  1.00  0.00     0.037 A 
ATOM     44  C   UNL A   1      45.150  31.093  30.508  1.00  0.00     0.049 A 
ATOM     45  C   UNL A   1      39.273  31.416  31.406  1.00  0.00     0.074 A 
ATOM     46  C   UNL A   1      45.722  30.089  31.266  1.00  0.00     0.029 A 
ATOM     47  N   UNL A   1      44.166  31.649  31.295  1.00  0.00    -0.354 N 
ATOM     48  N   UNL A   1      39.967  30.953  32.415  1.00  0.00    -0.248 NA
ATOM     49  C   UNL A   1      39.940  32.446  30.619  1.00  0.00     0.031 C 
ATOM     50  C   UNL A   1      44.769  29.798  32.287  1.00  0.00     0.029 A 
ATOM     51  C   UNL A   1      43.694  30.678  32.148  1.00  0.00     0.049 A 
ATOM     52  H   UNL A   1      43.854  32.583  31.254  1.00  0.00     0.167 HD
ATOM     53  C   UNL A   1      41.281  31.336  32.162  1.00  0.00     0.074 A 
ATOM     54  C   UNL A   1      41.191  32.297  31.066  1.00  0.00     0.031 C 
ATOM     55  C   UNL A   1      42.338  30.626  32.662  1.00  0.00     0.037 A 
BRANCH  42  56
ATOM     56  C   UNL A   1      45.327  32.725  28.488  1.00  0.00     0.058 A 
ATOM     57  C   UNL A   1      46.627  33.138  28.168  1.00  0.00     0.135 A 
ATOM     58  C   UNL A   1      44.318  33.709  28.344  1.00  0.00     0.135 A 
ATOM     59  F   UNL A   1      47.663  32.299  28.323  1.00  0.00    -0.206 F 
ATOM     60  C   UNL A   1      46.901  34.433  27.725  1.00  0.00     0.059 A 
ATOM     61  C   UNL A   1      44.552  34.971  27.824  1.00  0.00     0.059 A 
ATOM     62  F   UNL A   1      43.066  33.527  28.784  1.00  0.00    -0.206 F 
ATOM     63  C   UNL A   1      45.854  35.337  27.547  1.00  0.00     0.060 A 
BRANCH  63  64
ATOM     64  S   UNL A   1      46.204  37.021  27.024  1.00  0.00     0.124 S 
ATOM     65  O   UNL A   1      47.015  36.793  25.834  1.00  0.00    -0.237 OA
ATOM     66  O   UNL A   1      44.864  37.551  26.799  1.00  0.00    -0.237 OA
ATOM     67  O   UNL A   1      46.911  37.590  28.168  1.00  0.00    -0.744 OA
ENDBRANCH  63  64
ENDBRANCH  42  56
BRANCH  43  68
ATOM     68  C   UNL A   1      36.868  31.313  30.388  1.00  0.00     0.058 A 
ATOM     69  C   UNL A   1      36.007  31.805  31.387  1.00  0.00     0.135 A 
ATOM     70  C   UNL A   1      36.595  31.738  29.073  1.00  0.00     0.135 A 
ATOM     71  F   UNL A   1      36.199  31.463  32.671  1.00  0.00    -0.206 F 
ATOM     72  C   UNL A   1      34.981  32.717  31.109  1.00  0.00     0.059 A 
ATOM     73  C   UNL A   1      35.574  32.640  28.771  1.00  0.00     0.059 A 
ATOM     74  F   UNL A   1      37.376  31.370  28.048  1.00  0.00    -0.206 F 
ATOM     75  C   UNL A   1      34.791  33.151  29.798  1.00  0.00     0.060 A 
BRANCH  75  76
ATOM     76  S   UNL A   1      33.607  34.478  29.460  1.00  0.00     0.124 S 
ATOM     77  O   UNL A   1      32.623  33.800  28.624  1.00  0.00    -0.237 OA
ATOM     78  O   UNL A   1      33.165  34.840  30.803  1.00  0.00    -0.237 OA
ATOM     79  O   UNL A   1      34.415  35.487  28.781  1.00  0.00    -0.744 OA
ENDBRANCH  75  76
ENDBRANCH  43  68
BRANCH  55  80
ATOM     80  C   UNL A   1      42.041  29.554  33.688  1.00  0.00     0.058 A 
ATOM     81  C   UNL A   1      41.814  28.199  33.376  1.00  0.00     0.135 A 
ATOM     82  C   UNL A   1      42.146  29.881  35.046  1.00  0.00     0.135 A 
ATOM     83  F   UNL A   1      41.799  27.782  32.103  1.00  0.00    -0.206 F 
ATOM     84  C   UNL A   1      41.661  27.225  34.367  1.00  0.00     0.059 A 
ATOM     85  C   UNL A   1      42.028  28.923  36.051  1.00  0.00     0.059 A 
ATOM     86  F   UNL A   1      42.422  31.143  35.412  1.00  0.00    -0.206 F 
ATOM     87  C   UNL A   1      41.774  27.597  35.706  1.00  0.00     0.060 A 
BRANCH  87  88
ATOM     88  S   UNL A   1      41.647  26.329  36.988  1.00  0.00     0.124 S 
ATOM     89  O   UNL A   1      41.641  25.099  36.203  1.00  0.00    -0.237 OA
ATOM     90  O   UNL A   1      42.846  26.566  37.786  1.00  0.00    -0.237 OA
ATOM     91  O   UNL A   1      40.388  26.646  37.659  1.00  0.00    -0.744 OA
ENDBRANCH  87  88
ENDBRANCH  55  80
ENDBRANCH  29  30
ENDBRANCH  22  24
ENDBRANCH  21  22
ENDBRANCH  20  21
ENDBRANCH   1  20
TORSDOF 18
ENDMDL
