MODEL 1
REMARK VINA RESULT:     -10.8      0.000      0.000
REMARK SMILES C=CCCC[C@@]1(C(=O)OCCOC(=O)c2ccc(-c3c4nc(c(-c5c(F)cc(S(=O)(=O)[O-])cc5F)c5ccc([nH]5)c(-c5c(F)cc(S(=O)(=O)[O-])cc5F)c5nc(c(-c6c(F)cc(S(=O)(=O)[O-])cc6F)c6ccc3[nH]6)C=C5)C=C4)cc2)CCCN(C(=O)OC(C)(C)C)C1
REMARK SMILES IDX 10 1 9 2 7 3 8 4 6 5 81 6 92 7 82 8 84 9 83 10 5 11 4 12
REMARK SMILES IDX 3 13 2 14 1 15 85 16 86 17 87 18 88 19 89 20 90 21 91 22
REMARK SMILES IDX 11 23 12 24 13 25 14 26 15 27 16 28 80 29 17 30 79 31 18 32
REMARK SMILES IDX 19 33 20 34 73 35 21 36 78 37 72 38 74 39 22 40 77 41 71 42
REMARK SMILES IDX 70 43 23 45 57 46 36 47 56 48 37 49 40 50 55 51 75 52 38 53
REMARK SMILES IDX 39 54 54 56 76 57 41 58 24 59 25 60 34 61 26 62 27 63 33 64
REMARK SMILES IDX 35 65 28 66 29 67 30 68 31 69 32 70 58 71 59 72 68 73 60 74
REMARK SMILES IDX 61 75 67 76 69 77 62 78 63 79 64 80 65 81 66 82 42 83 43 84
REMARK SMILES IDX 52 85 44 86 45 87 51 88 53 89 46 90 47 91 48 92 49 93 50 94
REMARK H PARENT 74 44 40 55
REMARK Flexibility Score: inf
ROOT
ATOM      1  C   UNL A   1      31.758  29.590  26.516  1.00  0.00     0.274 C 
ENDROOT
BRANCH   1   2
ATOM      2  O   UNL A   1      31.555  29.306  25.118  1.00  0.00    -0.462 OA
BRANCH   2   3
ATOM      3  C   UNL A   1      31.724  28.028  24.690  1.00  0.00     0.314 C 
ATOM      4  O   UNL A   1      32.609  27.283  25.095  1.00  0.00    -0.252 OA
BRANCH   3   5
ATOM      5  C   UNL A   1      30.769  27.658  23.535  1.00  0.00     0.086 C 
ATOM      6  C   UNL A   1      29.703  26.699  24.131  1.00  0.00     0.022 C 
ATOM      7  C   UNL A   1      31.489  26.996  22.349  1.00  0.00     0.141 C 
ATOM      8  C   UNL A   1      30.238  25.283  24.366  1.00  0.00     0.023 C 
ATOM      9  N   UNL A   1      31.891  25.619  22.592  1.00  0.00    -0.307 N 
ATOM     10  C   UNL A   1      30.870  24.717  23.101  1.00  0.00     0.123 C 
BRANCH   5  11
ATOM     11  C   UNL A   1      30.036  28.947  23.035  1.00  0.00     0.021 C 
BRANCH  11  12
ATOM     12  C   UNL A   1      28.544  29.054  23.391  1.00  0.00     0.005 C 
BRANCH  12  13
ATOM     13  C   UNL A   1      27.675  30.076  22.651  1.00  0.00     0.027 C 
BRANCH  13  14
ATOM     14  C   UNL A   1      27.977  31.505  22.981  1.00  0.00    -0.035 C 
ATOM     15  C   UNL A   1      28.509  32.364  22.102  1.00  0.00     0.004 C 
ENDBRANCH  13  14
ENDBRANCH  12  13
ENDBRANCH  11  12
ENDBRANCH   5  11
BRANCH   9  16
ATOM     16  C   UNL A   1      33.195  25.259  22.317  1.00  0.00     0.410 C 
ATOM     17  O   UNL A   1      34.065  26.068  21.999  1.00  0.00    -0.224 OA
BRANCH  16  18
ATOM     18  O   UNL A   1      33.423  23.932  22.464  1.00  0.00    -0.444 OA
BRANCH  18  19
ATOM     19  C   UNL A   1      34.241  23.469  23.568  1.00  0.00     0.106 C 
ATOM     20  C   UNL A   1      35.667  23.122  23.123  1.00  0.00     0.056 C 
ATOM     21  C   UNL A   1      34.228  24.482  24.721  1.00  0.00     0.056 C 
ATOM     22  C   UNL A   1      33.551  22.181  24.042  1.00  0.00     0.056 C 
ENDBRANCH  18  19
ENDBRANCH  16  18
ENDBRANCH   9  16
ENDBRANCH   3   5
ENDBRANCH   2   3
ENDBRANCH   1   2
BRANCH   1  23
ATOM     23  C   UNL A   1      33.029  30.406  26.720  1.00  0.00     0.275 C 
BRANCH  23  24
ATOM     24  O   UNL A   1      33.715  29.919  27.884  1.00  0.00    -0.458 OA
BRANCH  24  25
ATOM     25  C   UNL A   1      34.672  30.736  28.371  1.00  0.00     0.338 C 
ATOM     26  O   UNL A   1      34.544  31.885  28.763  1.00  0.00    -0.246 OA
BRANCH  25  27
ATOM     27  C   UNL A   1      35.961  30.033  28.412  1.00  0.00     0.060 A 
ATOM     28  C   UNL A   1      36.385  29.450  29.602  1.00  0.00     0.016 A 
ATOM     29  C   UNL A   1      36.832  30.140  27.331  1.00  0.00     0.016 A 
ATOM     30  C   UNL A   1      37.731  29.137  29.767  1.00  0.00     0.010 A 
ATOM     31  C   UNL A   1      38.145  29.676  27.455  1.00  0.00     0.010 A 
ATOM     32  C   UNL A   1      38.631  29.220  28.694  1.00  0.00    -0.014 A 
BRANCH  32  33
ATOM     33  C   UNL A   1      40.073  28.866  28.856  1.00  0.00     0.031 A 
ATOM     34  C   UNL A   1      41.060  29.908  29.327  1.00  0.00     0.074 A 
ATOM     35  C   UNL A   1      40.519  27.624  28.573  1.00  0.00     0.049 A 
ATOM     36  N   UNL A   1      42.364  29.925  29.215  1.00  0.00    -0.248 NA
ATOM     37  C   UNL A   1      40.503  31.101  29.989  1.00  0.00     0.031 C 
ATOM     38  C   UNL A   1      39.686  26.485  28.176  1.00  0.00     0.029 A 
ATOM     39  N   UNL A   1      41.792  27.108  28.574  1.00  0.00    -0.354 N 
ATOM     40  C   UNL A   1      42.775  31.160  29.706  1.00  0.00     0.074 A 
ATOM     41  C   UNL A   1      41.584  31.858  30.139  1.00  0.00     0.031 C 
ATOM     42  C   UNL A   1      40.457  25.402  28.023  1.00  0.00     0.029 A 
ATOM     43  C   UNL A   1      41.851  25.793  28.173  1.00  0.00     0.049 A 
ATOM     44  H   UNL A   1      42.586  27.628  28.836  1.00  0.00     0.167 HD
ATOM     45  C   UNL A   1      44.031  31.665  29.770  1.00  0.00     0.037 A 
ATOM     46  C   UNL A   1      42.901  25.004  27.873  1.00  0.00     0.037 A 
ATOM     47  C   UNL A   1      45.212  30.922  29.407  1.00  0.00     0.049 A 
ATOM     48  C   UNL A   1      44.284  25.582  27.934  1.00  0.00     0.074 A 
ATOM     49  C   UNL A   1      46.534  31.336  29.422  1.00  0.00     0.029 A 
ATOM     50  N   UNL A   1      45.216  29.595  28.996  1.00  0.00    -0.354 N 
ATOM     51  N   UNL A   1      44.653  26.795  28.269  1.00  0.00    -0.248 NA
ATOM     52  C   UNL A   1      45.389  24.699  27.544  1.00  0.00     0.031 C 
ATOM     53  C   UNL A   1      47.333  30.266  29.000  1.00  0.00     0.029 A 
ATOM     54  C   UNL A   1      46.514  29.175  28.761  1.00  0.00     0.049 A 
ATOM     55  H   UNL A   1      44.413  29.036  28.889  1.00  0.00     0.167 HD
ATOM     56  C   UNL A   1      46.035  26.820  28.139  1.00  0.00     0.074 A 
ATOM     57  C   UNL A   1      46.437  25.495  27.709  1.00  0.00     0.031 C 
ATOM     58  C   UNL A   1      46.893  27.847  28.350  1.00  0.00     0.037 A 
BRANCH  45  59
ATOM     59  C   UNL A   1      44.200  33.098  30.200  1.00  0.00     0.058 A 
ATOM     60  C   UNL A   1      44.493  33.457  31.524  1.00  0.00     0.135 A 
ATOM     61  C   UNL A   1      44.114  34.131  29.249  1.00  0.00     0.135 A 
ATOM     62  F   UNL A   1      44.573  32.515  32.477  1.00  0.00    -0.206 F 
ATOM     63  C   UNL A   1      44.672  34.788  31.896  1.00  0.00     0.059 A 
ATOM     64  C   UNL A   1      44.312  35.465  29.594  1.00  0.00     0.059 A 
ATOM     65  F   UNL A   1      43.838  33.846  27.967  1.00  0.00    -0.206 F 
ATOM     66  C   UNL A   1      44.577  35.785  30.924  1.00  0.00     0.060 A 
BRANCH  66  67
ATOM     67  S   UNL A   1      44.819  37.507  31.415  1.00  0.00     0.124 S 
ATOM     68  O   UNL A   1      43.826  38.188  30.588  1.00  0.00    -0.237 OA
ATOM     69  O   UNL A   1      44.533  37.470  32.846  1.00  0.00    -0.237 OA
ATOM     70  O   UNL A   1      46.212  37.768  31.066  1.00  0.00    -0.744 OA
ENDBRANCH  66  67
ENDBRANCH  45  59
BRANCH  46  71
ATOM     71  C   UNL A   1      42.666  23.609  27.418  1.00  0.00     0.058 A 
ATOM     72  C   UNL A   1      42.701  23.277  26.056  1.00  0.00     0.135 A 
ATOM     73  C   UNL A   1      42.454  22.569  28.339  1.00  0.00     0.135 A 
ATOM     74  F   UNL A   1      42.889  24.238  25.138  1.00  0.00    -0.206 F 
ATOM     75  C   UNL A   1      42.538  21.966  25.622  1.00  0.00     0.059 A 
ATOM     76  C   UNL A   1      42.319  21.246  27.932  1.00  0.00     0.059 A 
ATOM     77  F   UNL A   1      42.425  22.831  29.655  1.00  0.00    -0.206 F 
ATOM     78  C   UNL A   1      42.356  20.956  26.569  1.00  0.00     0.060 A 
BRANCH  78  79
ATOM     79  S   UNL A   1      42.224  19.244  26.006  1.00  0.00     0.124 S 
ATOM     80  O   UNL A   1      40.805  19.150  25.686  1.00  0.00    -0.237 OA
ATOM     81  O   UNL A   1      43.138  19.221  24.868  1.00  0.00    -0.237 OA
ATOM     82  O   UNL A   1      42.665  18.477  27.167  1.00  0.00    -0.744 OA
ENDBRANCH  78  79
ENDBRANCH  46  71
BRANCH  58  83
ATOM     83  C   UNL A   1      48.355  27.563  28.168  1.00  0.00     0.058 A 
ATOM     84  C   UNL A   1      49.145  27.074  29.218  1.00  0.00     0.135 A 
ATOM     85  C   UNL A   1      48.958  27.745  26.915  1.00  0.00     0.135 A 
ATOM     86  F   UNL A   1      48.616  26.895  30.438  1.00  0.00    -0.206 F 
ATOM     87  C   UNL A   1      50.494  26.788  29.034  1.00  0.00     0.059 A 
ATOM     88  C   UNL A   1      50.299  27.447  26.703  1.00  0.00     0.059 A 
ATOM     89  F   UNL A   1      48.239  28.207  25.880  1.00  0.00    -0.206 F 
ATOM     90  C   UNL A   1      51.061  26.977  27.772  1.00  0.00     0.060 A 
BRANCH  90  91
ATOM     91  S   UNL A   1      52.804  26.569  27.533  1.00  0.00     0.124 S 
ATOM     92  O   UNL A   1      52.713  25.286  26.844  1.00  0.00    -0.237 OA
ATOM     93  O   UNL A   1      53.281  27.689  26.728  1.00  0.00    -0.237 OA
ATOM     94  O   UNL A   1      53.329  26.517  28.894  1.00  0.00    -0.744 OA
ENDBRANCH  90  91
ENDBRANCH  58  83
ENDBRANCH  32  33
ENDBRANCH  25  27
ENDBRANCH  24  25
ENDBRANCH  23  24
ENDBRANCH   1  23
TORSDOF 21
ENDMDL
MODEL 2
REMARK VINA RESULT:     -10.7      4.464     10.550
REMARK SMILES C=CCCC[C@@]1(C(=O)OCCOC(=O)c2ccc(-c3c4nc(c(-c5c(F)cc(S(=O)(=O)[O-])cc5F)c5ccc([nH]5)c(-c5c(F)cc(S(=O)(=O)[O-])cc5F)c5nc(c(-c6c(F)cc(S(=O)(=O)[O-])cc6F)c6ccc3[nH]6)C=C5)C=C4)cc2)CCCN(C(=O)OC(C)(C)C)C1
REMARK SMILES IDX 10 1 9 2 7 3 8 4 6 5 81 6 92 7 82 8 84 9 83 10 5 11 4 12
REMARK SMILES IDX 3 13 2 14 1 15 85 16 86 17 87 18 88 19 89 20 90 21 91 22
REMARK SMILES IDX 11 23 12 24 13 25 14 26 15 27 16 28 80 29 17 30 79 31 18 32
REMARK SMILES IDX 19 33 20 34 73 35 21 36 78 37 72 38 74 39 22 40 77 41 71 42
REMARK SMILES IDX 70 43 23 45 57 46 36 47 56 48 37 49 40 50 55 51 75 52 38 53
REMARK SMILES IDX 39 54 54 56 76 57 41 58 24 59 25 60 34 61 26 62 27 63 33 64
REMARK SMILES IDX 35 65 28 66 29 67 30 68 31 69 32 70 58 71 59 72 68 73 60 74
REMARK SMILES IDX 61 75 67 76 69 77 62 78 63 79 64 80 65 81 66 82 42 83 43 84
REMARK SMILES IDX 52 85 44 86 45 87 51 88 53 89 46 90 47 91 48 92 49 93 50 94
REMARK H PARENT 74 44 40 55
REMARK Flexibility Score: inf
ROOT
ATOM      1  C   UNL A   1      36.690  22.460  24.358  1.00  0.00     0.274 C 
ENDROOT
BRANCH   1   2
ATOM      2  O   UNL A   1      35.519  21.621  24.420  1.00  0.00    -0.462 OA
BRANCH   2   3
ATOM      3  C   UNL A   1      34.494  22.004  25.225  1.00  0.00     0.314 C 
ATOM      4  O   UNL A   1      34.630  22.722  26.209  1.00  0.00    -0.252 OA
BRANCH   3   5
ATOM      5  C   UNL A   1      33.160  21.325  24.850  1.00  0.00     0.086 C 
ATOM      6  C   UNL A   1      32.922  21.615  23.344  1.00  0.00     0.022 C 
ATOM      7  C   UNL A   1      31.974  21.826  25.691  1.00  0.00     0.141 C 
ATOM      8  C   UNL A   1      32.460  23.050  23.077  1.00  0.00     0.023 C 
ATOM      9  N   UNL A   1      31.513  23.158  25.331  1.00  0.00    -0.307 N 
ATOM     10  C   UNL A   1      31.243  23.402  23.923  1.00  0.00     0.123 C 
BRANCH   5  11
ATOM     11  C   UNL A   1      33.298  19.777  25.031  1.00  0.00     0.021 C 
BRANCH  11  12
ATOM     12  C   UNL A   1      32.692  18.912  23.912  1.00  0.00     0.005 C 
BRANCH  12  13
ATOM     13  C   UNL A   1      33.339  17.563  23.583  1.00  0.00     0.027 C 
BRANCH  13  14
ATOM     14  C   UNL A   1      34.391  17.124  24.555  1.00  0.00    -0.035 C 
ATOM     15  C   UNL A   1      34.400  15.914  25.129  1.00  0.00     0.004 C 
ENDBRANCH  13  14
ENDBRANCH  12  13
ENDBRANCH  11  12
ENDBRANCH   5  11
BRANCH   9  16
ATOM     16  C   UNL A   1      31.352  24.089  26.338  1.00  0.00     0.410 C 
ATOM     17  O   UNL A   1      31.625  23.863  27.515  1.00  0.00    -0.224 OA
BRANCH  16  18
ATOM     18  O   UNL A   1      30.892  25.282  25.891  1.00  0.00    -0.444 OA
BRANCH  18  19
ATOM     19  C   UNL A   1      31.802  26.408  25.807  1.00  0.00     0.106 C 
ATOM     20  C   UNL A   1      31.575  27.417  26.941  1.00  0.00     0.056 C 
ATOM     21  C   UNL A   1      33.259  25.931  25.745  1.00  0.00     0.056 C 
ATOM     22  C   UNL A   1      31.451  27.086  24.475  1.00  0.00     0.056 C 
ENDBRANCH  18  19
ENDBRANCH  16  18
ENDBRANCH   9  16
ENDBRANCH   3   5
ENDBRANCH   2   3
ENDBRANCH   1   2
BRANCH   1  23
ATOM     23  C   UNL A   1      37.887  21.759  24.990  1.00  0.00     0.275 C 
BRANCH  23  24
ATOM     24  O   UNL A   1      38.220  22.422  26.220  1.00  0.00    -0.458 OA
BRANCH  24  25
ATOM     25  C   UNL A   1      39.493  22.861  26.310  1.00  0.00     0.338 C 
ATOM     26  O   UNL A   1      40.505  22.297  25.927  1.00  0.00    -0.246 OA
BRANCH  25  27
ATOM     27  C   UNL A   1      39.524  24.191  26.932  1.00  0.00     0.060 A 
ATOM     28  C   UNL A   1      40.379  25.164  26.422  1.00  0.00     0.016 A 
ATOM     29  C   UNL A   1      38.864  24.397  28.141  1.00  0.00     0.016 A 
ATOM     30  C   UNL A   1      40.709  26.263  27.210  1.00  0.00     0.010 A 
ATOM     31  C   UNL A   1      39.083  25.580  28.852  1.00  0.00     0.010 A 
ATOM     32  C   UNL A   1      40.052  26.507  28.425  1.00  0.00    -0.014 A 
BRANCH  32  33
ATOM     33  C   UNL A   1      40.385  27.695  29.268  1.00  0.00     0.031 A 
ATOM     34  C   UNL A   1      41.640  27.699  30.107  1.00  0.00     0.074 A 
ATOM     35  C   UNL A   1      39.569  28.769  29.305  1.00  0.00     0.049 A 
ATOM     36  N   UNL A   1      41.945  28.445  31.138  1.00  0.00    -0.248 NA
ATOM     37  C   UNL A   1      42.681  26.717  29.755  1.00  0.00     0.031 C 
ATOM     38  C   UNL A   1      38.357  28.952  28.502  1.00  0.00     0.029 A 
ATOM     39  N   UNL A   1      39.635  29.918  30.055  1.00  0.00    -0.354 N 
ATOM     40  C   UNL A   1      43.162  27.966  31.613  1.00  0.00     0.074 A 
ATOM     41  C   UNL A   1      43.554  26.879  30.742  1.00  0.00     0.031 C 
ATOM     42  C   UNL A   1      37.827  30.153  28.762  1.00  0.00     0.029 A 
ATOM     43  C   UNL A   1      38.575  30.770  29.848  1.00  0.00     0.049 A 
ATOM     44  H   UNL A   1      40.370  30.113  30.681  1.00  0.00     0.167 HD
ATOM     45  C   UNL A   1      43.872  28.390  32.687  1.00  0.00     0.037 A 
ATOM     46  C   UNL A   1      38.190  31.881  30.505  1.00  0.00     0.037 A 
ATOM     47  C   UNL A   1      43.504  29.527  33.493  1.00  0.00     0.049 A 
ATOM     48  C   UNL A   1      38.978  32.327  31.701  1.00  0.00     0.074 A 
ATOM     49  C   UNL A   1      44.143  30.039  34.610  1.00  0.00     0.029 A 
ATOM     50  N   UNL A   1      42.414  30.351  33.246  1.00  0.00    -0.354 N 
ATOM     51  N   UNL A   1      40.052  31.787  32.225  1.00  0.00    -0.248 NA
ATOM     52  C   UNL A   1      38.484  33.510  32.416  1.00  0.00     0.031 C 
ATOM     53  C   UNL A   1      43.427  31.159  35.050  1.00  0.00     0.029 A 
ATOM     54  C   UNL A   1      42.366  31.368  34.184  1.00  0.00     0.049 A 
ATOM     55  H   UNL A   1      41.769  30.229  32.512  1.00  0.00     0.167 HD
ATOM     56  C   UNL A   1      40.370  32.569  33.326  1.00  0.00     0.074 A 
ATOM     57  C   UNL A   1      39.382  33.629  33.384  1.00  0.00     0.031 C 
ATOM     58  C   UNL A   1      41.383  32.421  34.213  1.00  0.00     0.037 A 
BRANCH  45  59
ATOM     59  C   UNL A   1      45.090  27.601  33.088  1.00  0.00     0.058 A 
ATOM     60  C   UNL A   1      46.382  27.939  32.660  1.00  0.00     0.135 A 
ATOM     61  C   UNL A   1      44.961  26.508  33.965  1.00  0.00     0.135 A 
ATOM     62  F   UNL A   1      46.565  28.964  31.812  1.00  0.00    -0.206 F 
ATOM     63  C   UNL A   1      47.499  27.212  33.065  1.00  0.00     0.059 A 
ATOM     64  C   UNL A   1      46.065  25.781  34.402  1.00  0.00     0.059 A 
ATOM     65  F   UNL A   1      43.749  26.140  34.410  1.00  0.00    -0.206 F 
ATOM     66  C   UNL A   1      47.329  26.133  33.935  1.00  0.00     0.060 A 
BRANCH  66  67
ATOM     67  S   UNL A   1      48.785  25.201  34.462  1.00  0.00     0.124 S 
ATOM     68  O   UNL A   1      49.855  26.158  34.195  1.00  0.00    -0.237 OA
ATOM     69  O   UNL A   1      48.503  24.945  35.871  1.00  0.00    -0.237 OA
ATOM     70  O   UNL A   1      48.766  24.024  33.600  1.00  0.00    -0.744 OA
ENDBRANCH  66  67
ENDBRANCH  45  59
BRANCH  46  71
ATOM     71  C   UNL A   1      36.956  32.594  30.082  1.00  0.00     0.058 A 
ATOM     72  C   UNL A   1      35.703  32.243  30.604  1.00  0.00     0.135 A 
ATOM     73  C   UNL A   1      37.011  33.677  29.187  1.00  0.00     0.135 A 
ATOM     74  F   UNL A   1      35.597  31.208  31.451  1.00  0.00    -0.206 F 
ATOM     75  C   UNL A   1      34.549  32.938  30.258  1.00  0.00     0.059 A 
ATOM     76  C   UNL A   1      35.878  34.408  28.851  1.00  0.00     0.059 A 
ATOM     77  F   UNL A   1      38.188  34.063  28.670  1.00  0.00    -0.206 F 
ATOM     78  C   UNL A   1      34.649  34.026  29.387  1.00  0.00     0.060 A 
BRANCH  78  79
ATOM     79  S   UNL A   1      33.161  34.976  29.003  1.00  0.00     0.124 S 
ATOM     80  O   UNL A   1      32.508  35.035  30.305  1.00  0.00    -0.237 OA
ATOM     81  O   UNL A   1      33.715  36.233  28.509  1.00  0.00    -0.237 OA
ATOM     82  O   UNL A   1      32.494  34.157  27.995  1.00  0.00    -0.744 OA
ENDBRANCH  78  79
ENDBRANCH  46  71
BRANCH  58  83
ATOM     83  C   UNL A   1      41.504  33.458  35.291  1.00  0.00     0.058 A 
ATOM     84  C   UNL A   1      42.099  34.705  35.050  1.00  0.00     0.135 A 
ATOM     85  C   UNL A   1      40.977  33.212  36.568  1.00  0.00     0.135 A 
ATOM     86  F   UNL A   1      42.627  34.982  33.848  1.00  0.00    -0.206 F 
ATOM     87  C   UNL A   1      42.183  35.671  36.048  1.00  0.00     0.059 A 
ATOM     88  C   UNL A   1      41.031  34.170  37.574  1.00  0.00     0.059 A 
ATOM     89  F   UNL A   1      40.393  32.035  36.843  1.00  0.00    -0.206 F 
ATOM     90  C   UNL A   1      41.645  35.393  37.307  1.00  0.00     0.060 A 
BRANCH  90  91
ATOM     91  S   UNL A   1      41.726  36.666  38.585  1.00  0.00     0.124 S 
ATOM     92  O   UNL A   1      42.926  37.398  38.194  1.00  0.00    -0.237 OA
ATOM     93  O   UNL A   1      40.463  37.375  38.402  1.00  0.00    -0.237 OA
ATOM     94  O   UNL A   1      41.832  35.898  39.821  1.00  0.00    -0.744 OA
ENDBRANCH  90  91
ENDBRANCH  58  83
ENDBRANCH  32  33
ENDBRANCH  25  27
ENDBRANCH  24  25
ENDBRANCH  23  24
ENDBRANCH   1  23
TORSDOF 21
ENDMDL
MODEL 3
REMARK VINA RESULT:     -10.6      4.878      9.069
REMARK SMILES C=CCCC[C@@]1(C(=O)OCCOC(=O)c2ccc(-c3c4nc(c(-c5c(F)cc(S(=O)(=O)[O-])cc5F)c5ccc([nH]5)c(-c5c(F)cc(S(=O)(=O)[O-])cc5F)c5nc(c(-c6c(F)cc(S(=O)(=O)[O-])cc6F)c6ccc3[nH]6)C=C5)C=C4)cc2)CCCN(C(=O)OC(C)(C)C)C1
REMARK SMILES IDX 10 1 9 2 7 3 8 4 6 5 81 6 92 7 82 8 84 9 83 10 5 11 4 12
REMARK SMILES IDX 3 13 2 14 1 15 85 16 86 17 87 18 88 19 89 20 90 21 91 22
REMARK SMILES IDX 11 23 12 24 13 25 14 26 15 27 16 28 80 29 17 30 79 31 18 32
REMARK SMILES IDX 19 33 20 34 73 35 21 36 78 37 72 38 74 39 22 40 77 41 71 42
REMARK SMILES IDX 70 43 23 45 57 46 36 47 56 48 37 49 40 50 55 51 75 52 38 53
REMARK SMILES IDX 39 54 54 56 76 57 41 58 24 59 25 60 34 61 26 62 27 63 33 64
REMARK SMILES IDX 35 65 28 66 29 67 30 68 31 69 32 70 58 71 59 72 68 73 60 74
REMARK SMILES IDX 61 75 67 76 69 77 62 78 63 79 64 80 65 81 66 82 42 83 43 84
REMARK SMILES IDX 52 85 44 86 45 87 51 88 53 89 46 90 47 91 48 92 49 93 50 94
REMARK H PARENT 74 44 40 55
REMARK Flexibility Score: inf
ROOT
ATOM      1  C   UNL A   1      31.748  29.118  26.260  1.00  0.00     0.274 C 
ENDROOT
BRANCH   1   2
ATOM      2  O   UNL A   1      31.133  29.337  24.975  1.00  0.00    -0.462 OA
BRANCH   2   3
ATOM      3  C   UNL A   1      31.699  28.759  23.883  1.00  0.00     0.314 C 
ATOM      4  O   UNL A   1      32.894  28.819  23.621  1.00  0.00    -0.252 OA
BRANCH   3   5
ATOM      5  C   UNL A   1      30.654  28.136  22.933  1.00  0.00     0.086 C 
ATOM      6  C   UNL A   1      29.554  27.511  23.831  1.00  0.00     0.022 C 
ATOM      7  C   UNL A   1      31.253  27.075  21.995  1.00  0.00     0.141 C 
ATOM      8  C   UNL A   1      29.990  26.197  24.485  1.00  0.00     0.023 C 
ATOM      9  N   UNL A   1      31.561  25.812  22.648  1.00  0.00    -0.307 N 
ATOM     10  C   UNL A   1      30.504  25.210  23.445  1.00  0.00     0.123 C 
BRANCH   5  11
ATOM     11  C   UNL A   1      29.996  29.266  22.073  1.00  0.00     0.021 C 
BRANCH  11  12
ATOM     12  C   UNL A   1      28.512  29.550  22.359  1.00  0.00     0.005 C 
BRANCH  12  13
ATOM     13  C   UNL A   1      28.146  30.554  23.457  1.00  0.00     0.027 C 
BRANCH  13  14
ATOM     14  C   UNL A   1      28.050  31.975  22.993  1.00  0.00    -0.035 C 
ATOM     15  C   UNL A   1      28.071  32.328  21.701  1.00  0.00     0.004 C 
ENDBRANCH  13  14
ENDBRANCH  12  13
ENDBRANCH  11  12
ENDBRANCH   5  11
BRANCH   9  16
ATOM     16  C   UNL A   1      32.816  25.267  22.462  1.00  0.00     0.410 C 
ATOM     17  O   UNL A   1      33.658  25.756  21.712  1.00  0.00    -0.224 OA
BRANCH  16  18
ATOM     18  O   UNL A   1      33.032  24.160  23.212  1.00  0.00    -0.444 OA
BRANCH  18  19
ATOM     19  C   UNL A   1      33.839  24.261  24.412  1.00  0.00     0.106 C 
ATOM     20  C   UNL A   1      33.965  25.710  24.901  1.00  0.00     0.056 C 
ATOM     21  C   UNL A   1      33.307  23.328  25.508  1.00  0.00     0.056 C 
ATOM     22  C   UNL A   1      35.228  23.769  23.982  1.00  0.00     0.056 C 
ENDBRANCH  18  19
ENDBRANCH  16  18
ENDBRANCH   9  16
ENDBRANCH   3   5
ENDBRANCH   2   3
ENDBRANCH   1   2
BRANCH   1  23
ATOM     23  C   UNL A   1      32.234  30.435  26.853  1.00  0.00     0.275 C 
BRANCH  23  24
ATOM     24  O   UNL A   1      33.671  30.456  26.829  1.00  0.00    -0.458 OA
BRANCH  24  25
ATOM     25  C   UNL A   1      34.244  31.446  27.544  1.00  0.00     0.338 C 
ATOM     26  O   UNL A   1      33.764  32.529  27.836  1.00  0.00    -0.246 OA
BRANCH  25  27
ATOM     27  C   UNL A   1      35.583  31.036  27.988  1.00  0.00     0.060 A 
ATOM     28  C   UNL A   1      35.791  29.727  28.411  1.00  0.00     0.016 A 
ATOM     29  C   UNL A   1      36.565  32.003  28.181  1.00  0.00     0.016 A 
ATOM     30  C   UNL A   1      36.909  29.429  29.186  1.00  0.00     0.010 A 
ATOM     31  C   UNL A   1      37.757  31.656  28.823  1.00  0.00     0.010 A 
ATOM     32  C   UNL A   1      37.924  30.377  29.387  1.00  0.00    -0.014 A 
BRANCH  32  33
ATOM     33  C   UNL A   1      39.137  30.061  30.199  1.00  0.00     0.031 A 
ATOM     34  C   UNL A   1      40.184  29.116  29.659  1.00  0.00     0.074 A 
ATOM     35  C   UNL A   1      39.310  30.599  31.425  1.00  0.00     0.049 A 
ATOM     36  N   UNL A   1      41.111  28.453  30.302  1.00  0.00    -0.248 NA
ATOM     37  C   UNL A   1      40.170  28.865  28.208  1.00  0.00     0.031 C 
ATOM     38  C   UNL A   1      38.430  31.583  32.060  1.00  0.00     0.029 A 
ATOM     39  N   UNL A   1      40.293  30.391  32.363  1.00  0.00    -0.354 N 
ATOM     40  C   UNL A   1      41.728  27.640  29.355  1.00  0.00     0.074 A 
ATOM     41  C   UNL A   1      41.085  27.911  28.087  1.00  0.00     0.031 C 
ATOM     42  C   UNL A   1      38.935  31.928  33.251  1.00  0.00     0.029 A 
ATOM     43  C   UNL A   1      40.094  31.093  33.528  1.00  0.00     0.049 A 
ATOM     44  H   UNL A   1      41.064  29.796  32.215  1.00  0.00     0.167 HD
ATOM     45  C   UNL A   1      42.726  26.742  29.538  1.00  0.00     0.037 A 
ATOM     46  C   UNL A   1      40.716  31.023  34.722  1.00  0.00     0.037 A 
ATOM     47  C   UNL A   1      43.407  26.546  30.794  1.00  0.00     0.049 A 
ATOM     48  C   UNL A   1      41.808  30.013  34.913  1.00  0.00     0.074 A 
ATOM     49  C   UNL A   1      44.424  25.657  31.097  1.00  0.00     0.029 A 
ATOM     50  N   UNL A   1      43.160  27.277  31.949  1.00  0.00    -0.354 N 
ATOM     51  N   UNL A   1      42.292  29.153  34.049  1.00  0.00    -0.248 NA
ATOM     52  C   UNL A   1      42.414  29.937  36.248  1.00  0.00     0.031 C 
ATOM     53  C   UNL A   1      44.778  25.837  32.440  1.00  0.00     0.029 A 
ATOM     54  C   UNL A   1      44.009  26.864  32.962  1.00  0.00     0.049 A 
ATOM     55  H   UNL A   1      42.482  27.986  32.034  1.00  0.00     0.167 HD
ATOM     56  C   UNL A   1      43.267  28.439  34.732  1.00  0.00     0.074 A 
ATOM     57  C   UNL A   1      43.315  28.979  36.077  1.00  0.00     0.031 C 
ATOM     58  C   UNL A   1      44.049  27.426  34.288  1.00  0.00     0.037 A 
BRANCH  45  59
ATOM     59  C   UNL A   1      43.116  25.867  28.377  1.00  0.00     0.058 A 
ATOM     60  C   UNL A   1      44.242  26.128  27.581  1.00  0.00     0.135 A 
ATOM     61  C   UNL A   1      42.369  24.710  28.087  1.00  0.00     0.135 A 
ATOM     62  F   UNL A   1      44.985  27.224  27.802  1.00  0.00    -0.206 F 
ATOM     63  C   UNL A   1      44.600  25.290  26.528  1.00  0.00     0.059 A 
ATOM     64  C   UNL A   1      42.722  23.846  27.055  1.00  0.00     0.059 A 
ATOM     65  F   UNL A   1      41.283  24.409  28.817  1.00  0.00    -0.206 F 
ATOM     66  C   UNL A   1      43.832  24.152  26.271  1.00  0.00     0.060 A 
BRANCH  66  67
ATOM     67  S   UNL A   1      44.311  23.068  24.908  1.00  0.00     0.124 S 
ATOM     68  O   UNL A   1      43.025  22.836  24.255  1.00  0.00    -0.237 OA
ATOM     69  O   UNL A   1      45.258  23.894  24.164  1.00  0.00    -0.237 OA
ATOM     70  O   UNL A   1      44.891  21.910  25.580  1.00  0.00    -0.744 OA
ENDBRANCH  66  67
ENDBRANCH  45  59
BRANCH  46  71
ATOM     71  C   UNL A   1      40.258  31.889  35.841  1.00  0.00     0.058 A 
ATOM     72  C   UNL A   1      39.121  31.559  36.591  1.00  0.00     0.135 A 
ATOM     73  C   UNL A   1      40.980  33.034  36.216  1.00  0.00     0.135 A 
ATOM     74  F   UNL A   1      38.391  30.482  36.263  1.00  0.00    -0.206 F 
ATOM     75  C   UNL A   1      38.715  32.331  37.674  1.00  0.00     0.059 A 
ATOM     76  C   UNL A   1      40.613  33.803  37.315  1.00  0.00     0.059 A 
ATOM     77  F   UNL A   1      42.085  33.386  35.540  1.00  0.00    -0.206 F 
ATOM     78  C   UNL A   1      39.473  33.447  38.034  1.00  0.00     0.060 A 
BRANCH  78  79
ATOM     79  S   UNL A   1      38.989  34.400  39.490  1.00  0.00     0.124 S 
ATOM     80  O   UNL A   1      37.727  33.764  39.849  1.00  0.00    -0.237 OA
ATOM     81  O   UNL A   1      40.105  34.165  40.400  1.00  0.00    -0.237 OA
ATOM     82  O   UNL A   1      38.888  35.763  38.977  1.00  0.00    -0.744 OA
ENDBRANCH  78  79
ENDBRANCH  46  71
BRANCH  58  83
ATOM     83  C   UNL A   1      45.056  26.869  35.251  1.00  0.00     0.058 A 
ATOM     84  C   UNL A   1      46.336  27.428  35.383  1.00  0.00     0.135 A 
ATOM     85  C   UNL A   1      44.717  25.789  36.080  1.00  0.00     0.135 A 
ATOM     86  F   UNL A   1      46.710  28.455  34.604  1.00  0.00    -0.206 F 
ATOM     87  C   UNL A   1      47.254  26.922  36.297  1.00  0.00     0.059 A 
ATOM     88  C   UNL A   1      45.612  25.281  37.015  1.00  0.00     0.059 A 
ATOM     89  F   UNL A   1      43.502  25.225  35.992  1.00  0.00    -0.206 F 
ATOM     90  C   UNL A   1      46.882  25.849  37.109  1.00  0.00     0.060 A 
BRANCH  90  91
ATOM     91  S   UNL A   1      48.068  25.222  38.318  1.00  0.00     0.124 S 
ATOM     92  O   UNL A   1      49.313  25.815  37.841  1.00  0.00    -0.237 OA
ATOM     93  O   UNL A   1      47.550  25.758  39.573  1.00  0.00    -0.237 OA
ATOM     94  O   UNL A   1      47.965  23.773  38.174  1.00  0.00    -0.744 OA
ENDBRANCH  90  91
ENDBRANCH  58  83
ENDBRANCH  32  33
ENDBRANCH  25  27
ENDBRANCH  24  25
ENDBRANCH  23  24
ENDBRANCH   1  23
TORSDOF 21
ENDMDL
