MODEL 1
REMARK VINA RESULT:     -11.7      0.000      0.000
REMARK SMILES COC(=O)c1ccc(Cl)c(-c2ccc(F)cc2C(=O)OCCOC(=O)c2ccc(-c3c4nc(c(-c5c(F)cc(S(=O)(=O)[O-])cc5F)c5ccc([nH]5)c(-c5c(F)cc(S(=O)(=O)[O-])cc5F)c5nc(c(-c6c(F)cc(S(=O)(=O)[O-])cc6F)c6ccc3[nH]6)C=C5)C=C4)cc2)c1
REMARK SMILES IDX 21 1 20 2 18 3 19 4 17 5 11 6 12 7 13 8 16 9 14 10 15 11
REMARK SMILES IDX 10 12 5 13 6 14 92 15 7 16 8 17 9 18 3 19 4 20 2 21 1 22
REMARK SMILES IDX 22 23 23 24 24 25 25 26 26 27 27 28 91 29 28 30 90 31 29 32
REMARK SMILES IDX 30 33 31 34 84 35 32 36 89 37 83 38 85 39 33 40 88 41 82 42
REMARK SMILES IDX 81 43 34 45 68 46 47 47 67 48 48 49 51 50 66 51 86 52 49 53
REMARK SMILES IDX 50 54 65 56 87 57 52 58 35 59 36 60 45 61 37 62 38 63 44 64
REMARK SMILES IDX 46 65 39 66 40 67 41 68 42 69 43 70 69 71 70 72 79 73 71 74
REMARK SMILES IDX 72 75 78 76 80 77 73 78 74 79 75 80 76 81 77 82 53 83 54 84
REMARK SMILES IDX 63 85 55 86 56 87 62 88 64 89 57 90 58 91 59 92 60 93 61 94
REMARK H PARENT 85 44 51 55
REMARK Flexibility Score: inf
ROOT
ATOM      1  C   UNL A   1      32.962  29.842  25.633  1.00  0.00     0.275 C 
ENDROOT
BRANCH   1   2
ATOM      2  O   UNL A   1      31.945  28.921  25.189  1.00  0.00    -0.458 OA
BRANCH   2   3
ATOM      3  C   UNL A   1      31.687  28.901  23.859  1.00  0.00     0.338 C 
ATOM      4  O   UNL A   1      32.512  28.964  22.962  1.00  0.00    -0.246 OA
BRANCH   3   5
ATOM      5  C   UNL A   1      30.234  28.741  23.587  1.00  0.00     0.070 A 
ATOM      6  C   UNL A   1      29.573  27.489  23.575  1.00  0.00    -0.002 A 
ATOM      7  C   UNL A   1      28.180  27.487  23.339  1.00  0.00     0.013 A 
ATOM      8  C   UNL A   1      27.480  28.671  23.095  1.00  0.00     0.040 A 
ATOM      9  C   UNL A   1      29.508  29.930  23.399  1.00  0.00     0.055 A 
ATOM     10  C   UNL A   1      28.151  29.881  23.128  1.00  0.00     0.124 A 
ATOM     11  F   UNL A   1      27.480  31.017  22.908  1.00  0.00    -0.207 F 
BRANCH   6  12
ATOM     12  C   UNL A   1      30.272  26.210  23.837  1.00  0.00     0.002 A 
ATOM     13  C   UNL A   1      30.912  24.488  25.459  1.00  0.00     0.060 A 
ATOM     14  C   UNL A   1      31.745  23.889  24.511  1.00  0.00     0.017 A 
ATOM     15  C   UNL A   1      30.147  25.607  25.107  1.00  0.00     0.026 A 
ATOM     16  C   UNL A   1      31.838  24.433  23.231  1.00  0.00     0.022 A 
ATOM     17  C   UNL A   1      31.128  25.594  22.900  1.00  0.00     0.048 A 
ATOM     18  Cl  UNL A   1      31.402  26.245  21.319  1.00  0.00    -0.084 Cl
BRANCH  13  19
ATOM     19  C   UNL A   1      30.860  24.016  26.865  1.00  0.00     0.337 C 
ATOM     20  O   UNL A   1      31.840  23.707  27.517  1.00  0.00    -0.246 OA
BRANCH  19  21
ATOM     21  O   UNL A   1      29.563  23.895  27.251  1.00  0.00    -0.465 OA
ATOM     22  C   UNL A   1      29.087  22.549  27.264  1.00  0.00     0.282 C 
ENDBRANCH  19  21
ENDBRANCH  13  19
ENDBRANCH   6  12
ENDBRANCH   3   5
ENDBRANCH   2   3
ENDBRANCH   1   2
BRANCH   1  23
ATOM     23  C   UNL A   1      32.782  30.181  27.109  1.00  0.00     0.275 C 
BRANCH  23  24
ATOM     24  O   UNL A   1      33.879  29.642  27.863  1.00  0.00    -0.458 OA
BRANCH  24  25
ATOM     25  C   UNL A   1      34.731  30.558  28.376  1.00  0.00     0.338 C 
ATOM     26  O   UNL A   1      34.463  31.658  28.826  1.00  0.00    -0.246 OA
BRANCH  25  27
ATOM     27  C   UNL A   1      36.083  29.987  28.399  1.00  0.00     0.060 A 
ATOM     28  C   UNL A   1      36.550  29.452  29.596  1.00  0.00     0.016 A 
ATOM     29  C   UNL A   1      36.926  30.096  27.297  1.00  0.00     0.016 A 
ATOM     30  C   UNL A   1      37.888  29.098  29.730  1.00  0.00     0.010 A 
ATOM     31  C   UNL A   1      38.251  29.659  27.407  1.00  0.00     0.010 A 
ATOM     32  C   UNL A   1      38.757  29.188  28.634  1.00  0.00    -0.014 A 
BRANCH  32  33
ATOM     33  C   UNL A   1      40.199  28.840  28.781  1.00  0.00     0.031 A 
ATOM     34  C   UNL A   1      41.171  29.871  29.293  1.00  0.00     0.074 A 
ATOM     35  C   UNL A   1      40.641  27.603  28.475  1.00  0.00     0.049 A 
ATOM     36  N   UNL A   1      42.479  29.840  29.305  1.00  0.00    -0.248 NA
ATOM     37  C   UNL A   1      40.600  31.108  29.852  1.00  0.00     0.031 C 
ATOM     38  C   UNL A   1      39.803  26.490  28.019  1.00  0.00     0.029 A 
ATOM     39  N   UNL A   1      41.907  27.069  28.502  1.00  0.00    -0.354 N 
ATOM     40  C   UNL A   1      42.885  31.069  29.814  1.00  0.00     0.074 A 
ATOM     41  C   UNL A   1      41.687  31.824  30.102  1.00  0.00     0.031 C 
ATOM     42  C   UNL A   1      40.570  25.404  27.842  1.00  0.00     0.029 A 
ATOM     43  C   UNL A   1      41.963  25.760  28.083  1.00  0.00     0.049 A 
ATOM     44  H   UNL A   1      42.699  27.576  28.794  1.00  0.00     0.167 HD
ATOM     45  C   UNL A   1      44.146  31.520  30.020  1.00  0.00     0.037 A 
ATOM     46  C   UNL A   1      43.018  24.947  27.869  1.00  0.00     0.037 A 
ATOM     47  C   UNL A   1      45.331  30.733  29.798  1.00  0.00     0.049 A 
ATOM     48  C   UNL A   1      44.408  25.477  28.086  1.00  0.00     0.074 A 
ATOM     49  C   UNL A   1      46.652  31.098  29.994  1.00  0.00     0.029 A 
ATOM     50  N   UNL A   1      45.341  29.420  29.354  1.00  0.00    -0.354 N 
ATOM     51  N   UNL A   1      44.778  26.665  28.500  1.00  0.00    -0.248 NA
ATOM     52  C   UNL A   1      45.523  24.569  27.787  1.00  0.00     0.031 C 
ATOM     53  C   UNL A   1      47.462  30.015  29.640  1.00  0.00     0.029 A 
ATOM     54  C   UNL A   1      46.645  28.962  29.261  1.00  0.00     0.049 A 
ATOM     55  H   UNL A   1      44.539  28.891  29.137  1.00  0.00     0.167 HD
ATOM     56  C   UNL A   1      46.167  26.646  28.514  1.00  0.00     0.074 A 
ATOM     57  C   UNL A   1      46.572  25.322  28.087  1.00  0.00     0.031 C 
ATOM     58  C   UNL A   1      47.030  27.639  28.840  1.00  0.00     0.037 A 
BRANCH  45  59
ATOM     59  C   UNL A   1      44.326  32.935  30.495  1.00  0.00     0.058 A 
ATOM     60  C   UNL A   1      44.330  33.220  31.871  1.00  0.00     0.135 A 
ATOM     61  C   UNL A   1      44.403  34.016  29.604  1.00  0.00     0.135 A 
ATOM     62  F   UNL A   1      44.267  32.223  32.769  1.00  0.00    -0.206 F 
ATOM     63  C   UNL A   1      44.375  34.527  32.345  1.00  0.00     0.059 A 
ATOM     64  C   UNL A   1      44.472  35.332  30.057  1.00  0.00     0.059 A 
ATOM     65  F   UNL A   1      44.427  33.797  28.280  1.00  0.00    -0.206 F 
ATOM     66  C   UNL A   1      44.439  35.578  31.430  1.00  0.00     0.060 A 
BRANCH  66  67
ATOM     67  S   UNL A   1      44.500  37.267  32.063  1.00  0.00     0.124 S 
ATOM     68  O   UNL A   1      43.992  38.031  30.929  1.00  0.00    -0.237 OA
ATOM     69  O   UNL A   1      43.622  37.192  33.226  1.00  0.00    -0.237 OA
ATOM     70  O   UNL A   1      45.915  37.461  32.370  1.00  0.00    -0.744 OA
ENDBRANCH  66  67
ENDBRANCH  45  59
BRANCH  46  71
ATOM     71  C   UNL A   1      42.794  23.562  27.374  1.00  0.00     0.058 A 
ATOM     72  C   UNL A   1      42.443  22.525  28.252  1.00  0.00     0.135 A 
ATOM     73  C   UNL A   1      42.954  23.242  26.018  1.00  0.00     0.135 A 
ATOM     74  F   UNL A   1      42.280  22.777  29.560  1.00  0.00    -0.206 F 
ATOM     75  C   UNL A   1      42.294  21.215  27.812  1.00  0.00     0.059 A 
ATOM     76  C   UNL A   1      42.783  21.942  25.547  1.00  0.00     0.059 A 
ATOM     77  F   UNL A   1      43.269  24.204  25.136  1.00  0.00    -0.206 F 
ATOM     78  C   UNL A   1      42.472  20.933  26.458  1.00  0.00     0.060 A 
BRANCH  78  79
ATOM     79  S   UNL A   1      42.278  19.224  25.905  1.00  0.00     0.124 S 
ATOM     80  O   UNL A   1      43.047  19.230  24.665  1.00  0.00    -0.237 OA
ATOM     81  O   UNL A   1      42.863  18.473  27.012  1.00  0.00    -0.237 OA
ATOM     82  O   UNL A   1      40.833  19.083  25.751  1.00  0.00    -0.744 OA
ENDBRANCH  78  79
ENDBRANCH  46  71
BRANCH  58  83
ATOM     83  C   UNL A   1      48.498  27.337  28.770  1.00  0.00     0.058 A 
ATOM     84  C   UNL A   1      49.209  26.988  29.929  1.00  0.00     0.135 A 
ATOM     85  C   UNL A   1      49.216  27.472  27.572  1.00  0.00     0.135 A 
ATOM     86  F   UNL A   1      48.569  26.850  31.101  1.00  0.00    -0.206 F 
ATOM     87  C   UNL A   1      50.587  26.801  29.906  1.00  0.00     0.059 A 
ATOM     88  C   UNL A   1      50.592  27.269  27.522  1.00  0.00     0.059 A 
ATOM     89  F   UNL A   1      48.577  27.793  26.436  1.00  0.00    -0.206 F 
ATOM     90  C   UNL A   1      51.270  26.950  28.698  1.00  0.00     0.060 A 
BRANCH  90  91
ATOM     91  S   UNL A   1      53.058  26.703  28.685  1.00  0.00     0.124 S 
ATOM     92  O   UNL A   1      53.551  28.076  28.677  1.00  0.00    -0.237 OA
ATOM     93  O   UNL A   1      53.276  25.957  29.921  1.00  0.00    -0.237 OA
ATOM     94  O   UNL A   1      53.286  25.946  27.457  1.00  0.00    -0.744 OA
ENDBRANCH  90  91
ENDBRANCH  58  83
ENDBRANCH  32  33
ENDBRANCH  25  27
ENDBRANCH  24  25
ENDBRANCH  23  24
ENDBRANCH   1  23
TORSDOF 17
ENDMDL
MODEL 2
REMARK VINA RESULT:     -11.6      2.428      3.472
REMARK SMILES COC(=O)c1ccc(Cl)c(-c2ccc(F)cc2C(=O)OCCOC(=O)c2ccc(-c3c4nc(c(-c5c(F)cc(S(=O)(=O)[O-])cc5F)c5ccc([nH]5)c(-c5c(F)cc(S(=O)(=O)[O-])cc5F)c5nc(c(-c6c(F)cc(S(=O)(=O)[O-])cc6F)c6ccc3[nH]6)C=C5)C=C4)cc2)c1
REMARK SMILES IDX 21 1 20 2 18 3 19 4 17 5 11 6 12 7 13 8 16 9 14 10 15 11
REMARK SMILES IDX 10 12 5 13 6 14 92 15 7 16 8 17 9 18 3 19 4 20 2 21 1 22
REMARK SMILES IDX 22 23 23 24 24 25 25 26 26 27 27 28 91 29 28 30 90 31 29 32
REMARK SMILES IDX 30 33 31 34 84 35 32 36 89 37 83 38 85 39 33 40 88 41 82 42
REMARK SMILES IDX 81 43 34 45 68 46 47 47 67 48 48 49 51 50 66 51 86 52 49 53
REMARK SMILES IDX 50 54 65 56 87 57 52 58 35 59 36 60 45 61 37 62 38 63 44 64
REMARK SMILES IDX 46 65 39 66 40 67 41 68 42 69 43 70 69 71 70 72 79 73 71 74
REMARK SMILES IDX 72 75 78 76 80 77 73 78 74 79 75 80 76 81 77 82 53 83 54 84
REMARK SMILES IDX 63 85 55 86 56 87 62 88 64 89 57 90 58 91 59 92 60 93 61 94
REMARK H PARENT 85 44 51 55
REMARK Flexibility Score: inf
ROOT
ATOM      1  C   UNL A   1      33.910  29.107  26.222  1.00  0.00     0.275 C 
ENDROOT
BRANCH   1   2
ATOM      2  O   UNL A   1      33.643  27.730  26.560  1.00  0.00    -0.458 OA
BRANCH   2   3
ATOM      3  C   UNL A   1      32.350  27.332  26.499  1.00  0.00     0.338 C 
ATOM      4  O   UNL A   1      31.517  27.445  27.382  1.00  0.00    -0.246 OA
BRANCH   3   5
ATOM      5  C   UNL A   1      32.018  26.758  25.167  1.00  0.00     0.070 A 
ATOM      6  C   UNL A   1      32.428  25.470  24.746  1.00  0.00    -0.002 A 
ATOM      7  C   UNL A   1      32.010  25.036  23.469  1.00  0.00     0.013 A 
ATOM      8  C   UNL A   1      31.246  25.855  22.633  1.00  0.00     0.040 A 
ATOM      9  C   UNL A   1      31.200  27.549  24.342  1.00  0.00     0.055 A 
ATOM     10  C   UNL A   1      30.849  27.103  23.079  1.00  0.00     0.124 A 
ATOM     11  F   UNL A   1      30.105  27.884  22.287  1.00  0.00    -0.207 F 
BRANCH   6  12
ATOM     12  C   UNL A   1      33.231  24.564  25.600  1.00  0.00     0.002 A 
ATOM     13  C   UNL A   1      35.421  23.591  26.111  1.00  0.00     0.060 A 
ATOM     14  C   UNL A   1      34.830  22.712  27.022  1.00  0.00     0.017 A 
ATOM     15  C   UNL A   1      34.633  24.539  25.446  1.00  0.00     0.026 A 
ATOM     16  C   UNL A   1      33.453  22.760  27.235  1.00  0.00     0.022 A 
ATOM     17  C   UNL A   1      32.656  23.660  26.517  1.00  0.00     0.048 A 
ATOM     18  Cl  UNL A   1      30.947  23.559  26.779  1.00  0.00    -0.084 Cl
BRANCH  13  19
ATOM     19  C   UNL A   1      36.862  23.508  25.766  1.00  0.00     0.337 C 
ATOM     20  O   UNL A   1      37.744  24.075  26.383  1.00  0.00    -0.246 OA
BRANCH  19  21
ATOM     21  O   UNL A   1      37.009  22.798  24.617  1.00  0.00    -0.465 OA
ATOM     22  C   UNL A   1      37.504  21.473  24.816  1.00  0.00     0.282 C 
ENDBRANCH  19  21
ENDBRANCH  13  19
ENDBRANCH   6  12
ENDBRANCH   3   5
ENDBRANCH   2   3
ENDBRANCH   1   2
BRANCH   1  23
ATOM     23  C   UNL A   1      34.239  29.919  27.471  1.00  0.00     0.275 C 
BRANCH  23  24
ATOM     24  O   UNL A   1      35.378  29.344  28.130  1.00  0.00    -0.458 OA
BRANCH  24  25
ATOM     25  C   UNL A   1      36.003  30.154  29.015  1.00  0.00     0.338 C 
ATOM     26  O   UNL A   1      35.493  30.880  29.850  1.00  0.00    -0.246 OA
BRANCH  25  27
ATOM     27  C   UNL A   1      37.452  29.968  28.887  1.00  0.00     0.060 A 
ATOM     28  C   UNL A   1      37.989  29.846  27.608  1.00  0.00     0.016 A 
ATOM     29  C   UNL A   1      38.254  29.786  30.010  1.00  0.00     0.016 A 
ATOM     30  C   UNL A   1      39.313  29.457  27.439  1.00  0.00     0.010 A 
ATOM     31  C   UNL A   1      39.608  29.479  29.838  1.00  0.00     0.010 A 
ATOM     32  C   UNL A   1      40.145  29.275  28.552  1.00  0.00    -0.014 A 
BRANCH  32  33
ATOM     33  C   UNL A   1      41.556  28.827  28.376  1.00  0.00     0.031 A 
ATOM     34  C   UNL A   1      42.682  29.818  28.525  1.00  0.00     0.074 A 
ATOM     35  C   UNL A   1      41.837  27.537  28.101  1.00  0.00     0.049 A 
ATOM     36  N   UNL A   1      43.947  29.684  28.219  1.00  0.00    -0.248 NA
ATOM     37  C   UNL A   1      42.339  31.140  29.076  1.00  0.00     0.031 C 
ATOM     38  C   UNL A   1      40.851  26.460  27.982  1.00  0.00     0.029 A 
ATOM     39  N   UNL A   1      43.037  26.908  27.872  1.00  0.00    -0.354 N 
ATOM     40  C   UNL A   1      44.536  30.916  28.484  1.00  0.00     0.074 A 
ATOM     41  C   UNL A   1      43.492  31.787  28.977  1.00  0.00     0.031 C 
ATOM     42  C   UNL A   1      41.487  25.304  27.735  1.00  0.00     0.029 A 
ATOM     43  C   UNL A   1      42.914  25.567  27.589  1.00  0.00     0.049 A 
ATOM     44  H   UNL A   1      43.904  27.375  27.906  1.00  0.00     0.167 HD
ATOM     45  C   UNL A   1      45.830  31.281  28.327  1.00  0.00     0.037 A 
ATOM     46  C   UNL A   1      43.834  24.658  27.209  1.00  0.00     0.037 A 
ATOM     47  C   UNL A   1      46.876  30.386  27.903  1.00  0.00     0.049 A 
ATOM     48  C   UNL A   1      45.261  25.093  27.023  1.00  0.00     0.074 A 
ATOM     49  C   UNL A   1      48.222  30.660  27.731  1.00  0.00     0.029 A 
ATOM     50  N   UNL A   1      46.701  29.043  27.609  1.00  0.00    -0.354 N 
ATOM     51  N   UNL A   1      45.789  26.278  27.208  1.00  0.00    -0.248 NA
ATOM     52  C   UNL A   1      46.213  24.076  26.555  1.00  0.00     0.031 C 
ATOM     53  C   UNL A   1      48.855  29.490  27.303  1.00  0.00     0.029 A 
ATOM     54  C   UNL A   1      47.912  28.477  27.247  1.00  0.00     0.049 A 
ATOM     55  H   UNL A   1      45.841  28.563  27.650  1.00  0.00     0.167 HD
ATOM     56  C   UNL A   1      47.134  26.151  26.883  1.00  0.00     0.074 A 
ATOM     57  C   UNL A   1      47.344  24.767  26.510  1.00  0.00     0.031 C 
ATOM     58  C   UNL A   1      48.104  27.096  26.884  1.00  0.00     0.037 A 
BRANCH  45  59
ATOM     59  C   UNL A   1      46.203  32.713  28.594  1.00  0.00     0.058 A 
ATOM     60  C   UNL A   1      46.180  33.653  27.549  1.00  0.00     0.135 A 
ATOM     61  C   UNL A   1      46.670  33.139  29.847  1.00  0.00     0.135 A 
ATOM     62  F   UNL A   1      45.736  33.300  26.332  1.00  0.00    -0.206 F 
ATOM     63  C   UNL A   1      46.631  34.956  27.731  1.00  0.00     0.059 A 
ATOM     64  C   UNL A   1      47.105  34.446  30.057  1.00  0.00     0.059 A 
ATOM     65  F   UNL A   1      46.691  32.288  30.884  1.00  0.00    -0.206 F 
ATOM     66  C   UNL A   1      47.100  35.342  28.987  1.00  0.00     0.060 A 
BRANCH  66  67
ATOM     67  S   UNL A   1      47.679  37.038  29.205  1.00  0.00     0.124 S 
ATOM     68  O   UNL A   1      49.122  36.882  29.072  1.00  0.00    -0.237 OA
ATOM     69  O   UNL A   1      47.009  37.735  28.110  1.00  0.00    -0.237 OA
ATOM     70  O   UNL A   1      47.203  37.388  30.541  1.00  0.00    -0.744 OA
ENDBRANCH  66  67
ENDBRANCH  45  59
BRANCH  46  71
ATOM     71  C   UNL A   1      43.416  23.258  26.930  1.00  0.00     0.058 A 
ATOM     72  C   UNL A   1      43.131  22.364  27.973  1.00  0.00     0.135 A 
ATOM     73  C   UNL A   1      43.320  22.778  25.615  1.00  0.00     0.135 A 
ATOM     74  F   UNL A   1      43.210  22.771  29.250  1.00  0.00    -0.206 F 
ATOM     75  C   UNL A   1      42.802  21.036  27.727  1.00  0.00     0.059 A 
ATOM     76  C   UNL A   1      42.965  21.459  25.341  1.00  0.00     0.059 A 
ATOM     77  F   UNL A   1      43.563  23.601  24.583  1.00  0.00    -0.206 F 
ATOM     78  C   UNL A   1      42.728  20.592  26.407  1.00  0.00     0.060 A 
BRANCH  78  79
ATOM     79  S   UNL A   1      42.302  18.862  26.107  1.00  0.00     0.124 S 
ATOM     80  O   UNL A   1      42.576  18.265  27.410  1.00  0.00    -0.237 OA
ATOM     81  O   UNL A   1      40.894  18.951  25.732  1.00  0.00    -0.237 OA
ATOM     82  O   UNL A   1      43.210  18.473  25.032  1.00  0.00    -0.744 OA
ENDBRANCH  78  79
ENDBRANCH  46  71
BRANCH  58  83
ATOM     83  C   UNL A   1      49.489  26.672  26.488  1.00  0.00     0.058 A 
ATOM     84  C   UNL A   1      49.972  26.936  25.197  1.00  0.00     0.135 A 
ATOM     85  C   UNL A   1      50.304  25.934  27.359  1.00  0.00     0.135 A 
ATOM     86  F   UNL A   1      49.229  27.634  24.325  1.00  0.00    -0.206 F 
ATOM     87  C   UNL A   1      51.211  26.466  24.777  1.00  0.00     0.059 A 
ATOM     88  C   UNL A   1      51.557  25.472  26.967  1.00  0.00     0.059 A 
ATOM     89  F   UNL A   1      49.889  25.667  28.608  1.00  0.00    -0.206 F 
ATOM     90  C   UNL A   1      51.994  25.729  25.667  1.00  0.00     0.060 A 
BRANCH  90  91
ATOM     91  S   UNL A   1      53.601  25.127  25.106  1.00  0.00     0.124 S 
ATOM     92  O   UNL A   1      54.515  25.866  25.970  1.00  0.00    -0.237 OA
ATOM     93  O   UNL A   1      53.501  23.694  25.364  1.00  0.00    -0.237 OA
ATOM     94  O   UNL A   1      53.629  25.502  23.696  1.00  0.00    -0.744 OA
ENDBRANCH  90  91
ENDBRANCH  58  83
ENDBRANCH  32  33
ENDBRANCH  25  27
ENDBRANCH  24  25
ENDBRANCH  23  24
ENDBRANCH   1  23
TORSDOF 17
ENDMDL
MODEL 3
REMARK VINA RESULT:     -11.5      1.753      2.516
REMARK SMILES COC(=O)c1ccc(Cl)c(-c2ccc(F)cc2C(=O)OCCOC(=O)c2ccc(-c3c4nc(c(-c5c(F)cc(S(=O)(=O)[O-])cc5F)c5ccc([nH]5)c(-c5c(F)cc(S(=O)(=O)[O-])cc5F)c5nc(c(-c6c(F)cc(S(=O)(=O)[O-])cc6F)c6ccc3[nH]6)C=C5)C=C4)cc2)c1
REMARK SMILES IDX 21 1 20 2 18 3 19 4 17 5 11 6 12 7 13 8 16 9 14 10 15 11
REMARK SMILES IDX 10 12 5 13 6 14 92 15 7 16 8 17 9 18 3 19 4 20 2 21 1 22
REMARK SMILES IDX 22 23 23 24 24 25 25 26 26 27 27 28 91 29 28 30 90 31 29 32
REMARK SMILES IDX 30 33 31 34 84 35 32 36 89 37 83 38 85 39 33 40 88 41 82 42
REMARK SMILES IDX 81 43 34 45 68 46 47 47 67 48 48 49 51 50 66 51 86 52 49 53
REMARK SMILES IDX 50 54 65 56 87 57 52 58 35 59 36 60 45 61 37 62 38 63 44 64
REMARK SMILES IDX 46 65 39 66 40 67 41 68 42 69 43 70 69 71 70 72 79 73 71 74
REMARK SMILES IDX 72 75 78 76 80 77 73 78 74 79 75 80 76 81 77 82 53 83 54 84
REMARK SMILES IDX 63 85 55 86 56 87 62 88 64 89 57 90 58 91 59 92 60 93 61 94
REMARK H PARENT 85 44 51 55
REMARK Flexibility Score: inf
ROOT
ATOM      1  C   UNL A   1      33.684  29.488  25.861  1.00  0.00     0.275 C 
ENDROOT
BRANCH   1   2
ATOM      2  O   UNL A   1      32.578  28.645  25.475  1.00  0.00    -0.458 OA
BRANCH   2   3
ATOM      3  C   UNL A   1      32.395  28.460  24.146  1.00  0.00     0.338 C 
ATOM      4  O   UNL A   1      33.262  28.212  23.325  1.00  0.00    -0.246 OA
BRANCH   3   5
ATOM      5  C   UNL A   1      30.957  28.548  23.775  1.00  0.00     0.070 A 
ATOM      6  C   UNL A   1      30.118  27.417  23.623  1.00  0.00    -0.002 A 
ATOM      7  C   UNL A   1      28.761  27.649  23.305  1.00  0.00     0.013 A 
ATOM      8  C   UNL A   1      28.266  28.941  23.114  1.00  0.00     0.040 A 
ATOM      9  C   UNL A   1      30.434  29.845  23.639  1.00  0.00     0.055 A 
ATOM     10  C   UNL A   1      29.107  30.026  23.284  1.00  0.00     0.124 A 
ATOM     11  F   UNL A   1      28.632  31.266  23.116  1.00  0.00    -0.207 F 
BRANCH   6  12
ATOM     12  C   UNL A   1      30.596  26.030  23.824  1.00  0.00     0.002 A 
ATOM     13  C   UNL A   1      30.980  24.169  25.372  1.00  0.00     0.060 A 
ATOM     14  C   UNL A   1      31.671  23.471  24.379  1.00  0.00     0.017 A 
ATOM     15  C   UNL A   1      30.407  25.414  25.079  1.00  0.00     0.026 A 
ATOM     16  C   UNL A   1      31.818  24.035  23.112  1.00  0.00     0.022 A 
ATOM     17  C   UNL A   1      31.307  25.310  22.841  1.00  0.00     0.048 A 
ATOM     18  Cl  UNL A   1      31.642  25.959  21.271  1.00  0.00    -0.084 Cl
BRANCH  13  19
ATOM     19  C   UNL A   1      30.890  23.665  26.765  1.00  0.00     0.337 C 
ATOM     20  O   UNL A   1      29.857  23.295  27.290  1.00  0.00    -0.246 OA
BRANCH  19  21
ATOM     21  O   UNL A   1      32.103  23.783  27.365  1.00  0.00    -0.465 OA
ATOM     22  C   UNL A   1      32.747  22.534  27.616  1.00  0.00     0.282 C 
ENDBRANCH  19  21
ENDBRANCH  13  19
ENDBRANCH   6  12
ENDBRANCH   3   5
ENDBRANCH   2   3
ENDBRANCH   1   2
BRANCH   1  23
ATOM     23  C   UNL A   1      33.877  29.472  27.374  1.00  0.00     0.275 C 
BRANCH  23  24
ATOM     24  O   UNL A   1      35.256  29.214  27.678  1.00  0.00    -0.458 OA
BRANCH  24  25
ATOM     25  C   UNL A   1      35.839  30.103  28.514  1.00  0.00     0.338 C 
ATOM     26  O   UNL A   1      35.292  30.895  29.261  1.00  0.00    -0.246 OA
BRANCH  25  27
ATOM     27  C   UNL A   1      37.294  29.919  28.463  1.00  0.00     0.060 A 
ATOM     28  C   UNL A   1      37.905  29.856  27.214  1.00  0.00     0.016 A 
ATOM     29  C   UNL A   1      38.028  29.681  29.622  1.00  0.00     0.016 A 
ATOM     30  C   UNL A   1      39.237  29.471  27.105  1.00  0.00     0.010 A 
ATOM     31  C   UNL A   1      39.389  29.378  29.515  1.00  0.00     0.010 A 
ATOM     32  C   UNL A   1      40.002  29.234  28.255  1.00  0.00    -0.014 A 
BRANCH  32  33
ATOM     33  C   UNL A   1      41.420  28.790  28.142  1.00  0.00     0.031 A 
ATOM     34  C   UNL A   1      42.535  29.789  28.315  1.00  0.00     0.074 A 
ATOM     35  C   UNL A   1      41.717  27.497  27.900  1.00  0.00     0.049 A 
ATOM     36  N   UNL A   1      43.811  29.657  28.061  1.00  0.00    -0.248 NA
ATOM     37  C   UNL A   1      42.165  31.119  28.830  1.00  0.00     0.031 C 
ATOM     38  C   UNL A   1      40.741  26.413  27.763  1.00  0.00     0.029 A 
ATOM     39  N   UNL A   1      42.928  26.870  27.729  1.00  0.00    -0.354 N 
ATOM     40  C   UNL A   1      44.384  30.896  28.326  1.00  0.00     0.074 A 
ATOM     41  C   UNL A   1      43.318  31.770  28.763  1.00  0.00     0.031 C 
ATOM     42  C   UNL A   1      41.391  25.256  27.562  1.00  0.00     0.029 A 
ATOM     43  C   UNL A   1      42.822  25.524  27.466  1.00  0.00     0.049 A 
ATOM     44  H   UNL A   1      43.791  27.342  27.788  1.00  0.00     0.167 HD
ATOM     45  C   UNL A   1      45.682  31.265  28.212  1.00  0.00     0.037 A 
ATOM     46  C   UNL A   1      43.760  24.613  27.137  1.00  0.00     0.037 A 
ATOM     47  C   UNL A   1      46.748  30.368  27.845  1.00  0.00     0.049 A 
ATOM     48  C   UNL A   1      45.191  25.051  26.999  1.00  0.00     0.074 A 
ATOM     49  C   UNL A   1      48.098  30.646  27.720  1.00  0.00     0.029 A 
ATOM     50  N   UNL A   1      46.589  29.019  27.569  1.00  0.00    -0.354 N 
ATOM     51  N   UNL A   1      45.706  26.243  27.183  1.00  0.00    -0.248 NA
ATOM     52  C   UNL A   1      46.165  24.032  26.585  1.00  0.00     0.031 C 
ATOM     53  C   UNL A   1      48.752  29.471  27.338  1.00  0.00     0.029 A 
ATOM     54  C   UNL A   1      47.816  28.453  27.263  1.00  0.00     0.049 A 
ATOM     55  H   UNL A   1      45.731  28.535  27.586  1.00  0.00     0.167 HD
ATOM     56  C   UNL A   1      47.063  26.116  26.912  1.00  0.00     0.074 A 
ATOM     57  C   UNL A   1      47.294  24.727  26.572  1.00  0.00     0.031 C 
ATOM     58  C   UNL A   1      48.028  27.067  26.933  1.00  0.00     0.037 A 
BRANCH  45  59
ATOM     59  C   UNL A   1      46.038  32.703  28.468  1.00  0.00     0.058 A 
ATOM     60  C   UNL A   1      46.011  33.633  27.415  1.00  0.00     0.135 A 
ATOM     61  C   UNL A   1      46.493  33.146  29.720  1.00  0.00     0.135 A 
ATOM     62  F   UNL A   1      45.578  33.264  26.198  1.00  0.00    -0.206 F 
ATOM     63  C   UNL A   1      46.447  34.942  27.586  1.00  0.00     0.059 A 
ATOM     64  C   UNL A   1      46.913  34.460  29.920  1.00  0.00     0.059 A 
ATOM     65  F   UNL A   1      46.516  32.305  30.765  1.00  0.00    -0.206 F 
ATOM     66  C   UNL A   1      46.904  35.345  28.841  1.00  0.00     0.060 A 
BRANCH  66  67
ATOM     67  S   UNL A   1      47.463  37.049  29.047  1.00  0.00     0.124 S 
ATOM     68  O   UNL A   1      48.901  36.920  28.843  1.00  0.00    -0.237 OA
ATOM     69  O   UNL A   1      46.730  37.743  27.992  1.00  0.00    -0.237 OA
ATOM     70  O   UNL A   1      47.047  37.380  30.407  1.00  0.00    -0.744 OA
ENDBRANCH  66  67
ENDBRANCH  45  59
BRANCH  46  71
ATOM     71  C   UNL A   1      43.359  23.206  26.867  1.00  0.00     0.058 A 
ATOM     72  C   UNL A   1      43.008  22.338  27.913  1.00  0.00     0.135 A 
ATOM     73  C   UNL A   1      43.347  22.693  25.562  1.00  0.00     0.135 A 
ATOM     74  F   UNL A   1      43.005  22.777  29.181  1.00  0.00    -0.206 F 
ATOM     75  C   UNL A   1      42.694  21.004  27.680  1.00  0.00     0.059 A 
ATOM     76  C   UNL A   1      43.009  21.367  25.299  1.00  0.00     0.059 A 
ATOM     77  F   UNL A   1      43.655  23.490  24.527  1.00  0.00    -0.206 F 
ATOM     78  C   UNL A   1      42.703  20.527  26.369  1.00  0.00     0.060 A 
BRANCH  78  79
ATOM     79  S   UNL A   1      42.296  18.790  26.086  1.00  0.00     0.124 S 
ATOM     80  O   UNL A   1      43.223  18.445  25.013  1.00  0.00    -0.237 OA
ATOM     81  O   UNL A   1      42.579  18.190  27.386  1.00  0.00    -0.237 OA
ATOM     82  O   UNL A   1      40.885  18.832  25.712  1.00  0.00    -0.744 OA
ENDBRANCH  78  79
ENDBRANCH  46  71
BRANCH  58  83
ATOM     83  C   UNL A   1      49.429  26.643  26.598  1.00  0.00     0.058 A 
ATOM     84  C   UNL A   1      49.901  26.722  25.279  1.00  0.00     0.135 A 
ATOM     85  C   UNL A   1      50.275  26.083  27.568  1.00  0.00     0.135 A 
ATOM     86  F   UNL A   1      49.128  27.245  24.313  1.00  0.00    -0.206 F 
ATOM     87  C   UNL A   1      51.158  26.243  24.928  1.00  0.00     0.059 A 
ATOM     88  C   UNL A   1      51.545  25.617  27.244  1.00  0.00     0.059 A 
ATOM     89  F   UNL A   1      49.872  25.998  28.846  1.00  0.00    -0.206 F 
ATOM     90  C   UNL A   1      51.971  25.686  25.917  1.00  0.00     0.060 A 
BRANCH  90  91
ATOM     91  S   UNL A   1      53.601  25.070  25.446  1.00  0.00     0.124 S 
ATOM     92  O   UNL A   1      53.808  25.726  24.159  1.00  0.00    -0.237 OA
ATOM     93  O   UNL A   1      54.439  25.543  26.543  1.00  0.00    -0.237 OA
ATOM     94  O   UNL A   1      53.413  23.624  25.390  1.00  0.00    -0.744 OA
ENDBRANCH  90  91
ENDBRANCH  58  83
ENDBRANCH  32  33
ENDBRANCH  25  27
ENDBRANCH  24  25
ENDBRANCH  23  24
ENDBRANCH   1  23
TORSDOF 17
ENDMDL
