MODEL 1
REMARK VINA RESULT:     -10.5      0.000      0.000
REMARK SMILES Cc1cc(Cl)cc2c1O[C@H](C(F)(F)F)C(C(=O)OCCOC(=O)c1ccc(-c3c4nc(c(-c5c(F)cc(S(=O)(=O)[O-])cc5F)c5ccc([nH]5)c(-c5c(F)cc(S(=O)(=O)[O-])cc5F)c5nc(c(-c6c(F)cc(S(=O)(=O)[O-])cc6F)c6ccc3[nH]6)C=C5)C=C4)cc1)=C2
REMARK SMILES IDX 20 1 19 2 18 3 16 4 17 5 15 6 1 7 2 8 3 9 8 10 4 11 7 12
REMARK SMILES IDX 9 13 5 14 6 15 90 16 10 17 11 18 12 19 13 20 14 21 21 22
REMARK SMILES IDX 22 23 23 24 24 25 25 26 89 27 26 28 88 29 27 30 28 31 29 32
REMARK SMILES IDX 82 33 30 34 87 35 81 36 83 37 31 38 86 39 80 40 79 41 32 43
REMARK SMILES IDX 66 44 45 45 65 46 46 47 49 48 64 49 84 50 47 51 48 52 63 54
REMARK SMILES IDX 85 55 50 56 33 57 34 58 43 59 35 60 36 61 42 62 44 63 37 64
REMARK SMILES IDX 38 65 39 66 40 67 41 68 67 69 68 70 77 71 69 72 70 73 76 74
REMARK SMILES IDX 78 75 71 76 72 77 73 78 74 79 75 80 51 81 52 82 61 83 53 84
REMARK SMILES IDX 54 85 60 86 62 87 55 88 56 89 57 90 58 91 59 92
REMARK H PARENT 83 42 49 53
REMARK Flexibility Score: inf
ROOT
ATOM      1  C   UNL A   1      33.570  33.696  28.088  1.00  0.00     0.275 C 
ENDROOT
BRANCH   1   2
ATOM      2  C   UNL A   1      34.314  34.851  28.760  1.00  0.00     0.275 C 
BRANCH   2   3
ATOM      3  O   UNL A   1      34.170  34.810  30.197  1.00  0.00    -0.459 OA
BRANCH   3   4
ATOM      4  C   UNL A   1      34.750  33.752  30.808  1.00  0.00     0.338 C 
ATOM      5  O   UNL A   1      34.351  32.597  30.794  1.00  0.00    -0.246 OA
BRANCH   4   6
ATOM      6  C   UNL A   1      35.974  34.163  31.521  1.00  0.00     0.087 C 
ATOM      7  C   UNL A   1      39.493  35.285  35.125  1.00  0.00     0.048 C 
ATOM      8  C   UNL A   1      39.494  34.877  33.681  1.00  0.00    -0.007 A 
ATOM      9  C   UNL A   1      40.727  34.606  33.061  1.00  0.00     0.027 A 
ATOM     10  C   UNL A   1      38.306  34.690  32.955  1.00  0.00     0.131 A 
ATOM     11  C   UNL A   1      40.777  34.191  31.732  1.00  0.00     0.042 A 
ATOM     12  C   UNL A   1      38.369  34.261  31.627  1.00  0.00     0.019 A 
ATOM     13  O   UNL A   1      37.123  34.957  33.589  1.00  0.00    -0.475 OA
ATOM     14  Cl  UNL A   1      42.293  33.862  30.993  1.00  0.00    -0.084 Cl
ATOM     15  C   UNL A   1      39.603  34.024  31.008  1.00  0.00     0.032 A 
ATOM     16  C   UNL A   1      37.144  34.014  30.893  1.00  0.00     0.027 C 
ATOM     17  C   UNL A   1      35.868  34.579  32.956  1.00  0.00     0.316 C 
BRANCH  17  18
ATOM     18  C   UNL A   1      35.197  33.487  33.805  1.00  0.00     0.430 C 
ATOM     19  F   UNL A   1      35.658  32.255  33.476  1.00  0.00    -0.167 F 
ATOM     20  F   UNL A   1      35.458  33.651  35.125  1.00  0.00    -0.167 F 
ATOM     21  F   UNL A   1      33.854  33.470  33.655  1.00  0.00    -0.167 F 
ENDBRANCH  17  18
ENDBRANCH   4   6
ENDBRANCH   3   4
ENDBRANCH   2   3
ENDBRANCH   1   2
BRANCH   1  22
ATOM     22  O   UNL A   1      34.483  32.862  27.354  1.00  0.00    -0.458 OA
BRANCH  22  23
ATOM     23  C   UNL A   1      34.366  31.537  27.603  1.00  0.00     0.338 C 
ATOM     24  O   UNL A   1      33.380  30.840  27.438  1.00  0.00    -0.246 OA
BRANCH  23  25
ATOM     25  C   UNL A   1      35.658  30.978  28.026  1.00  0.00     0.060 A 
ATOM     26  C   UNL A   1      35.664  29.720  28.612  1.00  0.00     0.016 A 
ATOM     27  C   UNL A   1      36.802  31.769  28.064  1.00  0.00     0.016 A 
ATOM     28  C   UNL A   1      36.736  29.328  29.404  1.00  0.00     0.010 A 
ATOM     29  C   UNL A   1      37.947  31.291  28.717  1.00  0.00     0.010 A 
ATOM     30  C   UNL A   1      37.911  30.089  29.449  1.00  0.00    -0.014 A 
BRANCH  30  31
ATOM     31  C   UNL A   1      39.072  29.636  30.275  1.00  0.00     0.031 A 
ATOM     32  C   UNL A   1      40.101  28.692  29.697  1.00  0.00     0.074 A 
ATOM     33  C   UNL A   1      39.227  30.091  31.537  1.00  0.00     0.049 A 
ATOM     34  N   UNL A   1      41.059  28.040  30.306  1.00  0.00    -0.248 NA
ATOM     35  C   UNL A   1      40.035  28.431  28.248  1.00  0.00     0.031 C 
ATOM     36  C   UNL A   1      38.347  31.052  32.211  1.00  0.00     0.029 A 
ATOM     37  N   UNL A   1      40.189  29.822  32.481  1.00  0.00    -0.354 N 
ATOM     38  C   UNL A   1      41.672  27.257  29.331  1.00  0.00     0.074 A 
ATOM     39  C   UNL A   1      40.966  27.500  28.092  1.00  0.00     0.031 C 
ATOM     40  C   UNL A   1      38.843  31.339  33.422  1.00  0.00     0.029 A 
ATOM     41  C   UNL A   1      39.999  30.491  33.669  1.00  0.00     0.049 A 
ATOM     42  H   UNL A   1      40.942  29.207  32.324  1.00  0.00     0.167 HD
ATOM     43  C   UNL A   1      42.730  26.419  29.459  1.00  0.00     0.037 A 
ATOM     44  C   UNL A   1      40.643  30.400  34.850  1.00  0.00     0.037 A 
ATOM     45  C   UNL A   1      43.461  26.231  30.687  1.00  0.00     0.049 A 
ATOM     46  C   UNL A   1      41.766  29.414  34.987  1.00  0.00     0.074 A 
ATOM     47  C   UNL A   1      44.548  25.407  30.923  1.00  0.00     0.029 A 
ATOM     48  N   UNL A   1      43.196  26.890  31.879  1.00  0.00    -0.354 N 
ATOM     49  N   UNL A   1      42.283  28.626  34.075  1.00  0.00    -0.248 NA
ATOM     50  C   UNL A   1      42.375  29.281  36.316  1.00  0.00     0.031 C 
ATOM     51  C   UNL A   1      44.910  25.532  32.267  1.00  0.00     0.029 A 
ATOM     52  C   UNL A   1      44.085  26.476  32.858  1.00  0.00     0.049 A 
ATOM     53  H   UNL A   1      42.481  27.555  32.010  1.00  0.00     0.167 HD
ATOM     54  C   UNL A   1      43.289  27.915  34.717  1.00  0.00     0.074 A 
ATOM     55  C   UNL A   1      43.321  28.380  36.088  1.00  0.00     0.031 C 
ATOM     56  C   UNL A   1      44.107  26.956  34.217  1.00  0.00     0.037 A 
BRANCH  43  57
ATOM     57  C   UNL A   1      43.159  25.622  28.255  1.00  0.00     0.058 A 
ATOM     58  C   UNL A   1      44.202  26.043  27.415  1.00  0.00     0.135 A 
ATOM     59  C   UNL A   1      42.562  24.380  27.978  1.00  0.00     0.135 A 
ATOM     60  F   UNL A   1      44.798  27.228  27.621  1.00  0.00    -0.206 F 
ATOM     61  C   UNL A   1      44.627  25.271  26.338  1.00  0.00     0.059 A 
ATOM     62  C   UNL A   1      42.989  23.578  26.923  1.00  0.00     0.059 A 
ATOM     63  F   UNL A   1      41.559  23.926  28.745  1.00  0.00    -0.206 F 
ATOM     64  C   UNL A   1      44.018  24.035  26.103  1.00  0.00     0.060 A 
BRANCH  64  65
ATOM     65  S   UNL A   1      44.600  23.039  24.715  1.00  0.00     0.124 S 
ATOM     66  O   UNL A   1      45.654  23.887  24.166  1.00  0.00    -0.237 OA
ATOM     67  O   UNL A   1      45.050  21.819  25.376  1.00  0.00    -0.237 OA
ATOM     68  O   UNL A   1      43.414  22.893  23.876  1.00  0.00    -0.744 OA
ENDBRANCH  64  65
ENDBRANCH  43  57
BRANCH  44  69
ATOM     69  C   UNL A   1      40.205  31.235  36.003  1.00  0.00     0.058 A 
ATOM     70  C   UNL A   1      41.012  32.274  36.490  1.00  0.00     0.135 A 
ATOM     71  C   UNL A   1      38.960  31.033  36.625  1.00  0.00     0.135 A 
ATOM     72  F   UNL A   1      42.214  32.502  35.940  1.00  0.00    -0.206 F 
ATOM     73  C   UNL A   1      40.606  33.077  37.551  1.00  0.00     0.059 A 
ATOM     74  C   UNL A   1      38.518  31.843  37.664  1.00  0.00     0.059 A 
ATOM     75  F   UNL A   1      38.143  30.060  36.193  1.00  0.00    -0.206 F 
ATOM     76  C   UNL A   1      39.353  32.859  38.127  1.00  0.00     0.060 A 
BRANCH  76  77
ATOM     77  S   UNL A   1      38.818  33.939  39.470  1.00  0.00     0.124 S 
ATOM     78  O   UNL A   1      37.457  33.468  39.703  1.00  0.00    -0.237 OA
ATOM     79  O   UNL A   1      39.789  33.632  40.515  1.00  0.00    -0.237 OA
ATOM     80  O   UNL A   1      38.931  35.275  38.893  1.00  0.00    -0.744 OA
ENDBRANCH  76  77
ENDBRANCH  44  69
BRANCH  56  81
ATOM     81  C   UNL A   1      45.125  26.361  35.148  1.00  0.00     0.058 A 
ATOM     82  C   UNL A   1      44.853  25.204  35.892  1.00  0.00     0.135 A 
ATOM     83  C   UNL A   1      46.411  26.918  35.245  1.00  0.00     0.135 A 
ATOM     84  F   UNL A   1      43.636  24.638  35.842  1.00  0.00    -0.206 F 
ATOM     85  C   UNL A   1      45.815  24.626  36.712  1.00  0.00     0.059 A 
ATOM     86  C   UNL A   1      47.398  26.340  36.036  1.00  0.00     0.059 A 
ATOM     87  F   UNL A   1      46.725  28.021  34.548  1.00  0.00    -0.206 F 
ATOM     88  C   UNL A   1      47.088  25.198  36.772  1.00  0.00     0.060 A 
BRANCH  88  89
ATOM     89  S   UNL A   1      48.338  24.406  37.806  1.00  0.00     0.124 S 
ATOM     90  O   UNL A   1      49.318  25.477  37.956  1.00  0.00    -0.237 OA
ATOM     91  O   UNL A   1      47.578  24.069  39.006  1.00  0.00    -0.237 OA
ATOM     92  O   UNL A   1      48.772  23.266  37.004  1.00  0.00    -0.744 OA
ENDBRANCH  88  89
ENDBRANCH  56  81
ENDBRANCH  30  31
ENDBRANCH  23  25
ENDBRANCH  22  23
ENDBRANCH   1  22
TORSDOF 15
ENDMDL
MODEL 2
REMARK VINA RESULT:     -10.3      5.470     10.937
REMARK SMILES Cc1cc(Cl)cc2c1O[C@H](C(F)(F)F)C(C(=O)OCCOC(=O)c1ccc(-c3c4nc(c(-c5c(F)cc(S(=O)(=O)[O-])cc5F)c5ccc([nH]5)c(-c5c(F)cc(S(=O)(=O)[O-])cc5F)c5nc(c(-c6c(F)cc(S(=O)(=O)[O-])cc6F)c6ccc3[nH]6)C=C5)C=C4)cc1)=C2
REMARK SMILES IDX 20 1 19 2 18 3 16 4 17 5 15 6 1 7 2 8 3 9 8 10 4 11 7 12
REMARK SMILES IDX 9 13 5 14 6 15 90 16 10 17 11 18 12 19 13 20 14 21 21 22
REMARK SMILES IDX 22 23 23 24 24 25 25 26 89 27 26 28 88 29 27 30 28 31 29 32
REMARK SMILES IDX 82 33 30 34 87 35 81 36 83 37 31 38 86 39 80 40 79 41 32 43
REMARK SMILES IDX 66 44 45 45 65 46 46 47 49 48 64 49 84 50 47 51 48 52 63 54
REMARK SMILES IDX 85 55 50 56 33 57 34 58 43 59 35 60 36 61 42 62 44 63 37 64
REMARK SMILES IDX 38 65 39 66 40 67 41 68 67 69 68 70 77 71 69 72 70 73 76 74
REMARK SMILES IDX 78 75 71 76 72 77 73 78 74 79 75 80 51 81 52 82 61 83 53 84
REMARK SMILES IDX 54 85 60 86 62 87 55 88 56 89 57 90 58 91 59 92
REMARK H PARENT 83 42 49 53
REMARK Flexibility Score: inf
ROOT
ATOM      1  C   UNL A   1      32.693  28.253  27.154  1.00  0.00     0.275 C 
ENDROOT
BRANCH   1   2
ATOM      2  C   UNL A   1      32.313  28.309  25.674  1.00  0.00     0.275 C 
BRANCH   2   3
ATOM      3  O   UNL A   1      32.125  26.987  25.124  1.00  0.00    -0.459 OA
BRANCH   3   4
ATOM      4  C   UNL A   1      33.073  26.583  24.247  1.00  0.00     0.338 C 
ATOM      5  O   UNL A   1      33.488  27.212  23.286  1.00  0.00    -0.246 OA
BRANCH   4   6
ATOM      6  C   UNL A   1      33.576  25.242  24.599  1.00  0.00     0.087 C 
ATOM      7  C   UNL A   1      34.412  20.157  24.877  1.00  0.00     0.048 C 
ATOM      8  C   UNL A   1      35.185  21.412  25.158  1.00  0.00    -0.007 A 
ATOM      9  C   UNL A   1      36.542  21.300  25.508  1.00  0.00     0.027 A 
ATOM     10  C   UNL A   1      34.617  22.689  25.014  1.00  0.00     0.131 A 
ATOM     11  C   UNL A   1      37.310  22.438  25.744  1.00  0.00     0.042 A 
ATOM     12  C   UNL A   1      35.400  23.823  25.242  1.00  0.00     0.019 A 
ATOM     13  O   UNL A   1      33.295  22.763  24.668  1.00  0.00    -0.475 OA
ATOM     14  Cl  UNL A   1      38.968  22.281  26.168  1.00  0.00    -0.084 Cl
ATOM     15  C   UNL A   1      36.743  23.701  25.621  1.00  0.00     0.032 A 
ATOM     16  C   UNL A   1      34.832  25.140  25.042  1.00  0.00     0.027 C 
ATOM     17  C   UNL A   1      32.719  24.049  24.302  1.00  0.00     0.316 C 
BRANCH  17  18
ATOM     18  C   UNL A   1      32.319  24.006  22.819  1.00  0.00     0.430 C 
ATOM     19  F   UNL A   1      33.351  24.373  22.019  1.00  0.00    -0.167 F 
ATOM     20  F   UNL A   1      31.966  22.755  22.433  1.00  0.00    -0.167 F 
ATOM     21  F   UNL A   1      31.281  24.825  22.541  1.00  0.00    -0.167 F 
ENDBRANCH  17  18
ENDBRANCH   4   6
ENDBRANCH   3   4
ENDBRANCH   2   3
ENDBRANCH   1   2
BRANCH   1  22
ATOM     22  O   UNL A   1      34.101  28.487  27.326  1.00  0.00    -0.458 OA
BRANCH  22  23
ATOM     23  C   UNL A   1      34.423  29.731  27.749  1.00  0.00     0.338 C 
ATOM     24  O   UNL A   1      33.674  30.686  27.867  1.00  0.00    -0.246 OA
BRANCH  23  25
ATOM     25  C   UNL A   1      35.831  29.783  28.166  1.00  0.00     0.060 A 
ATOM     26  C   UNL A   1      36.783  30.100  27.208  1.00  0.00     0.016 A 
ATOM     27  C   UNL A   1      36.228  29.300  29.409  1.00  0.00     0.016 A 
ATOM     28  C   UNL A   1      38.113  29.753  27.409  1.00  0.00     0.010 A 
ATOM     29  C   UNL A   1      37.593  29.118  29.671  1.00  0.00     0.010 A 
ATOM     30  C   UNL A   1      38.552  29.284  28.654  1.00  0.00    -0.014 A 
BRANCH  30  31
ATOM     31  C   UNL A   1      39.993  28.950  28.871  1.00  0.00     0.031 A 
ATOM     32  C   UNL A   1      40.934  29.972  29.467  1.00  0.00     0.074 A 
ATOM     33  C   UNL A   1      40.461  27.721  28.561  1.00  0.00     0.049 A 
ATOM     34  N   UNL A   1      42.240  29.942  29.551  1.00  0.00    -0.248 NA
ATOM     35  C   UNL A   1      40.332  31.195  30.025  1.00  0.00     0.031 C 
ATOM     36  C   UNL A   1      39.659  26.613  28.033  1.00  0.00     0.029 A 
ATOM     37  N   UNL A   1      41.723  27.186  28.659  1.00  0.00    -0.354 N 
ATOM     38  C   UNL A   1      42.617  31.156  30.120  1.00  0.00     0.074 A 
ATOM     39  C   UNL A   1      41.403  31.910  30.344  1.00  0.00     0.031 C 
ATOM     40  C   UNL A   1      40.426  25.521  27.918  1.00  0.00     0.029 A 
ATOM     41  C   UNL A   1      41.801  25.877  28.237  1.00  0.00     0.049 A 
ATOM     42  H   UNL A   1      42.497  27.690  28.997  1.00  0.00     0.167 HD
ATOM     43  C   UNL A   1      43.860  31.596  30.431  1.00  0.00     0.037 A 
ATOM     44  C   UNL A   1      42.861  25.063  28.068  1.00  0.00     0.037 A 
ATOM     45  C   UNL A   1      45.057  30.810  30.257  1.00  0.00     0.049 A 
ATOM     46  C   UNL A   1      44.235  25.596  28.352  1.00  0.00     0.074 A 
ATOM     47  C   UNL A   1      46.365  31.162  30.542  1.00  0.00     0.029 A 
ATOM     48  N   UNL A   1      45.091  29.511  29.773  1.00  0.00    -0.354 N 
ATOM     49  N   UNL A   1      44.579  26.773  28.819  1.00  0.00    -0.248 NA
ATOM     50  C   UNL A   1      45.366  24.706  28.064  1.00  0.00     0.031 C 
ATOM     51  C   UNL A   1      47.194  30.094  30.188  1.00  0.00     0.029 A 
ATOM     52  C   UNL A   1      46.399  29.054  29.733  1.00  0.00     0.049 A 
ATOM     53  H   UNL A   1      44.302  28.989  29.499  1.00  0.00     0.167 HD
ATOM     54  C   UNL A   1      45.966  26.759  28.893  1.00  0.00     0.074 A 
ATOM     55  C   UNL A   1      46.396  25.451  28.445  1.00  0.00     0.031 C 
ATOM     56  C   UNL A   1      46.808  27.745  29.289  1.00  0.00     0.037 A 
BRANCH  43  57
ATOM     57  C   UNL A   1      44.009  32.992  30.976  1.00  0.00     0.058 A 
ATOM     58  C   UNL A   1      43.964  33.265  32.352  1.00  0.00     0.135 A 
ATOM     59  C   UNL A   1      44.269  34.068  30.108  1.00  0.00     0.135 A 
ATOM     60  F   UNL A   1      43.703  32.282  33.228  1.00  0.00    -0.206 F 
ATOM     61  C   UNL A   1      44.158  34.552  32.847  1.00  0.00     0.059 A 
ATOM     62  C   UNL A   1      44.493  35.357  30.582  1.00  0.00     0.059 A 
ATOM     63  F   UNL A   1      44.321  33.868  28.782  1.00  0.00    -0.206 F 
ATOM     64  C   UNL A   1      44.428  35.592  31.954  1.00  0.00     0.060 A 
BRANCH  64  65
ATOM     65  S   UNL A   1      44.700  37.248  32.617  1.00  0.00     0.124 S 
ATOM     66  O   UNL A   1      43.714  38.028  31.872  1.00  0.00    -0.237 OA
ATOM     67  O   UNL A   1      44.418  37.064  34.036  1.00  0.00    -0.237 OA
ATOM     68  O   UNL A   1      46.094  37.526  32.287  1.00  0.00    -0.744 OA
ENDBRANCH  64  65
ENDBRANCH  43  57
BRANCH  44  69
ATOM     69  C   UNL A   1      42.662  23.676  27.560  1.00  0.00     0.058 A 
ATOM     70  C   UNL A   1      42.738  23.393  26.189  1.00  0.00     0.135 A 
ATOM     71  C   UNL A   1      42.421  22.602  28.435  1.00  0.00     0.135 A 
ATOM     72  F   UNL A   1      42.954  24.383  25.311  1.00  0.00    -0.206 F 
ATOM     73  C   UNL A   1      42.577  22.099  25.702  1.00  0.00     0.059 A 
ATOM     74  C   UNL A   1      42.291  21.296  27.976  1.00  0.00     0.059 A 
ATOM     75  F   UNL A   1      42.349  22.815  29.758  1.00  0.00    -0.206 F 
ATOM     76  C   UNL A   1      42.361  21.056  26.604  1.00  0.00     0.060 A 
BRANCH  76  77
ATOM     77  S   UNL A   1      42.205  19.376  25.963  1.00  0.00     0.124 S 
ATOM     78  O   UNL A   1      42.706  18.586  27.081  1.00  0.00    -0.237 OA
ATOM     79  O   UNL A   1      40.772  19.281  25.704  1.00  0.00    -0.237 OA
ATOM     80  O   UNL A   1      43.050  19.389  24.773  1.00  0.00    -0.744 OA
ENDBRANCH  76  77
ENDBRANCH  44  69
BRANCH  56  81
ATOM     81  C   UNL A   1      48.280  27.441  29.283  1.00  0.00     0.058 A 
ATOM     82  C   UNL A   1      49.078  27.704  28.160  1.00  0.00     0.135 A 
ATOM     83  C   UNL A   1      48.909  26.945  30.436  1.00  0.00     0.135 A 
ATOM     84  F   UNL A   1      48.523  28.169  27.029  1.00  0.00    -0.206 F 
ATOM     85  C   UNL A   1      50.448  27.471  28.175  1.00  0.00     0.059 A 
ATOM     86  C   UNL A   1      50.283  26.734  30.483  1.00  0.00     0.059 A 
ATOM     87  F   UNL A   1      48.191  26.685  31.540  1.00  0.00    -0.206 F 
ATOM     88  C   UNL A   1      51.043  26.993  29.344  1.00  0.00     0.060 A 
BRANCH  88  89
ATOM     89  S   UNL A   1      52.831  26.742  29.359  1.00  0.00     0.124 S 
ATOM     90  O   UNL A   1      53.038  26.022  28.106  1.00  0.00    -0.237 OA
ATOM     91  O   UNL A   1      53.335  28.111  29.395  1.00  0.00    -0.237 OA
ATOM     92  O   UNL A   1      53.055  25.964  30.573  1.00  0.00    -0.744 OA
ENDBRANCH  88  89
ENDBRANCH  56  81
ENDBRANCH  30  31
ENDBRANCH  23  25
ENDBRANCH  22  23
ENDBRANCH   1  22
TORSDOF 15
ENDMDL
MODEL 3
REMARK VINA RESULT:     -10.3      6.622     11.186
REMARK SMILES Cc1cc(Cl)cc2c1O[C@H](C(F)(F)F)C(C(=O)OCCOC(=O)c1ccc(-c3c4nc(c(-c5c(F)cc(S(=O)(=O)[O-])cc5F)c5ccc([nH]5)c(-c5c(F)cc(S(=O)(=O)[O-])cc5F)c5nc(c(-c6c(F)cc(S(=O)(=O)[O-])cc6F)c6ccc3[nH]6)C=C5)C=C4)cc1)=C2
REMARK SMILES IDX 20 1 19 2 18 3 16 4 17 5 15 6 1 7 2 8 3 9 8 10 4 11 7 12
REMARK SMILES IDX 9 13 5 14 6 15 90 16 10 17 11 18 12 19 13 20 14 21 21 22
REMARK SMILES IDX 22 23 23 24 24 25 25 26 89 27 26 28 88 29 27 30 28 31 29 32
REMARK SMILES IDX 82 33 30 34 87 35 81 36 83 37 31 38 86 39 80 40 79 41 32 43
REMARK SMILES IDX 66 44 45 45 65 46 46 47 49 48 64 49 84 50 47 51 48 52 63 54
REMARK SMILES IDX 85 55 50 56 33 57 34 58 43 59 35 60 36 61 42 62 44 63 37 64
REMARK SMILES IDX 38 65 39 66 40 67 41 68 67 69 68 70 77 71 69 72 70 73 76 74
REMARK SMILES IDX 78 75 71 76 72 77 73 78 74 79 75 80 51 81 52 82 61 83 53 84
REMARK SMILES IDX 54 85 60 86 62 87 55 88 56 89 57 90 58 91 59 92
REMARK H PARENT 83 42 49 53
REMARK Flexibility Score: inf
ROOT
ATOM      1  C   UNL A   1      34.252  30.872  27.665  1.00  0.00     0.275 C 
ENDROOT
BRANCH   1   2
ATOM      2  C   UNL A   1      34.177  29.546  26.907  1.00  0.00     0.275 C 
BRANCH   2   3
ATOM      3  O   UNL A   1      33.201  29.597  25.843  1.00  0.00    -0.459 OA
BRANCH   3   4
ATOM      4  C   UNL A   1      33.298  28.615  24.919  1.00  0.00     0.338 C 
ATOM      5  O   UNL A   1      33.670  28.740  23.762  1.00  0.00    -0.246 OA
BRANCH   4   6
ATOM      6  C   UNL A   1      32.891  27.316  25.489  1.00  0.00     0.087 C 
ATOM      7  C   UNL A   1      30.244  23.132  26.945  1.00  0.00     0.048 C 
ATOM      8  C   UNL A   1      31.676  23.480  26.659  1.00  0.00    -0.007 A 
ATOM      9  C   UNL A   1      32.632  22.448  26.668  1.00  0.00     0.027 A 
ATOM     10  C   UNL A   1      32.077  24.782  26.317  1.00  0.00     0.131 A 
ATOM     11  C   UNL A   1      33.967  22.715  26.374  1.00  0.00     0.042 A 
ATOM     12  C   UNL A   1      33.416  25.035  26.013  1.00  0.00     0.019 A 
ATOM     13  O   UNL A   1      31.121  25.762  26.313  1.00  0.00    -0.475 OA
ATOM     14  Cl  UNL A   1      35.119  21.440  26.387  1.00  0.00    -0.084 Cl
ATOM     15  C   UNL A   1      34.367  24.006  26.054  1.00  0.00     0.032 A 
ATOM     16  C   UNL A   1      33.822  26.364  25.606  1.00  0.00     0.027 C 
ATOM     17  C   UNL A   1      31.439  27.072  25.764  1.00  0.00     0.316 C 
BRANCH  17  18
ATOM     18  C   UNL A   1      30.588  27.298  24.505  1.00  0.00     0.430 C 
ATOM     19  F   UNL A   1      30.359  28.618  24.295  1.00  0.00    -0.167 F 
ATOM     20  F   UNL A   1      31.211  26.838  23.392  1.00  0.00    -0.167 F 
ATOM     21  F   UNL A   1      29.385  26.686  24.579  1.00  0.00    -0.167 F 
ENDBRANCH  17  18
ENDBRANCH   4   6
ENDBRANCH   3   4
ENDBRANCH   2   3
ENDBRANCH   1   2
BRANCH   1  22
ATOM     22  O   UNL A   1      35.621  31.268  27.862  1.00  0.00    -0.458 OA
BRANCH  22  23
ATOM     23  C   UNL A   1      36.159  30.881  29.042  1.00  0.00     0.338 C 
ATOM     24  O   UNL A   1      35.703  31.068  30.156  1.00  0.00    -0.246 OA
BRANCH  23  25
ATOM     25  C   UNL A   1      37.372  30.082  28.815  1.00  0.00     0.060 A 
ATOM     26  C   UNL A   1      38.150  29.752  29.916  1.00  0.00     0.016 A 
ATOM     27  C   UNL A   1      37.858  29.868  27.529  1.00  0.00     0.016 A 
ATOM     28  C   UNL A   1      39.482  29.396  29.742  1.00  0.00     0.010 A 
ATOM     29  C   UNL A   1      39.145  29.338  27.360  1.00  0.00     0.010 A 
ATOM     30  C   UNL A   1      39.999  29.151  28.464  1.00  0.00    -0.014 A 
BRANCH  30  31
ATOM     31  C   UNL A   1      41.423  28.731  28.293  1.00  0.00     0.031 A 
ATOM     32  C   UNL A   1      42.543  29.732  28.459  1.00  0.00     0.074 A 
ATOM     33  C   UNL A   1      41.723  27.443  28.015  1.00  0.00     0.049 A 
ATOM     34  N   UNL A   1      43.812  29.609  28.165  1.00  0.00    -0.248 NA
ATOM     35  C   UNL A   1      42.188  31.051  29.013  1.00  0.00     0.031 C 
ATOM     36  C   UNL A   1      40.753  26.352  27.883  1.00  0.00     0.029 A 
ATOM     37  N   UNL A   1      42.932  26.823  27.808  1.00  0.00    -0.354 N 
ATOM     38  C   UNL A   1      44.394  30.843  28.446  1.00  0.00     0.074 A 
ATOM     39  C   UNL A   1      43.335  31.708  28.917  1.00  0.00     0.031 C 
ATOM     40  C   UNL A   1      41.403  25.197  27.686  1.00  0.00     0.029 A 
ATOM     41  C   UNL A   1      42.824  25.476  27.546  1.00  0.00     0.049 A 
ATOM     42  H   UNL A   1      43.794  27.298  27.842  1.00  0.00     0.167 HD
ATOM     43  C   UNL A   1      45.692  31.214  28.327  1.00  0.00     0.037 A 
ATOM     44  C   UNL A   1      43.750  24.568  27.179  1.00  0.00     0.037 A 
ATOM     45  C   UNL A   1      46.747  30.324  27.911  1.00  0.00     0.049 A 
ATOM     46  C   UNL A   1      45.168  25.019  26.985  1.00  0.00     0.074 A 
ATOM     47  C   UNL A   1      48.095  30.600  27.759  1.00  0.00     0.029 A 
ATOM     48  N   UNL A   1      46.579  28.981  27.602  1.00  0.00    -0.354 N 
ATOM     49  N   UNL A   1      45.686  26.207  27.183  1.00  0.00    -0.248 NA
ATOM     50  C   UNL A   1      46.122  24.018  26.494  1.00  0.00     0.031 C 
ATOM     51  C   UNL A   1      48.733  29.438  27.314  1.00  0.00     0.029 A 
ATOM     52  C   UNL A   1      47.794  28.422  27.241  1.00  0.00     0.049 A 
ATOM     53  H   UNL A   1      45.722  28.497  27.636  1.00  0.00     0.167 HD
ATOM     54  C   UNL A   1      47.031  26.092  26.853  1.00  0.00     0.074 A 
ATOM     55  C   UNL A   1      47.250  24.715  26.464  1.00  0.00     0.031 C 
ATOM     56  C   UNL A   1      47.995  27.045  26.864  1.00  0.00     0.037 A 
BRANCH  43  57
ATOM     57  C   UNL A   1      46.056  32.644  28.629  1.00  0.00     0.058 A 
ATOM     58  C   UNL A   1      46.484  33.053  29.901  1.00  0.00     0.135 A 
ATOM     59  C   UNL A   1      46.043  33.610  27.606  1.00  0.00     0.135 A 
ATOM     60  F   UNL A   1      46.502  32.179  30.920  1.00  0.00    -0.206 F 
ATOM     61  C   UNL A   1      46.872  34.366  30.153  1.00  0.00     0.059 A 
ATOM     62  C   UNL A   1      46.452  34.921  27.828  1.00  0.00     0.059 A 
ATOM     63  F   UNL A   1      45.641  33.278  26.369  1.00  0.00    -0.206 F 
ATOM     64  C   UNL A   1      46.858  35.293  29.108  1.00  0.00     0.060 A 
BRANCH  64  65
ATOM     65  S   UNL A   1      47.386  36.985  29.451  1.00  0.00     0.124 S 
ATOM     66  O   UNL A   1      46.298  37.757  28.857  1.00  0.00    -0.237 OA
ATOM     67  O   UNL A   1      47.450  37.000  30.908  1.00  0.00    -0.237 OA
ATOM     68  O   UNL A   1      48.672  37.088  28.768  1.00  0.00    -0.744 OA
ENDBRANCH  64  65
ENDBRANCH  43  57
BRANCH  44  69
ATOM     69  C   UNL A   1      43.348  23.155  26.926  1.00  0.00     0.058 A 
ATOM     70  C   UNL A   1      43.291  22.645  25.621  1.00  0.00     0.135 A 
ATOM     71  C   UNL A   1      43.041  22.280  27.982  1.00  0.00     0.135 A 
ATOM     72  F   UNL A   1      43.564  23.442  24.577  1.00  0.00    -0.206 F 
ATOM     73  C   UNL A   1      42.941  21.322  25.371  1.00  0.00     0.059 A 
ATOM     74  C   UNL A   1      42.720  20.945  27.759  1.00  0.00     0.059 A 
ATOM     75  F   UNL A   1      43.089  22.712  29.251  1.00  0.00    -0.206 F 
ATOM     76  C   UNL A   1      42.664  20.477  26.447  1.00  0.00     0.060 A 
BRANCH  76  77
ATOM     77  S   UNL A   1      42.259  18.751  26.111  1.00  0.00     0.124 S 
ATOM     78  O   UNL A   1      42.543  18.125  27.398  1.00  0.00    -0.237 OA
ATOM     79  O   UNL A   1      40.851  18.835  25.737  1.00  0.00    -0.237 OA
ATOM     80  O   UNL A   1      43.168  18.397  25.025  1.00  0.00    -0.744 OA
ENDBRANCH  76  77
ENDBRANCH  44  69
BRANCH  56  81
ATOM     81  C   UNL A   1      49.384  26.629  26.468  1.00  0.00     0.058 A 
ATOM     82  C   UNL A   1      50.245  25.993  27.373  1.00  0.00     0.135 A 
ATOM     83  C   UNL A   1      49.831  26.808  25.148  1.00  0.00     0.135 A 
ATOM     84  F   UNL A   1      49.869  25.807  28.649  1.00  0.00    -0.206 F 
ATOM     85  C   UNL A   1      51.510  25.562  26.989  1.00  0.00     0.059 A 
ATOM     86  C   UNL A   1      51.080  26.357  24.735  1.00  0.00     0.059 A 
ATOM     87  F   UNL A   1      49.041  27.404  24.241  1.00  0.00    -0.206 F 
ATOM     88  C   UNL A   1      51.915  25.742  25.665  1.00  0.00     0.060 A 
BRANCH  88  89
ATOM     89  S   UNL A   1      53.542  25.133  25.174  1.00  0.00     0.124 S 
ATOM     90  O   UNL A   1      54.415  25.830  26.113  1.00  0.00    -0.237 OA
ATOM     91  O   UNL A   1      53.409  23.694  25.381  1.00  0.00    -0.237 OA
ATOM     92  O   UNL A   1      53.657  25.553  23.781  1.00  0.00    -0.744 OA
ENDBRANCH  88  89
ENDBRANCH  56  81
ENDBRANCH  30  31
ENDBRANCH  23  25
ENDBRANCH  22  23
ENDBRANCH   1  22
TORSDOF 15
ENDMDL
