MODEL 1
REMARK VINA RESULT:     -11.7      0.000      0.000
REMARK SMILES [NH3+]Cc1c(-c2ccccc2)c(C(=O)OCCOC(=O)c2ccc(-c3c4nc(c(-c5c(F)cc(S(=O)(=O)[O-])cc5F)c5ccc([nH]5)c(-c5c(F)cc(S(=O)(=O)[O-])cc5F)c5nc(c(-c6c(F)cc(S(=O)(=O)[O-])cc6F)c6ccc3[nH]6)C=C5)C=C4)cc2)c2ccccn12
REMARK SMILES IDX 16 1 15 2 14 3 12 4 13 5 11 6 3 7 4 8 91 9 86 10 90 11 87 12
REMARK SMILES IDX 89 13 88 14 2 15 1 16 5 20 6 21 10 22 7 23 9 24 8 25 17 26
REMARK SMILES IDX 18 27 19 28 20 29 21 30 85 31 22 32 84 33 23 34 24 35 25 36
REMARK SMILES IDX 78 37 26 38 83 39 77 40 79 41 27 42 82 43 76 44 75 45 28 47
REMARK SMILES IDX 62 48 41 49 61 50 42 51 45 52 60 53 80 54 43 55 44 56 59 58
REMARK SMILES IDX 81 59 46 60 29 61 30 62 39 63 31 64 32 65 38 66 40 67 33 68
REMARK SMILES IDX 34 69 35 70 36 71 37 72 63 73 64 74 73 75 65 76 66 77 72 78
REMARK SMILES IDX 74 79 67 80 68 81 69 82 70 83 71 84 47 85 48 86 57 87 49 88
REMARK SMILES IDX 50 89 56 90 58 91 51 92 52 93 53 94 54 95 55 96
REMARK H PARENT 1 17 1 18 1 19 79 46 45 57
REMARK Flexibility Score: inf
ROOT
ATOM      1  C   UNL A   1      37.510  22.501  25.561  1.00  0.00     0.275 C 
ENDROOT
BRANCH   1   2
ATOM      2  C   UNL A   1      36.004  22.636  25.746  1.00  0.00     0.275 C 
BRANCH   2   3
ATOM      3  O   UNL A   1      35.651  24.029  25.876  1.00  0.00    -0.458 OA
BRANCH   3   4
ATOM      4  C   UNL A   1      34.733  24.488  24.975  1.00  0.00     0.341 C 
ATOM      5  O   UNL A   1      34.941  24.570  23.770  1.00  0.00    -0.246 OA
BRANCH   4   6
ATOM      6  C   UNL A   1      33.519  25.003  25.596  1.00  0.00     0.093 A 
ATOM      7  C   UNL A   1      31.309  25.435  25.937  1.00  0.00     0.086 A 
ATOM      8  C   UNL A   1      32.216  24.389  25.760  1.00  0.00     0.024 A 
ATOM      9  N   UNL A   1      32.035  26.622  26.053  1.00  0.00    -0.314 N 
ATOM     10  C   UNL A   1      33.387  26.339  25.913  1.00  0.00     0.061 A 
ATOM     11  C   UNL A   1      31.576  27.944  26.173  1.00  0.00     0.092 A 
ATOM     12  C   UNL A   1      34.314  27.427  25.926  1.00  0.00     0.027 A 
ATOM     13  C   UNL A   1      32.449  28.968  26.163  1.00  0.00     0.018 A 
ATOM     14  C   UNL A   1      33.865  28.688  26.042  1.00  0.00     0.004 A 
BRANCH   7  15
ATOM     15  C   UNL A   1      29.817  25.437  25.859  1.00  0.00     0.315 C 
BRANCH  15  16
ATOM     16  N   UNL A   1      29.242  24.598  26.897  1.00  0.00    -0.353 N 
ATOM     17  H   UNL A   1      29.545  23.634  26.761  1.00  0.00     0.344 HD
ATOM     18  H   UNL A   1      28.225  24.644  26.846  1.00  0.00     0.344 HD
ATOM     19  H   UNL A   1      29.553  24.927  27.811  1.00  0.00     0.344 HD
ENDBRANCH  15  16
ENDBRANCH   7  15
BRANCH   8  20
ATOM     20  C   UNL A   1      31.844  23.039  25.289  1.00  0.00    -0.015 A 
ATOM     21  C   UNL A   1      32.349  21.520  26.143  1.00  0.00     0.009 A 
ATOM     22  C   UNL A   1      31.650  22.979  23.535  1.00  0.00     0.009 A 
ATOM     23  C   UNL A   1      32.750  19.886  24.991  1.00  0.00     0.001 A 
ATOM     24  C   UNL A   1      31.979  21.543  22.554  1.00  0.00     0.001 A 
ATOM     25  C   UNL A   1      32.541  20.022  23.217  1.00  0.00     0.000 A 
ENDBRANCH   8  20
ENDBRANCH   4   6
ENDBRANCH   3   4
ENDBRANCH   2   3
ENDBRANCH   1   2
BRANCH   1  26
ATOM     26  O   UNL A   1      38.092  23.813  25.624  1.00  0.00    -0.458 OA
BRANCH  26  27
ATOM     27  C   UNL A   1      39.261  23.851  26.292  1.00  0.00     0.338 C 
ATOM     28  O   UNL A   1      40.159  23.024  26.272  1.00  0.00    -0.246 OA
BRANCH  27  29
ATOM     29  C   UNL A   1      39.395  25.094  27.040  1.00  0.00     0.060 A 
ATOM     30  C   UNL A   1      40.658  26.308  26.654  1.00  0.00     0.016 A 
ATOM     31  C   UNL A   1      38.668  25.116  28.633  1.00  0.00     0.016 A 
ATOM     32  C   UNL A   1      41.203  27.610  28.122  1.00  0.00     0.010 A 
ATOM     33  C   UNL A   1      39.101  26.290  29.885  1.00  0.00     0.010 A 
ATOM     34  C   UNL A   1      40.333  27.549  29.704  1.00  0.00    -0.014 A 
BRANCH  34  35
ATOM     35  C   UNL A   1      40.358  28.681  30.729  1.00  0.00     0.031 A 
ATOM     36  C   UNL A   1      41.235  28.603  31.976  1.00  0.00     0.074 A 
ATOM     37  C   UNL A   1      39.463  29.699  30.678  1.00  0.00     0.049 A 
ATOM     38  N   UNL A   1      41.184  29.313  33.081  1.00  0.00    -0.248 NA
ATOM     39  C   UNL A   1      42.274  27.563  32.008  1.00  0.00     0.031 C 
ATOM     40  C   UNL A   1      38.482  29.923  29.629  1.00  0.00     0.029 A 
ATOM     41  N   UNL A   1      39.194  30.736  31.553  1.00  0.00    -0.354 N 
ATOM     42  C   UNL A   1      42.129  28.764  33.950  1.00  0.00     0.074 A 
ATOM     43  C   UNL A   1      42.688  27.616  33.267  1.00  0.00     0.031 C 
ATOM     44  C   UNL A   1      37.741  31.001  29.879  1.00  0.00     0.029 A 
ATOM     45  C   UNL A   1      38.141  31.540  31.158  1.00  0.00     0.049 A 
ATOM     46  H   UNL A   1      39.705  30.889  32.380  1.00  0.00     0.167 HD
ATOM     47  C   UNL A   1      42.529  29.190  35.179  1.00  0.00     0.037 A 
ATOM     48  C   UNL A   1      37.517  32.591  31.723  1.00  0.00     0.037 A 
ATOM     49  C   UNL A   1      42.049  30.396  35.812  1.00  0.00     0.049 A 
ATOM     50  C   UNL A   1      38.022  33.101  33.025  1.00  0.00     0.074 A 
ATOM     51  C   UNL A   1      42.480  30.983  36.992  1.00  0.00     0.029 A 
ATOM     52  N   UNL A   1      41.047  31.215  35.310  1.00  0.00    -0.354 N 
ATOM     53  N   UNL A   1      38.948  32.584  33.794  1.00  0.00    -0.248 NA
ATOM     54  C   UNL A   1      37.431  34.346  33.527  1.00  0.00     0.031 C 
ATOM     55  C   UNL A   1      41.723  32.139  37.215  1.00  0.00     0.029 A 
ATOM     56  C   UNL A   1      40.845  32.297  36.156  1.00  0.00     0.049 A 
ATOM     57  H   UNL A   1      40.552  31.054  34.475  1.00  0.00     0.167 HD
ATOM     58  C   UNL A   1      39.073  33.454  34.863  1.00  0.00     0.074 A 
ATOM     59  C   UNL A   1      38.134  34.537  34.635  1.00  0.00     0.031 C 
ATOM     60  C   UNL A   1      39.899  33.361  35.932  1.00  0.00     0.037 A 
BRANCH  47  61
ATOM     61  C   UNL A   1      43.570  28.369  35.914  1.00  0.00     0.058 A 
ATOM     62  C   UNL A   1      43.217  27.321  36.782  1.00  0.00     0.135 A 
ATOM     63  C   UNL A   1      44.944  28.612  35.729  1.00  0.00     0.135 A 
ATOM     64  F   UNL A   1      41.924  27.028  36.995  1.00  0.00    -0.206 F 
ATOM     65  C   UNL A   1      44.174  26.596  37.487  1.00  0.00     0.059 A 
ATOM     66  C   UNL A   1      45.922  27.875  36.398  1.00  0.00     0.059 A 
ATOM     67  F   UNL A   1      45.354  29.579  34.893  1.00  0.00    -0.206 F 
ATOM     68  C   UNL A   1      45.525  26.886  37.298  1.00  0.00     0.060 A 
BRANCH  68  69
ATOM     69  S   UNL A   1      46.751  25.965  38.253  1.00  0.00     0.124 S 
ATOM     70  O   UNL A   1      45.909  24.999  38.952  1.00  0.00    -0.237 OA
ATOM     71  O   UNL A   1      47.614  25.415  37.212  1.00  0.00    -0.237 OA
ATOM     72  O   UNL A   1      47.365  26.987  39.096  1.00  0.00    -0.744 OA
ENDBRANCH  68  69
ENDBRANCH  47  61
BRANCH  48  73
ATOM     73  C   UNL A   1      36.397  33.251  30.990  1.00  0.00     0.058 A 
ATOM     74  C   UNL A   1      35.093  33.219  31.503  1.00  0.00     0.135 A 
ATOM     75  C   UNL A   1      36.631  34.042  29.851  1.00  0.00     0.135 A 
ATOM     76  F   UNL A   1      34.820  32.488  32.594  1.00  0.00    -0.206 F 
ATOM     77  C   UNL A   1      34.061  33.949  30.921  1.00  0.00     0.059 A 
ATOM     78  C   UNL A   1      35.620  34.800  29.266  1.00  0.00     0.059 A 
ATOM     79  F   UNL A   1      37.870  34.139  29.343  1.00  0.00    -0.206 F 
ATOM     80  C   UNL A   1      34.337  34.749  29.810  1.00  0.00     0.060 A 
BRANCH  80  81
ATOM     81  S   UNL A   1      33.011  35.773  29.133  1.00  0.00     0.124 S 
ATOM     82  O   UNL A   1      33.762  36.872  28.538  1.00  0.00    -0.237 OA
ATOM     83  O   UNL A   1      32.365  34.860  28.195  1.00  0.00    -0.237 OA
ATOM     84  O   UNL A   1      32.216  36.115  30.309  1.00  0.00    -0.744 OA
ENDBRANCH  80  81
ENDBRANCH  48  73
BRANCH  60  85
ATOM     85  C   UNL A   1      39.829  34.481  36.926  1.00  0.00     0.058 A 
ATOM     86  C   UNL A   1      40.629  35.626  36.796  1.00  0.00     0.135 A 
ATOM     87  C   UNL A   1      38.954  34.405  38.020  1.00  0.00     0.135 A 
ATOM     88  F   UNL A   1      41.495  35.734  35.776  1.00  0.00    -0.206 F 
ATOM     89  C   UNL A   1      40.582  36.650  37.734  1.00  0.00     0.059 A 
ATOM     90  C   UNL A   1      38.873  35.428  38.957  1.00  0.00     0.059 A 
ATOM     91  F   UNL A   1      38.171  33.327  38.188  1.00  0.00    -0.206 F 
ATOM     92  C   UNL A   1      39.702  36.541  38.812  1.00  0.00     0.060 A 
BRANCH  92  93
ATOM     93  S   UNL A   1      39.634  37.888  40.011  1.00  0.00     0.124 S 
ATOM     94  O   UNL A   1      40.969  38.462  39.882  1.00  0.00    -0.237 OA
ATOM     95  O   UNL A   1      38.539  38.707  39.499  1.00  0.00    -0.237 OA
ATOM     96  O   UNL A   1      39.360  37.206  41.272  1.00  0.00    -0.744 OA
ENDBRANCH  92  93
ENDBRANCH  60  85
ENDBRANCH  34  35
ENDBRANCH  27  29
ENDBRANCH  26  27
ENDBRANCH   1  26
TORSDOF 17
ENDMDL
MODEL 2
REMARK VINA RESULT:     -11.6      7.037     12.154
REMARK SMILES [NH3+]Cc1c(-c2ccccc2)c(C(=O)OCCOC(=O)c2ccc(-c3c4nc(c(-c5c(F)cc(S(=O)(=O)[O-])cc5F)c5ccc([nH]5)c(-c5c(F)cc(S(=O)(=O)[O-])cc5F)c5nc(c(-c6c(F)cc(S(=O)(=O)[O-])cc6F)c6ccc3[nH]6)C=C5)C=C4)cc2)c2ccccn12
REMARK SMILES IDX 16 1 15 2 14 3 12 4 13 5 11 6 3 7 4 8 91 9 86 10 90 11 87 12
REMARK SMILES IDX 89 13 88 14 2 15 1 16 5 20 6 21 10 22 7 23 9 24 8 25 17 26
REMARK SMILES IDX 18 27 19 28 20 29 21 30 85 31 22 32 84 33 23 34 24 35 25 36
REMARK SMILES IDX 78 37 26 38 83 39 77 40 79 41 27 42 82 43 76 44 75 45 28 47
REMARK SMILES IDX 62 48 41 49 61 50 42 51 45 52 60 53 80 54 43 55 44 56 59 58
REMARK SMILES IDX 81 59 46 60 29 61 30 62 39 63 31 64 32 65 38 66 40 67 33 68
REMARK SMILES IDX 34 69 35 70 36 71 37 72 63 73 64 74 73 75 65 76 66 77 72 78
REMARK SMILES IDX 74 79 67 80 68 81 69 82 70 83 71 84 47 85 48 86 57 87 49 88
REMARK SMILES IDX 50 89 56 90 58 91 51 92 52 93 53 94 54 95 55 96
REMARK H PARENT 1 17 1 18 1 19 79 46 45 57
REMARK Flexibility Score: inf
ROOT
ATOM      1  C   UNL A   1      34.048  30.412  27.238  1.00  0.00     0.275 C 
ENDROOT
BRANCH   1   2
ATOM      2  C   UNL A   1      34.164  29.416  26.091  1.00  0.00     0.275 C 
BRANCH   2   3
ATOM      3  O   UNL A   1      33.273  29.797  25.022  1.00  0.00    -0.458 OA
BRANCH   3   4
ATOM      4  C   UNL A   1      33.151  28.889  24.009  1.00  0.00     0.341 C 
ATOM      5  O   UNL A   1      33.799  28.933  22.970  1.00  0.00    -0.246 OA
BRANCH   4   6
ATOM      6  C   UNL A   1      32.074  27.928  24.218  1.00  0.00     0.093 A 
ATOM      7  C   UNL A   1      30.864  26.005  24.066  1.00  0.00     0.086 A 
ATOM      8  C   UNL A   1      32.122  26.494  24.420  1.00  0.00     0.024 A 
ATOM      9  N   UNL A   1      30.028  27.096  23.825  1.00  0.00    -0.314 N 
ATOM     10  C   UNL A   1      30.757  28.267  23.989  1.00  0.00     0.061 A 
ATOM     11  C   UNL A   1      28.697  27.124  23.376  1.00  0.00     0.092 A 
ATOM     12  C   UNL A   1      30.110  29.513  23.719  1.00  0.00     0.027 A 
ATOM     13  C   UNL A   1      28.099  28.297  23.102  1.00  0.00     0.018 A 
ATOM     14  C   UNL A   1      28.838  29.529  23.290  1.00  0.00     0.004 A 
BRANCH   7  15
ATOM     15  C   UNL A   1      30.419  24.606  23.789  1.00  0.00     0.315 C 
BRANCH  15  16
ATOM     16  N   UNL A   1      30.361  23.828  25.015  1.00  0.00    -0.353 N 
ATOM     17  H   UNL A   1      29.979  22.904  24.813  1.00  0.00     0.344 HD
ATOM     18  H   UNL A   1      29.762  24.302  25.690  1.00  0.00     0.344 HD
ATOM     19  H   UNL A   1      31.300  23.732  25.401  1.00  0.00     0.344 HD
ENDBRANCH  15  16
ENDBRANCH   7  15
BRANCH   8  20
ATOM     20  C   UNL A   1      33.353  25.677  24.446  1.00  0.00    -0.015 A 
ATOM     21  C   UNL A   1      34.019  24.846  22.977  1.00  0.00     0.009 A 
ATOM     22  C   UNL A   1      33.608  24.912  26.017  1.00  0.00     0.009 A 
ATOM     23  C   UNL A   1      34.926  23.041  23.251  1.00  0.00     0.001 A 
ATOM     24  C   UNL A   1      34.421  23.355  26.237  1.00  0.00     0.001 A 
ATOM     25  C   UNL A   1      35.056  22.396  24.916  1.00  0.00     0.000 A 
ENDBRANCH   8  20
ENDBRANCH   4   6
ENDBRANCH   3   4
ENDBRANCH   2   3
ENDBRANCH   1   2
BRANCH   1  26
ATOM     26  O   UNL A   1      34.533  29.782  28.434  1.00  0.00    -0.458 OA
BRANCH  26  27
ATOM     27  C   UNL A   1      35.395  30.545  29.133  1.00  0.00     0.338 C 
ATOM     28  O   UNL A   1      35.155  31.582  29.732  1.00  0.00    -0.246 OA
BRANCH  27  29
ATOM     29  C   UNL A   1      36.718  29.938  29.170  1.00  0.00     0.060 A 
ATOM     30  C   UNL A   1      37.590  29.645  30.710  1.00  0.00     0.016 A 
ATOM     31  C   UNL A   1      37.642  30.013  27.683  1.00  0.00     0.016 A 
ATOM     32  C   UNL A   1      39.618  29.466  30.634  1.00  0.00     0.010 A 
ATOM     33  C   UNL A   1      39.397  29.796  27.615  1.00  0.00     0.010 A 
ATOM     34  C   UNL A   1      40.434  29.516  29.023  1.00  0.00    -0.014 A 
BRANCH  34  35
ATOM     35  C   UNL A   1      41.857  29.019  28.778  1.00  0.00     0.031 A 
ATOM     36  C   UNL A   1      43.035  29.986  28.712  1.00  0.00     0.074 A 
ATOM     37  C   UNL A   1      42.102  27.735  28.414  1.00  0.00     0.049 A 
ATOM     38  N   UNL A   1      44.249  29.797  28.241  1.00  0.00    -0.248 NA
ATOM     39  C   UNL A   1      42.812  31.358  29.191  1.00  0.00     0.031 C 
ATOM     40  C   UNL A   1      41.120  26.667  28.329  1.00  0.00     0.029 A 
ATOM     41  N   UNL A   1      43.259  27.097  28.003  1.00  0.00    -0.354 N 
ATOM     42  C   UNL A   1      44.897  31.032  28.308  1.00  0.00     0.074 A 
ATOM     43  C   UNL A   1      43.918  31.978  28.800  1.00  0.00     0.031 C 
ATOM     44  C   UNL A   1      41.676  25.526  27.927  1.00  0.00     0.029 A 
ATOM     45  C   UNL A   1      43.072  25.773  27.654  1.00  0.00     0.049 A 
ATOM     46  H   UNL A   1      44.135  27.545  27.963  1.00  0.00     0.167 HD
ATOM     47  C   UNL A   1      46.191  31.348  28.031  1.00  0.00     0.037 A 
ATOM     48  C   UNL A   1      43.887  24.825  27.153  1.00  0.00     0.037 A 
ATOM     49  C   UNL A   1      47.195  30.383  27.646  1.00  0.00     0.049 A 
ATOM     50  C   UNL A   1      45.320  25.160  26.938  1.00  0.00     0.074 A 
ATOM     51  C   UNL A   1      48.556  30.577  27.467  1.00  0.00     0.029 A 
ATOM     52  N   UNL A   1      46.955  29.038  27.402  1.00  0.00    -0.354 N 
ATOM     53  N   UNL A   1      45.906  26.324  27.058  1.00  0.00    -0.248 NA
ATOM     54  C   UNL A   1      46.210  24.059  26.554  1.00  0.00     0.031 C 
ATOM     55  C   UNL A   1      49.132  29.357  27.091  1.00  0.00     0.029 A 
ATOM     56  C   UNL A   1      48.138  28.393  27.071  1.00  0.00     0.049 A 
ATOM     57  H   UNL A   1      46.073  28.603  27.456  1.00  0.00     0.167 HD
ATOM     58  C   UNL A   1      47.245  26.096  26.789  1.00  0.00     0.074 A 
ATOM     59  C   UNL A   1      47.381  24.679  26.511  1.00  0.00     0.031 C 
ATOM     60  C   UNL A   1      48.265  26.986  26.781  1.00  0.00     0.037 A 
BRANCH  47  61
ATOM     61  C   UNL A   1      46.617  32.796  28.171  1.00  0.00     0.058 A 
ATOM     62  C   UNL A   1      47.202  33.291  29.349  1.00  0.00     0.135 A 
ATOM     63  C   UNL A   1      46.465  33.700  27.104  1.00  0.00     0.135 A 
ATOM     64  F   UNL A   1      47.386  32.480  30.403  1.00  0.00    -0.206 F 
ATOM     65  C   UNL A   1      47.554  34.631  29.490  1.00  0.00     0.059 A 
ATOM     66  C   UNL A   1      46.843  35.039  27.208  1.00  0.00     0.059 A 
ATOM     67  F   UNL A   1      45.939  33.289  25.939  1.00  0.00    -0.206 F 
ATOM     68  C   UNL A   1      47.361  35.502  28.417  1.00  0.00     0.060 A 
BRANCH  68  69
ATOM     69  S   UNL A   1      47.783  37.246  28.631  1.00  0.00     0.124 S 
ATOM     70  O   UNL A   1      49.216  37.234  28.352  1.00  0.00    -0.237 OA
ATOM     71  O   UNL A   1      46.949  37.898  27.626  1.00  0.00    -0.237 OA
ATOM     72  O   UNL A   1      47.416  37.518  30.018  1.00  0.00    -0.744 OA
ENDBRANCH  68  69
ENDBRANCH  47  61
BRANCH  48  73
ATOM     73  C   UNL A   1      43.343  23.457  26.905  1.00  0.00     0.058 A 
ATOM     74  C   UNL A   1      43.129  23.002  25.597  1.00  0.00     0.135 A 
ATOM     75  C   UNL A   1      43.167  22.537  27.954  1.00  0.00     0.135 A 
ATOM     76  F   UNL A   1      43.293  23.839  24.561  1.00  0.00    -0.206 F 
ATOM     77  C   UNL A   1      42.766  21.685  25.332  1.00  0.00     0.059 A 
ATOM     78  C   UNL A   1      42.829  21.208  27.712  1.00  0.00     0.059 A 
ATOM     79  F   UNL A   1      43.399  22.911  29.222  1.00  0.00    -0.206 F 
ATOM     80  C   UNL A   1      42.631  20.790  26.396  1.00  0.00     0.060 A 
BRANCH  80  81
ATOM     81  S   UNL A   1      42.265  19.059  26.028  1.00  0.00     0.124 S 
ATOM     82  O   UNL A   1      40.832  19.111  25.766  1.00  0.00    -0.237 OA
ATOM     83  O   UNL A   1      43.116  18.805  24.870  1.00  0.00    -0.237 OA
ATOM     84  O   UNL A   1      42.659  18.365  27.250  1.00  0.00    -0.744 OA
ENDBRANCH  80  81
ENDBRANCH  48  73
BRANCH  60  85
ATOM     85  C   UNL A   1      49.625  26.436  26.478  1.00  0.00     0.058 A 
ATOM     86  C   UNL A   1      50.418  25.850  27.477  1.00  0.00     0.135 A 
ATOM     87  C   UNL A   1      50.142  26.497  25.175  1.00  0.00     0.135 A 
ATOM     88  F   UNL A   1      49.973  25.787  28.742  1.00  0.00    -0.206 F 
ATOM     89  C   UNL A   1      51.690  25.366  27.199  1.00  0.00     0.059 A 
ATOM     90  C   UNL A   1      51.402  25.997  24.869  1.00  0.00     0.059 A 
ATOM     91  F   UNL A   1      49.422  27.052  24.186  1.00  0.00    -0.206 F 
ATOM     92  C   UNL A   1      52.174  25.444  25.892  1.00  0.00     0.060 A 
BRANCH  92  93
ATOM     93  S   UNL A   1      53.818  24.791  25.539  1.00  0.00     0.124 S 
ATOM     94  O   UNL A   1      54.236  25.636  24.425  1.00  0.00    -0.237 OA
ATOM     95  O   UNL A   1      54.519  25.010  26.800  1.00  0.00    -0.237 OA
ATOM     96  O   UNL A   1      53.563  23.392  25.207  1.00  0.00    -0.744 OA
ENDBRANCH  92  93
ENDBRANCH  60  85
ENDBRANCH  34  35
ENDBRANCH  27  29
ENDBRANCH  26  27
ENDBRANCH   1  26
TORSDOF 17
ENDMDL
MODEL 3
REMARK VINA RESULT:     -11.5      1.162      2.880
REMARK SMILES [NH3+]Cc1c(-c2ccccc2)c(C(=O)OCCOC(=O)c2ccc(-c3c4nc(c(-c5c(F)cc(S(=O)(=O)[O-])cc5F)c5ccc([nH]5)c(-c5c(F)cc(S(=O)(=O)[O-])cc5F)c5nc(c(-c6c(F)cc(S(=O)(=O)[O-])cc6F)c6ccc3[nH]6)C=C5)C=C4)cc2)c2ccccn12
REMARK SMILES IDX 16 1 15 2 14 3 12 4 13 5 11 6 3 7 4 8 91 9 86 10 90 11 87 12
REMARK SMILES IDX 89 13 88 14 2 15 1 16 5 20 6 21 10 22 7 23 9 24 8 25 17 26
REMARK SMILES IDX 18 27 19 28 20 29 21 30 85 31 22 32 84 33 23 34 24 35 25 36
REMARK SMILES IDX 78 37 26 38 83 39 77 40 79 41 27 42 82 43 76 44 75 45 28 47
REMARK SMILES IDX 62 48 41 49 61 50 42 51 45 52 60 53 80 54 43 55 44 56 59 58
REMARK SMILES IDX 81 59 46 60 29 61 30 62 39 63 31 64 32 65 38 66 40 67 33 68
REMARK SMILES IDX 34 69 35 70 36 71 37 72 63 73 64 74 73 75 65 76 66 77 72 78
REMARK SMILES IDX 74 79 67 80 68 81 69 82 70 83 71 84 47 85 48 86 57 87 49 88
REMARK SMILES IDX 50 89 56 90 58 91 51 92 52 93 53 94 54 95 55 96
REMARK H PARENT 1 17 1 18 1 19 79 46 45 57
REMARK Flexibility Score: inf
ROOT
ATOM      1  C   UNL A   1      38.803  22.157  26.114  1.00  0.00     0.275 C 
ENDROOT
BRANCH   1   2
ATOM      2  C   UNL A   1      37.629  21.838  25.195  1.00  0.00     0.275 C 
BRANCH   2   3
ATOM      3  O   UNL A   1      36.832  23.023  24.994  1.00  0.00    -0.458 OA
BRANCH   3   4
ATOM      4  C   UNL A   1      36.160  23.082  23.806  1.00  0.00     0.341 C 
ATOM      5  O   UNL A   1      36.699  23.287  22.725  1.00  0.00    -0.246 OA
BRANCH   4   6
ATOM      6  C   UNL A   1      34.711  23.012  23.956  1.00  0.00     0.093 A 
ATOM      7  C   UNL A   1      32.613  23.489  24.702  1.00  0.00     0.086 A 
ATOM      8  C   UNL A   1      33.732  24.071  24.104  1.00  0.00     0.024 A 
ATOM      9  N   UNL A   1      32.822  22.109  24.761  1.00  0.00    -0.314 N 
ATOM     10  C   UNL A   1      34.076  21.821  24.239  1.00  0.00     0.061 A 
ATOM     11  C   UNL A   1      32.023  21.106  25.333  1.00  0.00     0.092 A 
ATOM     12  C   UNL A   1      34.529  20.466  24.266  1.00  0.00     0.027 A 
ATOM     13  C   UNL A   1      32.461  19.834  25.377  1.00  0.00     0.018 A 
ATOM     14  C   UNL A   1      33.757  19.513  24.816  1.00  0.00     0.004 A 
BRANCH   7  15
ATOM     15  C   UNL A   1      31.432  24.126  25.358  1.00  0.00     0.315 C 
BRANCH  15  16
ATOM     16  N   UNL A   1      30.443  24.523  24.371  1.00  0.00    -0.353 N 
ATOM     17  H   UNL A   1      30.406  23.826  23.627  1.00  0.00     0.344 HD
ATOM     18  H   UNL A   1      30.701  25.427  23.975  1.00  0.00     0.344 HD
ATOM     19  H   UNL A   1      29.528  24.595  24.816  1.00  0.00     0.344 HD
ENDBRANCH  15  16
ENDBRANCH   7  15
BRANCH   8  20
ATOM     20  C   UNL A   1      34.036  25.516  24.144  1.00  0.00    -0.015 A 
ATOM     21  C   UNL A   1      34.022  26.488  25.675  1.00  0.00     0.009 A 
ATOM     22  C   UNL A   1      33.586  26.329  22.642  1.00  0.00     0.009 A 
ATOM     23  C   UNL A   1      33.389  28.422  25.552  1.00  0.00     0.001 A 
ATOM     24  C   UNL A   1      33.063  28.017  22.552  1.00  0.00     0.001 A 
ATOM     25  C   UNL A   1      32.928  29.068  23.947  1.00  0.00     0.000 A 
ENDBRANCH   8  20
ENDBRANCH   4   6
ENDBRANCH   3   4
ENDBRANCH   2   3
ENDBRANCH   1   2
BRANCH   1  26
ATOM     26  O   UNL A   1      39.047  23.571  26.060  1.00  0.00    -0.458 OA
BRANCH  26  27
ATOM     27  C   UNL A   1      40.329  23.906  26.303  1.00  0.00     0.338 C 
ATOM     28  O   UNL A   1      41.335  23.334  25.913  1.00  0.00    -0.246 OA
BRANCH  27  29
ATOM     29  C   UNL A   1      40.410  25.141  27.071  1.00  0.00     0.060 A 
ATOM     30  C   UNL A   1      41.799  26.266  26.922  1.00  0.00     0.016 A 
ATOM     31  C   UNL A   1      39.417  25.219  28.512  1.00  0.00     0.016 A 
ATOM     32  C   UNL A   1      42.161  27.538  28.472  1.00  0.00     0.010 A 
ATOM     33  C   UNL A   1      39.699  26.368  29.828  1.00  0.00     0.010 A 
ATOM     34  C   UNL A   1      41.023  27.542  29.875  1.00  0.00    -0.014 A 
BRANCH  34  35
ATOM     35  C   UNL A   1      40.942  28.675  30.896  1.00  0.00     0.031 A 
ATOM     36  C   UNL A   1      41.784  28.659  32.168  1.00  0.00     0.074 A 
ATOM     37  C   UNL A   1      39.982  29.631  30.814  1.00  0.00     0.049 A 
ATOM     38  N   UNL A   1      41.653  29.366  33.269  1.00  0.00    -0.248 NA
ATOM     39  C   UNL A   1      42.889  27.691  32.235  1.00  0.00     0.031 C 
ATOM     40  C   UNL A   1      39.020  29.786  29.736  1.00  0.00     0.029 A 
ATOM     41  N   UNL A   1      39.617  30.649  31.676  1.00  0.00    -0.354 N 
ATOM     42  C   UNL A   1      42.606  28.884  34.168  1.00  0.00     0.074 A 
ATOM     43  C   UNL A   1      43.261  27.775  33.506  1.00  0.00     0.031 C 
ATOM     44  C   UNL A   1      38.201  30.812  29.960  1.00  0.00     0.029 A 
ATOM     45  C   UNL A   1      38.525  31.380  31.247  1.00  0.00     0.049 A 
ATOM     46  H   UNL A   1      40.093  30.837  32.518  1.00  0.00     0.167 HD
ATOM     47  C   UNL A   1      42.939  29.338  35.406  1.00  0.00     0.037 A 
ATOM     48  C   UNL A   1      37.815  32.387  31.789  1.00  0.00     0.037 A 
ATOM     49  C   UNL A   1      42.361  30.511  36.020  1.00  0.00     0.049 A 
ATOM     50  C   UNL A   1      38.246  32.933  33.104  1.00  0.00     0.074 A 
ATOM     51  C   UNL A   1      42.716  31.128  37.210  1.00  0.00     0.029 A 
ATOM     52  N   UNL A   1      41.322  31.260  35.485  1.00  0.00    -0.354 N 
ATOM     53  N   UNL A   1      39.181  32.481  33.902  1.00  0.00    -0.248 NA
ATOM     54  C   UNL A   1      37.558  34.136  33.583  1.00  0.00     0.031 C 
ATOM     55  C   UNL A   1      41.876  32.231  37.405  1.00  0.00     0.029 A 
ATOM     56  C   UNL A   1      41.021  32.327  36.320  1.00  0.00     0.049 A 
ATOM     57  H   UNL A   1      40.864  31.064  34.636  1.00  0.00     0.167 HD
ATOM     58  C   UNL A   1      39.215  33.360  34.971  1.00  0.00     0.074 A 
ATOM     59  C   UNL A   1      38.213  34.376  34.711  1.00  0.00     0.031 C 
ATOM     60  C   UNL A   1      40.013  33.325  36.064  1.00  0.00     0.037 A 
BRANCH  47  61
ATOM     61  C   UNL A   1      44.011  28.591  36.175  1.00  0.00     0.058 A 
ATOM     62  C   UNL A   1      45.350  29.017  36.193  1.00  0.00     0.135 A 
ATOM     63  C   UNL A   1      43.693  27.446  36.929  1.00  0.00     0.135 A 
ATOM     64  F   UNL A   1      45.720  30.108  35.504  1.00  0.00    -0.206 F 
ATOM     65  C   UNL A   1      46.340  28.306  36.866  1.00  0.00     0.059 A 
ATOM     66  C   UNL A   1      44.661  26.737  37.641  1.00  0.00     0.059 A 
ATOM     67  F   UNL A   1      42.429  26.999  36.980  1.00  0.00    -0.206 F 
ATOM     68  C   UNL A   1      45.989  27.159  37.580  1.00  0.00     0.060 A 
BRANCH  68  69
ATOM     69  S   UNL A   1      47.292  26.224  38.412  1.00  0.00     0.124 S 
ATOM     70  O   UNL A   1      48.474  26.646  37.667  1.00  0.00    -0.237 OA
ATOM     71  O   UNL A   1      47.203  26.712  39.784  1.00  0.00    -0.237 OA
ATOM     72  O   UNL A   1      46.892  24.834  38.217  1.00  0.00    -0.744 OA
ENDBRANCH  68  69
ENDBRANCH  47  61
BRANCH  48  73
ATOM     73  C   UNL A   1      36.676  32.969  31.021  1.00  0.00     0.058 A 
ATOM     74  C   UNL A   1      35.356  32.780  31.452  1.00  0.00     0.135 A 
ATOM     75  C   UNL A   1      36.891  33.836  29.935  1.00  0.00     0.135 A 
ATOM     76  F   UNL A   1      35.100  31.971  32.490  1.00  0.00    -0.206 F 
ATOM     77  C   UNL A   1      34.289  33.433  30.843  1.00  0.00     0.059 A 
ATOM     78  C   UNL A   1      35.841  34.519  29.325  1.00  0.00     0.059 A 
ATOM     79  F   UNL A   1      38.139  34.083  29.508  1.00  0.00    -0.206 F 
ATOM     80  C   UNL A   1      34.542  34.312  29.788  1.00  0.00     0.060 A 
BRANCH  80  81
ATOM     81  S   UNL A   1      33.157  35.232  29.079  1.00  0.00     0.124 S 
ATOM     82  O   UNL A   1      33.825  36.424  28.571  1.00  0.00    -0.237 OA
ATOM     83  O   UNL A   1      32.655  34.304  28.071  1.00  0.00    -0.237 OA
ATOM     84  O   UNL A   1      32.273  35.442  30.222  1.00  0.00    -0.744 OA
ENDBRANCH  80  81
ENDBRANCH  48  73
BRANCH  60  85
ATOM     85  C   UNL A   1      39.838  34.439  37.051  1.00  0.00     0.058 A 
ATOM     86  C   UNL A   1      40.456  35.685  36.864  1.00  0.00     0.135 A 
ATOM     87  C   UNL A   1      39.048  34.256  38.195  1.00  0.00     0.135 A 
ATOM     88  F   UNL A   1      41.237  35.899  35.795  1.00  0.00    -0.206 F 
ATOM     89  C   UNL A   1      40.315  36.707  37.795  1.00  0.00     0.059 A 
ATOM     90  C   UNL A   1      38.873  35.272  39.127  1.00  0.00     0.059 A 
ATOM     91  F   UNL A   1      38.440  33.079  38.418  1.00  0.00    -0.206 F 
ATOM     92  C   UNL A   1      39.522  36.491  38.924  1.00  0.00     0.060 A 
BRANCH  92  93
ATOM     93  S   UNL A   1      39.328  37.834  40.113  1.00  0.00     0.124 S 
ATOM     94  O   UNL A   1      39.044  37.099  41.341  1.00  0.00    -0.237 OA
ATOM     95  O   UNL A   1      40.629  38.493  40.055  1.00  0.00    -0.237 OA
ATOM     96  O   UNL A   1      38.216  38.608  39.572  1.00  0.00    -0.744 OA
ENDBRANCH  92  93
ENDBRANCH  60  85
ENDBRANCH  34  35
ENDBRANCH  27  29
ENDBRANCH  26  27
ENDBRANCH   1  26
TORSDOF 17
ENDMDL
