MODEL 1
REMARK VINA RESULT:     -11.1      0.000      0.000
REMARK SMILES CCOC[C@@H](O)C[C@]1(C(=O)OCCOC(=O)c2ccc(-c3c4nc(c(-c5c(F)cc(S(=O)(=O)[O-])cc5F)c5ccc([nH]5)c(-c5c(F)cc(S(=O)(=O)[O-])cc5F)c5nc(c(-c6c(F)cc(S(=O)(=O)[O-])cc6F)c6ccc3[nH]6)C=C5)C=C4)cc2)CCc2ccccc21
REMARK SMILES IDX 12 1 11 2 9 3 10 4 8 5 83 6 90 7 84 8 85 9 89 10 86 11 88 12
REMARK SMILES IDX 87 13 7 14 5 15 4 16 3 17 2 18 1 19 6 20 13 22 14 23 15 24
REMARK SMILES IDX 16 25 17 26 18 27 82 28 19 29 81 30 20 31 21 32 22 33 75 34
REMARK SMILES IDX 23 35 80 36 74 37 76 38 24 39 79 40 73 41 72 42 25 44 59 45
REMARK SMILES IDX 38 46 58 47 39 48 42 49 57 50 77 51 40 52 41 53 56 55 78 56
REMARK SMILES IDX 43 57 26 58 27 59 36 60 28 61 29 62 35 63 37 64 30 65 31 66
REMARK SMILES IDX 32 67 33 68 34 69 60 70 61 71 70 72 62 73 63 74 69 75 71 76
REMARK SMILES IDX 64 77 65 78 66 79 67 80 68 81 44 82 45 83 54 84 46 85 47 86
REMARK SMILES IDX 53 87 55 88 48 89 49 90 50 91 51 92 52 93
REMARK H PARENT 6 21 76 43 42 54
REMARK Flexibility Score: inf
ROOT
ATOM      1  C   UNL A   1      33.315  30.777  27.159  1.00  0.00     0.274 C 
ENDROOT
BRANCH   1   2
ATOM      2  O   UNL A   1      33.409  29.356  27.394  1.00  0.00    -0.461 OA
BRANCH   2   3
ATOM      3  C   UNL A   1      32.287  28.639  27.109  1.00  0.00     0.316 C 
ATOM      4  O   UNL A   1      31.406  28.399  27.931  1.00  0.00    -0.251 OA
BRANCH   3   5
ATOM      5  C   UNL A   1      32.247  28.098  25.661  1.00  0.00     0.096 C 
ATOM      6  C   UNL A   1      33.644  27.899  25.006  1.00  0.00     0.028 C 
ATOM      7  C   UNL A   1      31.720  26.685  25.705  1.00  0.00    -0.027 A 
ATOM      8  C   UNL A   1      34.037  26.426  25.174  1.00  0.00     0.037 C 
ATOM      9  C   UNL A   1      32.713  25.762  25.371  1.00  0.00    -0.044 A 
ATOM     10  C   UNL A   1      30.453  26.256  26.085  1.00  0.00     0.005 A 
ATOM     11  C   UNL A   1      32.440  24.405  25.334  1.00  0.00     0.004 A 
ATOM     12  C   UNL A   1      30.169  24.892  26.047  1.00  0.00     0.000 A 
ATOM     13  C   UNL A   1      31.153  23.973  25.659  1.00  0.00     0.000 A 
BRANCH   5  14
ATOM     14  C   UNL A   1      31.410  29.098  24.824  1.00  0.00     0.057 C 
BRANCH  14  15
ATOM     15  C   UNL A   1      30.894  28.737  23.420  1.00  0.00     0.141 C 
BRANCH  15  16
ATOM     16  C   UNL A   1      29.478  29.258  23.125  1.00  0.00     0.191 C 
BRANCH  16  17
ATOM     17  O   UNL A   1      29.162  29.348  21.734  1.00  0.00    -0.379 OA
BRANCH  17  18
ATOM     18  C   UNL A   1      28.522  30.545  21.283  1.00  0.00     0.157 C 
ATOM     19  C   UNL A   1      28.512  31.707  22.263  1.00  0.00     0.035 C 
ENDBRANCH  17  18
ENDBRANCH  16  17
ENDBRANCH  15  16
BRANCH  15  20
ATOM     20  O   UNL A   1      31.837  29.334  22.518  1.00  0.00    -0.391 OA
ATOM     21  H   UNL A   1      32.738  29.105  22.794  1.00  0.00     0.211 HD
ENDBRANCH  15  20
ENDBRANCH  14  15
ENDBRANCH   5  14
ENDBRANCH   3   5
ENDBRANCH   2   3
ENDBRANCH   1   2
BRANCH   1  22
ATOM     22  C   UNL A   1      34.100  31.558  28.208  1.00  0.00     0.275 C 
BRANCH  22  23
ATOM     23  O   UNL A   1      35.504  31.280  28.076  1.00  0.00    -0.458 OA
BRANCH  23  24
ATOM     24  C   UNL A   1      36.153  31.004  29.227  1.00  0.00     0.338 C 
ATOM     25  O   UNL A   1      35.840  31.374  30.354  1.00  0.00    -0.246 OA
BRANCH  24  26
ATOM     26  C   UNL A   1      37.327  30.152  28.974  1.00  0.00     0.060 A 
ATOM     27  C   UNL A   1      38.087  29.675  30.040  1.00  0.00     0.016 A 
ATOM     28  C   UNL A   1      37.774  29.972  27.667  1.00  0.00     0.016 A 
ATOM     29  C   UNL A   1      39.365  29.167  29.814  1.00  0.00     0.010 A 
ATOM     30  C   UNL A   1      39.006  29.349  27.435  1.00  0.00     0.010 A 
ATOM     31  C   UNL A   1      39.850  29.005  28.506  1.00  0.00    -0.014 A 
BRANCH  31  32
ATOM     32  C   UNL A   1      41.259  28.579  28.254  1.00  0.00     0.031 A 
ATOM     33  C   UNL A   1      42.382  29.585  28.373  1.00  0.00     0.074 A 
ATOM     34  C   UNL A   1      41.561  27.305  27.937  1.00  0.00     0.049 A 
ATOM     35  N   UNL A   1      43.634  29.480  28.006  1.00  0.00    -0.248 NA
ATOM     36  C   UNL A   1      42.041  30.891  28.960  1.00  0.00     0.031 C 
ATOM     37  C   UNL A   1      40.602  26.208  27.814  1.00  0.00     0.029 A 
ATOM     38  N   UNL A   1      42.774  26.716  27.668  1.00  0.00    -0.354 N 
ATOM     39  C   UNL A   1      44.204  30.728  28.233  1.00  0.00     0.074 A 
ATOM     40  C   UNL A   1      43.165  31.571  28.785  1.00  0.00     0.031 C 
ATOM     41  C   UNL A   1      41.264  25.073  27.540  1.00  0.00     0.029 A 
ATOM     42  C   UNL A   1      42.685  25.372  27.393  1.00  0.00     0.049 A 
ATOM     43  H   UNL A   1      43.625  27.210  27.671  1.00  0.00     0.167 HD
ATOM     44  C   UNL A   1      45.475  31.139  28.000  1.00  0.00     0.037 A 
ATOM     45  C   UNL A   1      43.631  24.482  27.037  1.00  0.00     0.037 A 
ATOM     46  C   UNL A   1      46.535  30.282  27.541  1.00  0.00     0.049 A 
ATOM     47  C   UNL A   1      45.052  24.934  26.863  1.00  0.00     0.074 A 
ATOM     48  C   UNL A   1      47.856  30.604  27.276  1.00  0.00     0.029 A 
ATOM     49  N   UNL A   1      46.405  28.920  27.314  1.00  0.00    -0.354 N 
ATOM     50  N   UNL A   1      45.552  26.139  26.993  1.00  0.00    -0.248 NA
ATOM     51  C   UNL A   1      46.033  23.910  26.480  1.00  0.00     0.031 C 
ATOM     52  C   UNL A   1      48.523  29.435  26.885  1.00  0.00     0.029 A 
ATOM     53  C   UNL A   1      47.622  28.383  26.927  1.00  0.00     0.049 A 
ATOM     54  H   UNL A   1      45.570  28.409  27.414  1.00  0.00     0.167 HD
ATOM     55  C   UNL A   1      46.905  26.022  26.694  1.00  0.00     0.074 A 
ATOM     56  C   UNL A   1      47.151  24.622  26.408  1.00  0.00     0.031 C 
ATOM     57  C   UNL A   1      47.852  26.990  26.644  1.00  0.00     0.037 A 
BRANCH  44  58
ATOM     58  C   UNL A   1      45.767  32.600  28.202  1.00  0.00     0.058 A 
ATOM     59  C   UNL A   1      46.214  33.109  29.430  1.00  0.00     0.135 A 
ATOM     60  C   UNL A   1      45.566  33.506  27.148  1.00  0.00     0.135 A 
ATOM     61  F   UNL A   1      46.403  32.288  30.474  1.00  0.00    -0.206 F 
ATOM     62  C   UNL A   1      46.410  34.475  29.621  1.00  0.00     0.059 A 
ATOM     63  C   UNL A   1      45.776  34.872  27.310  1.00  0.00     0.059 A 
ATOM     64  F   UNL A   1      45.142  33.070  25.952  1.00  0.00    -0.206 F 
ATOM     65  C   UNL A   1      46.174  35.350  28.558  1.00  0.00     0.060 A 
BRANCH  65  66
ATOM     66  S   UNL A   1      46.385  37.124  28.817  1.00  0.00     0.124 S 
ATOM     67  O   UNL A   1      45.677  37.671  27.663  1.00  0.00    -0.237 OA
ATOM     68  O   UNL A   1      45.742  37.338  30.111  1.00  0.00    -0.237 OA
ATOM     69  O   UNL A   1      47.834  37.296  28.807  1.00  0.00    -0.744 OA
ENDBRANCH  65  66
ENDBRANCH  44  58
BRANCH  45  70
ATOM     70  C   UNL A   1      43.242  23.068  26.802  1.00  0.00     0.058 A 
ATOM     71  C   UNL A   1      43.282  22.516  25.515  1.00  0.00     0.135 A 
ATOM     72  C   UNL A   1      42.895  22.227  27.870  1.00  0.00     0.135 A 
ATOM     73  F   UNL A   1      43.598  23.286  24.463  1.00  0.00    -0.206 F 
ATOM     74  C   UNL A   1      43.003  21.171  25.293  1.00  0.00     0.059 A 
ATOM     75  C   UNL A   1      42.634  20.875  27.676  1.00  0.00     0.059 A 
ATOM     76  F   UNL A   1      42.858  22.710  29.121  1.00  0.00    -0.206 F 
ATOM     77  C   UNL A   1      42.690  20.356  26.382  1.00  0.00     0.060 A 
BRANCH  77  78
ATOM     78  S   UNL A   1      42.442  18.587  26.112  1.00  0.00     0.124 S 
ATOM     79  O   UNL A   1      42.790  18.040  27.417  1.00  0.00    -0.237 OA
ATOM     80  O   UNL A   1      41.030  18.520  25.747  1.00  0.00    -0.237 OA
ATOM     81  O   UNL A   1      43.373  18.285  25.028  1.00  0.00    -0.744 OA
ENDBRANCH  77  78
ENDBRANCH  45  70
BRANCH  57  82
ATOM     82  C   UNL A   1      49.241  26.566  26.270  1.00  0.00     0.058 A 
ATOM     83  C   UNL A   1      50.098  25.972  27.210  1.00  0.00     0.135 A 
ATOM     84  C   UNL A   1      49.713  26.728  24.958  1.00  0.00     0.135 A 
ATOM     85  F   UNL A   1      49.693  25.799  28.478  1.00  0.00    -0.206 F 
ATOM     86  C   UNL A   1      51.386  25.574  26.867  1.00  0.00     0.059 A 
ATOM     87  C   UNL A   1      50.993  26.325  24.591  1.00  0.00     0.059 A 
ATOM     88  F   UNL A   1      48.928  27.286  24.022  1.00  0.00    -0.206 F 
ATOM     89  C   UNL A   1      51.827  25.760  25.556  1.00  0.00     0.060 A 
BRANCH  89  90
ATOM     90  S   UNL A   1      53.495  25.229  25.111  1.00  0.00     0.124 S 
ATOM     91  O   UNL A   1      53.427  23.797  25.380  1.00  0.00    -0.237 OA
ATOM     92  O   UNL A   1      53.586  25.607  23.705  1.00  0.00    -0.237 OA
ATOM     93  O   UNL A   1      54.344  26.000  26.015  1.00  0.00    -0.744 OA
ENDBRANCH  89  90
ENDBRANCH  57  82
ENDBRANCH  31  32
ENDBRANCH  24  26
ENDBRANCH  23  24
ENDBRANCH  22  23
ENDBRANCH   1  22
TORSDOF 20
ENDMDL
MODEL 2
REMARK VINA RESULT:     -11.1      1.569      2.784
REMARK SMILES CCOC[C@@H](O)C[C@]1(C(=O)OCCOC(=O)c2ccc(-c3c4nc(c(-c5c(F)cc(S(=O)(=O)[O-])cc5F)c5ccc([nH]5)c(-c5c(F)cc(S(=O)(=O)[O-])cc5F)c5nc(c(-c6c(F)cc(S(=O)(=O)[O-])cc6F)c6ccc3[nH]6)C=C5)C=C4)cc2)CCc2ccccc21
REMARK SMILES IDX 12 1 11 2 9 3 10 4 8 5 83 6 90 7 84 8 85 9 89 10 86 11 88 12
REMARK SMILES IDX 87 13 7 14 5 15 4 16 3 17 2 18 1 19 6 20 13 22 14 23 15 24
REMARK SMILES IDX 16 25 17 26 18 27 82 28 19 29 81 30 20 31 21 32 22 33 75 34
REMARK SMILES IDX 23 35 80 36 74 37 76 38 24 39 79 40 73 41 72 42 25 44 59 45
REMARK SMILES IDX 38 46 58 47 39 48 42 49 57 50 77 51 40 52 41 53 56 55 78 56
REMARK SMILES IDX 43 57 26 58 27 59 36 60 28 61 29 62 35 63 37 64 30 65 31 66
REMARK SMILES IDX 32 67 33 68 34 69 60 70 61 71 70 72 62 73 63 74 69 75 71 76
REMARK SMILES IDX 64 77 65 78 66 79 67 80 68 81 44 82 45 83 54 84 46 85 47 86
REMARK SMILES IDX 53 87 55 88 48 89 49 90 50 91 51 92 52 93
REMARK H PARENT 6 21 76 43 42 54
REMARK Flexibility Score: inf
ROOT
ATOM      1  C   UNL A   1      33.569  29.204  26.457  1.00  0.00     0.274 C 
ENDROOT
BRANCH   1   2
ATOM      2  O   UNL A   1      33.078  27.864  26.238  1.00  0.00    -0.461 OA
BRANCH   2   3
ATOM      3  C   UNL A   1      33.338  27.337  25.010  1.00  0.00     0.316 C 
ATOM      4  O   UNL A   1      33.933  27.944  24.121  1.00  0.00    -0.251 OA
BRANCH   3   5
ATOM      5  C   UNL A   1      32.765  25.916  24.808  1.00  0.00     0.096 C 
ATOM      6  C   UNL A   1      32.060  25.691  23.440  1.00  0.00     0.028 C 
ATOM      7  C   UNL A   1      33.924  24.954  24.722  1.00  0.00    -0.027 A 
ATOM      8  C   UNL A   1      33.072  25.040  22.489  1.00  0.00     0.037 C 
ATOM      9  C   UNL A   1      34.049  24.422  23.436  1.00  0.00    -0.044 A 
ATOM     10  C   UNL A   1      34.843  24.630  25.714  1.00  0.00     0.005 A 
ATOM     11  C   UNL A   1      35.041  23.503  23.139  1.00  0.00     0.004 A 
ATOM     12  C   UNL A   1      35.842  23.702  25.424  1.00  0.00     0.000 A 
ATOM     13  C   UNL A   1      35.931  23.130  24.148  1.00  0.00     0.000 A 
BRANCH   5  14
ATOM     14  C   UNL A   1      31.767  25.658  25.965  1.00  0.00     0.057 C 
BRANCH  14  15
ATOM     15  C   UNL A   1      30.657  24.599  25.848  1.00  0.00     0.141 C 
BRANCH  15  16
ATOM     16  C   UNL A   1      30.967  23.290  26.592  1.00  0.00     0.191 C 
BRANCH  16  17
ATOM     17  O   UNL A   1      31.102  22.148  25.743  1.00  0.00    -0.379 OA
BRANCH  17  18
ATOM     18  C   UNL A   1      32.426  21.774  25.351  1.00  0.00     0.157 C 
ATOM     19  C   UNL A   1      32.536  20.923  24.096  1.00  0.00     0.035 C 
ENDBRANCH  17  18
ENDBRANCH  16  17
ENDBRANCH  15  16
BRANCH  15  20
ATOM     20  O   UNL A   1      29.493  25.222  26.410  1.00  0.00    -0.391 OA
ATOM     21  H   UNL A   1      29.766  25.907  27.040  1.00  0.00     0.211 HD
ENDBRANCH  15  20
ENDBRANCH  14  15
ENDBRANCH   5  14
ENDBRANCH   3   5
ENDBRANCH   2   3
ENDBRANCH   1   2
BRANCH   1  22
ATOM     22  C   UNL A   1      34.439  29.270  27.708  1.00  0.00     0.275 C 
BRANCH  22  23
ATOM     23  O   UNL A   1      34.840  30.628  27.954  1.00  0.00    -0.458 OA
BRANCH  23  24
ATOM     24  C   UNL A   1      35.729  30.799  28.956  1.00  0.00     0.338 C 
ATOM     25  O   UNL A   1      35.592  31.510  29.946  1.00  0.00    -0.246 OA
BRANCH  24  26
ATOM     26  C   UNL A   1      36.934  29.984  28.731  1.00  0.00     0.060 A 
ATOM     27  C   UNL A   1      37.562  29.354  29.803  1.00  0.00     0.016 A 
ATOM     28  C   UNL A   1      37.541  29.989  27.476  1.00  0.00     0.016 A 
ATOM     29  C   UNL A   1      38.864  28.874  29.665  1.00  0.00     0.010 A 
ATOM     30  C   UNL A   1      38.798  29.398  27.311  1.00  0.00     0.010 A 
ATOM     31  C   UNL A   1      39.508  28.898  28.418  1.00  0.00    -0.014 A 
BRANCH  31  32
ATOM     32  C   UNL A   1      40.942  28.503  28.283  1.00  0.00     0.031 A 
ATOM     33  C   UNL A   1      42.029  29.530  28.507  1.00  0.00     0.074 A 
ATOM     34  C   UNL A   1      41.296  27.238  27.981  1.00  0.00     0.049 A 
ATOM     35  N   UNL A   1      43.310  29.453  28.246  1.00  0.00    -0.248 NA
ATOM     36  C   UNL A   1      41.613  30.822  29.075  1.00  0.00     0.031 C 
ATOM     37  C   UNL A   1      40.373  26.124  27.766  1.00  0.00     0.029 A 
ATOM     38  N   UNL A   1      42.539  26.677  27.811  1.00  0.00    -0.354 N 
ATOM     39  C   UNL A   1      43.833  30.709  28.533  1.00  0.00     0.074 A 
ATOM     40  C   UNL A   1      42.733  31.526  29.002  1.00  0.00     0.031 C 
ATOM     41  C   UNL A   1      41.079  25.006  27.539  1.00  0.00     0.029 A 
ATOM     42  C   UNL A   1      42.501  25.335  27.517  1.00  0.00     0.049 A 
ATOM     43  H   UNL A   1      43.376  27.187  27.891  1.00  0.00     0.167 HD
ATOM     44  C   UNL A   1      45.110  31.148  28.414  1.00  0.00     0.037 A 
ATOM     45  C   UNL A   1      43.493  24.467  27.235  1.00  0.00     0.037 A 
ATOM     46  C   UNL A   1      46.223  30.318  28.038  1.00  0.00     0.049 A 
ATOM     47  C   UNL A   1      44.914  24.949  27.187  1.00  0.00     0.074 A 
ATOM     48  C   UNL A   1      47.555  30.669  27.890  1.00  0.00     0.029 A 
ATOM     49  N   UNL A   1      46.141  28.955  27.789  1.00  0.00    -0.354 N 
ATOM     50  N   UNL A   1      45.376  26.162  27.370  1.00  0.00    -0.248 NA
ATOM     51  C   UNL A   1      45.945  23.949  26.880  1.00  0.00     0.031 C 
ATOM     52  C   UNL A   1      48.276  29.518  27.547  1.00  0.00     0.029 A 
ATOM     53  C   UNL A   1      47.398  28.448  27.502  1.00  0.00     0.049 A 
ATOM     54  H   UNL A   1      45.311  28.427  27.812  1.00  0.00     0.167 HD
ATOM     55  C   UNL A   1      46.751  26.075  27.187  1.00  0.00     0.074 A 
ATOM     56  C   UNL A   1      47.050  24.684  26.910  1.00  0.00     0.031 C 
ATOM     57  C   UNL A   1      47.679  27.063  27.226  1.00  0.00     0.037 A 
BRANCH  44  58
ATOM     58  C   UNL A   1      45.353  32.612  28.653  1.00  0.00     0.058 A 
ATOM     59  C   UNL A   1      45.691  33.116  29.917  1.00  0.00     0.135 A 
ATOM     60  C   UNL A   1      45.218  33.527  27.596  1.00  0.00     0.135 A 
ATOM     61  F   UNL A   1      45.814  32.286  30.965  1.00  0.00    -0.206 F 
ATOM     62  C   UNL A   1      45.842  34.483  30.138  1.00  0.00     0.059 A 
ATOM     63  C   UNL A   1      45.385  34.895  27.788  1.00  0.00     0.059 A 
ATOM     64  F   UNL A   1      44.899  33.097  26.366  1.00  0.00    -0.206 F 
ATOM     65  C   UNL A   1      45.672  35.366  29.069  1.00  0.00     0.060 A 
BRANCH  65  66
ATOM     66  S   UNL A   1      45.823  37.141  29.362  1.00  0.00     0.124 S 
ATOM     67  O   UNL A   1      47.192  37.391  28.921  1.00  0.00    -0.237 OA
ATOM     68  O   UNL A   1      44.775  37.697  28.512  1.00  0.00    -0.237 OA
ATOM     69  O   UNL A   1      45.591  37.265  30.798  1.00  0.00    -0.744 OA
ENDBRANCH  65  66
ENDBRANCH  44  58
BRANCH  45  70
ATOM     70  C   UNL A   1      43.155  23.049  26.954  1.00  0.00     0.058 A 
ATOM     71  C   UNL A   1      43.257  22.528  25.657  1.00  0.00     0.135 A 
ATOM     72  C   UNL A   1      42.795  22.173  27.990  1.00  0.00     0.135 A 
ATOM     73  F   UNL A   1      43.588  23.331  24.635  1.00  0.00    -0.206 F 
ATOM     74  C   UNL A   1      43.026  21.181  25.396  1.00  0.00     0.059 A 
ATOM     75  C   UNL A   1      42.580  20.819  27.756  1.00  0.00     0.059 A 
ATOM     76  F   UNL A   1      42.699  22.625  29.249  1.00  0.00    -0.206 F 
ATOM     77  C   UNL A   1      42.698  20.332  26.455  1.00  0.00     0.060 A 
BRANCH  77  78
ATOM     78  S   UNL A   1      42.513  18.564  26.136  1.00  0.00     0.124 S 
ATOM     79  O   UNL A   1      41.102  18.476  25.780  1.00  0.00    -0.237 OA
ATOM     80  O   UNL A   1      43.461  18.339  25.048  1.00  0.00    -0.237 OA
ATOM     81  O   UNL A   1      42.885  17.957  27.411  1.00  0.00    -0.744 OA
ENDBRANCH  77  78
ENDBRANCH  45  70
BRANCH  57  82
ATOM     82  C   UNL A   1      49.104  26.670  26.969  1.00  0.00     0.058 A 
ATOM     83  C   UNL A   1      49.970  26.342  28.024  1.00  0.00     0.135 A 
ATOM     84  C   UNL A   1      49.601  26.594  25.659  1.00  0.00     0.135 A 
ATOM     85  F   UNL A   1      49.541  26.404  29.294  1.00  0.00    -0.206 F 
ATOM     86  C   UNL A   1      51.291  25.974  27.789  1.00  0.00     0.059 A 
ATOM     87  C   UNL A   1      50.915  26.216  25.401  1.00  0.00     0.059 A 
ATOM     88  F   UNL A   1      48.809  26.892  24.617  1.00  0.00    -0.206 F 
ATOM     89  C   UNL A   1      51.757  25.920  26.474  1.00  0.00     0.060 A 
BRANCH  89  90
ATOM     90  S   UNL A   1      53.468  25.428  26.173  1.00  0.00     0.124 S 
ATOM     91  O   UNL A   1      53.905  26.452  25.230  1.00  0.00    -0.237 OA
ATOM     92  O   UNL A   1      54.060  25.500  27.505  1.00  0.00    -0.237 OA
ATOM     93  O   UNL A   1      53.339  24.081  25.626  1.00  0.00    -0.744 OA
ENDBRANCH  89  90
ENDBRANCH  57  82
ENDBRANCH  31  32
ENDBRANCH  24  26
ENDBRANCH  23  24
ENDBRANCH  22  23
ENDBRANCH   1  22
TORSDOF 20
ENDMDL
MODEL 3
REMARK VINA RESULT:     -10.8      5.622     11.095
REMARK SMILES CCOC[C@@H](O)C[C@]1(C(=O)OCCOC(=O)c2ccc(-c3c4nc(c(-c5c(F)cc(S(=O)(=O)[O-])cc5F)c5ccc([nH]5)c(-c5c(F)cc(S(=O)(=O)[O-])cc5F)c5nc(c(-c6c(F)cc(S(=O)(=O)[O-])cc6F)c6ccc3[nH]6)C=C5)C=C4)cc2)CCc2ccccc21
REMARK SMILES IDX 12 1 11 2 9 3 10 4 8 5 83 6 90 7 84 8 85 9 89 10 86 11 88 12
REMARK SMILES IDX 87 13 7 14 5 15 4 16 3 17 2 18 1 19 6 20 13 22 14 23 15 24
REMARK SMILES IDX 16 25 17 26 18 27 82 28 19 29 81 30 20 31 21 32 22 33 75 34
REMARK SMILES IDX 23 35 80 36 74 37 76 38 24 39 79 40 73 41 72 42 25 44 59 45
REMARK SMILES IDX 38 46 58 47 39 48 42 49 57 50 77 51 40 52 41 53 56 55 78 56
REMARK SMILES IDX 43 57 26 58 27 59 36 60 28 61 29 62 35 63 37 64 30 65 31 66
REMARK SMILES IDX 32 67 33 68 34 69 60 70 61 71 70 72 62 73 63 74 69 75 71 76
REMARK SMILES IDX 64 77 65 78 66 79 67 80 68 81 44 82 45 83 54 84 46 85 47 86
REMARK SMILES IDX 53 87 55 88 48 89 49 90 50 91 51 92 52 93
REMARK H PARENT 6 21 76 43 42 54
REMARK Flexibility Score: inf
ROOT
ATOM      1  C   UNL A   1      36.418  22.872  25.939  1.00  0.00     0.274 C 
ENDROOT
BRANCH   1   2
ATOM      2  O   UNL A   1      35.372  23.474  25.146  1.00  0.00    -0.461 OA
BRANCH   2   3
ATOM      3  C   UNL A   1      34.209  23.730  25.807  1.00  0.00     0.316 C 
ATOM      4  O   UNL A   1      33.959  23.305  26.932  1.00  0.00    -0.251 OA
BRANCH   3   5
ATOM      5  C   UNL A   1      33.198  24.563  24.986  1.00  0.00     0.096 C 
ATOM      6  C   UNL A   1      31.738  24.028  25.025  1.00  0.00     0.028 C 
ATOM      7  C   UNL A   1      33.054  25.909  25.652  1.00  0.00    -0.027 A 
ATOM      8  C   UNL A   1      30.977  24.811  26.103  1.00  0.00     0.037 C 
ATOM      9  C   UNL A   1      31.786  26.062  26.220  1.00  0.00    -0.044 A 
ATOM     10  C   UNL A   1      34.017  26.901  25.795  1.00  0.00     0.005 A 
ATOM     11  C   UNL A   1      31.434  27.233  26.870  1.00  0.00     0.004 A 
ATOM     12  C   UNL A   1      33.669  28.084  26.444  1.00  0.00     0.000 A 
ATOM     13  C   UNL A   1      32.381  28.255  26.965  1.00  0.00     0.000 A 
BRANCH   5  14
ATOM     14  C   UNL A   1      33.711  24.592  23.525  1.00  0.00     0.057 C 
BRANCH  14  15
ATOM     15  C   UNL A   1      32.760  24.861  22.344  1.00  0.00     0.141 C 
BRANCH  15  16
ATOM     16  C   UNL A   1      32.730  26.331  21.894  1.00  0.00     0.191 C 
BRANCH  16  17
ATOM     17  O   UNL A   1      31.885  27.171  22.683  1.00  0.00    -0.379 OA
BRANCH  17  18
ATOM     18  C   UNL A   1      32.236  28.555  22.773  1.00  0.00     0.157 C 
ATOM     19  C   UNL A   1      33.724  28.867  22.783  1.00  0.00     0.035 C 
ENDBRANCH  17  18
ENDBRANCH  16  17
ENDBRANCH  15  16
BRANCH  15  20
ATOM     20  O   UNL A   1      33.248  24.029  21.282  1.00  0.00    -0.391 OA
ATOM     21  H   UNL A   1      32.512  23.781  20.702  1.00  0.00     0.211 HD
ENDBRANCH  15  20
ENDBRANCH  14  15
ENDBRANCH   5  14
ENDBRANCH   3   5
ENDBRANCH   2   3
ENDBRANCH   1   2
BRANCH   1  22
ATOM     22  C   UNL A   1      37.792  23.169  25.346  1.00  0.00     0.275 C 
BRANCH  22  23
ATOM     23  O   UNL A   1      38.804  22.453  26.075  1.00  0.00    -0.458 OA
BRANCH  23  24
ATOM     24  C   UNL A   1      40.001  23.071  26.166  1.00  0.00     0.338 C 
ATOM     25  O   UNL A   1      41.073  22.660  25.735  1.00  0.00    -0.246 OA
BRANCH  24  26
ATOM     26  C   UNL A   1      39.871  24.365  26.856  1.00  0.00     0.060 A 
ATOM     27  C   UNL A   1      40.630  25.457  26.442  1.00  0.00     0.016 A 
ATOM     28  C   UNL A   1      39.121  24.443  28.029  1.00  0.00     0.016 A 
ATOM     29  C   UNL A   1      40.772  26.565  27.277  1.00  0.00     0.010 A 
ATOM     30  C   UNL A   1      39.169  25.606  28.805  1.00  0.00     0.010 A 
ATOM     31  C   UNL A   1      40.051  26.653  28.478  1.00  0.00    -0.014 A 
BRANCH  31  32
ATOM     32  C   UNL A   1      40.287  27.772  29.438  1.00  0.00     0.031 A 
ATOM     33  C   UNL A   1      41.522  27.768  30.310  1.00  0.00     0.074 A 
ATOM     34  C   UNL A   1      39.428  28.806  29.536  1.00  0.00     0.049 A 
ATOM     35  N   UNL A   1      41.816  28.524  31.338  1.00  0.00    -0.248 NA
ATOM     36  C   UNL A   1      42.550  26.762  29.997  1.00  0.00     0.031 C 
ATOM     37  C   UNL A   1      38.209  28.977  28.746  1.00  0.00     0.029 A 
ATOM     38  N   UNL A   1      39.458  29.918  30.343  1.00  0.00    -0.354 N 
ATOM     39  C   UNL A   1      43.012  28.028  31.846  1.00  0.00     0.074 A 
ATOM     40  C   UNL A   1      43.398  26.916  31.004  1.00  0.00     0.031 C 
ATOM     41  C   UNL A   1      37.633  30.145  29.073  1.00  0.00     0.029 A 
ATOM     42  C   UNL A   1      38.398  30.770  30.147  1.00  0.00     0.049 A 
ATOM     43  H   UNL A   1      40.171  30.087  31.000  1.00  0.00     0.167 HD
ATOM     44  C   UNL A   1      43.724  28.454  32.919  1.00  0.00     0.037 A 
ATOM     45  C   UNL A   1      38.059  31.913  30.776  1.00  0.00     0.037 A 
ATOM     46  C   UNL A   1      43.396  29.615  33.703  1.00  0.00     0.049 A 
ATOM     47  C   UNL A   1      38.904  32.419  31.909  1.00  0.00     0.074 A 
ATOM     48  C   UNL A   1      44.055  30.128  34.807  1.00  0.00     0.029 A 
ATOM     49  N   UNL A   1      42.334  30.469  33.440  1.00  0.00    -0.354 N 
ATOM     50  N   UNL A   1      39.980  31.884  32.434  1.00  0.00    -0.248 NA
ATOM     51  C   UNL A   1      38.480  33.674  32.544  1.00  0.00     0.031 C 
ATOM     52  C   UNL A   1      43.388  31.292  35.215  1.00  0.00     0.029 A 
ATOM     53  C   UNL A   1      42.327  31.512  34.352  1.00  0.00     0.049 A 
ATOM     54  H   UNL A   1      41.681  30.350  32.713  1.00  0.00     0.167 HD
ATOM     55  C   UNL A   1      40.355  32.730  33.472  1.00  0.00     0.074 A 
ATOM     56  C   UNL A   1      39.410  33.829  33.479  1.00  0.00     0.031 C 
ATOM     57  C   UNL A   1      41.380  32.597  34.349  1.00  0.00     0.037 A 
BRANCH  44  58
ATOM     58  C   UNL A   1      44.908  27.622  33.325  1.00  0.00     0.058 A 
ATOM     59  C   UNL A   1      46.181  27.813  32.768  1.00  0.00     0.135 A 
ATOM     60  C   UNL A   1      44.752  26.598  34.273  1.00  0.00     0.135 A 
ATOM     61  F   UNL A   1      46.379  28.766  31.845  1.00  0.00    -0.206 F 
ATOM     62  C   UNL A   1      47.251  26.986  33.103  1.00  0.00     0.059 A 
ATOM     63  C   UNL A   1      45.811  25.773  34.638  1.00  0.00     0.059 A 
ATOM     64  F   UNL A   1      43.555  26.375  34.838  1.00  0.00    -0.206 F 
ATOM     65  C   UNL A   1      47.052  25.959  34.028  1.00  0.00     0.060 A 
BRANCH  65  66
ATOM     66  S   UNL A   1      48.426  24.859  34.429  1.00  0.00     0.124 S 
ATOM     67  O   UNL A   1      48.724  25.257  35.802  1.00  0.00    -0.237 OA
ATOM     68  O   UNL A   1      47.833  23.534  34.271  1.00  0.00    -0.237 OA
ATOM     69  O   UNL A   1      49.437  25.210  33.438  1.00  0.00    -0.744 OA
ENDBRANCH  65  66
ENDBRANCH  44  58
BRANCH  45  70
ATOM     70  C   UNL A   1      36.839  32.641  30.345  1.00  0.00     0.058 A 
ATOM     71  C   UNL A   1      35.633  32.501  31.045  1.00  0.00     0.135 A 
ATOM     72  C   UNL A   1      36.876  33.543  29.270  1.00  0.00     0.135 A 
ATOM     73  F   UNL A   1      35.549  31.643  32.072  1.00  0.00    -0.206 F 
ATOM     74  C   UNL A   1      34.506  33.242  30.704  1.00  0.00     0.059 A 
ATOM     75  C   UNL A   1      35.769  34.309  28.925  1.00  0.00     0.059 A 
ATOM     76  F   UNL A   1      38.013  33.718  28.580  1.00  0.00    -0.206 F 
ATOM     77  C   UNL A   1      34.587  34.152  29.649  1.00  0.00     0.060 A 
BRANCH  77  78
ATOM     78  S   UNL A   1      33.161  35.198  29.280  1.00  0.00     0.124 S 
ATOM     79  O   UNL A   1      32.479  34.413  28.258  1.00  0.00    -0.237 OA
ATOM     80  O   UNL A   1      32.490  35.281  30.574  1.00  0.00    -0.237 OA
ATOM     81  O   UNL A   1      33.773  36.442  28.823  1.00  0.00    -0.744 OA
ENDBRANCH  77  78
ENDBRANCH  45  70
BRANCH  57  82
ATOM     82  C   UNL A   1      41.532  33.670  35.386  1.00  0.00     0.058 A 
ATOM     83  C   UNL A   1      40.851  33.600  36.611  1.00  0.00     0.135 A 
ATOM     84  C   UNL A   1      42.384  34.763  35.167  1.00  0.00     0.135 A 
ATOM     85  F   UNL A   1      40.022  32.575  36.865  1.00  0.00    -0.206 F 
ATOM     86  C   UNL A   1      40.992  34.591  37.577  1.00  0.00     0.059 A 
ATOM     87  C   UNL A   1      42.550  35.759  36.124  1.00  0.00     0.059 A 
ATOM     88  F   UNL A   1      43.062  34.872  34.013  1.00  0.00    -0.206 F 
ATOM     89  C   UNL A   1      41.839  35.671  37.322  1.00  0.00     0.060 A 
BRANCH  89  90
ATOM     90  S   UNL A   1      42.030  36.948  38.584  1.00  0.00     0.124 S 
ATOM     91  O   UNL A   1      42.978  37.854  37.943  1.00  0.00    -0.237 OA
ATOM     92  O   UNL A   1      40.671  37.456  38.733  1.00  0.00    -0.237 OA
ATOM     93  O   UNL A   1      42.545  36.210  39.734  1.00  0.00    -0.744 OA
ENDBRANCH  89  90
ENDBRANCH  57  82
ENDBRANCH  31  32
ENDBRANCH  24  26
ENDBRANCH  23  24
ENDBRANCH  22  23
ENDBRANCH   1  22
TORSDOF 20
ENDMDL
