MODEL 1
REMARK VINA RESULT:     -11.4      0.000      0.000
REMARK SMILES Cc1ccc(OCCn2ccnc2)c(/C=C/C(=O)OCCOC(=O)c2ccc(-c3c4nc(c(-c5c(F)cc(S(=O)(=O)[O-])cc5F)c5ccc([nH]5)c(-c5c(F)cc(S(=O)(=O)[O-])cc5F)c5nc(c(-c6c(F)cc(S(=O)(=O)[O-])cc6F)c6ccc3[nH]6)C=C5)C=C4)cc2)n1
REMARK SMILES IDX 20 1 19 2 17 3 18 4 16 5 15 6 14 7 1 8 2 9 3 10 91 11 4 12
REMARK SMILES IDX 5 13 6 14 7 15 8 16 9 17 10 18 13 19 11 20 12 21 21 22 22 23
REMARK SMILES IDX 23 24 24 25 25 26 26 27 90 28 27 29 89 30 28 31 29 32 30 33
REMARK SMILES IDX 83 34 31 35 88 36 82 37 84 38 32 39 87 40 81 41 80 42 33 44
REMARK SMILES IDX 67 45 46 46 66 47 47 48 50 49 65 50 85 51 48 52 49 53 64 55
REMARK SMILES IDX 86 56 51 57 34 58 35 59 44 60 36 61 37 62 43 63 45 64 38 65
REMARK SMILES IDX 39 66 40 67 41 68 42 69 68 70 69 71 78 72 70 73 71 74 77 75
REMARK SMILES IDX 79 76 72 77 73 78 74 79 75 80 76 81 52 82 53 83 62 84 54 85
REMARK SMILES IDX 55 86 61 87 63 88 56 89 57 90 58 91 59 92 60 93
REMARK H PARENT 84 43 50 54
REMARK Flexibility Score: inf
ROOT
ATOM      1  C   UNL A   1      32.248  29.594  25.534  1.00  0.00     0.275 C 
ENDROOT
BRANCH   1   2
ATOM      2  O   UNL A   1      33.347  28.670  25.531  1.00  0.00    -0.459 OA
BRANCH   2   3
ATOM      3  C   UNL A   1      33.020  27.374  25.782  1.00  0.00     0.330 C 
ATOM      4  O   UNL A   1      32.059  26.987  26.415  1.00  0.00    -0.247 OA
BRANCH   3   5
ATOM      5  C   UNL A   1      33.952  26.438  25.116  1.00  0.00     0.096 C 
ATOM      6  C   UNL A   1      34.130  25.153  25.461  1.00  0.00     0.040 C 
BRANCH   6   7
ATOM      7  C   UNL A   1      35.173  24.297  24.868  1.00  0.00     0.105 A 
ATOM      8  C   UNL A   1      38.277  22.784  26.157  1.00  0.00     0.067 C 
ATOM      9  C   UNL A   1      37.137  23.098  25.239  1.00  0.00     0.038 A 
ATOM     10  C   UNL A   1      37.054  22.510  23.987  1.00  0.00     0.027 A 
ATOM     11  N   UNL A   1      36.196  23.955  25.697  1.00  0.00    -0.250 NA
ATOM     12  C   UNL A   1      36.023  22.888  23.132  1.00  0.00     0.050 A 
ATOM     13  C   UNL A   1      35.101  23.852  23.540  1.00  0.00     0.145 A 
BRANCH  13  14
ATOM     14  O   UNL A   1      34.154  24.398  22.714  1.00  0.00    -0.489 OA
BRANCH  14  15
ATOM     15  C   UNL A   1      33.032  23.579  22.358  1.00  0.00     0.251 C 
BRANCH  15  16
ATOM     16  C   UNL A   1      31.738  23.928  23.109  1.00  0.00     0.164 C 
BRANCH  16  17
ATOM     17  N   UNL A   1      31.251  25.274  22.878  1.00  0.00    -0.334 N 
ATOM     18  C   UNL A   1      30.374  25.964  23.668  1.00  0.00     0.107 A 
ATOM     19  C   UNL A   1      31.579  26.081  21.825  1.00  0.00     0.199 A 
ATOM     20  C   UNL A   1      30.285  27.211  23.093  1.00  0.00     0.130 A 
ATOM     21  N   UNL A   1      31.023  27.266  21.939  1.00  0.00    -0.245 NA
ENDBRANCH  16  17
ENDBRANCH  15  16
ENDBRANCH  14  15
ENDBRANCH  13  14
ENDBRANCH   6   7
ENDBRANCH   3   5
ENDBRANCH   2   3
ENDBRANCH   1   2
BRANCH   1  22
ATOM     22  C   UNL A   1      32.355  30.568  26.699  1.00  0.00     0.275 C 
BRANCH  22  23
ATOM     23  O   UNL A   1      33.505  30.328  27.512  1.00  0.00    -0.458 OA
BRANCH  23  24
ATOM     24  C   UNL A   1      34.174  31.446  27.876  1.00  0.00     0.338 C 
ATOM     25  O   UNL A   1      33.746  32.590  27.873  1.00  0.00    -0.246 OA
BRANCH  24  26
ATOM     26  C   UNL A   1      35.598  31.129  28.047  1.00  0.00     0.060 A 
ATOM     27  C   UNL A   1      35.990  29.788  27.984  1.00  0.00     0.016 A 
ATOM     28  C   UNL A   1      36.488  32.128  28.467  1.00  0.00     0.016 A 
ATOM     29  C   UNL A   1      37.263  29.438  28.399  1.00  0.00     0.010 A 
ATOM     30  C   UNL A   1      37.749  31.777  28.899  1.00  0.00     0.010 A 
ATOM     31  C   UNL A   1      38.121  30.432  28.885  1.00  0.00    -0.014 A 
BRANCH  31  32
ATOM     32  C   UNL A   1      39.505  30.076  29.175  1.00  0.00     0.031 A 
ATOM     33  C   UNL A   1      39.804  30.067  30.635  1.00  0.00     0.074 A 
ATOM     34  C   UNL A   1      40.340  29.599  28.229  1.00  0.00     0.049 A 
ATOM     35  N   UNL A   1      40.727  30.709  31.271  1.00  0.00    -0.248 NA
ATOM     36  C   UNL A   1      38.862  29.353  31.520  1.00  0.00     0.031 C 
ATOM     37  C   UNL A   1      39.987  29.295  26.838  1.00  0.00     0.029 A 
ATOM     38  N   UNL A   1      41.625  29.148  28.327  1.00  0.00    -0.354 N 
ATOM     39  C   UNL A   1      40.627  30.284  32.596  1.00  0.00     0.074 A 
ATOM     40  C   UNL A   1      39.359  29.627  32.725  1.00  0.00     0.031 C 
ATOM     41  C   UNL A   1      40.941  28.507  26.300  1.00  0.00     0.029 A 
ATOM     42  C   UNL A   1      42.016  28.334  27.263  1.00  0.00     0.049 A 
ATOM     43  H   UNL A   1      42.221  29.375  29.077  1.00  0.00     0.167 HD
ATOM     44  C   UNL A   1      41.727  30.228  33.393  1.00  0.00     0.037 A 
ATOM     45  C   UNL A   1      43.095  27.512  27.211  1.00  0.00     0.037 A 
ATOM     46  C   UNL A   1      42.775  31.066  32.877  1.00  0.00     0.049 A 
ATOM     47  C   UNL A   1      44.050  27.963  28.253  1.00  0.00     0.074 A 
ATOM     48  C   UNL A   1      42.957  32.419  32.688  1.00  0.00     0.029 A 
ATOM     49  N   UNL A   1      43.716  30.418  32.122  1.00  0.00    -0.354 N 
ATOM     50  N   UNL A   1      44.691  29.099  28.224  1.00  0.00    -0.248 NA
ATOM     51  C   UNL A   1      44.068  27.273  29.538  1.00  0.00     0.031 C 
ATOM     52  C   UNL A   1      43.850  32.539  31.584  1.00  0.00     0.029 A 
ATOM     53  C   UNL A   1      44.212  31.258  31.163  1.00  0.00     0.049 A 
ATOM     54  H   UNL A   1      43.995  29.483  32.250  1.00  0.00     0.167 HD
ATOM     55  C   UNL A   1      44.814  29.463  29.552  1.00  0.00     0.074 A 
ATOM     56  C   UNL A   1      44.577  28.240  30.305  1.00  0.00     0.031 C 
ATOM     57  C   UNL A   1      44.781  30.775  29.921  1.00  0.00     0.037 A 
BRANCH  44  58
ATOM     58  C   UNL A   1      42.031  29.065  34.324  1.00  0.00     0.058 A 
ATOM     59  C   UNL A   1      42.233  27.784  33.767  1.00  0.00     0.135 A 
ATOM     60  C   UNL A   1      41.817  29.085  35.722  1.00  0.00     0.135 A 
ATOM     61  F   UNL A   1      42.442  27.637  32.449  1.00  0.00    -0.206 F 
ATOM     62  C   UNL A   1      42.139  26.613  34.523  1.00  0.00     0.059 A 
ATOM     63  C   UNL A   1      41.772  27.935  36.502  1.00  0.00     0.059 A 
ATOM     64  F   UNL A   1      41.540  30.207  36.396  1.00  0.00    -0.206 F 
ATOM     65  C   UNL A   1      41.890  26.701  35.888  1.00  0.00     0.060 A 
BRANCH  65  66
ATOM     66  S   UNL A   1      41.672  25.197  36.855  1.00  0.00     0.124 S 
ATOM     67  O   UNL A   1      40.649  25.612  37.807  1.00  0.00    -0.237 OA
ATOM     68  O   UNL A   1      41.252  24.243  35.835  1.00  0.00    -0.237 OA
ATOM     69  O   UNL A   1      43.001  24.964  37.413  1.00  0.00    -0.744 OA
ENDBRANCH  65  66
ENDBRANCH  44  58
BRANCH  45  70
ATOM     70  C   UNL A   1      43.252  26.206  26.507  1.00  0.00     0.058 A 
ATOM     71  C   UNL A   1      44.231  26.032  25.510  1.00  0.00     0.135 A 
ATOM     72  C   UNL A   1      42.641  25.026  26.978  1.00  0.00     0.135 A 
ATOM     73  F   UNL A   1      44.878  27.094  25.006  1.00  0.00    -0.206 F 
ATOM     74  C   UNL A   1      44.626  24.768  25.058  1.00  0.00     0.059 A 
ATOM     75  C   UNL A   1      43.003  23.757  26.528  1.00  0.00     0.059 A 
ATOM     76  F   UNL A   1      41.734  25.057  27.965  1.00  0.00    -0.206 F 
ATOM     77  C   UNL A   1      44.020  23.632  25.591  1.00  0.00     0.060 A 
BRANCH  77  78
ATOM     78  S   UNL A   1      44.653  21.995  25.157  1.00  0.00     0.124 S 
ATOM     79  O   UNL A   1      44.522  21.995  23.705  1.00  0.00    -0.237 OA
ATOM     80  O   UNL A   1      46.016  22.042  25.676  1.00  0.00    -0.237 OA
ATOM     81  O   UNL A   1      43.753  21.085  25.864  1.00  0.00    -0.744 OA
ENDBRANCH  77  78
ENDBRANCH  45  70
BRANCH  57  82
ATOM     82  C   UNL A   1      45.205  31.804  28.916  1.00  0.00     0.058 A 
ATOM     83  C   UNL A   1      46.529  32.180  28.640  1.00  0.00     0.135 A 
ATOM     84  C   UNL A   1      44.195  32.354  28.108  1.00  0.00     0.135 A 
ATOM     85  F   UNL A   1      47.557  31.635  29.307  1.00  0.00    -0.206 F 
ATOM     86  C   UNL A   1      46.830  33.087  27.622  1.00  0.00     0.059 A 
ATOM     87  C   UNL A   1      44.475  33.230  27.067  1.00  0.00     0.059 A 
ATOM     88  F   UNL A   1      42.913  31.997  28.295  1.00  0.00    -0.206 F 
ATOM     89  C   UNL A   1      45.796  33.603  26.838  1.00  0.00     0.060 A 
BRANCH  89  90
ATOM     90  S   UNL A   1      46.190  34.707  25.465  1.00  0.00     0.124 S 
ATOM     91  O   UNL A   1      45.251  34.267  24.439  1.00  0.00    -0.237 OA
ATOM     92  O   UNL A   1      45.933  36.027  26.037  1.00  0.00    -0.237 OA
ATOM     93  O   UNL A   1      47.597  34.423  25.189  1.00  0.00    -0.744 OA
ENDBRANCH  89  90
ENDBRANCH  57  82
ENDBRANCH  31  32
ENDBRANCH  24  26
ENDBRANCH  23  24
ENDBRANCH  22  23
ENDBRANCH   1  22
TORSDOF 19
ENDMDL
MODEL 2
REMARK VINA RESULT:     -11.4      1.900      2.580
REMARK SMILES Cc1ccc(OCCn2ccnc2)c(/C=C/C(=O)OCCOC(=O)c2ccc(-c3c4nc(c(-c5c(F)cc(S(=O)(=O)[O-])cc5F)c5ccc([nH]5)c(-c5c(F)cc(S(=O)(=O)[O-])cc5F)c5nc(c(-c6c(F)cc(S(=O)(=O)[O-])cc6F)c6ccc3[nH]6)C=C5)C=C4)cc2)n1
REMARK SMILES IDX 20 1 19 2 17 3 18 4 16 5 15 6 14 7 1 8 2 9 3 10 91 11 4 12
REMARK SMILES IDX 5 13 6 14 7 15 8 16 9 17 10 18 13 19 11 20 12 21 21 22 22 23
REMARK SMILES IDX 23 24 24 25 25 26 26 27 90 28 27 29 89 30 28 31 29 32 30 33
REMARK SMILES IDX 83 34 31 35 88 36 82 37 84 38 32 39 87 40 81 41 80 42 33 44
REMARK SMILES IDX 67 45 46 46 66 47 47 48 50 49 65 50 85 51 48 52 49 53 64 55
REMARK SMILES IDX 86 56 51 57 34 58 35 59 44 60 36 61 37 62 43 63 45 64 38 65
REMARK SMILES IDX 39 66 40 67 41 68 42 69 68 70 69 71 78 72 70 73 71 74 77 75
REMARK SMILES IDX 79 76 72 77 73 78 74 79 75 80 76 81 52 82 53 83 62 84 54 85
REMARK SMILES IDX 55 86 61 87 63 88 56 89 57 90 58 91 59 92 60 93
REMARK H PARENT 84 43 50 54
REMARK Flexibility Score: inf
ROOT
ATOM      1  C   UNL A   1      31.662  29.120  25.933  1.00  0.00     0.275 C 
ENDROOT
BRANCH   1   2
ATOM      2  O   UNL A   1      32.654  28.102  25.732  1.00  0.00    -0.459 OA
BRANCH   2   3
ATOM      3  C   UNL A   1      32.214  26.822  25.876  1.00  0.00     0.330 C 
ATOM      4  O   UNL A   1      31.058  26.472  25.999  1.00  0.00    -0.247 OA
BRANCH   3   5
ATOM      5  C   UNL A   1      33.327  25.851  25.790  1.00  0.00     0.096 C 
ATOM      6  C   UNL A   1      33.226  24.607  25.297  1.00  0.00     0.040 C 
BRANCH   6   7
ATOM      7  C   UNL A   1      34.321  23.622  25.367  1.00  0.00     0.105 A 
ATOM      8  C   UNL A   1      37.940  23.865  26.018  1.00  0.00     0.067 C 
ATOM      9  C   UNL A   1      36.585  23.270  25.789  1.00  0.00     0.038 A 
ATOM     10  C   UNL A   1      36.409  21.895  25.774  1.00  0.00     0.027 A 
ATOM     11  N   UNL A   1      35.556  24.131  25.624  1.00  0.00    -0.250 NA
ATOM     12  C   UNL A   1      35.149  21.382  25.480  1.00  0.00     0.050 A 
ATOM     13  C   UNL A   1      34.094  22.249  25.198  1.00  0.00     0.145 A 
BRANCH  13  14
ATOM     14  O   UNL A   1      32.869  21.835  24.745  1.00  0.00    -0.489 OA
BRANCH  14  15
ATOM     15  C   UNL A   1      32.457  20.500  25.072  1.00  0.00     0.251 C 
BRANCH  15  16
ATOM     16  C   UNL A   1      32.471  19.531  23.881  1.00  0.00     0.164 C 
BRANCH  16  17
ATOM     17  N   UNL A   1      32.898  18.183  24.204  1.00  0.00    -0.334 N 
ATOM     18  C   UNL A   1      32.640  17.508  25.365  1.00  0.00     0.107 A 
ATOM     19  C   UNL A   1      33.639  17.359  23.405  1.00  0.00     0.199 A 
ATOM     20  C   UNL A   1      33.168  16.253  25.170  1.00  0.00     0.130 A 
ATOM     21  N   UNL A   1      33.802  16.177  23.956  1.00  0.00    -0.245 NA
ENDBRANCH  16  17
ENDBRANCH  15  16
ENDBRANCH  14  15
ENDBRANCH  13  14
ENDBRANCH   6   7
ENDBRANCH   3   5
ENDBRANCH   2   3
ENDBRANCH   1   2
BRANCH   1  22
ATOM     22  C   UNL A   1      32.244  30.312  26.680  1.00  0.00     0.275 C 
BRANCH  22  23
ATOM     23  O   UNL A   1      33.581  30.081  27.127  1.00  0.00    -0.458 OA
BRANCH  23  24
ATOM     24  C   UNL A   1      34.178  31.161  27.682  1.00  0.00     0.338 C 
ATOM     25  O   UNL A   1      33.693  32.272  27.827  1.00  0.00    -0.246 OA
BRANCH  24  26
ATOM     26  C   UNL A   1      35.607  30.884  27.874  1.00  0.00     0.060 A 
ATOM     27  C   UNL A   1      36.045  29.559  27.772  1.00  0.00     0.016 A 
ATOM     28  C   UNL A   1      36.454  31.895  28.349  1.00  0.00     0.016 A 
ATOM     29  C   UNL A   1      37.320  29.236  28.203  1.00  0.00     0.010 A 
ATOM     30  C   UNL A   1      37.717  31.571  28.796  1.00  0.00     0.010 A 
ATOM     31  C   UNL A   1      38.134  30.239  28.742  1.00  0.00    -0.014 A 
BRANCH  31  32
ATOM     32  C   UNL A   1      39.523  29.918  29.050  1.00  0.00     0.031 A 
ATOM     33  C   UNL A   1      39.802  29.911  30.513  1.00  0.00     0.074 A 
ATOM     34  C   UNL A   1      40.382  29.467  28.114  1.00  0.00     0.049 A 
ATOM     35  N   UNL A   1      40.699  30.575  31.165  1.00  0.00    -0.248 NA
ATOM     36  C   UNL A   1      38.867  29.169  31.383  1.00  0.00     0.031 C 
ATOM     37  C   UNL A   1      40.057  29.160  26.717  1.00  0.00     0.029 A 
ATOM     38  N   UNL A   1      41.678  29.049  28.228  1.00  0.00    -0.354 N 
ATOM     39  C   UNL A   1      40.592  30.141  32.487  1.00  0.00     0.074 A 
ATOM     40  C   UNL A   1      39.340  29.451  32.595  1.00  0.00     0.031 C 
ATOM     41  C   UNL A   1      41.038  28.399  26.189  1.00  0.00     0.029 A 
ATOM     42  C   UNL A   1      42.104  28.251  27.167  1.00  0.00     0.049 A 
ATOM     43  H   UNL A   1      42.257  29.289  28.987  1.00  0.00     0.167 HD
ATOM     44  C   UNL A   1      41.682  30.111  33.299  1.00  0.00     0.037 A 
ATOM     45  C   UNL A   1      43.205  27.457  27.126  1.00  0.00     0.037 A 
ATOM     46  C   UNL A   1      42.714  30.979  32.801  1.00  0.00     0.049 A 
ATOM     47  C   UNL A   1      44.134  27.928  28.183  1.00  0.00     0.074 A 
ATOM     48  C   UNL A   1      42.864  32.336  32.619  1.00  0.00     0.029 A 
ATOM     49  N   UNL A   1      43.683  30.358  32.056  1.00  0.00    -0.354 N 
ATOM     50  N   UNL A   1      44.745  29.081  28.167  1.00  0.00    -0.248 NA
ATOM     51  C   UNL A   1      44.152  27.234  29.465  1.00  0.00     0.031 C 
ATOM     52  C   UNL A   1      43.768  32.484  31.528  1.00  0.00     0.029 A 
ATOM     53  C   UNL A   1      44.169  31.215  31.107  1.00  0.00     0.049 A 
ATOM     54  H   UNL A   1      43.984  29.430  32.185  1.00  0.00     0.167 HD
ATOM     55  C   UNL A   1      44.840  29.443  29.498  1.00  0.00     0.074 A 
ATOM     56  C   UNL A   1      44.625  28.210  30.243  1.00  0.00     0.031 C 
ATOM     57  C   UNL A   1      44.768  30.751  29.872  1.00  0.00     0.037 A 
BRANCH  44  58
ATOM     58  C   UNL A   1      42.004  28.953  34.230  1.00  0.00     0.058 A 
ATOM     59  C   UNL A   1      42.176  27.665  33.677  1.00  0.00     0.135 A 
ATOM     60  C   UNL A   1      41.833  28.986  35.633  1.00  0.00     0.135 A 
ATOM     61  F   UNL A   1      42.343  27.506  32.355  1.00  0.00    -0.206 F 
ATOM     62  C   UNL A   1      42.095  26.501  34.445  1.00  0.00     0.059 A 
ATOM     63  C   UNL A   1      41.800  27.843  36.423  1.00  0.00     0.059 A 
ATOM     64  F   UNL A   1      41.587  30.116  36.306  1.00  0.00    -0.206 F 
ATOM     65  C   UNL A   1      41.889  26.602  35.817  1.00  0.00     0.060 A 
BRANCH  65  66
ATOM     66  S   UNL A   1      41.686  25.109  36.802  1.00  0.00     0.124 S 
ATOM     67  O   UNL A   1      41.597  24.088  35.765  1.00  0.00    -0.237 OA
ATOM     68  O   UNL A   1      42.906  25.108  37.602  1.00  0.00    -0.237 OA
ATOM     69  O   UNL A   1      40.456  25.365  37.546  1.00  0.00    -0.744 OA
ENDBRANCH  65  66
ENDBRANCH  44  58
BRANCH  45  70
ATOM     70  C   UNL A   1      43.405  26.158  26.420  1.00  0.00     0.058 A 
ATOM     71  C   UNL A   1      44.516  25.954  25.578  1.00  0.00     0.135 A 
ATOM     72  C   UNL A   1      42.674  25.002  26.761  1.00  0.00     0.135 A 
ATOM     73  F   UNL A   1      45.282  26.991  25.207  1.00  0.00    -0.206 F 
ATOM     74  C   UNL A   1      44.915  24.680  25.158  1.00  0.00     0.059 A 
ATOM     75  C   UNL A   1      43.040  23.725  26.337  1.00  0.00     0.059 A 
ATOM     76  F   UNL A   1      41.630  25.061  27.599  1.00  0.00    -0.206 F 
ATOM     77  C   UNL A   1      44.182  23.567  25.563  1.00  0.00     0.060 A 
BRANCH  77  78
ATOM     78  S   UNL A   1      44.795  21.907  25.186  1.00  0.00     0.124 S 
ATOM     79  O   UNL A   1      44.691  21.869  23.732  1.00  0.00    -0.237 OA
ATOM     80  O   UNL A   1      46.149  21.948  25.730  1.00  0.00    -0.237 OA
ATOM     81  O   UNL A   1      43.867  21.033  25.900  1.00  0.00    -0.744 OA
ENDBRANCH  77  78
ENDBRANCH  45  70
BRANCH  57  82
ATOM     82  C   UNL A   1      45.178  31.796  28.876  1.00  0.00     0.058 A 
ATOM     83  C   UNL A   1      46.500  32.137  28.549  1.00  0.00     0.135 A 
ATOM     84  C   UNL A   1      44.151  32.400  28.131  1.00  0.00     0.135 A 
ATOM     85  F   UNL A   1      47.540  31.542  29.152  1.00  0.00    -0.206 F 
ATOM     86  C   UNL A   1      46.783  33.064  27.543  1.00  0.00     0.059 A 
ATOM     87  C   UNL A   1      44.412  33.296  27.103  1.00  0.00     0.059 A 
ATOM     88  F   UNL A   1      42.868  32.077  28.369  1.00  0.00    -0.206 F 
ATOM     89  C   UNL A   1      45.732  33.634  26.822  1.00  0.00     0.060 A 
BRANCH  89  90
ATOM     90  S   UNL A   1      46.099  34.765  25.463  1.00  0.00     0.124 S 
ATOM     91  O   UNL A   1      47.524  34.537  25.252  1.00  0.00    -0.237 OA
ATOM     92  O   UNL A   1      45.215  34.284  24.404  1.00  0.00    -0.237 OA
ATOM     93  O   UNL A   1      45.749  36.076  26.005  1.00  0.00    -0.744 OA
ENDBRANCH  89  90
ENDBRANCH  57  82
ENDBRANCH  31  32
ENDBRANCH  24  26
ENDBRANCH  23  24
ENDBRANCH  22  23
ENDBRANCH   1  22
TORSDOF 19
ENDMDL
MODEL 3
REMARK VINA RESULT:     -11.3      3.104      9.503
REMARK SMILES Cc1ccc(OCCn2ccnc2)c(/C=C/C(=O)OCCOC(=O)c2ccc(-c3c4nc(c(-c5c(F)cc(S(=O)(=O)[O-])cc5F)c5ccc([nH]5)c(-c5c(F)cc(S(=O)(=O)[O-])cc5F)c5nc(c(-c6c(F)cc(S(=O)(=O)[O-])cc6F)c6ccc3[nH]6)C=C5)C=C4)cc2)n1
REMARK SMILES IDX 20 1 19 2 17 3 18 4 16 5 15 6 14 7 1 8 2 9 3 10 91 11 4 12
REMARK SMILES IDX 5 13 6 14 7 15 8 16 9 17 10 18 13 19 11 20 12 21 21 22 22 23
REMARK SMILES IDX 23 24 24 25 25 26 26 27 90 28 27 29 89 30 28 31 29 32 30 33
REMARK SMILES IDX 83 34 31 35 88 36 82 37 84 38 32 39 87 40 81 41 80 42 33 44
REMARK SMILES IDX 67 45 46 46 66 47 47 48 50 49 65 50 85 51 48 52 49 53 64 55
REMARK SMILES IDX 86 56 51 57 34 58 35 59 44 60 36 61 37 62 43 63 45 64 38 65
REMARK SMILES IDX 39 66 40 67 41 68 42 69 68 70 69 71 78 72 70 73 71 74 77 75
REMARK SMILES IDX 79 76 72 77 73 78 74 79 75 80 76 81 52 82 53 83 62 84 54 85
REMARK SMILES IDX 55 86 61 87 63 88 56 89 57 90 58 91 59 92 60 93
REMARK H PARENT 84 43 50 54
REMARK Flexibility Score: inf
ROOT
ATOM      1  C   UNL A   1      40.501  20.296  26.689  1.00  0.00     0.275 C 
ENDROOT
BRANCH   1   2
ATOM      2  O   UNL A   1      39.495  20.816  25.806  1.00  0.00    -0.459 OA
BRANCH   2   3
ATOM      3  C   UNL A   1      39.009  22.044  26.134  1.00  0.00     0.330 C 
ATOM      4  O   UNL A   1      39.508  22.827  26.916  1.00  0.00    -0.247 OA
BRANCH   3   5
ATOM      5  C   UNL A   1      37.796  22.375  25.354  1.00  0.00     0.096 C 
ATOM      6  C   UNL A   1      36.602  22.685  25.883  1.00  0.00     0.040 C 
BRANCH   6   7
ATOM      7  C   UNL A   1      35.385  22.865  25.072  1.00  0.00     0.105 A 
ATOM      8  C   UNL A   1      33.674  25.799  23.640  1.00  0.00     0.067 C 
ATOM      9  C   UNL A   1      34.021  24.372  23.932  1.00  0.00     0.038 A 
ATOM     10  C   UNL A   1      33.296  23.337  23.361  1.00  0.00     0.027 A 
ATOM     11  N   UNL A   1      35.074  24.149  24.750  1.00  0.00    -0.250 NA
ATOM     12  C   UNL A   1      33.599  22.027  23.719  1.00  0.00     0.050 A 
ATOM     13  C   UNL A   1      34.611  21.775  24.646  1.00  0.00     0.145 A 
BRANCH  13  14
ATOM     14  O   UNL A   1      34.870  20.538  25.174  1.00  0.00    -0.489 OA
BRANCH  14  15
ATOM     15  C   UNL A   1      33.994  19.464  24.806  1.00  0.00     0.251 C 
BRANCH  15  16
ATOM     16  C   UNL A   1      34.721  18.164  24.429  1.00  0.00     0.164 C 
BRANCH  16  17
ATOM     17  N   UNL A   1      34.064  16.952  24.879  1.00  0.00    -0.334 N 
ATOM     18  C   UNL A   1      32.743  16.821  25.206  1.00  0.00     0.107 A 
ATOM     19  C   UNL A   1      34.655  15.734  25.059  1.00  0.00     0.199 A 
ATOM     20  C   UNL A   1      32.578  15.484  25.485  1.00  0.00     0.130 A 
ATOM     21  N   UNL A   1      33.776  14.821  25.408  1.00  0.00    -0.245 NA
ENDBRANCH  16  17
ENDBRANCH  15  16
ENDBRANCH  14  15
ENDBRANCH  13  14
ENDBRANCH   6   7
ENDBRANCH   3   5
ENDBRANCH   2   3
ENDBRANCH   1   2
BRANCH   1  22
ATOM     22  C   UNL A   1      41.559  19.521  25.917  1.00  0.00     0.275 C 
BRANCH  22  23
ATOM     23  O   UNL A   1      42.889  19.919  26.255  1.00  0.00    -0.458 OA
BRANCH  23  24
ATOM     24  C   UNL A   1      43.452  20.783  25.379  1.00  0.00     0.338 C 
ATOM     25  O   UNL A   1      44.034  20.500  24.343  1.00  0.00    -0.246 OA
BRANCH  24  26
ATOM     26  C   UNL A   1      43.489  22.126  25.972  1.00  0.00     0.060 A 
ATOM     27  C   UNL A   1      44.074  22.277  27.234  1.00  0.00     0.016 A 
ATOM     28  C   UNL A   1      42.772  23.171  25.373  1.00  0.00     0.016 A 
ATOM     29  C   UNL A   1      43.890  23.463  27.924  1.00  0.00     0.010 A 
ATOM     30  C   UNL A   1      42.572  24.344  26.068  1.00  0.00     0.010 A 
ATOM     31  C   UNL A   1      43.112  24.475  27.349  1.00  0.00    -0.014 A 
BRANCH  31  32
ATOM     32  C   UNL A   1      43.052  25.771  28.015  1.00  0.00     0.031 A 
ATOM     33  C   UNL A   1      44.217  26.640  27.690  1.00  0.00     0.074 A 
ATOM     34  C   UNL A   1      41.951  26.194  28.669  1.00  0.00     0.049 A 
ATOM     35  N   UNL A   1      45.044  27.214  28.500  1.00  0.00    -0.248 NA
ATOM     36  C   UNL A   1      44.591  26.777  26.268  1.00  0.00     0.031 C 
ATOM     37  C   UNL A   1      40.666  25.491  28.743  1.00  0.00     0.029 A 
ATOM     38  N   UNL A   1      41.686  27.387  29.278  1.00  0.00    -0.354 N 
ATOM     39  C   UNL A   1      45.886  27.977  27.690  1.00  0.00     0.074 A 
ATOM     40  C   UNL A   1      45.697  27.514  26.346  1.00  0.00     0.031 C 
ATOM     41  C   UNL A   1      39.710  26.354  29.146  1.00  0.00     0.029 A 
ATOM     42  C   UNL A   1      40.325  27.634  29.457  1.00  0.00     0.049 A 
ATOM     43  H   UNL A   1      42.389  28.014  29.565  1.00  0.00     0.167 HD
ATOM     44  C   UNL A   1      46.430  29.135  28.149  1.00  0.00     0.037 A 
ATOM     45  C   UNL A   1      39.737  28.822  29.752  1.00  0.00     0.037 A 
ATOM     46  C   UNL A   1      46.422  29.169  29.586  1.00  0.00     0.049 A 
ATOM     47  C   UNL A   1      40.782  29.707  30.322  1.00  0.00     0.074 A 
ATOM     48  C   UNL A   1      47.034  28.459  30.596  1.00  0.00     0.029 A 
ATOM     49  N   UNL A   1      45.371  29.848  30.144  1.00  0.00    -0.354 N 
ATOM     50  N   UNL A   1      41.370  29.511  31.470  1.00  0.00    -0.248 NA
ATOM     51  C   UNL A   1      41.431  30.682  29.452  1.00  0.00     0.031 C 
ATOM     52  C   UNL A   1      46.144  28.519  31.707  1.00  0.00     0.029 A 
ATOM     53  C   UNL A   1      45.040  29.296  31.351  1.00  0.00     0.049 A 
ATOM     54  H   UNL A   1      44.919  30.620  29.735  1.00  0.00     0.167 HD
ATOM     55  C   UNL A   1      42.653  29.991  31.291  1.00  0.00     0.074 A 
ATOM     56  C   UNL A   1      42.579  30.844  30.114  1.00  0.00     0.031 C 
ATOM     57  C   UNL A   1      43.711  29.404  31.919  1.00  0.00     0.037 A 
BRANCH  44  58
ATOM     58  C   UNL A   1      46.500  30.413  27.329  1.00  0.00     0.058 A 
ATOM     59  C   UNL A   1      47.736  31.089  27.228  1.00  0.00     0.135 A 
ATOM     60  C   UNL A   1      45.372  31.160  26.918  1.00  0.00     0.135 A 
ATOM     61  F   UNL A   1      48.877  30.484  27.593  1.00  0.00    -0.206 F 
ATOM     62  C   UNL A   1      47.831  32.427  26.838  1.00  0.00     0.059 A 
ATOM     63  C   UNL A   1      45.450  32.476  26.476  1.00  0.00     0.059 A 
ATOM     64  F   UNL A   1      44.121  30.696  27.016  1.00  0.00    -0.206 F 
ATOM     65  C   UNL A   1      46.677  33.116  26.480  1.00  0.00     0.060 A 
BRANCH  65  66
ATOM     66  S   UNL A   1      46.774  34.866  26.068  1.00  0.00     0.124 S 
ATOM     67  O   UNL A   1      45.656  35.008  25.143  1.00  0.00    -0.237 OA
ATOM     68  O   UNL A   1      46.610  35.493  27.375  1.00  0.00    -0.237 OA
ATOM     69  O   UNL A   1      48.103  34.997  25.479  1.00  0.00    -0.744 OA
ENDBRANCH  65  66
ENDBRANCH  44  58
BRANCH  45  70
ATOM     70  C   UNL A   1      38.401  29.342  29.337  1.00  0.00     0.058 A 
ATOM     71  C   UNL A   1      37.449  29.743  30.295  1.00  0.00     0.135 A 
ATOM     72  C   UNL A   1      38.127  29.717  28.006  1.00  0.00     0.135 A 
ATOM     73  F   UNL A   1      37.628  29.444  31.591  1.00  0.00    -0.206 F 
ATOM     74  C   UNL A   1      36.333  30.520  29.964  1.00  0.00     0.059 A 
ATOM     75  C   UNL A   1      37.011  30.473  27.650  1.00  0.00     0.059 A 
ATOM     76  F   UNL A   1      38.984  29.441  27.013  1.00  0.00    -0.206 F 
ATOM     77  C   UNL A   1      36.135  30.900  28.639  1.00  0.00     0.060 A 
BRANCH  77  78
ATOM     78  S   UNL A   1      34.808  32.060  28.231  1.00  0.00     0.124 S 
ATOM     79  O   UNL A   1      34.291  32.405  29.551  1.00  0.00    -0.237 OA
ATOM     80  O   UNL A   1      35.527  33.118  27.530  1.00  0.00    -0.237 OA
ATOM     81  O   UNL A   1      33.908  31.266  27.398  1.00  0.00    -0.744 OA
ENDBRANCH  77  78
ENDBRANCH  45  70
BRANCH  57  82
ATOM     82  C   UNL A   1      43.456  28.675  33.205  1.00  0.00     0.058 A 
ATOM     83  C   UNL A   1      43.280  29.275  34.463  1.00  0.00     0.135 A 
ATOM     84  C   UNL A   1      43.266  27.285  33.119  1.00  0.00     0.135 A 
ATOM     85  F   UNL A   1      43.358  30.606  34.613  1.00  0.00    -0.206 F 
ATOM     86  C   UNL A   1      42.960  28.517  35.591  1.00  0.00     0.059 A 
ATOM     87  C   UNL A   1      42.912  26.518  34.221  1.00  0.00     0.059 A 
ATOM     88  F   UNL A   1      43.376  26.663  31.934  1.00  0.00    -0.206 F 
ATOM     89  C   UNL A   1      42.772  27.140  35.458  1.00  0.00     0.060 A 
BRANCH  89  90
ATOM     90  S   UNL A   1      42.271  26.171  36.897  1.00  0.00     0.124 S 
ATOM     91  O   UNL A   1      40.840  26.445  36.968  1.00  0.00    -0.237 OA
ATOM     92  O   UNL A   1      42.638  24.812  36.507  1.00  0.00    -0.237 OA
ATOM     93  O   UNL A   1      43.069  26.733  37.984  1.00  0.00    -0.744 OA
ENDBRANCH  89  90
ENDBRANCH  57  82
ENDBRANCH  31  32
ENDBRANCH  24  26
ENDBRANCH  23  24
ENDBRANCH  22  23
ENDBRANCH   1  22
TORSDOF 19
ENDMDL
