MODEL 1
REMARK VINA RESULT:     -11.3      0.000      0.000
REMARK SMILES NS(=O)(=O)c1ccc(-n2nc(NC(=O)NCCCC(=O)OCCOC(=O)c3ccc(-c4c5nc(c(-c6c(F)cc(S(=O)(=O)[O-])cc6F)c6ccc([nH]6)c(-c6c(F)cc(S(=O)(=O)[O-])cc6F)c6nc(c(-c7c(F)cc(S(=O)(=O)[O-])cc7F)c7ccc4[nH]7)C=C6)C=C5)cc3)cc2-c2ccccc2)cc1
REMARK SMILES IDX 19 1 20 2 18 3 17 4 16 5 15 6 12 7 13 8 14 10 11 12 9 13
REMARK SMILES IDX 10 14 94 15 93 16 8 17 5 18 6 19 102 20 7 21 101 22 2 23
REMARK SMILES IDX 3 24 4 25 1 26 95 29 96 30 100 31 97 32 99 33 98 34 21 35
REMARK SMILES IDX 22 36 23 37 24 38 25 39 26 40 27 41 28 42 92 43 29 44 91 45
REMARK SMILES IDX 30 46 31 47 32 48 85 49 33 50 90 51 84 52 86 53 34 54 89 55
REMARK SMILES IDX 83 56 82 57 35 59 69 60 48 61 68 62 49 63 52 64 67 65 87 66
REMARK SMILES IDX 50 67 51 68 66 70 88 71 53 72 36 73 37 74 46 75 38 76 39 77
REMARK SMILES IDX 45 78 47 79 40 80 41 81 42 82 43 83 44 84 70 85 71 86 80 87
REMARK SMILES IDX 72 88 73 89 79 90 81 91 74 92 75 93 76 94 77 95 78 96 54 97
REMARK SMILES IDX 55 98 64 99 56 100 57 101 63 102 65 103 58 104 59 105 60 106
REMARK SMILES IDX 61 107 62 108
REMARK H PARENT 12 9 15 11 1 27 1 28 86 58 52 69
REMARK Flexibility Score: inf
ROOT
ATOM      1  C   UNL A   1      35.866  30.058  27.578  1.00  0.00     0.305 C 
ATOM      2  O   UNL A   1      37.040  30.314  27.326  1.00  0.00    -0.252 OA
ENDROOT
BRANCH   1   3
ATOM      3  C   UNL A   1      35.119  28.920  26.918  1.00  0.00     0.124 C 
BRANCH   3   4
ATOM      4  C   UNL A   1      34.388  29.168  25.602  1.00  0.00     0.033 C 
BRANCH   4   5
ATOM      5  C   UNL A   1      32.985  28.592  25.417  1.00  0.00     0.118 C 
BRANCH   5   6
ATOM      6  N   UNL A   1      32.156  28.599  26.614  1.00  0.00    -0.338 N 
ATOM      7  N   UNL A   1      31.290  26.370  26.768  1.00  0.00    -0.291 N 
ATOM      8  C   UNL A   1      31.384  27.651  27.187  1.00  0.00     0.320 C 
ATOM      9  H   UNL A   1      30.456  25.918  27.034  1.00  0.00     0.173 HD
ATOM     10  O   UNL A   1      30.640  28.012  28.108  1.00  0.00    -0.248 OA
ATOM     11  H   UNL A   1      32.160  29.456  27.097  1.00  0.00     0.165 HD
BRANCH   7  12
ATOM     12  C   UNL A   1      32.148  25.585  26.037  1.00  0.00     0.157 A 
ATOM     13  N   UNL A   1      32.800  23.882  25.039  1.00  0.00    -0.231 N 
ATOM     14  N   UNL A   1      31.761  24.729  25.095  1.00  0.00    -0.149 NA
ATOM     15  C   UNL A   1      33.993  24.515  25.359  1.00  0.00     0.076 A 
ATOM     16  C   UNL A   1      33.574  25.595  26.119  1.00  0.00     0.078 A 
BRANCH  13  17
ATOM     17  C   UNL A   1      32.600  22.512  24.800  1.00  0.00     0.065 A 
ATOM     18  C   UNL A   1      32.602  19.841  24.257  1.00  0.00     0.082 A 
ATOM     19  C   UNL A   1      32.872  20.239  25.557  1.00  0.00     0.024 A 
ATOM     20  C   UNL A   1      32.221  20.751  23.256  1.00  0.00     0.024 A 
ATOM     21  C   UNL A   1      32.872  21.592  25.830  1.00  0.00     0.030 A 
ATOM     22  C   UNL A   1      32.197  22.105  23.534  1.00  0.00     0.030 A 
BRANCH  18  23
ATOM     23  S   UNL A   1      32.690  18.142  23.853  1.00  0.00     0.238 S 
ATOM     24  O   UNL A   1      31.769  17.504  24.742  1.00  0.00    -0.207 OA
ATOM     25  O   UNL A   1      34.089  17.782  23.721  1.00  0.00    -0.207 OA
BRANCH  23  26
ATOM     26  N   UNL A   1      32.005  18.058  22.336  1.00  0.00    -0.225 NA
ATOM     27  H   UNL A   1      31.762  18.997  22.019  1.00  0.00     0.137 HD
ATOM     28  H   UNL A   1      31.163  17.483  22.375  1.00  0.00     0.137 HD
ENDBRANCH  23  26
ENDBRANCH  18  23
ENDBRANCH  13  17
BRANCH  15  29
ATOM     29  C   UNL A   1      35.283  23.911  24.998  1.00  0.00     0.000 A 
ATOM     30  C   UNL A   1      35.532  23.600  23.645  1.00  0.00     0.010 A 
ATOM     31  C   UNL A   1      36.157  23.419  25.972  1.00  0.00     0.010 A 
ATOM     32  C   UNL A   1      36.577  22.748  23.282  1.00  0.00     0.001 A 
ATOM     33  C   UNL A   1      37.210  22.571  25.602  1.00  0.00     0.001 A 
ATOM     34  C   UNL A   1      37.408  22.223  24.265  1.00  0.00     0.000 A 
ENDBRANCH  15  29
ENDBRANCH   7  12
ENDBRANCH   5   6
ENDBRANCH   4   5
ENDBRANCH   3   4
ENDBRANCH   1   3
BRANCH   1  35
ATOM     35  O   UNL A   1      35.065  30.816  28.368  1.00  0.00    -0.462 OA
BRANCH  35  36
ATOM     36  C   UNL A   1      34.738  32.130  27.878  1.00  0.00     0.274 C 
BRANCH  36  37
ATOM     37  C   UNL A   1      34.305  33.066  29.000  1.00  0.00     0.275 C 
BRANCH  37  38
ATOM     38  O   UNL A   1      35.328  33.224  29.985  1.00  0.00    -0.458 OA
BRANCH  38  39
ATOM     39  C   UNL A   1      35.048  32.684  31.193  1.00  0.00     0.338 C 
ATOM     40  O   UNL A   1      34.049  32.883  31.862  1.00  0.00    -0.246 OA
BRANCH  39  41
ATOM     41  C   UNL A   1      36.227  31.982  31.713  1.00  0.00     0.060 A 
ATOM     42  C   UNL A   1      37.396  32.729  31.850  1.00  0.00     0.016 A 
ATOM     43  C   UNL A   1      36.240  30.581  31.776  1.00  0.00     0.016 A 
ATOM     44  C   UNL A   1      38.597  32.054  31.847  1.00  0.00     0.010 A 
ATOM     45  C   UNL A   1      37.447  29.911  31.755  1.00  0.00     0.010 A 
ATOM     46  C   UNL A   1      38.613  30.658  31.671  1.00  0.00    -0.014 A 
BRANCH  46  47
ATOM     47  C   UNL A   1      39.910  30.036  31.411  1.00  0.00     0.031 A 
ATOM     48  C   UNL A   1      40.777  30.094  32.605  1.00  0.00     0.074 A 
ATOM     49  C   UNL A   1      40.274  29.476  30.237  1.00  0.00     0.049 A 
ATOM     50  N   UNL A   1      41.870  30.755  32.786  1.00  0.00    -0.248 NA
ATOM     51  C   UNL A   1      40.219  29.486  33.826  1.00  0.00     0.031 C 
ATOM     52  C   UNL A   1      39.401  29.116  29.112  1.00  0.00     0.029 A 
ATOM     53  N   UNL A   1      41.501  29.056  29.802  1.00  0.00    -0.354 N 
ATOM     54  C   UNL A   1      42.251  30.458  34.088  1.00  0.00     0.074 A 
ATOM     55  C   UNL A   1      41.114  29.861  34.737  1.00  0.00     0.031 C 
ATOM     56  C   UNL A   1      40.096  28.421  28.193  1.00  0.00     0.029 A 
ATOM     57  C   UNL A   1      41.460  28.267  28.657  1.00  0.00     0.049 A 
ATOM     58  H   UNL A   1      42.340  29.291  30.261  1.00  0.00     0.167 HD
ATOM     59  C   UNL A   1      43.561  30.431  34.444  1.00  0.00     0.037 A 
ATOM     60  C   UNL A   1      42.415  27.422  28.190  1.00  0.00     0.037 A 
ATOM     61  C   UNL A   1      44.375  31.212  33.552  1.00  0.00     0.049 A 
ATOM     62  C   UNL A   1      43.702  27.807  28.825  1.00  0.00     0.074 A 
ATOM     63  C   UNL A   1      44.426  32.551  33.219  1.00  0.00     0.029 A 
ATOM     64  N   UNL A   1      45.067  30.545  32.573  1.00  0.00    -0.354 N 
ATOM     65  N   UNL A   1      44.339  28.919  28.576  1.00  0.00    -0.248 NA
ATOM     66  C   UNL A   1      44.029  27.179  30.096  1.00  0.00     0.031 C 
ATOM     67  C   UNL A   1      44.776  32.580  31.840  1.00  0.00     0.029 A 
ATOM     68  C   UNL A   1      44.978  31.267  31.408  1.00  0.00     0.049 A 
ATOM     69  H   UNL A   1      45.547  29.694  32.686  1.00  0.00     0.167 HD
ATOM     70  C   UNL A   1      44.796  29.354  29.815  1.00  0.00     0.074 A 
ATOM     71  C   UNL A   1      44.650  28.198  30.695  1.00  0.00     0.031 C 
ATOM     72  C   UNL A   1      44.992  30.682  30.078  1.00  0.00     0.037 A 
BRANCH  59  73
ATOM     73  C   UNL A   1      44.108  29.355  35.339  1.00  0.00     0.058 A 
ATOM     74  C   UNL A   1      43.899  28.005  35.018  1.00  0.00     0.135 A 
ATOM     75  C   UNL A   1      44.596  29.611  36.644  1.00  0.00     0.135 A 
ATOM     76  F   UNL A   1      43.408  27.660  33.817  1.00  0.00    -0.206 F 
ATOM     77  C   UNL A   1      44.113  26.984  35.944  1.00  0.00     0.059 A 
ATOM     78  C   UNL A   1      44.877  28.610  37.557  1.00  0.00     0.059 A 
ATOM     79  F   UNL A   1      44.722  30.851  37.134  1.00  0.00    -0.206 F 
ATOM     80  C   UNL A   1      44.592  27.301  37.214  1.00  0.00     0.060 A 
BRANCH  80  81
ATOM     81  S   UNL A   1      44.767  26.004  38.449  1.00  0.00     0.124 S 
ATOM     82  O   UNL A   1      44.711  24.807  37.619  1.00  0.00    -0.237 OA
ATOM     83  O   UNL A   1      46.066  26.320  39.035  1.00  0.00    -0.237 OA
ATOM     84  O   UNL A   1      43.620  26.219  39.327  1.00  0.00    -0.744 OA
ENDBRANCH  80  81
ENDBRANCH  59  73
BRANCH  60  85
ATOM     85  C   UNL A   1      42.147  26.083  27.581  1.00  0.00     0.058 A 
ATOM     86  C   UNL A   1      42.829  25.616  26.444  1.00  0.00     0.135 A 
ATOM     87  C   UNL A   1      41.344  25.128  28.243  1.00  0.00     0.135 A 
ATOM     88  F   UNL A   1      43.659  26.430  25.774  1.00  0.00    -0.206 F 
ATOM     89  C   UNL A   1      42.718  24.288  25.998  1.00  0.00     0.059 A 
ATOM     90  C   UNL A   1      41.189  23.819  27.802  1.00  0.00     0.059 A 
ATOM     91  F   UNL A   1      40.739  25.404  29.407  1.00  0.00    -0.206 F 
ATOM     92  C   UNL A   1      41.896  23.396  26.690  1.00  0.00     0.060 A 
BRANCH  92  93
ATOM     93  S   UNL A   1      41.830  21.652  26.215  1.00  0.00     0.124 S 
ATOM     94  O   UNL A   1      40.446  21.510  25.775  1.00  0.00    -0.237 OA
ATOM     95  O   UNL A   1      42.845  21.583  25.169  1.00  0.00    -0.237 OA
ATOM     96  O   UNL A   1      42.165  20.950  27.451  1.00  0.00    -0.744 OA
ENDBRANCH  92  93
ENDBRANCH  60  85
BRANCH  72  97
ATOM     97  C   UNL A   1      45.009  31.654  28.915  1.00  0.00     0.058 A 
ATOM     98  C   UNL A   1      46.133  31.926  28.115  1.00  0.00     0.135 A 
ATOM     99  C   UNL A   1      43.786  32.208  28.495  1.00  0.00     0.135 A 
ATOM    100  F   UNL A   1      47.323  31.362  28.365  1.00  0.00    -0.206 F 
ATOM    101  C   UNL A   1      46.049  32.732  26.976  1.00  0.00     0.059 A 
ATOM    102  C   UNL A   1      43.670  32.966  27.330  1.00  0.00     0.059 A 
ATOM    103  F   UNL A   1      42.661  31.961  29.188  1.00  0.00    -0.206 F 
ATOM    104  C   UNL A   1      44.809  33.223  26.575  1.00  0.00     0.060 A 
BRANCH 104 105
ATOM    105  S   UNL A   1      44.703  34.137  25.021  1.00  0.00     0.124 S 
ATOM    106  O   UNL A   1      44.259  33.108  24.086  1.00  0.00    -0.237 OA
ATOM    107  O   UNL A   1      43.716  35.167  25.338  1.00  0.00    -0.237 OA
ATOM    108  O   UNL A   1      46.063  34.625  24.814  1.00  0.00    -0.744 OA
ENDBRANCH 104 105
ENDBRANCH  72  97
ENDBRANCH  46  47
ENDBRANCH  39  41
ENDBRANCH  38  39
ENDBRANCH  37  38
ENDBRANCH  36  37
ENDBRANCH  35  36
ENDBRANCH   1  35
TORSDOF 22
ENDMDL
MODEL 2
REMARK VINA RESULT:     -10.1      7.365     15.336
REMARK SMILES NS(=O)(=O)c1ccc(-n2nc(NC(=O)NCCCC(=O)OCCOC(=O)c3ccc(-c4c5nc(c(-c6c(F)cc(S(=O)(=O)[O-])cc6F)c6ccc([nH]6)c(-c6c(F)cc(S(=O)(=O)[O-])cc6F)c6nc(c(-c7c(F)cc(S(=O)(=O)[O-])cc7F)c7ccc4[nH]7)C=C6)C=C5)cc3)cc2-c2ccccc2)cc1
REMARK SMILES IDX 19 1 20 2 18 3 17 4 16 5 15 6 12 7 13 8 14 10 11 12 9 13
REMARK SMILES IDX 10 14 94 15 93 16 8 17 5 18 6 19 102 20 7 21 101 22 2 23
REMARK SMILES IDX 3 24 4 25 1 26 95 29 96 30 100 31 97 32 99 33 98 34 21 35
REMARK SMILES IDX 22 36 23 37 24 38 25 39 26 40 27 41 28 42 92 43 29 44 91 45
REMARK SMILES IDX 30 46 31 47 32 48 85 49 33 50 90 51 84 52 86 53 34 54 89 55
REMARK SMILES IDX 83 56 82 57 35 59 69 60 48 61 68 62 49 63 52 64 67 65 87 66
REMARK SMILES IDX 50 67 51 68 66 70 88 71 53 72 36 73 37 74 46 75 38 76 39 77
REMARK SMILES IDX 45 78 47 79 40 80 41 81 42 82 43 83 44 84 70 85 71 86 80 87
REMARK SMILES IDX 72 88 73 89 79 90 81 91 74 92 75 93 76 94 77 95 78 96 54 97
REMARK SMILES IDX 55 98 64 99 56 100 57 101 63 102 65 103 58 104 59 105 60 106
REMARK SMILES IDX 61 107 62 108
REMARK H PARENT 12 9 15 11 1 27 1 28 86 58 52 69
REMARK Flexibility Score: inf
ROOT
ATOM      1  C   UNL A   1      46.728  40.699  23.808  1.00  0.00     0.305 C 
ATOM      2  O   UNL A   1      46.746  40.987  22.616  1.00  0.00    -0.252 OA
ENDROOT
BRANCH   1   3
ATOM      3  C   UNL A   1      46.205  41.642  24.869  1.00  0.00     0.124 C 
BRANCH   3   4
ATOM      4  C   UNL A   1      45.793  43.058  24.473  1.00  0.00     0.033 C 
BRANCH   4   5
ATOM      5  C   UNL A   1      44.314  43.355  24.229  1.00  0.00     0.118 C 
BRANCH   5   6
ATOM      6  N   UNL A   1      43.393  42.372  24.779  1.00  0.00    -0.338 N 
ATOM      7  N   UNL A   1      41.751  42.050  23.063  1.00  0.00    -0.291 N 
ATOM      8  C   UNL A   1      42.254  41.828  24.297  1.00  0.00     0.320 C 
ATOM      9  H   UNL A   1      40.782  41.894  22.988  1.00  0.00     0.173 HD
ATOM     10  O   UNL A   1      41.579  41.150  25.082  1.00  0.00    -0.248 OA
ATOM     11  H   UNL A   1      43.647  42.041  25.670  1.00  0.00     0.165 HD
BRANCH   7  12
ATOM     12  C   UNL A   1      42.349  42.454  21.894  1.00  0.00     0.157 A 
ATOM     13  N   UNL A   1      43.888  43.120  20.666  1.00  0.00    -0.231 N 
ATOM     14  N   UNL A   1      43.598  42.152  21.549  1.00  0.00    -0.149 NA
ATOM     15  C   UNL A   1      42.758  43.544  19.983  1.00  0.00     0.076 A 
ATOM     16  C   UNL A   1      41.730  43.201  20.847  1.00  0.00     0.078 A 
BRANCH  13  17
ATOM     17  C   UNL A   1      45.181  43.665  20.594  1.00  0.00     0.065 A 
ATOM     18  C   UNL A   1      47.774  44.488  20.771  1.00  0.00     0.082 A 
ATOM     19  C   UNL A   1      47.500  43.365  20.006  1.00  0.00     0.024 A 
ATOM     20  C   UNL A   1      46.759  45.267  21.353  1.00  0.00     0.024 A 
ATOM     21  C   UNL A   1      46.187  42.949  19.919  1.00  0.00     0.030 A 
ATOM     22  C   UNL A   1      45.440  44.864  21.246  1.00  0.00     0.030 A 
BRANCH  18  23
ATOM     23  S   UNL A   1      49.436  44.987  20.984  1.00  0.00     0.238 S 
ATOM     24  O   UNL A   1      50.199  43.781  20.881  1.00  0.00    -0.207 OA
ATOM     25  O   UNL A   1      49.492  45.901  22.108  1.00  0.00    -0.207 OA
BRANCH  23  26
ATOM     26  N   UNL A   1      49.767  45.865  19.606  1.00  0.00    -0.225 NA
ATOM     27  H   UNL A   1      50.685  46.302  19.694  1.00  0.00     0.137 HD
ATOM     28  H   UNL A   1      49.057  46.587  19.484  1.00  0.00     0.137 HD
ENDBRANCH  23  26
ENDBRANCH  18  23
ENDBRANCH  13  17
BRANCH  15  29
ATOM     29  C   UNL A   1      42.877  44.296  18.725  1.00  0.00     0.000 A 
ATOM     30  C   UNL A   1      42.398  45.622  18.679  1.00  0.00     0.010 A 
ATOM     31  C   UNL A   1      43.221  43.664  17.528  1.00  0.00     0.010 A 
ATOM     32  C   UNL A   1      42.187  46.269  17.461  1.00  0.00     0.001 A 
ATOM     33  C   UNL A   1      43.016  44.321  16.306  1.00  0.00     0.001 A 
ATOM     34  C   UNL A   1      42.483  45.611  16.273  1.00  0.00     0.000 A 
ENDBRANCH  15  29
ENDBRANCH   7  12
ENDBRANCH   5   6
ENDBRANCH   4   5
ENDBRANCH   3   4
ENDBRANCH   1   3
BRANCH   1  35
ATOM     35  O   UNL A   1      47.271  39.573  24.338  1.00  0.00    -0.462 OA
BRANCH  35  36
ATOM     36  C   UNL A   1      46.760  39.156  25.619  1.00  0.00     0.274 C 
BRANCH  36  37
ATOM     37  C   UNL A   1      46.864  37.648  25.810  1.00  0.00     0.275 C 
BRANCH  37  38
ATOM     38  O   UNL A   1      46.609  37.263  27.162  1.00  0.00    -0.458 OA
BRANCH  38  39
ATOM     39  C   UNL A   1      45.303  37.117  27.479  1.00  0.00     0.338 C 
ATOM     40  O   UNL A   1      44.520  38.009  27.761  1.00  0.00    -0.246 OA
BRANCH  39  41
ATOM     41  C   UNL A   1      44.987  35.696  27.661  1.00  0.00     0.060 A 
ATOM     42  C   UNL A   1      43.677  35.301  27.393  1.00  0.00     0.016 A 
ATOM     43  C   UNL A   1      45.878  34.861  28.352  1.00  0.00     0.016 A 
ATOM     44  C   UNL A   1      43.213  34.153  27.997  1.00  0.00     0.010 A 
ATOM     45  C   UNL A   1      45.402  33.722  28.969  1.00  0.00     0.010 A 
ATOM     46  C   UNL A   1      44.046  33.444  28.882  1.00  0.00    -0.014 A 
BRANCH  46  47
ATOM     47  C   UNL A   1      43.420  32.399  29.690  1.00  0.00     0.031 A 
ATOM     48  C   UNL A   1      43.104  31.211  28.872  1.00  0.00     0.074 A 
ATOM     49  C   UNL A   1      43.162  32.499  31.012  1.00  0.00     0.049 A 
ATOM     50  N   UNL A   1      41.953  30.730  28.544  1.00  0.00    -0.248 NA
ATOM     51  C   UNL A   1      44.246  30.610  28.158  1.00  0.00     0.031 C 
ATOM     52  C   UNL A   1      43.690  33.497  31.951  1.00  0.00     0.029 A 
ATOM     53  N   UNL A   1      42.409  31.698  31.827  1.00  0.00    -0.354 N 
ATOM     54  C   UNL A   1      42.244  29.622  27.759  1.00  0.00     0.074 A 
ATOM     55  C   UNL A   1      43.630  29.719  27.384  1.00  0.00     0.031 C 
ATOM     56  C   UNL A   1      43.352  33.168  33.212  1.00  0.00     0.029 A 
ATOM     57  C   UNL A   1      42.597  31.933  33.186  1.00  0.00     0.049 A 
ATOM     58  H   UNL A   1      41.789  31.015  31.482  1.00  0.00     0.167 HD
ATOM     59  C   UNL A   1      41.417  28.546  27.734  1.00  0.00     0.037 A 
ATOM     60  C   UNL A   1      42.297  31.111  34.225  1.00  0.00     0.037 A 
ATOM     61  C   UNL A   1      40.079  28.889  28.133  1.00  0.00     0.049 A 
ATOM     62  C   UNL A   1      41.310  30.113  33.735  1.00  0.00     0.074 A 
ATOM     63  C   UNL A   1      39.108  29.728  27.624  1.00  0.00     0.029 A 
ATOM     64  N   UNL A   1      39.708  28.609  29.425  1.00  0.00    -0.354 N 
ATOM     65  N   UNL A   1      40.081  30.399  33.400  1.00  0.00    -0.248 NA
ATOM     66  C   UNL A   1      41.838  28.887  33.157  1.00  0.00     0.031 C 
ATOM     67  C   UNL A   1      38.433  30.252  28.762  1.00  0.00     0.029 A 
ATOM     68  C   UNL A   1      38.981  29.669  29.907  1.00  0.00     0.049 A 
ATOM     69  H   UNL A   1      39.926  27.788  29.920  1.00  0.00     0.167 HD
ATOM     70  C   UNL A   1      39.842  29.655  32.250  1.00  0.00     0.074 A 
ATOM     71  C   UNL A   1      40.927  28.679  32.203  1.00  0.00     0.031 C 
ATOM     72  C   UNL A   1      38.947  30.071  31.303  1.00  0.00     0.037 A 
BRANCH  59  73
ATOM     73  C   UNL A   1      41.955  27.143  27.755  1.00  0.00     0.058 A 
ATOM     74  C   UNL A   1      41.523  26.214  26.795  1.00  0.00     0.135 A 
ATOM     75  C   UNL A   1      42.672  26.607  28.853  1.00  0.00     0.135 A 
ATOM     76  F   UNL A   1      40.808  26.617  25.733  1.00  0.00    -0.206 F 
ATOM     77  C   UNL A   1      41.747  24.845  26.940  1.00  0.00     0.059 A 
ATOM     78  C   UNL A   1      42.962  25.260  28.984  1.00  0.00     0.059 A 
ATOM     79  F   UNL A   1      43.034  27.351  29.906  1.00  0.00    -0.206 F 
ATOM     80  C   UNL A   1      42.459  24.380  28.045  1.00  0.00     0.060 A 
BRANCH  80  81
ATOM     81  S   UNL A   1      42.657  22.609  28.295  1.00  0.00     0.124 S 
ATOM     82  O   UNL A   1      43.385  22.577  29.557  1.00  0.00    -0.237 OA
ATOM     83  O   UNL A   1      41.271  22.155  28.341  1.00  0.00    -0.237 OA
ATOM     84  O   UNL A   1      43.411  22.186  27.119  1.00  0.00    -0.744 OA
ENDBRANCH  80  81
ENDBRANCH  59  73
BRANCH  60  85
ATOM     85  C   UNL A   1      43.148  30.922  35.438  1.00  0.00     0.058 A 
ATOM     86  C   UNL A   1      42.736  31.312  36.725  1.00  0.00     0.135 A 
ATOM     87  C   UNL A   1      44.329  30.147  35.388  1.00  0.00     0.135 A 
ATOM     88  F   UNL A   1      41.599  32.006  36.886  1.00  0.00    -0.206 F 
ATOM     89  C   UNL A   1      43.450  30.953  37.880  1.00  0.00     0.059 A 
ATOM     90  C   UNL A   1      45.072  29.810  36.512  1.00  0.00     0.059 A 
ATOM     91  F   UNL A   1      44.766  29.605  34.242  1.00  0.00    -0.206 F 
ATOM     92  C   UNL A   1      44.618  30.196  37.761  1.00  0.00     0.060 A 
BRANCH  92  93
ATOM     93  S   UNL A   1      45.488  29.615  39.235  1.00  0.00     0.124 S 
ATOM     94  O   UNL A   1      44.924  30.467  40.276  1.00  0.00    -0.237 OA
ATOM     95  O   UNL A   1      45.104  28.208  39.282  1.00  0.00    -0.237 OA
ATOM     96  O   UNL A   1      46.893  29.864  38.921  1.00  0.00    -0.744 OA
ENDBRANCH  92  93
ENDBRANCH  60  85
BRANCH  72  97
ATOM     97  C   UNL A   1      37.987  31.190  31.658  1.00  0.00     0.058 A 
ATOM     98  C   UNL A   1      38.211  32.553  31.392  1.00  0.00     0.135 A 
ATOM     99  C   UNL A   1      36.712  30.842  32.141  1.00  0.00     0.135 A 
ATOM    100  F   UNL A   1      39.352  32.977  30.830  1.00  0.00    -0.206 F 
ATOM    101  C   UNL A   1      37.229  33.520  31.624  1.00  0.00     0.059 A 
ATOM    102  C   UNL A   1      35.700  31.784  32.323  1.00  0.00     0.059 A 
ATOM    103  F   UNL A   1      36.411  29.555  32.383  1.00  0.00    -0.206 F 
ATOM    104  C   UNL A   1      35.967  33.124  32.061  1.00  0.00     0.060 A 
BRANCH 104 105
ATOM    105  S   UNL A   1      34.673  34.374  32.211  1.00  0.00     0.124 S 
ATOM    106  O   UNL A   1      34.409  34.715  30.817  1.00  0.00    -0.237 OA
ATOM    107  O   UNL A   1      33.611  33.634  32.890  1.00  0.00    -0.237 OA
ATOM    108  O   UNL A   1      35.300  35.426  33.005  1.00  0.00    -0.744 OA
ENDBRANCH 104 105
ENDBRANCH  72  97
ENDBRANCH  46  47
ENDBRANCH  39  41
ENDBRANCH  38  39
ENDBRANCH  37  38
ENDBRANCH  36  37
ENDBRANCH  35  36
ENDBRANCH   1  35
TORSDOF 22
ENDMDL
MODEL 3
REMARK VINA RESULT:     -10.1      8.059     15.719
REMARK SMILES NS(=O)(=O)c1ccc(-n2nc(NC(=O)NCCCC(=O)OCCOC(=O)c3ccc(-c4c5nc(c(-c6c(F)cc(S(=O)(=O)[O-])cc6F)c6ccc([nH]6)c(-c6c(F)cc(S(=O)(=O)[O-])cc6F)c6nc(c(-c7c(F)cc(S(=O)(=O)[O-])cc7F)c7ccc4[nH]7)C=C6)C=C5)cc3)cc2-c2ccccc2)cc1
REMARK SMILES IDX 19 1 20 2 18 3 17 4 16 5 15 6 12 7 13 8 14 10 11 12 9 13
REMARK SMILES IDX 10 14 94 15 93 16 8 17 5 18 6 19 102 20 7 21 101 22 2 23
REMARK SMILES IDX 3 24 4 25 1 26 95 29 96 30 100 31 97 32 99 33 98 34 21 35
REMARK SMILES IDX 22 36 23 37 24 38 25 39 26 40 27 41 28 42 92 43 29 44 91 45
REMARK SMILES IDX 30 46 31 47 32 48 85 49 33 50 90 51 84 52 86 53 34 54 89 55
REMARK SMILES IDX 83 56 82 57 35 59 69 60 48 61 68 62 49 63 52 64 67 65 87 66
REMARK SMILES IDX 50 67 51 68 66 70 88 71 53 72 36 73 37 74 46 75 38 76 39 77
REMARK SMILES IDX 45 78 47 79 40 80 41 81 42 82 43 83 44 84 70 85 71 86 80 87
REMARK SMILES IDX 72 88 73 89 79 90 81 91 74 92 75 93 76 94 77 95 78 96 54 97
REMARK SMILES IDX 55 98 64 99 56 100 57 101 63 102 65 103 58 104 59 105 60 106
REMARK SMILES IDX 61 107 62 108
REMARK H PARENT 12 9 15 11 1 27 1 28 86 58 52 69
REMARK Flexibility Score: inf
ROOT
ATOM      1  C   UNL A   1      46.306  41.949  24.500  1.00  0.00     0.305 C 
ATOM      2  O   UNL A   1      46.137  41.245  23.509  1.00  0.00    -0.252 OA
ENDROOT
BRANCH   1   3
ATOM      3  C   UNL A   1      46.263  43.460  24.444  1.00  0.00     0.124 C 
BRANCH   3   4
ATOM      4  C   UNL A   1      45.003  44.190  24.903  1.00  0.00     0.033 C 
BRANCH   4   5
ATOM      5  C   UNL A   1      43.672  43.856  24.232  1.00  0.00     0.118 C 
BRANCH   5   6
ATOM      6  N   UNL A   1      42.968  42.717  24.802  1.00  0.00    -0.338 N 
ATOM      7  N   UNL A   1      41.647  41.853  22.998  1.00  0.00    -0.291 N 
ATOM      8  C   UNL A   1      42.056  41.865  24.285  1.00  0.00     0.320 C 
ATOM      9  H   UNL A   1      40.760  41.450  22.858  1.00  0.00     0.173 HD
ATOM     10  O   UNL A   1      41.489  41.100  25.077  1.00  0.00    -0.248 OA
ATOM     11  H   UNL A   1      43.200  42.532  25.740  1.00  0.00     0.165 HD
BRANCH   7  12
ATOM     12  C   UNL A   1      42.248  42.305  21.847  1.00  0.00     0.157 A 
ATOM     13  N   UNL A   1      43.772  43.076  20.662  1.00  0.00    -0.231 N 
ATOM     14  N   UNL A   1      43.521  42.084  21.532  1.00  0.00    -0.149 NA
ATOM     15  C   UNL A   1      42.634  43.434  19.954  1.00  0.00     0.076 A 
ATOM     16  C   UNL A   1      41.609  43.020  20.790  1.00  0.00     0.078 A 
BRANCH  13  17
ATOM     17  C   UNL A   1      45.029  43.700  20.627  1.00  0.00     0.065 A 
ATOM     18  C   UNL A   1      47.535  44.735  20.913  1.00  0.00     0.082 A 
ATOM     19  C   UNL A   1      47.410  43.494  20.308  1.00  0.00     0.024 A 
ATOM     20  C   UNL A   1      46.420  45.512  21.272  1.00  0.00     0.024 A 
ATOM     21  C   UNL A   1      46.141  42.971  20.166  1.00  0.00     0.030 A 
ATOM     22  C   UNL A   1      45.147  44.999  21.108  1.00  0.00     0.030 A 
BRANCH  18  23
ATOM     23  S   UNL A   1      49.133  45.384  21.199  1.00  0.00     0.238 S 
ATOM     24  O   UNL A   1      49.769  45.376  19.917  1.00  0.00    -0.207 OA
ATOM     25  O   UNL A   1      49.672  44.751  22.387  1.00  0.00    -0.207 OA
BRANCH  23  26
ATOM     26  N   UNL A   1      48.852  46.985  21.567  1.00  0.00    -0.225 NA
ATOM     27  H   UNL A   1      49.241  47.196  22.487  1.00  0.00     0.137 HD
ATOM     28  H   UNL A   1      47.848  47.161  21.574  1.00  0.00     0.137 HD
ENDBRANCH  23  26
ENDBRANCH  18  23
ENDBRANCH  13  17
BRANCH  15  29
ATOM     29  C   UNL A   1      42.738  44.202  18.706  1.00  0.00     0.000 A 
ATOM     30  C   UNL A   1      41.983  45.387  18.573  1.00  0.00     0.010 A 
ATOM     31  C   UNL A   1      43.361  43.673  17.573  1.00  0.00     0.010 A 
ATOM     32  C   UNL A   1      41.785  45.979  17.325  1.00  0.00     0.001 A 
ATOM     33  C   UNL A   1      43.167  44.276  16.322  1.00  0.00     0.001 A 
ATOM     34  C   UNL A   1      42.367  45.413  16.196  1.00  0.00     0.000 A 
ENDBRANCH  15  29
ENDBRANCH   7  12
ENDBRANCH   5   6
ENDBRANCH   4   5
ENDBRANCH   3   4
ENDBRANCH   1   3
BRANCH   1  35
ATOM     35  O   UNL A   1      46.666  41.486  25.723  1.00  0.00    -0.462 OA
BRANCH  35  36
ATOM     36  C   UNL A   1      45.596  41.237  26.655  1.00  0.00     0.274 C 
BRANCH  36  37
ATOM     37  C   UNL A   1      44.941  39.880  26.423  1.00  0.00     0.275 C 
BRANCH  37  38
ATOM     38  O   UNL A   1      45.035  39.040  27.575  1.00  0.00    -0.458 OA
BRANCH  38  39
ATOM     39  C   UNL A   1      43.870  38.829  28.226  1.00  0.00     0.338 C 
ATOM     40  O   UNL A   1      43.055  39.677  28.550  1.00  0.00    -0.246 OA
BRANCH  39  41
ATOM     41  C   UNL A   1      43.806  37.444  28.704  1.00  0.00     0.060 A 
ATOM     42  C   UNL A   1      42.698  36.692  28.315  1.00  0.00     0.016 A 
ATOM     43  C   UNL A   1      44.659  37.014  29.733  1.00  0.00     0.016 A 
ATOM     44  C   UNL A   1      42.341  35.616  29.098  1.00  0.00     0.010 A 
ATOM     45  C   UNL A   1      44.286  35.946  30.523  1.00  0.00     0.010 A 
ATOM     46  C   UNL A   1      43.069  35.332  30.269  1.00  0.00    -0.014 A 
BRANCH  46  47
ATOM     47  C   UNL A   1      42.490  34.356  31.189  1.00  0.00     0.031 A 
ATOM     48  C   UNL A   1      42.432  33.014  30.576  1.00  0.00     0.074 A 
ATOM     49  C   UNL A   1      42.064  34.635  32.441  1.00  0.00     0.049 A 
ATOM     50  N   UNL A   1      41.401  32.319  30.232  1.00  0.00    -0.248 NA
ATOM     51  C   UNL A   1      43.719  32.478  30.096  1.00  0.00     0.031 C 
ATOM     52  C   UNL A   1      42.342  35.844  33.228  1.00  0.00     0.029 A 
ATOM     53  N   UNL A   1      41.328  33.880  33.312  1.00  0.00    -0.354 N 
ATOM     54  C   UNL A   1      41.925  31.151  29.694  1.00  0.00     0.074 A 
ATOM     55  C   UNL A   1      43.322  31.390  29.443  1.00  0.00     0.031 C 
ATOM     56  C   UNL A   1      41.900  35.684  34.489  1.00  0.00     0.029 A 
ATOM     57  C   UNL A   1      41.319  34.363  34.616  1.00  0.00     0.049 A 
ATOM     58  H   UNL A   1      40.848  33.064  33.039  1.00  0.00     0.167 HD
ATOM     59  C   UNL A   1      41.253  29.976  29.786  1.00  0.00     0.037 A 
ATOM     60  C   UNL A   1      41.005  33.691  35.754  1.00  0.00     0.037 A 
ATOM     61  C   UNL A   1      39.843  30.178  29.986  1.00  0.00     0.049 A 
ATOM     62  C   UNL A   1      40.222  32.491  35.363  1.00  0.00     0.074 A 
ATOM     63  C   UNL A   1      38.840  30.767  29.242  1.00  0.00     0.029 A 
ATOM     64  N   UNL A   1      39.359  30.066  31.266  1.00  0.00    -0.354 N 
ATOM     65  N   UNL A   1      39.016  32.531  34.865  1.00  0.00    -0.248 NA
ATOM     66  C   UNL A   1      40.970  31.277  35.071  1.00  0.00     0.031 C 
ATOM     67  C   UNL A   1      37.971  31.367  30.196  1.00  0.00     0.029 A 
ATOM     68  C   UNL A   1      38.447  31.072  31.475  1.00  0.00     0.049 A 
ATOM     69  H   UNL A   1      39.620  29.381  31.921  1.00  0.00     0.167 HD
ATOM     70  C   UNL A   1      39.015  31.578  33.853  1.00  0.00     0.074 A 
ATOM     71  C   UNL A   1      40.215  30.780  34.088  1.00  0.00     0.031 C 
ATOM     72  C   UNL A   1      38.194  31.693  32.764  1.00  0.00     0.037 A 
BRANCH  59  73
ATOM     73  C   UNL A   1      41.961  28.691  30.115  1.00  0.00     0.058 A 
ATOM     74  C   UNL A   1      42.660  28.569  31.326  1.00  0.00     0.135 A 
ATOM     75  C   UNL A   1      42.202  27.676  29.157  1.00  0.00     0.135 A 
ATOM     76  F   UNL A   1      42.525  29.497  32.286  1.00  0.00    -0.206 F 
ATOM     77  C   UNL A   1      43.571  27.536  31.550  1.00  0.00     0.059 A 
ATOM     78  C   UNL A   1      43.052  26.607  29.383  1.00  0.00     0.059 A 
ATOM     79  F   UNL A   1      41.707  27.729  27.914  1.00  0.00    -0.206 F 
ATOM     80  C   UNL A   1      43.765  26.567  30.567  1.00  0.00     0.060 A 
BRANCH  80  81
ATOM     81  S   UNL A   1      45.016  25.296  30.804  1.00  0.00     0.124 S 
ATOM     82  O   UNL A   1      45.222  25.361  32.245  1.00  0.00    -0.237 OA
ATOM     83  O   UNL A   1      44.334  24.107  30.304  1.00  0.00    -0.237 OA
ATOM     84  O   UNL A   1      46.130  25.764  29.984  1.00  0.00    -0.744 OA
ENDBRANCH  80  81
ENDBRANCH  59  73
BRANCH  60  85
ATOM     85  C   UNL A   1      41.722  33.837  37.058  1.00  0.00     0.058 A 
ATOM     86  C   UNL A   1      43.076  33.496  37.223  1.00  0.00     0.135 A 
ATOM     87  C   UNL A   1      41.132  34.525  38.143  1.00  0.00     0.135 A 
ATOM     88  F   UNL A   1      43.743  32.887  36.230  1.00  0.00    -0.206 F 
ATOM     89  C   UNL A   1      43.792  33.819  38.388  1.00  0.00     0.059 A 
ATOM     90  C   UNL A   1      41.809  34.824  39.318  1.00  0.00     0.059 A 
ATOM     91  F   UNL A   1      39.888  35.017  38.069  1.00  0.00    -0.206 F 
ATOM     92  C   UNL A   1      43.147  34.489  39.430  1.00  0.00     0.060 A 
BRANCH  92  93
ATOM     93  S   UNL A   1      44.073  35.028  40.886  1.00  0.00     0.124 S 
ATOM     94  O   UNL A   1      45.414  35.209  40.342  1.00  0.00    -0.237 OA
ATOM     95  O   UNL A   1      43.365  36.246  41.265  1.00  0.00    -0.237 OA
ATOM     96  O   UNL A   1      43.925  33.910  41.816  1.00  0.00    -0.744 OA
ENDBRANCH  92  93
ENDBRANCH  60  85
BRANCH  72  97
ATOM     97  C   UNL A   1      37.062  32.700  32.816  1.00  0.00     0.058 A 
ATOM     98  C   UNL A   1      37.231  34.096  32.799  1.00  0.00     0.135 A 
ATOM     99  C   UNL A   1      35.743  32.222  32.711  1.00  0.00     0.135 A 
ATOM    100  F   UNL A   1      38.450  34.653  32.786  1.00  0.00    -0.206 F 
ATOM    101  C   UNL A   1      36.142  34.969  32.714  1.00  0.00     0.059 A 
ATOM    102  C   UNL A   1      34.649  33.074  32.566  1.00  0.00     0.059 A 
ATOM    103  F   UNL A   1      35.506  30.899  32.682  1.00  0.00    -0.206 F 
ATOM    104  C   UNL A   1      34.858  34.449  32.569  1.00  0.00     0.060 A 
BRANCH 104 105
ATOM    105  S   UNL A   1      33.486  35.595  32.313  1.00  0.00     0.124 S 
ATOM    106  O   UNL A   1      32.327  34.768  32.634  1.00  0.00    -0.237 OA
ATOM    107  O   UNL A   1      33.788  36.654  33.273  1.00  0.00    -0.237 OA
ATOM    108  O   UNL A   1      33.612  35.976  30.910  1.00  0.00    -0.744 OA
ENDBRANCH 104 105
ENDBRANCH  72  97
ENDBRANCH  46  47
ENDBRANCH  39  41
ENDBRANCH  38  39
ENDBRANCH  37  38
ENDBRANCH  36  37
ENDBRANCH  35  36
ENDBRANCH   1  35
TORSDOF 22
ENDMDL
