MODEL 1
REMARK VINA RESULT:     -11.4      0.000      0.000
REMARK SMILES Cc1ccc(NS(=O)(=O)N2CCCC[C@@H]2C(=O)OCCOC(=O)c2ccc(-c3c4nc(c(-c5c(F)cc(S(=O)(=O)[O-])cc5F)c5ccc([nH]5)c(-c5c(F)cc(S(=O)(=O)[O-])cc5F)c5nc(c(-c6c(F)cc(S(=O)(=O)[O-])cc6F)c6ccc3[nH]6)C=C5)C=C4)cc2)c(C)n1
REMARK SMILES IDX 19 1 18 2 16 3 17 4 15 5 10 6 11 7 12 8 14 9 13 10 7 11 8 12
REMARK SMILES IDX 9 13 6 14 5 16 1 17 2 18 3 19 92 20 4 21 90 22 91 23 20 24
REMARK SMILES IDX 21 25 22 26 23 27 24 28 25 29 89 30 26 31 88 32 27 33 28 34
REMARK SMILES IDX 29 35 82 36 30 37 87 38 81 39 83 40 31 41 86 42 80 43 79 44
REMARK SMILES IDX 32 46 66 47 45 48 65 49 46 50 49 51 64 52 84 53 47 54 48 55
REMARK SMILES IDX 63 57 85 58 50 59 33 60 34 61 43 62 35 63 36 64 42 65 44 66
REMARK SMILES IDX 37 67 38 68 39 69 40 70 41 71 67 72 68 73 77 74 69 75 70 76
REMARK SMILES IDX 76 77 78 78 71 79 72 80 73 81 74 82 75 83 51 84 52 85 61 86
REMARK SMILES IDX 53 87 54 88 60 89 62 90 55 91 56 92 57 93 58 94 59 95
REMARK H PARENT 6 15 83 45 49 56
REMARK Flexibility Score: inf
ROOT
ATOM      1  C   UNL A   1      32.168  30.217  25.821  1.00  0.00     0.274 C 
ENDROOT
BRANCH   1   2
ATOM      2  O   UNL A   1      33.225  29.683  24.997  1.00  0.00    -0.461 OA
BRANCH   2   3
ATOM      3  C   UNL A   1      32.834  28.912  23.942  1.00  0.00     0.324 C 
ATOM      4  O   UNL A   1      33.479  28.819  22.902  1.00  0.00    -0.250 OA
BRANCH   3   5
ATOM      5  C   UNL A   1      31.515  28.160  24.172  1.00  0.00     0.184 C 
ATOM      6  N   UNL A   1      31.563  26.687  24.456  1.00  0.00    -0.170 NA
ATOM      7  C   UNL A   1      30.235  26.228  24.970  1.00  0.00     0.105 C 
ATOM      8  C   UNL A   1      29.195  26.377  23.865  1.00  0.00     0.017 C 
ATOM      9  C   UNL A   1      30.507  28.383  23.025  1.00  0.00     0.032 C 
ATOM     10  C   UNL A   1      29.124  27.810  23.349  1.00  0.00     0.004 C 
BRANCH   6  11
ATOM     11  S   UNL A   1      32.847  26.093  25.368  1.00  0.00     0.302 S 
ATOM     12  O   UNL A   1      32.996  26.916  26.549  1.00  0.00    -0.189 OA
ATOM     13  O   UNL A   1      33.965  25.897  24.484  1.00  0.00    -0.189 OA
BRANCH  11  14
ATOM     14  N   UNL A   1      32.338  24.609  25.863  1.00  0.00    -0.269 N 
ATOM     15  H   UNL A   1      31.486  24.608  26.356  1.00  0.00     0.181 HD
BRANCH  14  16
ATOM     16  C   UNL A   1      32.935  23.318  25.694  1.00  0.00     0.071 A 
ATOM     17  C   UNL A   1      36.181  20.665  25.099  1.00  0.00     0.067 C 
ATOM     18  C   UNL A   1      34.916  21.397  25.425  1.00  0.00     0.038 A 
ATOM     19  C   UNL A   1      34.726  21.976  26.665  1.00  0.00     0.026 A 
ATOM     20  N   UNL A   1      34.073  21.622  24.400  1.00  0.00    -0.256 NA
ATOM     21  C   UNL A   1      33.732  22.944  26.790  1.00  0.00     0.030 A 
ATOM     22  C   UNL A   1      33.073  22.544  24.536  1.00  0.00     0.062 A 
ATOM     23  C   UNL A   1      32.229  22.610  23.309  1.00  0.00     0.069 C 
ENDBRANCH  14  16
ENDBRANCH  11  14
ENDBRANCH   6  11
ENDBRANCH   3   5
ENDBRANCH   2   3
ENDBRANCH   1   2
BRANCH   1  24
ATOM     24  C   UNL A   1      32.658  30.858  27.118  1.00  0.00     0.275 C 
BRANCH  24  25
ATOM     25  O   UNL A   1      33.766  30.144  27.675  1.00  0.00    -0.458 OA
BRANCH  25  26
ATOM     26  C   UNL A   1      34.579  30.912  28.432  1.00  0.00     0.338 C 
ATOM     27  O   UNL A   1      34.272  31.877  29.110  1.00  0.00    -0.246 OA
BRANCH  26  28
ATOM     28  C   UNL A   1      35.905  30.297  28.480  1.00  0.00     0.060 A 
ATOM     29  C   UNL A   1      36.381  29.907  29.732  1.00  0.00     0.016 A 
ATOM     30  C   UNL A   1      36.699  30.192  27.344  1.00  0.00     0.016 A 
ATOM     31  C   UNL A   1      37.663  29.418  29.875  1.00  0.00     0.010 A 
ATOM     32  C   UNL A   1      37.997  29.704  27.483  1.00  0.00     0.010 A 
ATOM     33  C   UNL A   1      38.484  29.336  28.751  1.00  0.00    -0.014 A 
BRANCH  33  34
ATOM     34  C   UNL A   1      39.906  28.997  28.936  1.00  0.00     0.031 A 
ATOM     35  C   UNL A   1      40.827  30.067  29.437  1.00  0.00     0.074 A 
ATOM     36  C   UNL A   1      40.333  27.745  28.700  1.00  0.00     0.049 A 
ATOM     37  N   UNL A   1      42.130  30.078  29.488  1.00  0.00    -0.248 NA
ATOM     38  C   UNL A   1      40.192  31.300  29.939  1.00  0.00     0.031 C 
ATOM     39  C   UNL A   1      39.479  26.618  28.311  1.00  0.00     0.029 A 
ATOM     40  N   UNL A   1      41.592  27.212  28.743  1.00  0.00    -0.354 N 
ATOM     41  C   UNL A   1      42.475  31.324  29.996  1.00  0.00     0.074 A 
ATOM     42  C   UNL A   1      41.246  32.053  30.218  1.00  0.00     0.031 C 
ATOM     43  C   UNL A   1      40.245  25.530  28.136  1.00  0.00     0.029 A 
ATOM     44  C   UNL A   1      41.642  25.902  28.330  1.00  0.00     0.049 A 
ATOM     45  H   UNL A   1      42.383  27.716  29.040  1.00  0.00     0.167 HD
ATOM     46  C   UNL A   1      43.712  31.802  30.257  1.00  0.00     0.037 A 
ATOM     47  C   UNL A   1      42.708  25.119  28.082  1.00  0.00     0.037 A 
ATOM     48  C   UNL A   1      44.910  31.037  30.035  1.00  0.00     0.049 A 
ATOM     49  C   UNL A   1      44.078  25.709  28.285  1.00  0.00     0.074 A 
ATOM     50  C   UNL A   1      46.225  31.416  30.217  1.00  0.00     0.029 A 
ATOM     51  N   UNL A   1      44.927  29.719  29.594  1.00  0.00    -0.354 N 
ATOM     52  N   UNL A   1      44.406  26.910  28.703  1.00  0.00    -0.248 NA
ATOM     53  C   UNL A   1      45.224  24.845  27.978  1.00  0.00     0.031 C 
ATOM     54  C   UNL A   1      47.041  30.339  29.851  1.00  0.00     0.029 A 
ATOM     55  C   UNL A   1      46.231  29.271  29.491  1.00  0.00     0.049 A 
ATOM     56  H   UNL A   1      44.129  29.182  29.383  1.00  0.00     0.167 HD
ATOM     57  C   UNL A   1      45.795  26.935  28.739  1.00  0.00     0.074 A 
ATOM     58  C   UNL A   1      46.242  25.623  28.314  1.00  0.00     0.031 C 
ATOM     59  C   UNL A   1      46.630  27.945  29.088  1.00  0.00     0.037 A 
BRANCH  46  60
ATOM     60  C   UNL A   1      43.826  33.208  30.776  1.00  0.00     0.058 A 
ATOM     61  C   UNL A   1      43.850  34.314  29.913  1.00  0.00     0.135 A 
ATOM     62  C   UNL A   1      43.887  33.456  32.158  1.00  0.00     0.135 A 
ATOM     63  F   UNL A   1      43.825  34.136  28.582  1.00  0.00    -0.206 F 
ATOM     64  C   UNL A   1      43.946  35.616  30.399  1.00  0.00     0.059 A 
ATOM     65  C   UNL A   1      43.954  34.750  32.667  1.00  0.00     0.059 A 
ATOM     66  F   UNL A   1      43.880  32.434  33.029  1.00  0.00    -0.206 F 
ATOM     67  C   UNL A   1      43.992  35.823  31.779  1.00  0.00     0.060 A 
BRANCH  67  68
ATOM     68  S   UNL A   1      44.089  37.519  32.390  1.00  0.00     0.124 S 
ATOM     69  O   UNL A   1      43.761  38.281  31.189  1.00  0.00    -0.237 OA
ATOM     70  O   UNL A   1      43.079  37.527  33.443  1.00  0.00    -0.237 OA
ATOM     71  O   UNL A   1      45.470  37.638  32.848  1.00  0.00    -0.744 OA
ENDBRANCH  67  68
ENDBRANCH  46  60
BRANCH  47  72
ATOM     72  C   UNL A   1      42.528  23.734  27.569  1.00  0.00     0.058 A 
ATOM     73  C   UNL A   1      42.468  22.639  28.443  1.00  0.00     0.135 A 
ATOM     74  C   UNL A   1      42.443  23.472  26.191  1.00  0.00     0.135 A 
ATOM     75  F   UNL A   1      42.547  22.834  29.768  1.00  0.00    -0.206 F 
ATOM     76  C   UNL A   1      42.368  21.333  27.972  1.00  0.00     0.059 A 
ATOM     77  C   UNL A   1      42.309  22.178  25.697  1.00  0.00     0.059 A 
ATOM     78  F   UNL A   1      42.479  24.482  25.308  1.00  0.00    -0.206 F 
ATOM     79  C   UNL A   1      42.296  21.113  26.596  1.00  0.00     0.060 A 
BRANCH  79  80
ATOM     80  S   UNL A   1      42.184  19.414  25.993  1.00  0.00     0.124 S 
ATOM     81  O   UNL A   1      40.758  19.297  25.714  1.00  0.00    -0.237 OA
ATOM     82  O   UNL A   1      43.063  19.442  24.829  1.00  0.00    -0.237 OA
ATOM     83  O   UNL A   1      42.673  18.625  27.120  1.00  0.00    -0.744 OA
ENDBRANCH  79  80
ENDBRANCH  47  72
BRANCH  59  84
ATOM     84  C   UNL A   1      48.102  27.644  29.081  1.00  0.00     0.058 A 
ATOM     85  C   UNL A   1      48.732  27.014  30.164  1.00  0.00     0.135 A 
ATOM     86  C   UNL A   1      48.876  27.947  27.949  1.00  0.00     0.135 A 
ATOM     87  F   UNL A   1      48.036  26.714  31.271  1.00  0.00    -0.206 F 
ATOM     88  C   UNL A   1      50.091  26.719  30.136  1.00  0.00     0.059 A 
ATOM     89  C   UNL A   1      50.227  27.630  27.887  1.00  0.00     0.059 A 
ATOM     90  F   UNL A   1      48.313  28.538  26.883  1.00  0.00    -0.206 F 
ATOM     91  C   UNL A   1      50.827  27.027  28.991  1.00  0.00     0.060 A 
BRANCH  91  92
ATOM     92  S   UNL A   1      52.580  26.601  28.953  1.00  0.00     0.124 S 
ATOM     93  O   UNL A   1      52.749  25.938  30.241  1.00  0.00    -0.237 OA
ATOM     94  O   UNL A   1      52.665  25.738  27.778  1.00  0.00    -0.237 OA
ATOM     95  O   UNL A   1      53.242  27.896  28.820  1.00  0.00    -0.744 OA
ENDBRANCH  91  92
ENDBRANCH  59  84
ENDBRANCH  33  34
ENDBRANCH  26  28
ENDBRANCH  25  26
ENDBRANCH  24  25
ENDBRANCH   1  24
TORSDOF 17
ENDMDL
MODEL 2
REMARK VINA RESULT:     -10.7      5.405     11.373
REMARK SMILES Cc1ccc(NS(=O)(=O)N2CCCC[C@@H]2C(=O)OCCOC(=O)c2ccc(-c3c4nc(c(-c5c(F)cc(S(=O)(=O)[O-])cc5F)c5ccc([nH]5)c(-c5c(F)cc(S(=O)(=O)[O-])cc5F)c5nc(c(-c6c(F)cc(S(=O)(=O)[O-])cc6F)c6ccc3[nH]6)C=C5)C=C4)cc2)c(C)n1
REMARK SMILES IDX 19 1 18 2 16 3 17 4 15 5 10 6 11 7 12 8 14 9 13 10 7 11 8 12
REMARK SMILES IDX 9 13 6 14 5 16 1 17 2 18 3 19 92 20 4 21 90 22 91 23 20 24
REMARK SMILES IDX 21 25 22 26 23 27 24 28 25 29 89 30 26 31 88 32 27 33 28 34
REMARK SMILES IDX 29 35 82 36 30 37 87 38 81 39 83 40 31 41 86 42 80 43 79 44
REMARK SMILES IDX 32 46 66 47 45 48 65 49 46 50 49 51 64 52 84 53 47 54 48 55
REMARK SMILES IDX 63 57 85 58 50 59 33 60 34 61 43 62 35 63 36 64 42 65 44 66
REMARK SMILES IDX 37 67 38 68 39 69 40 70 41 71 67 72 68 73 77 74 69 75 70 76
REMARK SMILES IDX 76 77 78 78 71 79 72 80 73 81 74 82 75 83 51 84 52 85 61 86
REMARK SMILES IDX 53 87 54 88 60 89 62 90 55 91 56 92 57 93 58 94 59 95
REMARK H PARENT 6 15 83 45 49 56
REMARK Flexibility Score: inf
ROOT
ATOM      1  C   UNL A   1      45.877  23.627  25.626  1.00  0.00     0.274 C 
ENDROOT
BRANCH   1   2
ATOM      2  O   UNL A   1      44.824  22.821  26.197  1.00  0.00    -0.461 OA
BRANCH   2   3
ATOM      3  C   UNL A   1      43.782  22.520  25.371  1.00  0.00     0.324 C 
ATOM      4  O   UNL A   1      43.261  23.339  24.619  1.00  0.00    -0.250 OA
BRANCH   3   5
ATOM      5  C   UNL A   1      43.319  21.058  25.455  1.00  0.00     0.184 C 
ATOM      6  N   UNL A   1      42.552  20.611  26.665  1.00  0.00    -0.170 NA
ATOM      7  C   UNL A   1      41.922  19.281  26.400  1.00  0.00     0.105 C 
ATOM      8  C   UNL A   1      43.018  18.236  26.226  1.00  0.00     0.017 C 
ATOM      9  C   UNL A   1      44.479  20.064  25.242  1.00  0.00     0.032 C 
ATOM     10  C   UNL A   1      43.990  18.618  25.115  1.00  0.00     0.004 C 
BRANCH   6  11
ATOM     11  S   UNL A   1      41.485  21.700  27.379  1.00  0.00     0.302 S 
ATOM     12  O   UNL A   1      42.237  22.844  27.849  1.00  0.00    -0.189 OA
ATOM     13  O   UNL A   1      40.650  20.967  28.292  1.00  0.00    -0.189 OA
BRANCH  11  14
ATOM     14  N   UNL A   1      40.537  22.210  26.136  1.00  0.00    -0.269 N 
ATOM     15  H   UNL A   1      41.011  22.344  25.284  1.00  0.00     0.181 HD
BRANCH  14  16
ATOM     16  C   UNL A   1      39.133  22.491  26.093  1.00  0.00     0.071 A 
ATOM     17  C   UNL A   1      35.504  23.512  24.164  1.00  0.00     0.067 C 
ATOM     18  C   UNL A   1      36.633  23.033  25.025  1.00  0.00     0.038 A 
ATOM     19  C   UNL A   1      37.145  21.757  24.885  1.00  0.00     0.026 A 
ATOM     20  N   UNL A   1      37.237  23.960  25.792  1.00  0.00    -0.256 NA
ATOM     21  C   UNL A   1      38.404  21.495  25.420  1.00  0.00     0.030 A 
ATOM     22  C   UNL A   1      38.454  23.687  26.349  1.00  0.00     0.062 A 
ATOM     23  C   UNL A   1      38.927  24.822  27.193  1.00  0.00     0.069 C 
ENDBRANCH  14  16
ENDBRANCH  11  14
ENDBRANCH   6  11
ENDBRANCH   3   5
ENDBRANCH   2   3
ENDBRANCH   1   2
BRANCH   1  24
ATOM     24  C   UNL A   1      45.919  25.058  26.158  1.00  0.00     0.275 C 
BRANCH  24  25
ATOM     25  O   UNL A   1      44.770  25.359  26.956  1.00  0.00    -0.458 OA
BRANCH  25  26
ATOM     26  C   UNL A   1      43.984  26.324  26.430  1.00  0.00     0.338 C 
ATOM     27  O   UNL A   1      43.730  26.518  25.254  1.00  0.00    -0.246 OA
BRANCH  26  28
ATOM     28  C   UNL A   1      43.300  27.024  27.516  1.00  0.00     0.060 A 
ATOM     29  C   UNL A   1      43.691  28.338  27.773  1.00  0.00     0.016 A 
ATOM     30  C   UNL A   1      42.366  26.381  28.321  1.00  0.00     0.016 A 
ATOM     31  C   UNL A   1      43.169  29.030  28.847  1.00  0.00     0.010 A 
ATOM     32  C   UNL A   1      41.840  27.073  29.410  1.00  0.00     0.010 A 
ATOM     33  C   UNL A   1      42.256  28.389  29.684  1.00  0.00    -0.014 A 
BRANCH  33  34
ATOM     34  C   UNL A   1      41.850  29.058  30.931  1.00  0.00     0.031 A 
ATOM     35  C   UNL A   1      40.637  29.937  30.898  1.00  0.00     0.074 A 
ATOM     36  C   UNL A   1      42.536  28.836  32.065  1.00  0.00     0.049 A 
ATOM     37  N   UNL A   1      40.202  30.779  31.794  1.00  0.00    -0.248 NA
ATOM     38  C   UNL A   1      39.805  29.865  29.683  1.00  0.00     0.031 C 
ATOM     39  C   UNL A   1      43.665  27.911  32.204  1.00  0.00     0.029 A 
ATOM     40  N   UNL A   1      42.390  29.377  33.313  1.00  0.00    -0.354 N 
ATOM     41  C   UNL A   1      39.067  31.360  31.243  1.00  0.00     0.074 A 
ATOM     42  C   UNL A   1      38.890  30.793  29.925  1.00  0.00     0.031 C 
ATOM     43  C   UNL A   1      44.119  27.963  33.467  1.00  0.00     0.029 A 
ATOM     44  C   UNL A   1      43.361  28.972  34.198  1.00  0.00     0.049 A 
ATOM     45  H   UNL A   1      41.662  29.994  33.554  1.00  0.00     0.167 HD
ATOM     46  C   UNL A   1      38.249  32.280  31.802  1.00  0.00     0.037 A 
ATOM     47  C   UNL A   1      43.634  29.417  35.438  1.00  0.00     0.037 A 
ATOM     48  C   UNL A   1      38.453  32.808  33.124  1.00  0.00     0.049 A 
ATOM     49  C   UNL A   1      42.768  30.514  36.000  1.00  0.00     0.074 A 
ATOM     50  C   UNL A   1      37.725  33.773  33.793  1.00  0.00     0.029 A 
ATOM     51  N   UNL A   1      39.461  32.393  33.987  1.00  0.00    -0.354 N 
ATOM     52  N   UNL A   1      41.734  31.112  35.452  1.00  0.00    -0.248 NA
ATOM     53  C   UNL A   1      43.105  31.005  37.340  1.00  0.00     0.031 C 
ATOM     54  C   UNL A   1      38.314  33.968  35.047  1.00  0.00     0.029 A 
ATOM     55  C   UNL A   1      39.378  33.087  35.180  1.00  0.00     0.049 A 
ATOM     56  H   UNL A   1      40.136  31.707  33.780  1.00  0.00     0.167 HD
ATOM     57  C   UNL A   1      41.279  32.026  36.394  1.00  0.00     0.074 A 
ATOM     58  C   UNL A   1      42.143  31.890  37.551  1.00  0.00     0.031 C 
ATOM     59  C   UNL A   1      40.245  32.901  36.317  1.00  0.00     0.037 A 
BRANCH  46  60
ATOM     60  C   UNL A   1      37.095  32.783  30.981  1.00  0.00     0.058 A 
ATOM     61  C   UNL A   1      35.788  32.310  31.177  1.00  0.00     0.135 A 
ATOM     62  C   UNL A   1      37.293  33.771  30.002  1.00  0.00     0.135 A 
ATOM     63  F   UNL A   1      35.544  31.345  32.078  1.00  0.00    -0.206 F 
ATOM     64  C   UNL A   1      34.720  32.787  30.421  1.00  0.00     0.059 A 
ATOM     65  C   UNL A   1      36.236  34.283  29.254  1.00  0.00     0.059 A 
ATOM     66  F   UNL A   1      38.524  34.250  29.764  1.00  0.00    -0.206 F 
ATOM     67  C   UNL A   1      34.954  33.777  29.465  1.00  0.00     0.060 A 
BRANCH  67  68
ATOM     68  S   UNL A   1      33.553  34.401  28.514  1.00  0.00     0.124 S 
ATOM     69  O   UNL A   1      32.632  34.796  29.575  1.00  0.00    -0.237 OA
ATOM     70  O   UNL A   1      34.153  35.494  27.756  1.00  0.00    -0.237 OA
ATOM     71  O   UNL A   1      33.137  33.247  27.723  1.00  0.00    -0.744 OA
ENDBRANCH  67  68
ENDBRANCH  46  60
BRANCH  47  72
ATOM     72  C   UNL A   1      44.792  28.878  36.200  1.00  0.00     0.058 A 
ATOM     73  C   UNL A   1      44.648  27.771  37.050  1.00  0.00     0.135 A 
ATOM     74  C   UNL A   1      46.061  29.474  36.118  1.00  0.00     0.135 A 
ATOM     75  F   UNL A   1      43.457  27.166  37.166  1.00  0.00    -0.206 F 
ATOM     76  C   UNL A   1      45.708  27.300  37.819  1.00  0.00     0.059 A 
ATOM     77  C   UNL A   1      47.144  29.000  36.851  1.00  0.00     0.059 A 
ATOM     78  F   UNL A   1      46.262  30.526  35.308  1.00  0.00    -0.206 F 
ATOM     79  C   UNL A   1      46.951  27.926  37.717  1.00  0.00     0.060 A 
BRANCH  79  80
ATOM     80  S   UNL A   1      48.315  27.317  38.732  1.00  0.00     0.124 S 
ATOM     81  O   UNL A   1      48.911  26.320  37.851  1.00  0.00    -0.237 OA
ATOM     82  O   UNL A   1      49.100  28.528  38.951  1.00  0.00    -0.237 OA
ATOM     83  O   UNL A   1      47.644  26.791  39.917  1.00  0.00    -0.744 OA
ENDBRANCH  79  80
ENDBRANCH  47  72
BRANCH  59  84
ATOM     84  C   UNL A   1      39.962  33.728  37.538  1.00  0.00     0.058 A 
ATOM     85  C   UNL A   1      40.624  34.941  37.779  1.00  0.00     0.135 A 
ATOM     86  C   UNL A   1      38.975  33.321  38.451  1.00  0.00     0.135 A 
ATOM     87  F   UNL A   1      41.581  35.368  36.940  1.00  0.00    -0.206 F 
ATOM     88  C   UNL A   1      40.336  35.710  38.900  1.00  0.00     0.059 A 
ATOM     89  C   UNL A   1      38.649  34.090  39.560  1.00  0.00     0.059 A 
ATOM     90  F   UNL A   1      38.306  32.174  38.255  1.00  0.00    -0.206 F 
ATOM     91  C   UNL A   1      39.344  35.277  39.782  1.00  0.00     0.060 A 
BRANCH  91  92
ATOM     92  S   UNL A   1      38.953  36.306  41.212  1.00  0.00     0.124 S 
ATOM     93  O   UNL A   1      37.831  35.580  41.798  1.00  0.00    -0.237 OA
ATOM     94  O   UNL A   1      40.199  36.269  41.971  1.00  0.00    -0.237 OA
ATOM     95  O   UNL A   1      38.625  37.600  40.621  1.00  0.00    -0.744 OA
ENDBRANCH  91  92
ENDBRANCH  59  84
ENDBRANCH  33  34
ENDBRANCH  26  28
ENDBRANCH  25  26
ENDBRANCH  24  25
ENDBRANCH   1  24
TORSDOF 17
ENDMDL
MODEL 3
REMARK VINA RESULT:     -10.5      1.351      2.161
REMARK SMILES Cc1ccc(NS(=O)(=O)N2CCCC[C@@H]2C(=O)OCCOC(=O)c2ccc(-c3c4nc(c(-c5c(F)cc(S(=O)(=O)[O-])cc5F)c5ccc([nH]5)c(-c5c(F)cc(S(=O)(=O)[O-])cc5F)c5nc(c(-c6c(F)cc(S(=O)(=O)[O-])cc6F)c6ccc3[nH]6)C=C5)C=C4)cc2)c(C)n1
REMARK SMILES IDX 19 1 18 2 16 3 17 4 15 5 10 6 11 7 12 8 14 9 13 10 7 11 8 12
REMARK SMILES IDX 9 13 6 14 5 16 1 17 2 18 3 19 92 20 4 21 90 22 91 23 20 24
REMARK SMILES IDX 21 25 22 26 23 27 24 28 25 29 89 30 26 31 88 32 27 33 28 34
REMARK SMILES IDX 29 35 82 36 30 37 87 38 81 39 83 40 31 41 86 42 80 43 79 44
REMARK SMILES IDX 32 46 66 47 45 48 65 49 46 50 49 51 64 52 84 53 47 54 48 55
REMARK SMILES IDX 63 57 85 58 50 59 33 60 34 61 43 62 35 63 36 64 42 65 44 66
REMARK SMILES IDX 37 67 38 68 39 69 40 70 41 71 67 72 68 73 77 74 69 75 70 76
REMARK SMILES IDX 76 77 78 78 71 79 72 80 73 81 74 82 75 83 51 84 52 85 61 86
REMARK SMILES IDX 53 87 54 88 60 89 62 90 55 91 56 92 57 93 58 94 59 95
REMARK H PARENT 6 15 83 45 49 56
REMARK Flexibility Score: inf
ROOT
ATOM      1  C   UNL A   1      32.542  30.161  27.220  1.00  0.00     0.274 C 
ENDROOT
BRANCH   1   2
ATOM      2  O   UNL A   1      32.169  30.364  25.841  1.00  0.00    -0.461 OA
BRANCH   2   3
ATOM      3  C   UNL A   1      32.392  29.316  24.998  1.00  0.00     0.324 C 
ATOM      4  O   UNL A   1      33.486  29.079  24.493  1.00  0.00    -0.250 OA
BRANCH   3   5
ATOM      5  C   UNL A   1      31.152  28.447  24.739  1.00  0.00     0.184 C 
ATOM      6  N   UNL A   1      31.264  26.959  24.910  1.00  0.00    -0.170 NA
ATOM      7  C   UNL A   1      29.898  26.351  24.939  1.00  0.00     0.105 C 
ATOM      8  C   UNL A   1      29.240  26.538  23.577  1.00  0.00     0.017 C 
ATOM      9  C   UNL A   1      30.529  28.714  23.353  1.00  0.00     0.032 C 
ATOM     10  C   UNL A   1      29.182  28.008  23.176  1.00  0.00     0.004 C 
BRANCH   6  11
ATOM     11  S   UNL A   1      32.259  26.370  26.133  1.00  0.00     0.302 S 
ATOM     12  O   UNL A   1      31.881  26.999  27.380  1.00  0.00    -0.189 OA
ATOM     13  O   UNL A   1      33.619  26.449  25.673  1.00  0.00    -0.189 OA
BRANCH  11  14
ATOM     14  N   UNL A   1      31.862  24.777  26.244  1.00  0.00    -0.269 N 
ATOM     15  H   UNL A   1      31.071  24.588  26.799  1.00  0.00     0.181 HD
BRANCH  14  16
ATOM     16  C   UNL A   1      32.481  23.623  25.665  1.00  0.00     0.071 A 
ATOM     17  C   UNL A   1      32.518  19.666  24.158  1.00  0.00     0.067 C 
ATOM     18  C   UNL A   1      32.711  21.104  24.531  1.00  0.00     0.038 A 
ATOM     19  C   UNL A   1      32.161  22.118  23.772  1.00  0.00     0.026 A 
ATOM     20  N   UNL A   1      33.275  21.341  25.731  1.00  0.00    -0.256 NA
ATOM     21  C   UNL A   1      32.044  23.380  24.350  1.00  0.00     0.030 A 
ATOM     22  C   UNL A   1      33.194  22.589  26.280  1.00  0.00     0.062 A 
ATOM     23  C   UNL A   1      33.917  22.652  27.583  1.00  0.00     0.069 C 
ENDBRANCH  14  16
ENDBRANCH  11  14
ENDBRANCH   6  11
ENDBRANCH   3   5
ENDBRANCH   2   3
ENDBRANCH   1   2
BRANCH   1  24
ATOM     24  C   UNL A   1      33.810  30.907  27.634  1.00  0.00     0.275 C 
BRANCH  24  25
ATOM     25  O   UNL A   1      34.730  30.049  28.313  1.00  0.00    -0.458 OA
BRANCH  25  26
ATOM     26  C   UNL A   1      35.626  30.711  29.077  1.00  0.00     0.338 C 
ATOM     27  O   UNL A   1      35.404  31.592  29.890  1.00  0.00    -0.246 OA
BRANCH  26  28
ATOM     28  C   UNL A   1      36.937  30.080  28.929  1.00  0.00     0.060 A 
ATOM     29  C   UNL A   1      37.639  29.789  30.098  1.00  0.00     0.016 A 
ATOM     30  C   UNL A   1      37.503  29.866  27.677  1.00  0.00     0.016 A 
ATOM     31  C   UNL A   1      38.925  29.291  30.040  1.00  0.00     0.010 A 
ATOM     32  C   UNL A   1      38.803  29.369  27.613  1.00  0.00     0.010 A 
ATOM     33  C   UNL A   1      39.520  29.101  28.794  1.00  0.00    -0.014 A 
BRANCH  33  34
ATOM     34  C   UNL A   1      40.951  28.755  28.738  1.00  0.00     0.031 A 
ATOM     35  C   UNL A   1      41.950  29.837  29.011  1.00  0.00     0.074 A 
ATOM     36  C   UNL A   1      41.324  27.487  28.493  1.00  0.00     0.049 A 
ATOM     37  N   UNL A   1      43.241  29.835  28.827  1.00  0.00    -0.248 NA
ATOM     38  C   UNL A   1      41.419  31.100  29.556  1.00  0.00     0.031 C 
ATOM     39  C   UNL A   1      40.411  26.353  28.321  1.00  0.00     0.029 A 
ATOM     40  N   UNL A   1      42.569  26.942  28.336  1.00  0.00    -0.354 N 
ATOM     41  C   UNL A   1      43.675  31.100  29.202  1.00  0.00     0.074 A 
ATOM     42  C   UNL A   1      42.509  31.854  29.603  1.00  0.00     0.031 C 
ATOM     43  C   UNL A   1      41.130  25.248  28.067  1.00  0.00     0.029 A 
ATOM     44  C   UNL A   1      42.540  25.613  27.988  1.00  0.00     0.049 A 
ATOM     45  H   UNL A   1      43.403  27.450  28.461  1.00  0.00     0.167 HD
ATOM     46  C   UNL A   1      44.941  31.576  29.212  1.00  0.00     0.037 A 
ATOM     47  C   UNL A   1      43.542  24.805  27.593  1.00  0.00     0.037 A 
ATOM     48  C   UNL A   1      46.076  30.785  28.818  1.00  0.00     0.049 A 
ATOM     49  C   UNL A   1      44.929  25.388  27.518  1.00  0.00     0.074 A 
ATOM     50  C   UNL A   1      47.405  31.157  28.742  1.00  0.00     0.029 A 
ATOM     51  N   UNL A   1      46.011  29.447  28.448  1.00  0.00    -0.354 N 
ATOM     52  N   UNL A   1      45.330  26.605  27.808  1.00  0.00    -0.248 NA
ATOM     53  C   UNL A   1      45.998  24.497  27.054  1.00  0.00     0.031 C 
ATOM     54  C   UNL A   1      48.138  30.055  28.291  1.00  0.00     0.029 A 
ATOM     55  C   UNL A   1      47.274  28.980  28.137  1.00  0.00     0.049 A 
ATOM     56  H   UNL A   1      45.186  28.911  28.412  1.00  0.00     0.167 HD
ATOM     57  C   UNL A   1      46.703  26.615  27.594  1.00  0.00     0.074 A 
ATOM     58  C   UNL A   1      47.062  25.278  27.162  1.00  0.00     0.031 C 
ATOM     59  C   UNL A   1      47.590  27.631  27.736  1.00  0.00     0.037 A 
BRANCH  46  60
ATOM     60  C   UNL A   1      45.150  33.003  29.631  1.00  0.00     0.058 A 
ATOM     61  C   UNL A   1      45.446  33.348  30.960  1.00  0.00     0.135 A 
ATOM     62  C   UNL A   1      45.080  34.042  28.688  1.00  0.00     0.135 A 
ATOM     63  F   UNL A   1      45.496  32.400  31.910  1.00  0.00    -0.206 F 
ATOM     64  C   UNL A   1      45.649  34.671  31.341  1.00  0.00     0.059 A 
ATOM     65  C   UNL A   1      45.307  35.369  29.041  1.00  0.00     0.059 A 
ATOM     66  F   UNL A   1      44.788  33.771  27.405  1.00  0.00    -0.206 F 
ATOM     67  C   UNL A   1      45.582  35.674  30.373  1.00  0.00     0.060 A 
BRANCH  67  68
ATOM     68  S   UNL A   1      45.875  37.381  30.882  1.00  0.00     0.124 S 
ATOM     69  O   UNL A   1      45.508  38.114  29.673  1.00  0.00    -0.237 OA
ATOM     70  O   UNL A   1      44.966  37.528  32.013  1.00  0.00    -0.237 OA
ATOM     71  O   UNL A   1      47.296  37.398  31.216  1.00  0.00    -0.744 OA
ENDBRANCH  67  68
ENDBRANCH  46  60
BRANCH  47  72
ATOM     72  C   UNL A   1      43.269  23.399  27.191  1.00  0.00     0.058 A 
ATOM     73  C   UNL A   1      43.192  23.034  25.839  1.00  0.00     0.135 A 
ATOM     74  C   UNL A   1      43.049  22.396  28.150  1.00  0.00     0.135 A 
ATOM     75  F   UNL A   1      43.392  23.954  24.884  1.00  0.00    -0.206 F 
ATOM     76  C   UNL A   1      42.871  21.737  25.451  1.00  0.00     0.059 A 
ATOM     77  C   UNL A   1      42.759  21.085  27.787  1.00  0.00     0.059 A 
ATOM     78  F   UNL A   1      43.126  22.684  29.458  1.00  0.00    -0.206 F 
ATOM     79  C   UNL A   1      42.649  20.771  26.433  1.00  0.00     0.060 A 
BRANCH  79  80
ATOM     80  S   UNL A   1      42.216  19.094  25.920  1.00  0.00     0.124 S 
ATOM     81  O   UNL A   1      42.991  18.955  24.693  1.00  0.00    -0.237 OA
ATOM     82  O   UNL A   1      42.669  18.298  27.056  1.00  0.00    -0.237 OA
ATOM     83  O   UNL A   1      40.768  19.160  25.747  1.00  0.00    -0.744 OA
ENDBRANCH  79  80
ENDBRANCH  47  72
BRANCH  59  84
ATOM     84  C   UNL A   1      49.035  27.312  27.480  1.00  0.00     0.058 A 
ATOM     85  C   UNL A   1      49.882  26.854  28.500  1.00  0.00     0.135 A 
ATOM     86  C   UNL A   1      49.560  27.420  26.183  1.00  0.00     0.135 A 
ATOM     87  F   UNL A   1      49.429  26.744  29.759  1.00  0.00    -0.206 F 
ATOM     88  C   UNL A   1      51.212  26.539  28.247  1.00  0.00     0.059 A 
ATOM     89  C   UNL A   1      50.877  27.079  25.901  1.00  0.00     0.059 A 
ATOM     90  F   UNL A   1      48.784  27.841  25.172  1.00  0.00    -0.206 F 
ATOM     91  C   UNL A   1      51.698  26.651  26.942  1.00  0.00     0.060 A 
BRANCH  91  92
ATOM     92  S   UNL A   1      53.415  26.200  26.620  1.00  0.00     0.124 S 
ATOM     93  O   UNL A   1      53.275  24.826  26.151  1.00  0.00    -0.237 OA
ATOM     94  O   UNL A   1      53.809  27.178  25.611  1.00  0.00    -0.237 OA
ATOM     95  O   UNL A   1      54.058  26.359  27.921  1.00  0.00    -0.744 OA
ENDBRANCH  91  92
ENDBRANCH  59  84
ENDBRANCH  33  34
ENDBRANCH  26  28
ENDBRANCH  25  26
ENDBRANCH  24  25
ENDBRANCH   1  24
TORSDOF 17
ENDMDL
