MODEL 1
REMARK VINA RESULT:     -13.8      0.000      0.000
REMARK SMILES Cc1cccc(CNC(=O)N[C@@H](CC2=c3ccccc3=NC2)C(=O)OCCOC(=O)c2ccc(-c3c4nc(c(-c5c(F)cc(S(=O)(=O)[O-])cc5F)c5ccc([nH]5)c(-c5c(F)cc(S(=O)(=O)[O-])cc5F)c5nc(c(-c6c(F)cc(S(=O)(=O)[O-])cc6F)c6ccc3[nH]6)C=C5)C=C4)cc2)c1
REMARK SMILES IDX 26 1 25 2 23 3 24 4 12 5 11 6 8 7 9 8 10 10 7 12 6 13 1 14
REMARK SMILES IDX 2 15 3 16 97 17 4 18 5 19 13 20 14 21 15 22 22 23 16 24
REMARK SMILES IDX 20 25 21 26 17 27 19 28 18 29 27 30 28 31 29 32 30 33 31 34
REMARK SMILES IDX 32 35 96 36 33 37 95 38 34 39 35 40 36 41 89 42 37 43 94 44
REMARK SMILES IDX 88 45 90 46 38 47 93 48 87 49 86 50 39 52 73 53 52 54 72 55
REMARK SMILES IDX 53 56 56 57 71 58 91 59 54 60 55 61 70 63 92 64 57 65 40 66
REMARK SMILES IDX 41 67 50 68 42 69 43 70 49 71 51 72 44 73 45 74 46 75 47 76
REMARK SMILES IDX 48 77 74 78 75 79 84 80 76 81 77 82 83 83 85 84 78 85 79 86
REMARK SMILES IDX 80 87 81 88 82 89 58 90 59 91 68 92 60 93 61 94 67 95 69 96
REMARK SMILES IDX 62 97 63 98 64 99 65 100 66 101
REMARK H PARENT 8 9 11 11 90 51 56 62
REMARK Flexibility Score: inf
ROOT
ATOM      1  C   UNL A   1      32.663  30.534  26.317  1.00  0.00     0.274 C 
ENDROOT
BRANCH   1   2
ATOM      2  O   UNL A   1      33.690  29.559  26.027  1.00  0.00    -0.461 OA
BRANCH   2   3
ATOM      3  C   UNL A   1      33.416  28.622  24.945  1.00  0.00     0.329 C 
ATOM      4  O   UNL A   1      33.854  29.213  23.917  1.00  0.00    -0.250 OA
BRANCH   3   5
ATOM      5  C   UNL A   1      32.620  26.590  25.230  1.00  0.00     0.198 C 
BRANCH   5   6
ATOM      6  N   UNL A   1      31.168  25.919  24.711  1.00  0.00    -0.324 N 
ATOM      7  N   UNL A   1      29.873  27.164  23.118  1.00  0.00    -0.334 N 
ATOM      8  C   UNL A   1      30.081  26.189  23.995  1.00  0.00     0.315 C 
ATOM      9  H   UNL A   1      28.933  27.161  22.826  1.00  0.00     0.165 HD
ATOM     10  O   UNL A   1      29.124  25.420  24.172  1.00  0.00    -0.249 OA
ATOM     11  H   UNL A   1      31.099  25.001  25.059  1.00  0.00     0.166 HD
BRANCH   7  12
ATOM     12  C   UNL A   1      30.598  28.236  22.453  1.00  0.00     0.153 C 
BRANCH  12  13
ATOM     13  C   UNL A   1      29.985  29.620  22.623  1.00  0.00    -0.028 A 
ATOM     14  C   UNL A   1      27.967  32.101  20.495  1.00  0.00     0.044 C 
ATOM     15  C   UNL A   1      28.692  31.471  21.651  1.00  0.00    -0.051 A 
ATOM     16  C   UNL A   1      28.556  32.037  22.921  1.00  0.00     0.003 A 
ATOM     17  C   UNL A   1      29.401  30.264  21.511  1.00  0.00     0.009 A 
ATOM     18  C   UNL A   1      29.153  31.432  24.024  1.00  0.00     0.001 A 
ATOM     19  C   UNL A   1      29.868  30.241  23.877  1.00  0.00     0.005 A 
ENDBRANCH  12  13
ENDBRANCH   7  12
ENDBRANCH   5   6
BRANCH   5  20
ATOM     20  C   UNL A   1      33.392  24.945  25.228  1.00  0.00     0.070 C 
BRANCH  20  21
ATOM     21  C   UNL A   1      34.589  24.401  24.441  1.00  0.00    -0.037 C 
ATOM     22  C   UNL A   1      35.825  23.997  24.744  1.00  0.00     0.001 A 
ATOM     23  C   UNL A   1      34.335  24.060  22.984  1.00  0.00     0.174 C 
ATOM     24  C   UNL A   1      36.747  24.102  25.829  1.00  0.00     0.010 A 
ATOM     25  C   UNL A   1      36.025  22.947  23.718  1.00  0.00     0.065 A 
ATOM     26  N   UNL A   1      35.287  22.983  22.656  1.00  0.00    -0.280 NA
ATOM     27  C   UNL A   1      37.595  23.087  26.074  1.00  0.00     0.001 A 
ATOM     28  C   UNL A   1      36.935  21.835  24.080  1.00  0.00     0.028 A 
ATOM     29  C   UNL A   1      37.602  21.898  25.244  1.00  0.00     0.002 A 
ENDBRANCH  20  21
ENDBRANCH   5  20
ENDBRANCH   3   5
ENDBRANCH   2   3
ENDBRANCH   1   2
BRANCH   1  30
ATOM     30  C   UNL A   1      33.045  31.277  27.604  1.00  0.00     0.275 C 
BRANCH  30  31
ATOM     31  O   UNL A   1      33.859  32.465  27.404  1.00  0.00    -0.458 OA
BRANCH  31  32
ATOM     32  C   UNL A   1      35.088  32.572  27.966  1.00  0.00     0.338 C 
ATOM     33  O   UNL A   1      35.719  33.606  28.109  1.00  0.00    -0.246 OA
BRANCH  32  34
ATOM     34  C   UNL A   1      35.576  31.294  28.493  1.00  0.00     0.060 A 
ATOM     35  C   UNL A   1      35.583  30.910  30.253  1.00  0.00     0.016 A 
ATOM     36  C   UNL A   1      36.707  30.442  27.412  1.00  0.00     0.016 A 
ATOM     37  C   UNL A   1      36.867  29.826  30.965  1.00  0.00     0.010 A 
ATOM     38  C   UNL A   1      37.996  29.386  28.109  1.00  0.00     0.010 A 
ATOM     39  C   UNL A   1      38.092  29.112  29.879  1.00  0.00    -0.014 A 
BRANCH  39  40
ATOM     40  C   UNL A   1      39.509  28.869  30.190  1.00  0.00     0.031 A 
ATOM     41  C   UNL A   1      40.151  27.695  29.566  1.00  0.00     0.074 A 
ATOM     42  C   UNL A   1      40.250  29.952  30.527  1.00  0.00     0.049 A 
ATOM     43  N   UNL A   1      41.190  27.748  28.800  1.00  0.00    -0.248 NA
ATOM     44  C   UNL A   1      39.577  26.353  29.708  1.00  0.00     0.031 C 
ATOM     45  C   UNL A   1      41.680  30.164  30.333  1.00  0.00     0.029 A 
ATOM     46  N   UNL A   1      39.878  31.101  31.202  1.00  0.00    -0.354 N 
ATOM     47  C   UNL A   1      41.522  26.456  28.470  1.00  0.00     0.074 A 
ATOM     48  C   UNL A   1      40.429  25.631  28.974  1.00  0.00     0.031 C 
ATOM     49  C   UNL A   1      42.086  31.168  31.129  1.00  0.00     0.029 A 
ATOM     50  C   UNL A   1      40.954  31.561  31.949  1.00  0.00     0.049 A 
ATOM     51  H   UNL A   1      38.990  31.526  31.158  1.00  0.00     0.167 HD
ATOM     52  C   UNL A   1      42.807  26.020  28.555  1.00  0.00     0.037 A 
ATOM     53  C   UNL A   1      40.912  31.473  33.311  1.00  0.00     0.037 A 
ATOM     54  C   UNL A   1      43.564  26.750  29.553  1.00  0.00     0.049 A 
ATOM     55  C   UNL A   1      41.762  30.325  33.813  1.00  0.00     0.074 A 
ATOM     56  C   UNL A   1      44.386  27.860  29.532  1.00  0.00     0.029 A 
ATOM     57  N   UNL A   1      43.287  26.490  30.892  1.00  0.00    -0.354 N 
ATOM     58  N   UNL A   1      42.213  29.373  33.036  1.00  0.00    -0.248 NA
ATOM     59  C   UNL A   1      42.231  30.173  35.185  1.00  0.00     0.031 C 
ATOM     60  C   UNL A   1      44.505  28.332  30.873  1.00  0.00     0.029 A 
ATOM     61  C   UNL A   1      43.795  27.483  31.711  1.00  0.00     0.049 A 
ATOM     62  H   UNL A   1      42.795  25.701  31.215  1.00  0.00     0.167 HD
ATOM     63  C   UNL A   1      43.015  28.522  33.738  1.00  0.00     0.074 A 
ATOM     64  C   UNL A   1      43.000  29.073  35.083  1.00  0.00     0.031 C 
ATOM     65  C   UNL A   1      43.618  27.434  33.164  1.00  0.00     0.037 A 
BRANCH  52  66
ATOM     66  C   UNL A   1      43.332  25.194  27.405  1.00  0.00     0.058 A 
ATOM     67  C   UNL A   1      43.291  23.788  27.434  1.00  0.00     0.135 A 
ATOM     68  C   UNL A   1      43.972  25.755  26.271  1.00  0.00     0.135 A 
ATOM     69  F   UNL A   1      42.713  23.135  28.454  1.00  0.00    -0.206 F 
ATOM     70  C   UNL A   1      43.870  22.997  26.435  1.00  0.00     0.059 A 
ATOM     71  C   UNL A   1      44.552  24.986  25.261  1.00  0.00     0.059 A 
ATOM     72  F   UNL A   1      44.072  27.083  26.111  1.00  0.00    -0.206 F 
ATOM     73  C   UNL A   1      44.510  23.603  25.358  1.00  0.00     0.060 A 
BRANCH  73  74
ATOM     74  S   UNL A   1      45.293  22.570  24.102  1.00  0.00     0.124 S 
ATOM     75  O   UNL A   1      46.460  23.368  23.737  1.00  0.00    -0.237 OA
ATOM     76  O   UNL A   1      45.569  21.341  24.841  1.00  0.00    -0.237 OA
ATOM     77  O   UNL A   1      44.271  22.453  23.066  1.00  0.00    -0.744 OA
ENDBRANCH  73  74
ENDBRANCH  52  66
BRANCH  53  78
ATOM     78  C   UNL A   1      39.698  32.128  33.890  1.00  0.00     0.058 A 
ATOM     79  C   UNL A   1      39.626  33.516  33.656  1.00  0.00     0.135 A 
ATOM     80  C   UNL A   1      38.475  31.456  34.073  1.00  0.00     0.135 A 
ATOM     81  F   UNL A   1      40.758  34.226  33.518  1.00  0.00    -0.206 F 
ATOM     82  C   UNL A   1      38.424  34.158  33.381  1.00  0.00     0.059 A 
ATOM     83  C   UNL A   1      37.246  32.088  33.803  1.00  0.00     0.059 A 
ATOM     84  F   UNL A   1      38.467  30.137  34.324  1.00  0.00    -0.206 F 
ATOM     85  C   UNL A   1      37.245  33.421  33.382  1.00  0.00     0.060 A 
BRANCH  85  86
ATOM     86  S   UNL A   1      35.794  34.181  32.592  1.00  0.00     0.124 S 
ATOM     87  O   UNL A   1      34.739  33.233  32.934  1.00  0.00    -0.237 OA
ATOM     88  O   UNL A   1      35.714  35.480  33.256  1.00  0.00    -0.237 OA
ATOM     89  O   UNL A   1      36.156  34.236  31.186  1.00  0.00    -0.744 OA
ENDBRANCH  85  86
ENDBRANCH  53  78
BRANCH  65  90
ATOM     90  C   UNL A   1      44.188  26.279  33.959  1.00  0.00     0.058 A 
ATOM     91  C   UNL A   1      43.391  25.399  34.712  1.00  0.00     0.135 A 
ATOM     92  C   UNL A   1      45.560  25.937  33.884  1.00  0.00     0.135 A 
ATOM     93  F   UNL A   1      42.053  25.497  34.719  1.00  0.00    -0.206 F 
ATOM     94  C   UNL A   1      43.924  24.349  35.453  1.00  0.00     0.059 A 
ATOM     95  C   UNL A   1      46.105  24.845  34.560  1.00  0.00     0.059 A 
ATOM     96  F   UNL A   1      46.418  26.641  33.132  1.00  0.00    -0.206 F 
ATOM     97  C   UNL A   1      45.286  24.088  35.383  1.00  0.00     0.060 A 
BRANCH  97  98
ATOM     98  S   UNL A   1      45.968  22.728  36.345  1.00  0.00     0.124 S 
ATOM     99  O   UNL A   1      47.398  22.896  36.105  1.00  0.00    -0.237 OA
ATOM    100  O   UNL A   1      45.516  23.035  37.700  1.00  0.00    -0.237 OA
ATOM    101  O   UNL A   1      45.355  21.549  35.740  1.00  0.00    -0.744 OA
ENDBRANCH  97  98
ENDBRANCH  65  90
ENDBRANCH  39  40
ENDBRANCH  32  34
ENDBRANCH  31  32
ENDBRANCH  30  31
ENDBRANCH   1  30
TORSDOF 19
ENDMDL
MODEL 2
REMARK VINA RESULT:     -13.6      3.842      5.866
REMARK SMILES Cc1cccc(CNC(=O)N[C@@H](CC2=c3ccccc3=NC2)C(=O)OCCOC(=O)c2ccc(-c3c4nc(c(-c5c(F)cc(S(=O)(=O)[O-])cc5F)c5ccc([nH]5)c(-c5c(F)cc(S(=O)(=O)[O-])cc5F)c5nc(c(-c6c(F)cc(S(=O)(=O)[O-])cc6F)c6ccc3[nH]6)C=C5)C=C4)cc2)c1
REMARK SMILES IDX 26 1 25 2 23 3 24 4 12 5 11 6 8 7 9 8 10 10 7 12 6 13 1 14
REMARK SMILES IDX 2 15 3 16 97 17 4 18 5 19 13 20 14 21 15 22 22 23 16 24
REMARK SMILES IDX 20 25 21 26 17 27 19 28 18 29 27 30 28 31 29 32 30 33 31 34
REMARK SMILES IDX 32 35 96 36 33 37 95 38 34 39 35 40 36 41 89 42 37 43 94 44
REMARK SMILES IDX 88 45 90 46 38 47 93 48 87 49 86 50 39 52 73 53 52 54 72 55
REMARK SMILES IDX 53 56 56 57 71 58 91 59 54 60 55 61 70 63 92 64 57 65 40 66
REMARK SMILES IDX 41 67 50 68 42 69 43 70 49 71 51 72 44 73 45 74 46 75 47 76
REMARK SMILES IDX 48 77 74 78 75 79 84 80 76 81 77 82 83 83 85 84 78 85 79 86
REMARK SMILES IDX 80 87 81 88 82 89 58 90 59 91 68 92 60 93 61 94 67 95 69 96
REMARK SMILES IDX 62 97 63 98 64 99 65 100 66 101
REMARK H PARENT 8 9 11 11 90 51 56 62
REMARK Flexibility Score: inf
ROOT
ATOM      1  C   UNL A   1      35.720  30.106  27.370  1.00  0.00     0.274 C 
ENDROOT
BRANCH   1   2
ATOM      2  O   UNL A   1      34.782  29.124  27.865  1.00  0.00    -0.461 OA
BRANCH   2   3
ATOM      3  C   UNL A   1      33.504  29.031  27.171  1.00  0.00     0.329 C 
ATOM      4  O   UNL A   1      33.189  30.237  26.959  1.00  0.00    -0.250 OA
BRANCH   3   5
ATOM      5  C   UNL A   1      32.578  27.145  26.517  1.00  0.00     0.198 C 
BRANCH   5   6
ATOM      6  N   UNL A   1      31.275  26.886  25.484  1.00  0.00    -0.324 N 
ATOM      7  N   UNL A   1      30.164  24.762  25.607  1.00  0.00    -0.334 N 
ATOM      8  C   UNL A   1      30.434  25.945  25.068  1.00  0.00     0.315 C 
ATOM      9  H   UNL A   1      29.571  24.248  25.012  1.00  0.00     0.165 HD
ATOM     10  O   UNL A   1      29.815  26.209  24.027  1.00  0.00    -0.249 OA
ATOM     11  H   UNL A   1      31.058  27.730  25.028  1.00  0.00     0.166 HD
BRANCH   7  12
ATOM     12  C   UNL A   1      30.468  23.986  26.800  1.00  0.00     0.153 C 
BRANCH  12  13
ATOM     13  C   UNL A   1      31.505  22.890  26.599  1.00  0.00    -0.028 A 
ATOM     14  C   UNL A   1      32.751  20.663  23.728  1.00  0.00     0.044 C 
ATOM     15  C   UNL A   1      32.606  21.299  25.081  1.00  0.00    -0.051 A 
ATOM     16  C   UNL A   1      33.594  21.073  26.043  1.00  0.00     0.003 A 
ATOM     17  C   UNL A   1      31.572  22.210  25.364  1.00  0.00     0.009 A 
ATOM     18  C   UNL A   1      33.527  21.710  27.279  1.00  0.00     0.001 A 
ATOM     19  C   UNL A   1      32.489  22.602  27.559  1.00  0.00     0.005 A 
ENDBRANCH  12  13
ENDBRANCH   7  12
ENDBRANCH   5   6
BRANCH   5  20
ATOM     20  C   UNL A   1      33.256  25.515  26.086  1.00  0.00     0.070 C 
BRANCH  20  21
ATOM     21  C   UNL A   1      34.246  25.100  24.992  1.00  0.00    -0.037 C 
ATOM     22  C   UNL A   1      35.397  24.424  24.956  1.00  0.00     0.001 A 
ATOM     23  C   UNL A   1      33.804  25.339  23.561  1.00  0.00     0.174 C 
ATOM     24  C   UNL A   1      36.412  23.992  25.863  1.00  0.00     0.010 A 
ATOM     25  C   UNL A   1      35.292  23.784  23.624  1.00  0.00     0.065 A 
ATOM     26  N   UNL A   1      34.487  24.309  22.757  1.00  0.00    -0.280 NA
ATOM     27  C   UNL A   1      37.055  22.834  25.630  1.00  0.00     0.001 A 
ATOM     28  C   UNL A   1      35.987  22.486  23.458  1.00  0.00     0.028 A 
ATOM     29  C   UNL A   1      36.751  22.029  24.463  1.00  0.00     0.002 A 
ENDBRANCH  20  21
ENDBRANCH   5  20
ENDBRANCH   3   5
ENDBRANCH   2   3
ENDBRANCH   1   2
BRANCH   1  30
ATOM     30  C   UNL A   1      36.505  30.673  28.560  1.00  0.00     0.275 C 
BRANCH  30  31
ATOM     31  O   UNL A   1      36.672  29.755  29.675  1.00  0.00    -0.458 OA
BRANCH  31  32
ATOM     32  C   UNL A   1      37.823  29.056  29.836  1.00  0.00     0.338 C 
ATOM     33  O   UNL A   1      37.958  28.056  30.520  1.00  0.00    -0.246 OA
BRANCH  32  34
ATOM     34  C   UNL A   1      38.916  29.578  29.011  1.00  0.00     0.060 A 
ATOM     35  C   UNL A   1      39.146  29.098  27.290  1.00  0.00     0.016 A 
ATOM     36  C   UNL A   1      40.313  30.176  29.941  1.00  0.00     0.016 A 
ATOM     37  C   UNL A   1      40.815  29.017  26.559  1.00  0.00     0.010 A 
ATOM     38  C   UNL A   1      41.973  30.078  29.236  1.00  0.00     0.010 A 
ATOM     39  C   UNL A   1      42.220  29.467  27.568  1.00  0.00    -0.014 A 
BRANCH  39  40
ATOM     40  C   UNL A   1      43.557  28.854  27.538  1.00  0.00     0.031 A 
ATOM     41  C   UNL A   1      43.628  27.385  27.408  1.00  0.00     0.074 A 
ATOM     42  C   UNL A   1      44.569  29.628  27.079  1.00  0.00     0.049 A 
ATOM     43  N   UNL A   1      44.233  26.762  26.451  1.00  0.00    -0.248 NA
ATOM     44  C   UNL A   1      42.914  26.506  28.339  1.00  0.00     0.031 C 
ATOM     45  C   UNL A   1      45.794  29.209  26.407  1.00  0.00     0.029 A 
ATOM     46  N   UNL A   1      44.753  30.995  27.186  1.00  0.00    -0.354 N 
ATOM     47  C   UNL A   1      44.131  25.416  26.710  1.00  0.00     0.074 A 
ATOM     48  C   UNL A   1      43.214  25.304  27.839  1.00  0.00     0.031 C 
ATOM     49  C   UNL A   1      46.688  30.211  26.462  1.00  0.00     0.029 A 
ATOM     50  C   UNL A   1      46.111  31.268  27.273  1.00  0.00     0.049 A 
ATOM     51  H   UNL A   1      44.033  31.668  27.198  1.00  0.00     0.167 HD
ATOM     52  C   UNL A   1      45.217  24.602  26.623  1.00  0.00     0.037 A 
ATOM     53  C   UNL A   1      46.632  31.715  28.454  1.00  0.00     0.037 A 
ATOM     54  C   UNL A   1      46.453  25.316  26.878  1.00  0.00     0.049 A 
ATOM     55  C   UNL A   1      47.368  30.610  29.182  1.00  0.00     0.074 A 
ATOM     56  C   UNL A   1      47.391  25.951  26.087  1.00  0.00     0.029 A 
ATOM     57  N   UNL A   1      46.723  25.695  28.190  1.00  0.00    -0.354 N 
ATOM     58  N   UNL A   1      47.250  29.344  28.872  1.00  0.00    -0.248 NA
ATOM     59  C   UNL A   1      48.333  30.819  30.255  1.00  0.00     0.031 C 
ATOM     60  C   UNL A   1      48.157  26.807  26.933  1.00  0.00     0.029 A 
ATOM     61  C   UNL A   1      47.714  26.658  28.240  1.00  0.00     0.049 A 
ATOM     62  H   UNL A   1      46.267  25.325  28.980  1.00  0.00     0.167 HD
ATOM     63  C   UNL A   1      48.088  28.585  29.635  1.00  0.00     0.074 A 
ATOM     64  C   UNL A   1      48.752  29.560  30.484  1.00  0.00     0.031 C 
ATOM     65  C   UNL A   1      48.163  27.222  29.515  1.00  0.00     0.037 A 
BRANCH  52  66
ATOM     66  C   UNL A   1      45.032  23.277  25.923  1.00  0.00     0.058 A 
ATOM     67  C   UNL A   1      44.179  22.286  26.443  1.00  0.00     0.135 A 
ATOM     68  C   UNL A   1      45.753  22.902  24.761  1.00  0.00     0.135 A 
ATOM     69  F   UNL A   1      43.441  22.517  27.540  1.00  0.00    -0.206 F 
ATOM     70  C   UNL A   1      44.074  21.010  25.877  1.00  0.00     0.059 A 
ATOM     71  C   UNL A   1      45.660  21.638  24.178  1.00  0.00     0.059 A 
ATOM     72  F   UNL A   1      46.594  23.754  24.155  1.00  0.00    -0.206 F 
ATOM     73  C   UNL A   1      44.827  20.690  24.752  1.00  0.00     0.060 A 
BRANCH  73  74
ATOM     74  S   UNL A   1      44.716  19.026  24.062  1.00  0.00     0.124 S 
ATOM     75  O   UNL A   1      43.527  18.501  24.725  1.00  0.00    -0.237 OA
ATOM     76  O   UNL A   1      44.583  19.291  22.633  1.00  0.00    -0.237 OA
ATOM     77  O   UNL A   1      45.976  18.403  24.461  1.00  0.00    -0.744 OA
ENDBRANCH  73  74
ENDBRANCH  52  66
BRANCH  53  78
ATOM     78  C   UNL A   1      45.933  32.937  28.962  1.00  0.00     0.058 A 
ATOM     79  C   UNL A   1      46.159  34.093  28.189  1.00  0.00     0.135 A 
ATOM     80  C   UNL A   1      44.726  32.886  29.683  1.00  0.00     0.135 A 
ATOM     81  F   UNL A   1      47.312  34.225  27.511  1.00  0.00    -0.206 F 
ATOM     82  C   UNL A   1      45.159  35.029  27.950  1.00  0.00     0.059 A 
ATOM     83  C   UNL A   1      43.702  33.826  29.459  1.00  0.00     0.059 A 
ATOM     84  F   UNL A   1      44.453  31.826  30.461  1.00  0.00    -0.206 F 
ATOM     85  C   UNL A   1      43.908  34.849  28.528  1.00  0.00     0.060 A 
BRANCH  85  86
ATOM     86  S   UNL A   1      42.533  35.822  27.844  1.00  0.00     0.124 S 
ATOM     87  O   UNL A   1      42.893  37.174  28.255  1.00  0.00    -0.237 OA
ATOM     88  O   UNL A   1      42.633  35.551  26.412  1.00  0.00    -0.237 OA
ATOM     89  O   UNL A   1      41.359  35.262  28.492  1.00  0.00    -0.744 OA
ENDBRANCH  85  86
ENDBRANCH  53  78
BRANCH  65  90
ATOM     90  C   UNL A   1      48.773  26.324  30.569  1.00  0.00     0.058 A 
ATOM     91  C   UNL A   1      50.043  25.734  30.433  1.00  0.00     0.135 A 
ATOM     92  C   UNL A   1      48.149  26.128  31.824  1.00  0.00     0.135 A 
ATOM     93  F   UNL A   1      50.823  25.989  29.372  1.00  0.00    -0.206 F 
ATOM     94  C   UNL A   1      50.590  24.896  31.399  1.00  0.00     0.059 A 
ATOM     95  C   UNL A   1      48.713  25.352  32.837  1.00  0.00     0.059 A 
ATOM     96  F   UNL A   1      46.974  26.703  32.121  1.00  0.00    -0.206 F 
ATOM     97  C   UNL A   1      49.911  24.698  32.594  1.00  0.00     0.060 A 
BRANCH  97  98
ATOM     98  S   UNL A   1      50.626  23.613  33.839  1.00  0.00     0.124 S 
ATOM     99  O   UNL A   1      50.360  22.299  33.261  1.00  0.00    -0.237 OA
ATOM    100  O   UNL A   1      52.029  24.022  33.852  1.00  0.00    -0.237 OA
ATOM    101  O   UNL A   1      49.873  23.943  35.044  1.00  0.00    -0.744 OA
ENDBRANCH  97  98
ENDBRANCH  65  90
ENDBRANCH  39  40
ENDBRANCH  32  34
ENDBRANCH  31  32
ENDBRANCH  30  31
ENDBRANCH   1  30
TORSDOF 19
ENDMDL
MODEL 3
REMARK VINA RESULT:     -13.1      3.108      4.569
REMARK SMILES Cc1cccc(CNC(=O)N[C@@H](CC2=c3ccccc3=NC2)C(=O)OCCOC(=O)c2ccc(-c3c4nc(c(-c5c(F)cc(S(=O)(=O)[O-])cc5F)c5ccc([nH]5)c(-c5c(F)cc(S(=O)(=O)[O-])cc5F)c5nc(c(-c6c(F)cc(S(=O)(=O)[O-])cc6F)c6ccc3[nH]6)C=C5)C=C4)cc2)c1
REMARK SMILES IDX 26 1 25 2 23 3 24 4 12 5 11 6 8 7 9 8 10 10 7 12 6 13 1 14
REMARK SMILES IDX 2 15 3 16 97 17 4 18 5 19 13 20 14 21 15 22 22 23 16 24
REMARK SMILES IDX 20 25 21 26 17 27 19 28 18 29 27 30 28 31 29 32 30 33 31 34
REMARK SMILES IDX 32 35 96 36 33 37 95 38 34 39 35 40 36 41 89 42 37 43 94 44
REMARK SMILES IDX 88 45 90 46 38 47 93 48 87 49 86 50 39 52 73 53 52 54 72 55
REMARK SMILES IDX 53 56 56 57 71 58 91 59 54 60 55 61 70 63 92 64 57 65 40 66
REMARK SMILES IDX 41 67 50 68 42 69 43 70 49 71 51 72 44 73 45 74 46 75 47 76
REMARK SMILES IDX 48 77 74 78 75 79 84 80 76 81 77 82 83 83 85 84 78 85 79 86
REMARK SMILES IDX 80 87 81 88 82 89 58 90 59 91 68 92 60 93 61 94 67 95 69 96
REMARK SMILES IDX 62 97 63 98 64 99 65 100 66 101
REMARK H PARENT 8 9 11 11 90 51 56 62
REMARK Flexibility Score: inf
ROOT
ATOM      1  C   UNL A   1      34.623  29.891  27.615  1.00  0.00     0.274 C 
ENDROOT
BRANCH   1   2
ATOM      2  O   UNL A   1      33.180  29.951  27.533  1.00  0.00    -0.461 OA
BRANCH   2   3
ATOM      3  C   UNL A   1      32.508  28.789  26.963  1.00  0.00     0.329 C 
ATOM      4  O   UNL A   1      31.404  28.750  27.575  1.00  0.00    -0.250 OA
BRANCH   3   5
ATOM      5  C   UNL A   1      33.282  27.612  25.272  1.00  0.00     0.198 C 
BRANCH   5   6
ATOM      6  N   UNL A   1      33.746  28.112  23.734  1.00  0.00    -0.324 N 
ATOM      7  N   UNL A   1      33.084  26.747  21.874  1.00  0.00    -0.334 N 
ATOM      8  C   UNL A   1      33.762  27.725  22.462  1.00  0.00     0.315 C 
ATOM      9  H   UNL A   1      33.385  26.641  20.942  1.00  0.00     0.165 HD
ATOM     10  O   UNL A   1      34.518  28.369  21.721  1.00  0.00    -0.249 OA
ATOM     11  H   UNL A   1      34.146  29.009  23.799  1.00  0.00     0.166 HD
BRANCH   7  12
ATOM     12  C   UNL A   1      32.037  25.781  22.172  1.00  0.00     0.153 C 
BRANCH  12  13
ATOM     13  C   UNL A   1      30.803  26.366  22.843  1.00  0.00    -0.028 A 
ATOM     14  C   UNL A   1      28.590  29.484  22.474  1.00  0.00     0.044 C 
ATOM     15  C   UNL A   1      29.134  28.170  22.955  1.00  0.00    -0.051 A 
ATOM     16  C   UNL A   1      28.353  27.387  23.809  1.00  0.00     0.003 A 
ATOM     17  C   UNL A   1      30.351  27.652  22.474  1.00  0.00     0.009 A 
ATOM     18  C   UNL A   1      28.798  26.129  24.210  1.00  0.00     0.001 A 
ATOM     19  C   UNL A   1      30.014  25.627  23.740  1.00  0.00     0.005 A 
ENDBRANCH  12  13
ENDBRANCH   7  12
ENDBRANCH   5   6
BRANCH   5  20
ATOM     20  C   UNL A   1      34.414  26.195  25.163  1.00  0.00     0.070 C 
BRANCH  20  21
ATOM     21  C   UNL A   1      34.131  24.694  25.038  1.00  0.00    -0.037 C 
ATOM     22  C   UNL A   1      33.284  23.833  25.609  1.00  0.00     0.001 A 
ATOM     23  C   UNL A   1      34.828  23.972  23.900  1.00  0.00     0.174 C 
ATOM     24  C   UNL A   1      32.439  23.769  26.757  1.00  0.00     0.010 A 
ATOM     25  C   UNL A   1      33.062  22.891  24.487  1.00  0.00     0.065 A 
ATOM     26  N   UNL A   1      33.945  22.848  23.543  1.00  0.00    -0.280 NA
ATOM     27  C   UNL A   1      31.288  23.076  26.690  1.00  0.00     0.001 A 
ATOM     28  C   UNL A   1      31.750  22.202  24.454  1.00  0.00     0.028 A 
ATOM     29  C   UNL A   1      30.901  22.378  25.480  1.00  0.00     0.002 A 
ENDBRANCH  20  21
ENDBRANCH   5  20
ENDBRANCH   3   5
ENDBRANCH   2   3
ENDBRANCH   1   2
BRANCH   1  30
ATOM     30  C   UNL A   1      35.129  31.196  28.242  1.00  0.00     0.275 C 
BRANCH  30  31
ATOM     31  O   UNL A   1      35.698  31.054  29.573  1.00  0.00    -0.458 OA
BRANCH  31  32
ATOM     32  C   UNL A   1      36.674  30.146  29.821  1.00  0.00     0.338 C 
ATOM     33  O   UNL A   1      36.563  29.157  30.524  1.00  0.00    -0.246 OA
BRANCH  32  34
ATOM     34  C   UNL A   1      37.899  30.420  29.064  1.00  0.00     0.060 A 
ATOM     35  C   UNL A   1      38.220  29.699  27.444  1.00  0.00     0.016 A 
ATOM     36  C   UNL A   1      39.271  30.956  30.065  1.00  0.00     0.016 A 
ATOM     37  C   UNL A   1      39.924  29.320  26.914  1.00  0.00     0.010 A 
ATOM     38  C   UNL A   1      40.961  30.566  29.560  1.00  0.00     0.010 A 
ATOM     39  C   UNL A   1      41.277  29.721  28.010  1.00  0.00    -0.014 A 
BRANCH  39  40
ATOM     40  C   UNL A   1      42.515  28.949  28.196  1.00  0.00     0.031 A 
ATOM     41  C   UNL A   1      42.404  27.477  28.211  1.00  0.00     0.074 A 
ATOM     42  C   UNL A   1      43.665  29.541  27.792  1.00  0.00     0.049 A 
ATOM     43  N   UNL A   1      43.019  26.686  27.395  1.00  0.00    -0.248 NA
ATOM     44  C   UNL A   1      41.485  26.796  29.128  1.00  0.00     0.031 C 
ATOM     45  C   UNL A   1      44.887  28.906  27.311  1.00  0.00     0.029 A 
ATOM     46  N   UNL A   1      44.017  30.879  27.793  1.00  0.00    -0.354 N 
ATOM     47  C   UNL A   1      42.712  25.399  27.763  1.00  0.00     0.074 A 
ATOM     48  C   UNL A   1      41.673  25.520  28.780  1.00  0.00     0.031 C 
ATOM     49  C   UNL A   1      45.896  29.792  27.379  1.00  0.00     0.029 A 
ATOM     50  C   UNL A   1      45.382  30.992  28.015  1.00  0.00     0.049 A 
ATOM     51  H   UNL A   1      43.396  31.632  27.657  1.00  0.00     0.167 HD
ATOM     52  C   UNL A   1      43.683  24.453  27.881  1.00  0.00     0.037 A 
ATOM     53  C   UNL A   1      45.830  31.496  29.203  1.00  0.00     0.037 A 
ATOM     54  C   UNL A   1      44.968  25.035  28.215  1.00  0.00     0.049 A 
ATOM     55  C   UNL A   1      46.331  30.394  30.113  1.00  0.00     0.074 A 
ATOM     56  C   UNL A   1      46.061  25.463  27.485  1.00  0.00     0.029 A 
ATOM     57  N   UNL A   1      45.146  25.516  29.509  1.00  0.00    -0.354 N 
ATOM     58  N   UNL A   1      46.078  29.125  29.909  1.00  0.00    -0.248 NA
ATOM     59  C   UNL A   1      47.195  30.596  31.270  1.00  0.00     0.031 C 
ATOM     60  C   UNL A   1      46.840  26.305  28.334  1.00  0.00     0.029 A 
ATOM     61  C   UNL A   1      46.246  26.351  29.588  1.00  0.00     0.049 A 
ATOM     62  H   UNL A   1      44.563  25.290  30.270  1.00  0.00     0.167 HD
ATOM     63  C   UNL A   1      46.722  28.356  30.833  1.00  0.00     0.074 A 
ATOM     64  C   UNL A   1      47.416  29.327  31.662  1.00  0.00     0.031 C 
ATOM     65  C   UNL A   1      46.627  26.989  30.849  1.00  0.00     0.037 A 
BRANCH  52  66
ATOM     66  C   UNL A   1      43.398  23.094  27.290  1.00  0.00     0.058 A 
ATOM     67  C   UNL A   1      42.614  22.147  27.973  1.00  0.00     0.135 A 
ATOM     68  C   UNL A   1      43.958  22.644  26.067  1.00  0.00     0.135 A 
ATOM     69  F   UNL A   1      42.028  22.450  29.142  1.00  0.00    -0.206 F 
ATOM     70  C   UNL A   1      42.427  20.842  27.500  1.00  0.00     0.059 A 
ATOM     71  C   UNL A   1      43.781  21.350  25.575  1.00  0.00     0.059 A 
ATOM     72  F   UNL A   1      44.718  23.448  25.308  1.00  0.00    -0.206 F 
ATOM     73  C   UNL A   1      43.024  20.448  26.307  1.00  0.00     0.060 A 
BRANCH  73  74
ATOM     74  S   UNL A   1      42.812  18.749  25.735  1.00  0.00     0.124 S 
ATOM     75  O   UNL A   1      43.481  17.990  26.787  1.00  0.00    -0.237 OA
ATOM     76  O   UNL A   1      41.359  18.619  25.683  1.00  0.00    -0.237 OA
ATOM     77  O   UNL A   1      43.482  18.736  24.437  1.00  0.00    -0.744 OA
ENDBRANCH  73  74
ENDBRANCH  52  66
BRANCH  53  78
ATOM     78  C   UNL A   1      45.250  32.840  29.510  1.00  0.00     0.058 A 
ATOM     79  C   UNL A   1      45.667  33.861  28.633  1.00  0.00     0.135 A 
ATOM     80  C   UNL A   1      43.998  33.014  30.128  1.00  0.00     0.135 A 
ATOM     81  F   UNL A   1      46.873  33.780  28.044  1.00  0.00    -0.206 F 
ATOM     82  C   UNL A   1      44.807  34.867  28.207  1.00  0.00     0.059 A 
ATOM     83  C   UNL A   1      43.113  34.028  29.714  1.00  0.00     0.059 A 
ATOM     84  F   UNL A   1      43.545  32.094  30.995  1.00  0.00    -0.206 F 
ATOM     85  C   UNL A   1      43.506  34.900  28.695  1.00  0.00     0.060 A 
BRANCH  85  86
ATOM     86  S   UNL A   1      42.310  35.930  27.792  1.00  0.00     0.124 S 
ATOM     87  O   UNL A   1      42.718  37.274  28.187  1.00  0.00    -0.237 OA
ATOM     88  O   UNL A   1      42.572  35.575  26.399  1.00  0.00    -0.237 OA
ATOM     89  O   UNL A   1      41.023  35.490  28.303  1.00  0.00    -0.744 OA
ENDBRANCH  85  86
ENDBRANCH  53  78
BRANCH  65  90
ATOM     90  C   UNL A   1      46.997  26.141  32.047  1.00  0.00     0.058 A 
ATOM     91  C   UNL A   1      46.045  25.618  32.941  1.00  0.00     0.135 A 
ATOM     92  C   UNL A   1      48.328  25.711  32.264  1.00  0.00     0.135 A 
ATOM     93  F   UNL A   1      44.730  25.793  32.745  1.00  0.00    -0.206 F 
ATOM     94  C   UNL A   1      46.396  24.853  34.048  1.00  0.00     0.059 A 
ATOM     95  C   UNL A   1      48.693  24.883  33.325  1.00  0.00     0.059 A 
ATOM     96  F   UNL A   1      49.323  26.064  31.437  1.00  0.00    -0.206 F 
ATOM     97  C   UNL A   1      47.725  24.501  34.242  1.00  0.00     0.060 A 
BRANCH  97  98
ATOM     98  S   UNL A   1      48.169  23.510  35.677  1.00  0.00     0.124 S 
ATOM     99  O   UNL A   1      48.497  24.547  36.651  1.00  0.00    -0.237 OA
ATOM    100  O   UNL A   1      46.942  22.762  35.942  1.00  0.00    -0.237 OA
ATOM    101  O   UNL A   1      49.291  22.709  35.198  1.00  0.00    -0.744 OA
ENDBRANCH  97  98
ENDBRANCH  65  90
ENDBRANCH  39  40
ENDBRANCH  32  34
ENDBRANCH  31  32
ENDBRANCH  30  31
ENDBRANCH   1  30
TORSDOF 19
ENDMDL
