MODEL 1
REMARK VINA RESULT:     -10.5      0.000      0.000
REMARK SMILES CCOc1ccc(OCC(=O)N2CCC[C@H](C(=O)OCCOC(=O)c3ccc(-c4c5nc(c(-c6c(F)cc(S(=O)(=O)[O-])cc6F)c6ccc([nH]6)c(-c6c(F)cc(S(=O)(=O)[O-])cc6F)c6nc(c(-c7c(F)cc(S(=O)(=O)[O-])cc7F)c7ccc4[nH]7)C=C6)C=C5)cc3)C2)cc1
REMARK SMILES IDX 19 1 17 2 18 3 16 4 12 5 13 6 91 7 14 8 15 9 10 10 11 11
REMARK SMILES IDX 9 12 8 13 7 14 4 15 5 16 93 17 6 18 92 19 3 20 2 21 1 22
REMARK SMILES IDX 20 23 21 24 22 25 23 26 24 27 25 28 26 29 90 30 27 31 89 32
REMARK SMILES IDX 28 33 29 34 30 35 83 36 31 37 88 38 82 39 84 40 32 41 87 42
REMARK SMILES IDX 81 43 80 44 33 46 67 47 46 48 66 49 47 50 50 51 65 52 85 53
REMARK SMILES IDX 48 54 49 55 64 57 86 58 51 59 34 60 35 61 44 62 36 63 37 64
REMARK SMILES IDX 43 65 45 66 38 67 39 68 40 69 41 70 42 71 68 72 69 73 78 74
REMARK SMILES IDX 70 75 71 76 77 77 79 78 72 79 73 80 74 81 75 82 76 83 52 84
REMARK SMILES IDX 53 85 62 86 54 87 55 88 61 89 63 90 56 91 57 92 58 93 59 94
REMARK SMILES IDX 60 95
REMARK H PARENT 84 45 50 56
REMARK Flexibility Score: inf
ROOT
ATOM      1  O   UNL A   1      31.155  27.422  25.732  1.00  0.00    -0.462 OA
ENDROOT
BRANCH   1   2
ATOM      2  C   UNL A   1      30.729  26.136  25.650  1.00  0.00     0.310 C 
ATOM      3  O   UNL A   1      30.962  25.271  26.485  1.00  0.00    -0.252 OA
BRANCH   2   4
ATOM      4  C   UNL A   1      29.924  25.852  24.391  1.00  0.00     0.119 C 
ATOM      5  N   UNL A   1      31.763  25.756  22.767  1.00  0.00    -0.339 N 
ATOM      6  C   UNL A   1      31.270  26.906  22.009  1.00  0.00     0.119 C 
ATOM      7  C   UNL A   1      30.724  24.974  23.432  1.00  0.00     0.134 C 
ATOM      8  C   UNL A   1      30.414  27.844  22.856  1.00  0.00     0.022 C 
ATOM      9  C   UNL A   1      29.369  27.096  23.688  1.00  0.00     0.019 C 
BRANCH   5  10
ATOM     10  C   UNL A   1      33.130  25.534  22.886  1.00  0.00     0.260 C 
ATOM     11  O   UNL A   1      33.931  25.972  22.053  1.00  0.00    -0.271 OA
BRANCH  10  12
ATOM     12  C   UNL A   1      33.637  24.571  23.986  1.00  0.00     0.329 C 
BRANCH  12  13
ATOM     13  O   UNL A   1      34.614  23.589  23.728  1.00  0.00    -0.484 OA
BRANCH  13  14
ATOM     14  C   UNL A   1      34.354  22.289  24.042  1.00  0.00     0.120 A 
ATOM     15  C   UNL A   1      33.510  19.697  24.635  1.00  0.00     0.119 A 
ATOM     16  C   UNL A   1      32.667  20.543  23.925  1.00  0.00     0.050 A 
ATOM     17  C   UNL A   1      34.792  20.114  24.992  1.00  0.00     0.050 A 
ATOM     18  C   UNL A   1      33.096  21.836  23.626  1.00  0.00     0.050 A 
ATOM     19  C   UNL A   1      35.209  21.419  24.715  1.00  0.00     0.050 A 
BRANCH  15  20
ATOM     20  O   UNL A   1      33.103  18.428  24.936  1.00  0.00    -0.494 OA
BRANCH  20  21
ATOM     21  C   UNL A   1      32.796  17.681  23.750  1.00  0.00     0.226 C 
ATOM     22  C   UNL A   1      34.022  16.905  23.293  1.00  0.00     0.049 C 
ENDBRANCH  20  21
ENDBRANCH  15  20
ENDBRANCH  13  14
ENDBRANCH  12  13
ENDBRANCH  10  12
ENDBRANCH   5  10
ENDBRANCH   2   4
ENDBRANCH   1   2
BRANCH   1  23
ATOM     23  C   UNL A   1      32.575  27.642  25.799  1.00  0.00     0.274 C 
BRANCH  23  24
ATOM     24  C   UNL A   1      32.973  28.541  26.974  1.00  0.00     0.275 C 
BRANCH  24  25
ATOM     25  O   UNL A   1      34.352  28.943  26.880  1.00  0.00    -0.458 OA
BRANCH  25  26
ATOM     26  C   UNL A   1      34.697  29.952  27.716  1.00  0.00     0.338 C 
ATOM     27  O   UNL A   1      33.958  30.809  28.171  1.00  0.00    -0.246 OA
BRANCH  26  28
ATOM     28  C   UNL A   1      36.086  29.780  28.170  1.00  0.00     0.060 A 
ATOM     29  C   UNL A   1      37.093  30.024  27.231  1.00  0.00     0.016 A 
ATOM     30  C   UNL A   1      36.407  29.327  29.450  1.00  0.00     0.016 A 
ATOM     31  C   UNL A   1      38.424  29.814  27.558  1.00  0.00     0.010 A 
ATOM     32  C   UNL A   1      37.749  29.093  29.775  1.00  0.00     0.010 A 
ATOM     33  C   UNL A   1      38.760  29.319  28.823  1.00  0.00    -0.014 A 
BRANCH  33  34
ATOM     34  C   UNL A   1      40.168  28.936  29.072  1.00  0.00     0.031 A 
ATOM     35  C   UNL A   1      41.061  29.881  29.822  1.00  0.00     0.074 A 
ATOM     36  C   UNL A   1      40.604  27.713  28.720  1.00  0.00     0.049 A 
ATOM     37  N   UNL A   1      42.306  29.728  30.189  1.00  0.00    -0.248 NA
ATOM     38  C   UNL A   1      40.471  31.171  30.219  1.00  0.00     0.031 C 
ATOM     39  C   UNL A   1      39.802  26.696  28.041  1.00  0.00     0.029 A 
ATOM     40  N   UNL A   1      41.824  27.114  28.903  1.00  0.00    -0.354 N 
ATOM     41  C   UNL A   1      42.654  30.901  30.846  1.00  0.00     0.074 A 
ATOM     42  C   UNL A   1      41.494  31.765  30.815  1.00  0.00     0.031 C 
ATOM     43  C   UNL A   1      40.549  25.592  27.872  1.00  0.00     0.029 A 
ATOM     44  C   UNL A   1      41.887  25.834  28.405  1.00  0.00     0.049 A 
ATOM     45  H   UNL A   1      42.580  27.557  29.348  1.00  0.00     0.167 HD
ATOM     46  C   UNL A   1      43.834  31.225  31.426  1.00  0.00     0.037 A 
ATOM     47  C   UNL A   1      42.915  24.964  28.376  1.00  0.00     0.037 A 
ATOM     48  C   UNL A   1      44.979  30.353  31.463  1.00  0.00     0.049 A 
ATOM     49  C   UNL A   1      44.229  25.362  28.994  1.00  0.00     0.074 A 
ATOM     50  C   UNL A   1      46.221  30.584  32.027  1.00  0.00     0.029 A 
ATOM     51  N   UNL A   1      45.019  29.078  30.914  1.00  0.00    -0.354 N 
ATOM     52  N   UNL A   1      44.545  26.477  29.608  1.00  0.00    -0.248 NA
ATOM     53  C   UNL A   1      45.323  24.384  28.917  1.00  0.00     0.031 C 
ATOM     54  C   UNL A   1      47.025  29.463  31.787  1.00  0.00     0.029 A 
ATOM     55  C   UNL A   1      46.269  28.517  31.112  1.00  0.00     0.049 A 
ATOM     56  H   UNL A   1      44.269  28.638  30.453  1.00  0.00     0.167 HD
ATOM     57  C   UNL A   1      45.868  26.327  30.012  1.00  0.00     0.074 A 
ATOM     58  C   UNL A   1      46.287  25.008  29.581  1.00  0.00     0.031 C 
ATOM     59  C   UNL A   1      46.662  27.199  30.681  1.00  0.00     0.037 A 
BRANCH  46  60
ATOM     60  C   UNL A   1      43.955  32.594  32.034  1.00  0.00     0.058 A 
ATOM     61  C   UNL A   1      44.267  33.724  31.262  1.00  0.00     0.135 A 
ATOM     62  C   UNL A   1      43.739  32.779  33.408  1.00  0.00     0.135 A 
ATOM     63  F   UNL A   1      44.504  33.599  29.946  1.00  0.00    -0.206 F 
ATOM     64  C   UNL A   1      44.386  34.986  31.836  1.00  0.00     0.059 A 
ATOM     65  C   UNL A   1      43.830  34.034  34.001  1.00  0.00     0.059 A 
ATOM     66  F   UNL A   1      43.441  31.730  34.193  1.00  0.00    -0.206 F 
ATOM     67  C   UNL A   1      44.170  35.129  33.208  1.00  0.00     0.060 A 
BRANCH  67  68
ATOM     68  S   UNL A   1      44.334  36.771  33.944  1.00  0.00     0.124 S 
ATOM     69  O   UNL A   1      43.091  37.405  33.517  1.00  0.00    -0.237 OA
ATOM     70  O   UNL A   1      44.433  36.467  35.369  1.00  0.00    -0.237 OA
ATOM     71  O   UNL A   1      45.550  37.296  33.333  1.00  0.00    -0.744 OA
ENDBRANCH  67  68
ENDBRANCH  46  60
BRANCH  47  72
ATOM     72  C   UNL A   1      42.741  23.633  27.737  1.00  0.00     0.058 A 
ATOM     73  C   UNL A   1      42.944  23.455  26.361  1.00  0.00     0.135 A 
ATOM     74  C   UNL A   1      42.380  22.508  28.496  1.00  0.00     0.135 A 
ATOM     75  F   UNL A   1      43.281  24.502  25.592  1.00  0.00    -0.206 F 
ATOM     76  C   UNL A   1      42.785  22.213  25.756  1.00  0.00     0.059 A 
ATOM     77  C   UNL A   1      42.239  21.250  27.918  1.00  0.00     0.059 A 
ATOM     78  F   UNL A   1      42.185  22.623  29.818  1.00  0.00    -0.206 F 
ATOM     79  C   UNL A   1      42.433  21.115  26.544  1.00  0.00     0.060 A 
BRANCH  79  80
ATOM     80  S   UNL A   1      42.282  19.494  25.761  1.00  0.00     0.124 S 
ATOM     81  O   UNL A   1      43.232  19.611  24.661  1.00  0.00    -0.237 OA
ATOM     82  O   UNL A   1      42.664  18.591  26.843  1.00  0.00    -0.237 OA
ATOM     83  O   UNL A   1      40.874  19.439  25.377  1.00  0.00    -0.744 OA
ENDBRANCH  79  80
ENDBRANCH  47  72
BRANCH  59  84
ATOM     84  C   UNL A   1      48.053  26.742  31.018  1.00  0.00     0.058 A 
ATOM     85  C   UNL A   1      49.133  26.963  30.149  1.00  0.00     0.135 A 
ATOM     86  C   UNL A   1      48.316  26.116  32.247  1.00  0.00     0.135 A 
ATOM     87  F   UNL A   1      48.934  27.553  28.960  1.00  0.00    -0.206 F 
ATOM     88  C   UNL A   1      50.423  26.556  30.477  1.00  0.00     0.059 A 
ATOM     89  C   UNL A   1      49.601  25.723  32.606  1.00  0.00     0.059 A 
ATOM     90  F   UNL A   1      47.319  25.893  33.118  1.00  0.00    -0.206 F 
ATOM     91  C   UNL A   1      50.646  25.935  31.708  1.00  0.00     0.060 A 
BRANCH  91  92
ATOM     92  S   UNL A   1      52.327  25.435  32.136  1.00  0.00     0.124 S 
ATOM     93  O   UNL A   1      52.189  23.985  32.220  1.00  0.00    -0.237 OA
ATOM     94  O   UNL A   1      53.103  25.934  31.004  1.00  0.00    -0.237 OA
ATOM     95  O   UNL A   1      52.570  26.119  33.403  1.00  0.00    -0.744 OA
ENDBRANCH  91  92
ENDBRANCH  59  84
ENDBRANCH  33  34
ENDBRANCH  26  28
ENDBRANCH  25  26
ENDBRANCH  24  25
ENDBRANCH  23  24
ENDBRANCH   1  23
TORSDOF 20
ENDMDL
MODEL 2
REMARK VINA RESULT:     -10.4      2.889      9.399
REMARK SMILES CCOc1ccc(OCC(=O)N2CCC[C@H](C(=O)OCCOC(=O)c3ccc(-c4c5nc(c(-c6c(F)cc(S(=O)(=O)[O-])cc6F)c6ccc([nH]6)c(-c6c(F)cc(S(=O)(=O)[O-])cc6F)c6nc(c(-c7c(F)cc(S(=O)(=O)[O-])cc7F)c7ccc4[nH]7)C=C6)C=C5)cc3)C2)cc1
REMARK SMILES IDX 19 1 17 2 18 3 16 4 12 5 13 6 91 7 14 8 15 9 10 10 11 11
REMARK SMILES IDX 9 12 8 13 7 14 4 15 5 16 93 17 6 18 92 19 3 20 2 21 1 22
REMARK SMILES IDX 20 23 21 24 22 25 23 26 24 27 25 28 26 29 90 30 27 31 89 32
REMARK SMILES IDX 28 33 29 34 30 35 83 36 31 37 88 38 82 39 84 40 32 41 87 42
REMARK SMILES IDX 81 43 80 44 33 46 67 47 46 48 66 49 47 50 50 51 65 52 85 53
REMARK SMILES IDX 48 54 49 55 64 57 86 58 51 59 34 60 35 61 44 62 36 63 37 64
REMARK SMILES IDX 43 65 45 66 38 67 39 68 40 69 41 70 42 71 68 72 69 73 78 74
REMARK SMILES IDX 70 75 71 76 77 77 79 78 72 79 73 80 74 81 75 82 76 83 52 84
REMARK SMILES IDX 53 85 62 86 54 87 55 88 61 89 63 90 56 91 57 92 58 93 59 94
REMARK SMILES IDX 60 95
REMARK H PARENT 84 45 50 56
REMARK Flexibility Score: inf
ROOT
ATOM      1  O   UNL A   1      34.598  22.156  24.612  1.00  0.00    -0.462 OA
ENDROOT
BRANCH   1   2
ATOM      2  C   UNL A   1      33.596  22.510  25.456  1.00  0.00     0.310 C 
ATOM      3  O   UNL A   1      33.756  23.107  26.514  1.00  0.00    -0.252 OA
BRANCH   2   4
ATOM      4  C   UNL A   1      32.222  22.079  24.969  1.00  0.00     0.119 C 
ATOM      5  N   UNL A   1      32.077  23.459  22.943  1.00  0.00    -0.339 N 
ATOM      6  C   UNL A   1      30.924  24.213  23.433  1.00  0.00     0.119 C 
ATOM      7  C   UNL A   1      32.168  22.090  23.443  1.00  0.00     0.134 C 
ATOM      8  C   UNL A   1      30.842  24.238  24.957  1.00  0.00     0.022 C 
ATOM      9  C   UNL A   1      31.050  22.856  25.580  1.00  0.00     0.019 C 
BRANCH   5  10
ATOM     10  C   UNL A   1      33.028  24.083  22.144  1.00  0.00     0.260 C 
ATOM     11  O   UNL A   1      33.319  23.648  21.025  1.00  0.00    -0.271 OA
BRANCH  10  12
ATOM     12  C   UNL A   1      33.862  25.241  22.742  1.00  0.00     0.329 C 
BRANCH  12  13
ATOM     13  O   UNL A   1      33.492  26.591  22.578  1.00  0.00    -0.484 OA
BRANCH  13  14
ATOM     14  C   UNL A   1      33.334  27.379  23.678  1.00  0.00     0.120 A 
ATOM     15  C   UNL A   1      33.023  28.719  26.105  1.00  0.00     0.119 A 
ATOM     16  C   UNL A   1      33.525  27.424  26.102  1.00  0.00     0.050 A 
ATOM     17  C   UNL A   1      32.738  29.370  24.905  1.00  0.00     0.050 A 
ATOM     18  C   UNL A   1      33.684  26.760  24.885  1.00  0.00     0.050 A 
ATOM     19  C   UNL A   1      32.874  28.694  23.690  1.00  0.00     0.050 A 
BRANCH  15  20
ATOM     20  O   UNL A   1      32.860  29.382  27.289  1.00  0.00    -0.494 OA
BRANCH  20  21
ATOM     21  C   UNL A   1      33.286  30.749  27.187  1.00  0.00     0.226 C 
ATOM     22  C   UNL A   1      34.656  30.914  27.824  1.00  0.00     0.049 C 
ENDBRANCH  20  21
ENDBRANCH  15  20
ENDBRANCH  13  14
ENDBRANCH  12  13
ENDBRANCH  10  12
ENDBRANCH   5  10
ENDBRANCH   2   4
ENDBRANCH   1   2
BRANCH   1  23
ATOM     23  C   UNL A   1      35.918  22.030  25.171  1.00  0.00     0.274 C 
BRANCH  23  24
ATOM     24  C   UNL A   1      36.886  23.087  24.630  1.00  0.00     0.275 C 
BRANCH  24  25
ATOM     25  O   UNL A   1      37.410  23.907  25.691  1.00  0.00    -0.458 OA
BRANCH  25  26
ATOM     26  C   UNL A   1      38.591  23.477  26.196  1.00  0.00     0.338 C 
ATOM     27  O   UNL A   1      39.130  22.404  25.983  1.00  0.00    -0.246 OA
BRANCH  26  28
ATOM     28  C   UNL A   1      39.260  24.571  26.918  1.00  0.00     0.060 A 
ATOM     29  C   UNL A   1      39.035  24.650  28.296  1.00  0.00     0.016 A 
ATOM     30  C   UNL A   1      40.028  25.539  26.270  1.00  0.00     0.016 A 
ATOM     31  C   UNL A   1      39.570  25.694  29.036  1.00  0.00     0.010 A 
ATOM     32  C   UNL A   1      40.551  26.606  27.012  1.00  0.00     0.010 A 
ATOM     33  C   UNL A   1      40.307  26.695  28.395  1.00  0.00    -0.014 A 
BRANCH  33  34
ATOM     34  C   UNL A   1      40.704  27.883  29.183  1.00  0.00     0.031 A 
ATOM     35  C   UNL A   1      42.101  27.966  29.727  1.00  0.00     0.074 A 
ATOM     36  C   UNL A   1      39.853  28.917  29.316  1.00  0.00     0.049 A 
ATOM     37  N   UNL A   1      42.671  28.931  30.400  1.00  0.00    -0.248 NA
ATOM     38  C   UNL A   1      42.976  26.810  29.473  1.00  0.00     0.031 C 
ATOM     39  C   UNL A   1      38.494  28.965  28.776  1.00  0.00     0.029 A 
ATOM     40  N   UNL A   1      40.014  30.132  29.931  1.00  0.00    -0.354 N 
ATOM     41  C   UNL A   1      43.964  28.496  30.662  1.00  0.00     0.074 A 
ATOM     42  C   UNL A   1      44.091  27.174  30.090  1.00  0.00     0.031 C 
ATOM     43  C   UNL A   1      37.947  30.155  29.075  1.00  0.00     0.029 A 
ATOM     44  C   UNL A   1      38.904  30.939  29.850  1.00  0.00     0.049 A 
ATOM     45  H   UNL A   1      40.844  30.400  30.386  1.00  0.00     0.167 HD
ATOM     46  C   UNL A   1      44.955  29.145  31.318  1.00  0.00     0.037 A 
ATOM     47  C   UNL A   1      38.687  32.169  30.355  1.00  0.00     0.037 A 
ATOM     48  C   UNL A   1      44.822  30.467  31.872  1.00  0.00     0.049 A 
ATOM     49  C   UNL A   1      39.793  32.854  31.114  1.00  0.00     0.074 A 
ATOM     50  C   UNL A   1      45.766  31.216  32.555  1.00  0.00     0.029 A 
ATOM     51  N   UNL A   1      43.671  31.240  31.806  1.00  0.00    -0.354 N 
ATOM     52  N   UNL A   1      41.009  32.429  31.360  1.00  0.00    -0.248 NA
ATOM     53  C   UNL A   1      39.497  34.185  31.662  1.00  0.00     0.031 C 
ATOM     54  C   UNL A   1      45.173  32.426  32.932  1.00  0.00     0.029 A 
ATOM     55  C   UNL A   1      43.874  32.450  32.448  1.00  0.00     0.049 A 
ATOM     56  H   UNL A   1      42.833  30.968  31.367  1.00  0.00     0.167 HD
ATOM     57  C   UNL A   1      41.633  33.450  32.070  1.00  0.00     0.074 A 
ATOM     58  C   UNL A   1      40.661  34.516  32.206  1.00  0.00     0.031 C 
ATOM     59  C   UNL A   1      42.895  33.501  32.563  1.00  0.00     0.037 A 
BRANCH  46  60
ATOM     60  C   UNL A   1      46.256  28.417  31.502  1.00  0.00     0.058 A 
ATOM     61  C   UNL A   1      46.484  27.571  32.599  1.00  0.00     0.135 A 
ATOM     62  C   UNL A   1      47.285  28.558  30.558  1.00  0.00     0.135 A 
ATOM     63  F   UNL A   1      45.541  27.417  33.542  1.00  0.00    -0.206 F 
ATOM     64  C   UNL A   1      47.697  26.909  32.765  1.00  0.00     0.059 A 
ATOM     65  C   UNL A   1      48.497  27.888  30.691  1.00  0.00     0.059 A 
ATOM     66  F   UNL A   1      47.119  29.359  29.492  1.00  0.00    -0.206 F 
ATOM     67  C   UNL A   1      48.699  27.078  31.808  1.00  0.00     0.060 A 
BRANCH  67  68
ATOM     68  S   UNL A   1      50.271  26.219  32.037  1.00  0.00     0.124 S 
ATOM     69  O   UNL A   1      49.850  24.823  31.979  1.00  0.00    -0.237 OA
ATOM     70  O   UNL A   1      51.056  26.691  30.900  1.00  0.00    -0.237 OA
ATOM     71  O   UNL A   1      50.724  26.684  33.343  1.00  0.00    -0.744 OA
ENDBRANCH  67  68
ENDBRANCH  46  60
BRANCH  47  72
ATOM     72  C   UNL A   1      37.368  32.828  30.162  1.00  0.00     0.058 A 
ATOM     73  C   UNL A   1      36.313  32.620  31.062  1.00  0.00     0.135 A 
ATOM     74  C   UNL A   1      37.143  33.690  29.077  1.00  0.00     0.135 A 
ATOM     75  F   UNL A   1      36.477  31.798  32.110  1.00  0.00    -0.206 F 
ATOM     76  C   UNL A   1      35.077  33.234  30.889  1.00  0.00     0.059 A 
ATOM     77  C   UNL A   1      35.923  34.334  28.895  1.00  0.00     0.059 A 
ATOM     78  F   UNL A   1      38.124  33.929  28.193  1.00  0.00    -0.206 F 
ATOM     79  C   UNL A   1      34.893  34.091  29.802  1.00  0.00     0.060 A 
BRANCH  79  80
ATOM     80  S   UNL A   1      33.302  34.928  29.613  1.00  0.00     0.124 S 
ATOM     81  O   UNL A   1      32.807  34.926  30.985  1.00  0.00    -0.237 OA
ATOM     82  O   UNL A   1      33.697  36.226  29.077  1.00  0.00    -0.237 OA
ATOM     83  O   UNL A   1      32.581  34.066  28.680  1.00  0.00    -0.744 OA
ENDBRANCH  79  80
ENDBRANCH  47  72
BRANCH  59  84
ATOM     84  C   UNL A   1      43.308  34.764  33.264  1.00  0.00     0.058 A 
ATOM     85  C   UNL A   1      43.761  35.887  32.553  1.00  0.00     0.135 A 
ATOM     86  C   UNL A   1      43.204  34.867  34.660  1.00  0.00     0.135 A 
ATOM     87  F   UNL A   1      43.882  35.837  31.218  1.00  0.00    -0.206 F 
ATOM     88  C   UNL A   1      44.122  37.061  33.207  1.00  0.00     0.059 A 
ATOM     89  C   UNL A   1      43.537  36.039  35.332  1.00  0.00     0.059 A 
ATOM     90  F   UNL A   1      42.765  33.825  35.384  1.00  0.00    -0.206 F 
ATOM     91  C   UNL A   1      44.008  37.127  34.597  1.00  0.00     0.060 A 
BRANCH  91  92
ATOM     92  S   UNL A   1      44.452  38.663  35.434  1.00  0.00     0.124 S 
ATOM     93  O   UNL A   1      43.711  39.647  34.652  1.00  0.00    -0.237 OA
ATOM     94  O   UNL A   1      43.967  38.435  36.792  1.00  0.00    -0.237 OA
ATOM     95  O   UNL A   1      45.905  38.715  35.296  1.00  0.00    -0.744 OA
ENDBRANCH  91  92
ENDBRANCH  59  84
ENDBRANCH  33  34
ENDBRANCH  26  28
ENDBRANCH  25  26
ENDBRANCH  24  25
ENDBRANCH  23  24
ENDBRANCH   1  23
TORSDOF 20
ENDMDL
MODEL 3
REMARK VINA RESULT:     -10.3      2.209      2.871
REMARK SMILES CCOc1ccc(OCC(=O)N2CCC[C@H](C(=O)OCCOC(=O)c3ccc(-c4c5nc(c(-c6c(F)cc(S(=O)(=O)[O-])cc6F)c6ccc([nH]6)c(-c6c(F)cc(S(=O)(=O)[O-])cc6F)c6nc(c(-c7c(F)cc(S(=O)(=O)[O-])cc7F)c7ccc4[nH]7)C=C6)C=C5)cc3)C2)cc1
REMARK SMILES IDX 19 1 17 2 18 3 16 4 12 5 13 6 91 7 14 8 15 9 10 10 11 11
REMARK SMILES IDX 9 12 8 13 7 14 4 15 5 16 93 17 6 18 92 19 3 20 2 21 1 22
REMARK SMILES IDX 20 23 21 24 22 25 23 26 24 27 25 28 26 29 90 30 27 31 89 32
REMARK SMILES IDX 28 33 29 34 30 35 83 36 31 37 88 38 82 39 84 40 32 41 87 42
REMARK SMILES IDX 81 43 80 44 33 46 67 47 46 48 66 49 47 50 50 51 65 52 85 53
REMARK SMILES IDX 48 54 49 55 64 57 86 58 51 59 34 60 35 61 44 62 36 63 37 64
REMARK SMILES IDX 43 65 45 66 38 67 39 68 40 69 41 70 42 71 68 72 69 73 78 74
REMARK SMILES IDX 70 75 71 76 77 77 79 78 72 79 73 80 74 81 75 82 76 83 52 84
REMARK SMILES IDX 53 85 62 86 54 87 55 88 61 89 63 90 56 91 57 92 58 93 59 94
REMARK SMILES IDX 60 95
REMARK H PARENT 84 45 50 56
REMARK Flexibility Score: inf
ROOT
ATOM      1  O   UNL A   1      30.920  27.506  26.166  1.00  0.00    -0.462 OA
ENDROOT
BRANCH   1   2
ATOM      2  C   UNL A   1      30.639  26.195  25.958  1.00  0.00     0.310 C 
ATOM      3  O   UNL A   1      30.929  25.290  26.732  1.00  0.00    -0.252 OA
BRANCH   2   4
ATOM      4  C   UNL A   1      29.924  25.937  24.641  1.00  0.00     0.119 C 
ATOM      5  N   UNL A   1      31.869  25.901  23.143  1.00  0.00    -0.339 N 
ATOM      6  C   UNL A   1      31.417  27.066  22.384  1.00  0.00     0.119 C 
ATOM      7  C   UNL A   1      30.796  25.092  23.716  1.00  0.00     0.134 C 
ATOM      8  C   UNL A   1      30.496  27.973  23.194  1.00  0.00     0.022 C 
ATOM      9  C   UNL A   1      29.405  27.195  23.935  1.00  0.00     0.019 C 
BRANCH   5  10
ATOM     10  C   UNL A   1      33.228  25.688  23.348  1.00  0.00     0.260 C 
ATOM     11  O   UNL A   1      33.955  26.566  23.824  1.00  0.00    -0.271 OA
BRANCH  10  12
ATOM     12  C   UNL A   1      33.870  24.388  22.808  1.00  0.00     0.329 C 
BRANCH  12  13
ATOM     13  O   UNL A   1      34.672  23.558  23.616  1.00  0.00    -0.484 OA
BRANCH  13  14
ATOM     14  C   UNL A   1      34.236  22.305  23.927  1.00  0.00     0.120 A 
ATOM     15  C   UNL A   1      33.657  19.664  24.611  1.00  0.00     0.119 A 
ATOM     16  C   UNL A   1      34.886  20.206  24.968  1.00  0.00     0.050 A 
ATOM     17  C   UNL A   1      32.696  20.448  23.976  1.00  0.00     0.050 A 
ATOM     18  C   UNL A   1      35.168  21.529  24.628  1.00  0.00     0.050 A 
ATOM     19  C   UNL A   1      32.991  21.765  23.613  1.00  0.00     0.050 A 
BRANCH  15  20
ATOM     20  O   UNL A   1      33.367  18.369  24.936  1.00  0.00    -0.494 OA
BRANCH  20  21
ATOM     21  C   UNL A   1      34.394  17.473  24.487  1.00  0.00     0.226 C 
ATOM     22  C   UNL A   1      34.058  16.951  23.099  1.00  0.00     0.049 C 
ENDBRANCH  20  21
ENDBRANCH  15  20
ENDBRANCH  13  14
ENDBRANCH  12  13
ENDBRANCH  10  12
ENDBRANCH   5  10
ENDBRANCH   2   4
ENDBRANCH   1   2
BRANCH   1  23
ATOM     23  C   UNL A   1      32.252  27.834  26.600  1.00  0.00     0.274 C 
BRANCH  23  24
ATOM     24  C   UNL A   1      32.488  29.346  26.673  1.00  0.00     0.275 C 
BRANCH  24  25
ATOM     25  O   UNL A   1      33.880  29.666  26.498  1.00  0.00    -0.458 OA
BRANCH  25  26
ATOM     26  C   UNL A   1      34.380  30.506  27.436  1.00  0.00     0.338 C 
ATOM     27  O   UNL A   1      33.794  31.425  27.982  1.00  0.00    -0.246 OA
BRANCH  26  28
ATOM     28  C   UNL A   1      35.712  30.048  27.865  1.00  0.00     0.060 A 
ATOM     29  C   UNL A   1      35.802  29.461  29.130  1.00  0.00     0.016 A 
ATOM     30  C   UNL A   1      36.858  30.246  27.093  1.00  0.00     0.016 A 
ATOM     31  C   UNL A   1      37.032  29.071  29.637  1.00  0.00     0.010 A 
ATOM     32  C   UNL A   1      38.104  29.872  27.612  1.00  0.00     0.010 A 
ATOM     33  C   UNL A   1      38.195  29.300  28.895  1.00  0.00    -0.014 A 
BRANCH  33  34
ATOM     34  C   UNL A   1      39.500  29.039  29.542  1.00  0.00     0.031 A 
ATOM     35  C   UNL A   1      39.886  29.833  30.757  1.00  0.00     0.074 A 
ATOM     36  C   UNL A   1      40.279  28.032  29.105  1.00  0.00     0.049 A 
ATOM     37  N   UNL A   1      40.955  29.736  31.503  1.00  0.00    -0.248 NA
ATOM     38  C   UNL A   1      38.938  30.871  31.194  1.00  0.00     0.031 C 
ATOM     39  C   UNL A   1      39.970  27.161  27.970  1.00  0.00     0.029 A 
ATOM     40  N   UNL A   1      41.477  27.561  29.575  1.00  0.00    -0.354 N 
ATOM     41  C   UNL A   1      40.817  30.705  32.488  1.00  0.00     0.074 A 
ATOM     42  C   UNL A   1      39.568  31.391  32.237  1.00  0.00     0.031 C 
ATOM     43  C   UNL A   1      40.952  26.253  27.838  1.00  0.00     0.029 A 
ATOM     44  C   UNL A   1      41.968  26.496  28.858  1.00  0.00     0.049 A 
ATOM     45  H   UNL A   1      41.941  27.948  30.351  1.00  0.00     0.167 HD
ATOM     46  C   UNL A   1      41.655  30.993  33.512  1.00  0.00     0.037 A 
ATOM     47  C   UNL A   1      43.115  25.804  29.006  1.00  0.00     0.037 A 
ATOM     48  C   UNL A   1      42.889  30.295  33.762  1.00  0.00     0.049 A 
ATOM     49  C   UNL A   1      44.049  26.168  30.130  1.00  0.00     0.074 A 
ATOM     50  C   UNL A   1      43.811  30.507  34.773  1.00  0.00     0.029 A 
ATOM     51  N   UNL A   1      43.374  29.246  32.992  1.00  0.00    -0.354 N 
ATOM     52  N   UNL A   1      43.908  27.091  31.051  1.00  0.00    -0.248 NA
ATOM     53  C   UNL A   1      45.295  25.397  30.234  1.00  0.00     0.031 C 
ATOM     54  C   UNL A   1      44.870  29.610  34.592  1.00  0.00     0.029 A 
ATOM     55  C   UNL A   1      44.589  28.812  33.495  1.00  0.00     0.049 A 
ATOM     56  H   UNL A   1      42.921  28.868  32.204  1.00  0.00     0.167 HD
ATOM     57  C   UNL A   1      45.035  26.996  31.861  1.00  0.00     0.074 A 
ATOM     58  C   UNL A   1      45.843  25.919  31.324  1.00  0.00     0.031 C 
ATOM     59  C   UNL A   1      45.372  27.732  32.949  1.00  0.00     0.037 A 
BRANCH  46  60
ATOM     60  C   UNL A   1      41.280  32.134  34.415  1.00  0.00     0.058 A 
ATOM     61  C   UNL A   1      41.737  33.441  34.187  1.00  0.00     0.135 A 
ATOM     62  C   UNL A   1      40.437  31.917  35.516  1.00  0.00     0.135 A 
ATOM     63  F   UNL A   1      42.563  33.700  33.160  1.00  0.00    -0.206 F 
ATOM     64  C   UNL A   1      41.392  34.489  35.035  1.00  0.00     0.059 A 
ATOM     65  C   UNL A   1      40.060  32.953  36.365  1.00  0.00     0.059 A 
ATOM     66  F   UNL A   1      39.976  30.684  35.781  1.00  0.00    -0.206 F 
ATOM     67  C   UNL A   1      40.557  34.234  36.125  1.00  0.00     0.060 A 
BRANCH  67  68
ATOM     68  S   UNL A   1      40.121  35.600  37.222  1.00  0.00     0.124 S 
ATOM     69  O   UNL A   1      39.071  34.995  38.036  1.00  0.00    -0.237 OA
ATOM     70  O   UNL A   1      41.381  35.865  37.910  1.00  0.00    -0.237 OA
ATOM     71  O   UNL A   1      39.680  36.645  36.304  1.00  0.00    -0.744 OA
ENDBRANCH  67  68
ENDBRANCH  46  60
BRANCH  47  72
ATOM     72  C   UNL A   1      43.443  24.702  28.065  1.00  0.00     0.058 A 
ATOM     73  C   UNL A   1      42.995  23.393  28.293  1.00  0.00     0.135 A 
ATOM     74  C   UNL A   1      44.203  24.941  26.908  1.00  0.00     0.135 A 
ATOM     75  F   UNL A   1      42.273  23.113  29.389  1.00  0.00    -0.206 F 
ATOM     76  C   UNL A   1      43.296  22.357  27.415  1.00  0.00     0.059 A 
ATOM     77  C   UNL A   1      44.497  23.926  26.003  1.00  0.00     0.059 A 
ATOM     78  F   UNL A   1      44.647  26.179  26.639  1.00  0.00    -0.206 F 
ATOM     79  C   UNL A   1      44.048  22.635  26.271  1.00  0.00     0.060 A 
BRANCH  79  80
ATOM     80  S   UNL A   1      44.390  21.295  25.108  1.00  0.00     0.124 S 
ATOM     81  O   UNL A   1      43.328  20.349  25.431  1.00  0.00    -0.237 OA
ATOM     82  O   UNL A   1      44.275  21.969  23.818  1.00  0.00    -0.237 OA
ATOM     83  O   UNL A   1      45.741  20.876  25.470  1.00  0.00    -0.744 OA
ENDBRANCH  79  80
ENDBRANCH  47  72
BRANCH  59  84
ATOM     84  C   UNL A   1      46.650  27.373  33.653  1.00  0.00     0.058 A 
ATOM     85  C   UNL A   1      47.871  27.977  33.317  1.00  0.00     0.135 A 
ATOM     86  C   UNL A   1      46.642  26.447  34.708  1.00  0.00     0.135 A 
ATOM     87  F   UNL A   1      47.932  28.866  32.313  1.00  0.00    -0.206 F 
ATOM     88  C   UNL A   1      49.047  27.656  33.988  1.00  0.00     0.059 A 
ATOM     89  C   UNL A   1      47.802  26.128  35.408  1.00  0.00     0.059 A 
ATOM     90  F   UNL A   1      45.497  25.850  35.075  1.00  0.00    -0.206 F 
ATOM     91  C   UNL A   1      49.002  26.729  35.031  1.00  0.00     0.060 A 
BRANCH  91  92
ATOM     92  S   UNL A   1      50.529  26.339  35.912  1.00  0.00     0.124 S 
ATOM     93  O   UNL A   1      51.463  26.146  34.809  1.00  0.00    -0.237 OA
ATOM     94  O   UNL A   1      50.740  27.535  36.722  1.00  0.00    -0.237 OA
ATOM     95  O   UNL A   1      50.186  25.135  36.664  1.00  0.00    -0.744 OA
ENDBRANCH  91  92
ENDBRANCH  59  84
ENDBRANCH  33  34
ENDBRANCH  26  28
ENDBRANCH  25  26
ENDBRANCH  24  25
ENDBRANCH  23  24
ENDBRANCH   1  23
TORSDOF 20
ENDMDL
