MODEL 1
REMARK VINA RESULT:     -11.6      0.000      0.000
REMARK SMILES Cc1cc(Nc2ccc(C(=O)OCCOC(=O)c3ccc(-c4c5nc(c(-c6c(F)cc(S(=O)(=O)[O-])cc6F)c6ccc([nH]6)c(-c6c(F)cc(S(=O)(=O)[O-])cc6F)c6nc(c(-c7c(F)cc(S(=O)(=O)[O-])cc7F)c7ccc4[nH]7)C=C6)C=C5)cc3)cc2)nc(-n2nc(C)cc2C)n1
REMARK SMILES IDX 13 1 12 2 10 3 11 4 9 5 6 6 7 7 85 8 8 9 84 10 5 11 4 13
REMARK SMILES IDX 1 14 2 15 3 16 95 17 87 18 86 19 88 20 89 21 93 22 90 23
REMARK SMILES IDX 92 24 94 25 91 26 14 27 15 28 16 29 17 30 18 31 19 32 83 33
REMARK SMILES IDX 20 34 82 35 21 36 22 37 23 38 76 39 24 40 81 41 75 42 77 43
REMARK SMILES IDX 25 44 80 45 74 46 73 47 26 49 60 50 39 51 59 52 40 53 43 54
REMARK SMILES IDX 58 55 78 56 41 57 42 58 57 60 79 61 44 62 27 63 28 64 37 65
REMARK SMILES IDX 29 66 30 67 36 68 38 69 31 70 32 71 33 72 34 73 35 74 61 75
REMARK SMILES IDX 62 76 71 77 63 78 64 79 70 80 72 81 65 82 66 83 67 84 68 85
REMARK SMILES IDX 69 86 45 87 46 88 55 89 47 90 48 91 54 92 56 93 49 94 50 95
REMARK SMILES IDX 51 96 52 97 53 98
REMARK H PARENT 5 12 77 48 43 59
REMARK Flexibility Score: inf
ROOT
ATOM      1  C   UNL A   1      36.502  20.784  25.218  1.00  0.00     0.275 C 
ENDROOT
BRANCH   1   2
ATOM      2  O   UNL A   1      35.187  20.818  24.627  1.00  0.00    -0.458 OA
BRANCH   2   3
ATOM      3  C   UNL A   1      34.250  21.482  25.346  1.00  0.00     0.338 C 
ATOM      4  O   UNL A   1      34.110  21.446  26.559  1.00  0.00    -0.246 OA
BRANCH   3   5
ATOM      5  C   UNL A   1      33.432  22.356  24.477  1.00  0.00     0.060 A 
ATOM      6  C   UNL A   1      32.084  24.223  22.870  1.00  0.00     0.040 A 
ATOM      7  C   UNL A   1      33.290  23.676  22.442  1.00  0.00     0.027 A 
ATOM      8  C   UNL A   1      31.540  23.796  24.094  1.00  0.00     0.027 A 
ATOM      9  C   UNL A   1      33.973  22.781  23.258  1.00  0.00     0.018 A 
ATOM     10  C   UNL A   1      32.195  22.847  24.888  1.00  0.00     0.018 A 
BRANCH   6  11
ATOM     11  N   UNL A   1      31.567  25.338  22.182  1.00  0.00    -0.340 N 
ATOM     12  H   UNL A   1      31.322  25.230  21.235  1.00  0.00     0.168 HD
BRANCH  11  13
ATOM     13  C   UNL A   1      31.382  26.598  22.781  1.00  0.00     0.136 A 
ATOM     14  C   UNL A   1      28.880  29.378  22.917  1.00  0.00     0.067 C 
ATOM     15  C   UNL A   1      30.042  28.481  23.216  1.00  0.00     0.045 A 
ATOM     16  C   UNL A   1      30.243  27.320  22.496  1.00  0.00     0.070 A 
ATOM     17  N   UNL A   1      30.877  28.876  24.198  1.00  0.00    -0.216 NA
ATOM     18  C   UNL A   1      32.008  28.152  24.355  1.00  0.00     0.252 A 
ATOM     19  N   UNL A   1      32.290  27.041  23.662  1.00  0.00    -0.194 NA
BRANCH  18  20
ATOM     20  N   UNL A   1      32.942  28.554  25.367  1.00  0.00    -0.203 N 
ATOM     21  N   UNL A   1      33.146  29.866  25.682  1.00  0.00    -0.170 NA
ATOM     22  C   UNL A   1      33.755  27.723  26.127  1.00  0.00     0.045 A 
ATOM     23  C   UNL A   1      33.934  29.840  26.762  1.00  0.00     0.060 A 
ATOM     24  C   UNL A   1      34.369  28.532  27.059  1.00  0.00     0.049 A 
ATOM     25  C   UNL A   1      33.930  26.281  25.832  1.00  0.00     0.067 C 
ATOM     26  C   UNL A   1      34.265  31.098  27.474  1.00  0.00     0.069 C 
ENDBRANCH  18  20
ENDBRANCH  11  13
ENDBRANCH   6  11
ENDBRANCH   3   5
ENDBRANCH   2   3
ENDBRANCH   1   2
BRANCH   1  27
ATOM     27  C   UNL A   1      37.409  21.862  24.624  1.00  0.00     0.275 C 
BRANCH  27  28
ATOM     28  O   UNL A   1      37.660  22.907  25.582  1.00  0.00    -0.458 OA
BRANCH  28  29
ATOM     29  C   UNL A   1      38.915  22.941  26.082  1.00  0.00     0.338 C 
ATOM     30  O   UNL A   1      39.780  22.087  25.980  1.00  0.00    -0.246 OA
BRANCH  29  31
ATOM     31  C   UNL A   1      39.141  24.215  26.778  1.00  0.00     0.060 A 
ATOM     32  C   UNL A   1      39.983  25.157  26.197  1.00  0.00     0.016 A 
ATOM     33  C   UNL A   1      38.652  24.416  28.066  1.00  0.00     0.016 A 
ATOM     34  C   UNL A   1      40.451  26.236  26.940  1.00  0.00     0.010 A 
ATOM     35  C   UNL A   1      39.013  25.575  28.761  1.00  0.00     0.010 A 
ATOM     36  C   UNL A   1      39.948  26.481  28.223  1.00  0.00    -0.014 A 
BRANCH  36  37
ATOM     37  C   UNL A   1      40.383  27.674  29.005  1.00  0.00     0.031 A 
ATOM     38  C   UNL A   1      41.675  27.638  29.780  1.00  0.00     0.074 A 
ATOM     39  C   UNL A   1      39.605  28.774  29.062  1.00  0.00     0.049 A 
ATOM     40  N   UNL A   1      42.098  28.437  30.725  1.00  0.00    -0.248 NA
ATOM     41  C   UNL A   1      42.603  26.542  29.461  1.00  0.00     0.031 C 
ATOM     42  C   UNL A   1      38.352  28.968  28.330  1.00  0.00     0.029 A 
ATOM     43  N   UNL A   1      39.742  29.932  29.791  1.00  0.00    -0.354 N 
ATOM     44  C   UNL A   1      43.303  27.899  31.168  1.00  0.00     0.074 A 
ATOM     45  C   UNL A   1      43.544  26.708  30.381  1.00  0.00     0.031 C 
ATOM     46  C   UNL A   1      37.839  30.167  28.637  1.00  0.00     0.029 A 
ATOM     47  C   UNL A   1      38.667  30.782  29.665  1.00  0.00     0.049 A 
ATOM     48  H   UNL A   1      40.529  30.132  30.346  1.00  0.00     0.167 HD
ATOM     49  C   UNL A   1      44.122  28.355  32.147  1.00  0.00     0.037 A 
ATOM     50  C   UNL A   1      38.336  31.897  30.347  1.00  0.00     0.037 A 
ATOM     51  C   UNL A   1      43.888  29.569  32.887  1.00  0.00     0.049 A 
ATOM     52  C   UNL A   1      39.242  32.379  31.441  1.00  0.00     0.074 A 
ATOM     53  C   UNL A   1      44.670  30.139  33.877  1.00  0.00     0.029 A 
ATOM     54  N   UNL A   1      42.793  30.406  32.713  1.00  0.00    -0.354 N 
ATOM     55  N   UNL A   1      40.355  31.841  31.880  1.00  0.00    -0.248 NA
ATOM     56  C   UNL A   1      38.846  33.606  32.141  1.00  0.00     0.031 C 
ATOM     57  C   UNL A   1      44.026  31.297  34.330  1.00  0.00     0.029 A 
ATOM     58  C   UNL A   1      42.869  31.477  33.588  1.00  0.00     0.049 A 
ATOM     59  H   UNL A   1      42.068  30.257  32.063  1.00  0.00     0.167 HD
ATOM     60  C   UNL A   1      40.801  32.672  32.899  1.00  0.00     0.074 A 
ATOM     61  C   UNL A   1      39.842  33.753  33.005  1.00  0.00     0.031 C 
ATOM     62  C   UNL A   1      41.906  32.548  33.677  1.00  0.00     0.037 A 
BRANCH  49  63
ATOM     63  C   UNL A   1      45.311  27.505  32.510  1.00  0.00     0.058 A 
ATOM     64  C   UNL A   1      45.241  26.477  33.463  1.00  0.00     0.135 A 
ATOM     65  C   UNL A   1      46.553  27.734  31.892  1.00  0.00     0.135 A 
ATOM     66  F   UNL A   1      44.083  26.219  34.094  1.00  0.00    -0.206 F 
ATOM     67  C   UNL A   1      46.366  25.744  33.829  1.00  0.00     0.059 A 
ATOM     68  C   UNL A   1      47.685  26.993  32.220  1.00  0.00     0.059 A 
ATOM     69  F   UNL A   1      46.680  28.699  30.966  1.00  0.00    -0.206 F 
ATOM     70  C   UNL A   1      47.587  26.018  33.210  1.00  0.00     0.060 A 
BRANCH  70  71
ATOM     71  S   UNL A   1      49.050  25.092  33.727  1.00  0.00     0.124 S 
ATOM     72  O   UNL A   1      48.445  23.931  34.372  1.00  0.00    -0.237 OA
ATOM     73  O   UNL A   1      49.722  24.832  32.458  1.00  0.00    -0.237 OA
ATOM     74  O   UNL A   1      49.739  26.017  34.620  1.00  0.00    -0.744 OA
ENDBRANCH  70  71
ENDBRANCH  49  63
BRANCH  50  75
ATOM     75  C   UNL A   1      37.054  32.580  30.032  1.00  0.00     0.058 A 
ATOM     76  C   UNL A   1      35.887  32.301  30.754  1.00  0.00     0.135 A 
ATOM     77  C   UNL A   1      36.998  33.598  29.065  1.00  0.00     0.135 A 
ATOM     78  F   UNL A   1      35.887  31.331  31.681  1.00  0.00    -0.206 F 
ATOM     79  C   UNL A   1      34.713  33.017  30.543  1.00  0.00     0.059 A 
ATOM     80  C   UNL A   1      35.845  34.346  28.853  1.00  0.00     0.059 A 
ATOM     81  F   UNL A   1      38.095  33.914  28.358  1.00  0.00    -0.206 F 
ATOM     82  C   UNL A   1      34.706  34.048  29.599  1.00  0.00     0.060 A 
BRANCH  82  83
ATOM     83  S   UNL A   1      33.209  35.041  29.410  1.00  0.00     0.124 S 
ATOM     84  O   UNL A   1      32.652  34.994  30.757  1.00  0.00    -0.237 OA
ATOM     85  O   UNL A   1      33.746  36.330  28.986  1.00  0.00    -0.237 OA
ATOM     86  O   UNL A   1      32.455  34.319  28.389  1.00  0.00    -0.744 OA
ENDBRANCH  82  83
ENDBRANCH  50  75
BRANCH  62  87
ATOM     87  C   UNL A   1      42.162  33.630  34.686  1.00  0.00     0.058 A 
ATOM     88  C   UNL A   1      41.733  33.516  36.016  1.00  0.00     0.135 A 
ATOM     89  C   UNL A   1      42.906  34.767  34.330  1.00  0.00     0.135 A 
ATOM     90  F   UNL A   1      41.009  32.454  36.404  1.00  0.00    -0.206 F 
ATOM     91  C   UNL A   1      42.024  34.497  36.959  1.00  0.00     0.059 A 
ATOM     92  C   UNL A   1      43.229  35.749  35.261  1.00  0.00     0.059 A 
ATOM     93  F   UNL A   1      43.345  34.920  33.071  1.00  0.00    -0.206 F 
ATOM     94  C   UNL A   1      42.777  35.607  36.572  1.00  0.00     0.060 A 
BRANCH  94  95
ATOM     95  S   UNL A   1      43.195  36.847  37.816  1.00  0.00     0.124 S 
ATOM     96  O   UNL A   1      43.783  37.902  36.996  1.00  0.00    -0.237 OA
ATOM     97  O   UNL A   1      41.895  37.152  38.405  1.00  0.00    -0.237 OA
ATOM     98  O   UNL A   1      44.125  36.145  38.696  1.00  0.00    -0.744 OA
ENDBRANCH  94  95
ENDBRANCH  62  87
ENDBRANCH  36  37
ENDBRANCH  29  31
ENDBRANCH  28  29
ENDBRANCH  27  28
ENDBRANCH   1  27
TORSDOF 17
ENDMDL
MODEL 2
REMARK VINA RESULT:     -11.5      2.270      3.428
REMARK SMILES Cc1cc(Nc2ccc(C(=O)OCCOC(=O)c3ccc(-c4c5nc(c(-c6c(F)cc(S(=O)(=O)[O-])cc6F)c6ccc([nH]6)c(-c6c(F)cc(S(=O)(=O)[O-])cc6F)c6nc(c(-c7c(F)cc(S(=O)(=O)[O-])cc7F)c7ccc4[nH]7)C=C6)C=C5)cc3)cc2)nc(-n2nc(C)cc2C)n1
REMARK SMILES IDX 13 1 12 2 10 3 11 4 9 5 6 6 7 7 85 8 8 9 84 10 5 11 4 13
REMARK SMILES IDX 1 14 2 15 3 16 95 17 87 18 86 19 88 20 89 21 93 22 90 23
REMARK SMILES IDX 92 24 94 25 91 26 14 27 15 28 16 29 17 30 18 31 19 32 83 33
REMARK SMILES IDX 20 34 82 35 21 36 22 37 23 38 76 39 24 40 81 41 75 42 77 43
REMARK SMILES IDX 25 44 80 45 74 46 73 47 26 49 60 50 39 51 59 52 40 53 43 54
REMARK SMILES IDX 58 55 78 56 41 57 42 58 57 60 79 61 44 62 27 63 28 64 37 65
REMARK SMILES IDX 29 66 30 67 36 68 38 69 31 70 32 71 33 72 34 73 35 74 61 75
REMARK SMILES IDX 62 76 71 77 63 78 64 79 70 80 72 81 65 82 66 83 67 84 68 85
REMARK SMILES IDX 69 86 45 87 46 88 55 89 47 90 48 91 54 92 56 93 49 94 50 95
REMARK SMILES IDX 51 96 52 97 53 98
REMARK H PARENT 5 12 77 48 43 59
REMARK Flexibility Score: inf
ROOT
ATOM      1  C   UNL A   1      40.326  21.104  26.413  1.00  0.00     0.275 C 
ENDROOT
BRANCH   1   2
ATOM      2  O   UNL A   1      39.019  21.643  26.128  1.00  0.00    -0.458 OA
BRANCH   2   3
ATOM      3  C   UNL A   1      38.238  20.869  25.336  1.00  0.00     0.338 C 
ATOM      4  O   UNL A   1      38.487  19.732  24.963  1.00  0.00    -0.246 OA
BRANCH   3   5
ATOM      5  C   UNL A   1      36.961  21.546  25.024  1.00  0.00     0.060 A 
ATOM      6  C   UNL A   1      34.439  22.570  24.333  1.00  0.00     0.040 A 
ATOM      7  C   UNL A   1      34.565  21.689  25.403  1.00  0.00     0.027 A 
ATOM      8  C   UNL A   1      35.594  22.964  23.636  1.00  0.00     0.027 A 
ATOM      9  C   UNL A   1      35.810  21.155  25.717  1.00  0.00     0.018 A 
ATOM     10  C   UNL A   1      36.858  22.476  23.991  1.00  0.00     0.018 A 
BRANCH   6  11
ATOM     11  N   UNL A   1      33.149  22.858  23.845  1.00  0.00    -0.340 N 
ATOM     12  H   UNL A   1      32.915  22.557  22.938  1.00  0.00     0.168 HD
BRANCH  11  13
ATOM     13  C   UNL A   1      32.179  23.555  24.590  1.00  0.00     0.136 A 
ATOM     14  C   UNL A   1      29.539  22.929  27.168  1.00  0.00     0.067 C 
ATOM     15  C   UNL A   1      30.526  23.599  26.262  1.00  0.00     0.045 A 
ATOM     16  C   UNL A   1      31.361  22.856  25.452  1.00  0.00     0.070 A 
ATOM     17  N   UNL A   1      30.538  24.947  26.269  1.00  0.00    -0.216 NA
ATOM     18  C   UNL A   1      31.312  25.548  25.337  1.00  0.00     0.252 A 
ATOM     19  N   UNL A   1      32.114  24.889  24.489  1.00  0.00    -0.194 NA
BRANCH  18  20
ATOM     20  N   UNL A   1      31.331  26.982  25.285  1.00  0.00    -0.203 N 
ATOM     21  N   UNL A   1      32.063  27.727  26.163  1.00  0.00    -0.170 NA
ATOM     22  C   UNL A   1      30.633  27.792  24.399  1.00  0.00     0.045 A 
ATOM     23  C   UNL A   1      31.975  28.979  25.705  1.00  0.00     0.060 A 
ATOM     24  C   UNL A   1      31.069  29.079  24.630  1.00  0.00     0.049 A 
ATOM     25  C   UNL A   1      29.571  27.276  23.503  1.00  0.00     0.067 C 
ATOM     26  C   UNL A   1      32.764  30.063  26.340  1.00  0.00     0.069 C 
ENDBRANCH  18  20
ENDBRANCH  11  13
ENDBRANCH   6  11
ENDBRANCH   3   5
ENDBRANCH   2   3
ENDBRANCH   1   2
BRANCH   1  27
ATOM     27  C   UNL A   1      41.385  22.205  26.462  1.00  0.00     0.275 C 
BRANCH  27  28
ATOM     28  O   UNL A   1      40.773  23.501  26.596  1.00  0.00    -0.458 OA
BRANCH  28  29
ATOM     29  C   UNL A   1      41.575  24.550  26.307  1.00  0.00     0.338 C 
ATOM     30  O   UNL A   1      42.399  24.632  25.412  1.00  0.00    -0.246 OA
BRANCH  29  31
ATOM     31  C   UNL A   1      41.301  25.658  27.233  1.00  0.00     0.060 A 
ATOM     32  C   UNL A   1      42.050  26.824  27.124  1.00  0.00     0.016 A 
ATOM     33  C   UNL A   1      40.420  25.490  28.298  1.00  0.00     0.016 A 
ATOM     34  C   UNL A   1      42.030  27.771  28.143  1.00  0.00     0.010 A 
ATOM     35  C   UNL A   1      40.298  26.509  29.250  1.00  0.00     0.010 A 
ATOM     36  C   UNL A   1      41.130  27.645  29.207  1.00  0.00    -0.014 A 
BRANCH  36  37
ATOM     37  C   UNL A   1      41.042  28.688  30.269  1.00  0.00     0.031 A 
ATOM     38  C   UNL A   1      41.954  28.623  31.467  1.00  0.00     0.074 A 
ATOM     39  C   UNL A   1      40.120  29.669  30.189  1.00  0.00     0.049 A 
ATOM     40  N   UNL A   1      41.864  29.247  32.613  1.00  0.00    -0.248 NA
ATOM     41  C   UNL A   1      43.107  27.714  31.367  1.00  0.00     0.031 C 
ATOM     42  C   UNL A   1      39.202  29.883  29.069  1.00  0.00     0.029 A 
ATOM     43  N   UNL A   1      39.785  30.659  31.082  1.00  0.00    -0.354 N 
ATOM     44  C   UNL A   1      42.901  28.753  33.398  1.00  0.00     0.074 A 
ATOM     45  C   UNL A   1      43.609  27.780  32.593  1.00  0.00     0.031 C 
ATOM     46  C   UNL A   1      38.416  30.935  29.334  1.00  0.00     0.029 A 
ATOM     47  C   UNL A   1      38.699  31.405  30.683  1.00  0.00     0.049 A 
ATOM     48  H   UNL A   1      40.272  30.818  31.921  1.00  0.00     0.167 HD
ATOM     49  C   UNL A   1      43.221  29.076  34.676  1.00  0.00     0.037 A 
ATOM     50  C   UNL A   1      37.959  32.315  31.346  1.00  0.00     0.037 A 
ATOM     51  C   UNL A   1      42.533  30.082  35.444  1.00  0.00     0.049 A 
ATOM     52  C   UNL A   1      38.313  32.649  32.765  1.00  0.00     0.074 A 
ATOM     53  C   UNL A   1      42.794  30.510  36.734  1.00  0.00     0.029 A 
ATOM     54  N   UNL A   1      41.448  30.822  34.992  1.00  0.00    -0.354 N 
ATOM     55  N   UNL A   1      39.267  32.147  33.512  1.00  0.00    -0.248 NA
ATOM     56  C   UNL A   1      37.487  33.659  33.437  1.00  0.00     0.031 C 
ATOM     57  C   UNL A   1      41.843  31.479  37.075  1.00  0.00     0.029 A 
ATOM     58  C   UNL A   1      41.019  31.691  35.981  1.00  0.00     0.049 A 
ATOM     59  H   UNL A   1      41.043  30.739  34.098  1.00  0.00     0.167 HD
ATOM     60  C   UNL A   1      39.167  32.789  34.739  1.00  0.00     0.074 A 
ATOM     61  C   UNL A   1      38.063  33.723  34.631  1.00  0.00     0.031 C 
ATOM     62  C   UNL A   1      39.920  32.619  35.854  1.00  0.00     0.037 A 
BRANCH  49  63
ATOM     63  C   UNL A   1      44.326  28.293  35.334  1.00  0.00     0.058 A 
ATOM     64  C   UNL A   1      45.668  28.700  35.289  1.00  0.00     0.135 A 
ATOM     65  C   UNL A   1      44.031  27.101  36.018  1.00  0.00     0.135 A 
ATOM     66  F   UNL A   1      46.012  29.826  34.640  1.00  0.00    -0.206 F 
ATOM     67  C   UNL A   1      46.684  27.930  35.851  1.00  0.00     0.059 A 
ATOM     68  C   UNL A   1      45.027  26.330  36.614  1.00  0.00     0.059 A 
ATOM     69  F   UNL A   1      42.764  26.664  36.102  1.00  0.00    -0.206 F 
ATOM     70  C   UNL A   1      46.353  26.740  36.501  1.00  0.00     0.060 A 
BRANCH  70  71
ATOM     71  S   UNL A   1      47.683  25.726  37.185  1.00  0.00     0.124 S 
ATOM     72  O   UNL A   1      46.928  24.732  37.941  1.00  0.00    -0.237 OA
ATOM     73  O   UNL A   1      48.352  25.234  35.985  1.00  0.00    -0.237 OA
ATOM     74  O   UNL A   1      48.453  26.671  37.986  1.00  0.00    -0.744 OA
ENDBRANCH  70  71
ENDBRANCH  49  63
BRANCH  50  75
ATOM     75  C   UNL A   1      36.780  32.917  30.670  1.00  0.00     0.058 A 
ATOM     76  C   UNL A   1      35.476  32.547  31.021  1.00  0.00     0.135 A 
ATOM     77  C   UNL A   1      36.938  33.946  29.726  1.00  0.00     0.135 A 
ATOM     78  F   UNL A   1      35.273  31.562  31.909  1.00  0.00    -0.206 F 
ATOM     79  C   UNL A   1      34.367  33.186  30.474  1.00  0.00     0.059 A 
ATOM     80  C   UNL A   1      35.847  34.618  29.185  1.00  0.00     0.059 A 
ATOM     81  F   UNL A   1      38.168  34.347  29.369  1.00  0.00    -0.206 F 
ATOM     82  C   UNL A   1      34.564  34.232  29.567  1.00  0.00     0.060 A 
BRANCH  82  83
ATOM     83  S   UNL A   1      33.122  35.125  28.947  1.00  0.00     0.124 S 
ATOM     84  O   UNL A   1      32.346  35.315  30.168  1.00  0.00    -0.237 OA
ATOM     85  O   UNL A   1      33.725  36.327  28.381  1.00  0.00    -0.237 OA
ATOM     86  O   UNL A   1      32.549  34.202  27.972  1.00  0.00    -0.744 OA
ENDBRANCH  82  83
ENDBRANCH  50  75
BRANCH  62  87
ATOM     87  C   UNL A   1      39.606  33.488  37.037  1.00  0.00     0.058 A 
ATOM     88  C   UNL A   1      38.727  33.072  38.047  1.00  0.00     0.135 A 
ATOM     89  C   UNL A   1      40.247  34.729  37.192  1.00  0.00     0.135 A 
ATOM     90  F   UNL A   1      38.081  31.900  37.941  1.00  0.00    -0.206 F 
ATOM     91  C   UNL A   1      38.486  33.860  39.169  1.00  0.00     0.059 A 
ATOM     92  C   UNL A   1      40.039  35.523  38.315  1.00  0.00     0.059 A 
ATOM     93  F   UNL A   1      41.102  35.170  36.256  1.00  0.00    -0.206 F 
ATOM     94  C   UNL A   1      39.151  35.082  39.295  1.00  0.00     0.060 A 
BRANCH  94  95
ATOM     95  S   UNL A   1      38.871  36.071  40.780  1.00  0.00     0.124 S 
ATOM     96  O   UNL A   1      37.788  35.334  41.424  1.00  0.00    -0.237 OA
ATOM     97  O   UNL A   1      40.167  36.007  41.448  1.00  0.00    -0.237 OA
ATOM     98  O   UNL A   1      38.509  37.382  40.250  1.00  0.00    -0.744 OA
ENDBRANCH  94  95
ENDBRANCH  62  87
ENDBRANCH  36  37
ENDBRANCH  29  31
ENDBRANCH  28  29
ENDBRANCH  27  28
ENDBRANCH   1  27
TORSDOF 17
ENDMDL
MODEL 3
REMARK VINA RESULT:     -11.4      2.412      3.380
REMARK SMILES Cc1cc(Nc2ccc(C(=O)OCCOC(=O)c3ccc(-c4c5nc(c(-c6c(F)cc(S(=O)(=O)[O-])cc6F)c6ccc([nH]6)c(-c6c(F)cc(S(=O)(=O)[O-])cc6F)c6nc(c(-c7c(F)cc(S(=O)(=O)[O-])cc7F)c7ccc4[nH]7)C=C6)C=C5)cc3)cc2)nc(-n2nc(C)cc2C)n1
REMARK SMILES IDX 13 1 12 2 10 3 11 4 9 5 6 6 7 7 85 8 8 9 84 10 5 11 4 13
REMARK SMILES IDX 1 14 2 15 3 16 95 17 87 18 86 19 88 20 89 21 93 22 90 23
REMARK SMILES IDX 92 24 94 25 91 26 14 27 15 28 16 29 17 30 18 31 19 32 83 33
REMARK SMILES IDX 20 34 82 35 21 36 22 37 23 38 76 39 24 40 81 41 75 42 77 43
REMARK SMILES IDX 25 44 80 45 74 46 73 47 26 49 60 50 39 51 59 52 40 53 43 54
REMARK SMILES IDX 58 55 78 56 41 57 42 58 57 60 79 61 44 62 27 63 28 64 37 65
REMARK SMILES IDX 29 66 30 67 36 68 38 69 31 70 32 71 33 72 34 73 35 74 61 75
REMARK SMILES IDX 62 76 71 77 63 78 64 79 70 80 72 81 65 82 66 83 67 84 68 85
REMARK SMILES IDX 69 86 45 87 46 88 55 89 47 90 48 91 54 92 56 93 49 94 50 95
REMARK SMILES IDX 51 96 52 97 53 98
REMARK H PARENT 5 12 77 48 43 59
REMARK Flexibility Score: inf
ROOT
ATOM      1  C   UNL A   1      41.266  21.011  26.518  1.00  0.00     0.275 C 
ENDROOT
BRANCH   1   2
ATOM      2  O   UNL A   1      39.849  21.252  26.639  1.00  0.00    -0.458 OA
BRANCH   2   3
ATOM      3  C   UNL A   1      39.072  20.561  25.770  1.00  0.00     0.338 C 
ATOM      4  O   UNL A   1      39.297  19.443  25.330  1.00  0.00    -0.246 OA
BRANCH   3   5
ATOM      5  C   UNL A   1      37.830  21.302  25.461  1.00  0.00     0.060 A 
ATOM      6  C   UNL A   1      35.450  22.763  25.165  1.00  0.00     0.040 A 
ATOM      7  C   UNL A   1      36.627  23.413  25.525  1.00  0.00     0.027 A 
ATOM      8  C   UNL A   1      35.485  21.380  24.917  1.00  0.00     0.027 A 
ATOM      9  C   UNL A   1      37.794  22.680  25.708  1.00  0.00     0.018 A 
ATOM     10  C   UNL A   1      36.673  20.650  25.039  1.00  0.00     0.018 A 
BRANCH   6  11
ATOM     11  N   UNL A   1      34.232  23.462  25.280  1.00  0.00    -0.340 N 
ATOM     12  H   UNL A   1      33.480  23.018  25.736  1.00  0.00     0.168 HD
BRANCH  11  13
ATOM     13  C   UNL A   1      34.036  24.762  24.778  1.00  0.00     0.136 A 
ATOM     14  C   UNL A   1      33.189  26.511  21.580  1.00  0.00     0.067 C 
ATOM     15  C   UNL A   1      33.429  26.209  23.027  1.00  0.00     0.045 A 
ATOM     16  C   UNL A   1      33.751  24.932  23.440  1.00  0.00     0.070 A 
ATOM     17  N   UNL A   1      33.332  27.243  23.887  1.00  0.00    -0.216 NA
ATOM     18  C   UNL A   1      33.707  27.004  25.164  1.00  0.00     0.252 A 
ATOM     19  N   UNL A   1      34.073  25.800  25.625  1.00  0.00    -0.194 NA
BRANCH  18  20
ATOM     20  N   UNL A   1      33.652  28.083  26.107  1.00  0.00    -0.203 N 
ATOM     21  N   UNL A   1      34.747  28.840  26.405  1.00  0.00    -0.170 NA
ATOM     22  C   UNL A   1      32.545  28.492  26.840  1.00  0.00     0.045 A 
ATOM     23  C   UNL A   1      34.280  29.832  27.168  1.00  0.00     0.060 A 
ATOM     24  C   UNL A   1      32.923  29.644  27.497  1.00  0.00     0.049 A 
ATOM     25  C   UNL A   1      31.291  27.705  26.910  1.00  0.00     0.067 C 
ATOM     26  C   UNL A   1      35.176  30.940  27.581  1.00  0.00     0.069 C 
ENDBRANCH  18  20
ENDBRANCH  11  13
ENDBRANCH   6  11
ENDBRANCH   3   5
ENDBRANCH   2   3
ENDBRANCH   1   2
BRANCH   1  27
ATOM     27  C   UNL A   1      42.006  22.263  26.046  1.00  0.00     0.275 C 
BRANCH  27  28
ATOM     28  O   UNL A   1      41.291  23.454  26.421  1.00  0.00    -0.458 OA
BRANCH  28  29
ATOM     29  C   UNL A   1      41.880  24.617  26.061  1.00  0.00     0.338 C 
ATOM     30  O   UNL A   1      42.563  24.831  25.074  1.00  0.00    -0.246 OA
BRANCH  29  31
ATOM     31  C   UNL A   1      41.556  25.664  27.041  1.00  0.00     0.060 A 
ATOM     32  C   UNL A   1      42.078  26.939  26.855  1.00  0.00     0.016 A 
ATOM     33  C   UNL A   1      40.874  25.352  28.213  1.00  0.00     0.016 A 
ATOM     34  C   UNL A   1      42.042  27.871  27.888  1.00  0.00     0.010 A 
ATOM     35  C   UNL A   1      40.718  26.336  29.195  1.00  0.00     0.010 A 
ATOM     36  C   UNL A   1      41.333  27.597  29.063  1.00  0.00    -0.014 A 
BRANCH  36  37
ATOM     37  C   UNL A   1      41.222  28.612  30.150  1.00  0.00     0.031 A 
ATOM     38  C   UNL A   1      42.126  28.531  31.352  1.00  0.00     0.074 A 
ATOM     39  C   UNL A   1      40.284  29.579  30.087  1.00  0.00     0.049 A 
ATOM     40  N   UNL A   1      42.018  29.125  32.513  1.00  0.00    -0.248 NA
ATOM     41  C   UNL A   1      43.294  27.643  31.239  1.00  0.00     0.031 C 
ATOM     42  C   UNL A   1      39.371  29.807  28.965  1.00  0.00     0.029 A 
ATOM     43  N   UNL A   1      39.928  30.542  31.001  1.00  0.00    -0.354 N 
ATOM     44  C   UNL A   1      43.057  28.628  33.293  1.00  0.00     0.074 A 
ATOM     45  C   UNL A   1      43.787  27.686  32.469  1.00  0.00     0.031 C 
ATOM     46  C   UNL A   1      38.567  30.840  29.250  1.00  0.00     0.029 A 
ATOM     47  C   UNL A   1      38.834  31.280  30.613  1.00  0.00     0.049 A 
ATOM     48  H   UNL A   1      40.406  30.687  31.848  1.00  0.00     0.167 HD
ATOM     49  C   UNL A   1      43.363  28.924  34.580  1.00  0.00     0.037 A 
ATOM     50  C   UNL A   1      38.075  32.162  31.293  1.00  0.00     0.037 A 
ATOM     51  C   UNL A   1      42.654  29.900  35.368  1.00  0.00     0.049 A 
ATOM     52  C   UNL A   1      38.413  32.466  32.722  1.00  0.00     0.074 A 
ATOM     53  C   UNL A   1      42.900  30.300  36.671  1.00  0.00     0.029 A 
ATOM     54  N   UNL A   1      41.561  30.633  34.926  1.00  0.00    -0.354 N 
ATOM     55  N   UNL A   1      39.370  31.961  33.463  1.00  0.00    -0.248 NA
ATOM     56  C   UNL A   1      37.567  33.447  33.413  1.00  0.00     0.031 C 
ATOM     57  C   UNL A   1      41.931  31.245  37.028  1.00  0.00     0.029 A 
ATOM     58  C   UNL A   1      41.111  31.471  35.933  1.00  0.00     0.049 A 
ATOM     59  H   UNL A   1      41.163  30.567  34.028  1.00  0.00     0.167 HD
ATOM     60  C   UNL A   1      39.251  32.571  34.705  1.00  0.00     0.074 A 
ATOM     61  C   UNL A   1      38.134  33.490  34.612  1.00  0.00     0.031 C 
ATOM     62  C   UNL A   1      39.999  32.385  35.821  1.00  0.00     0.037 A 
BRANCH  49  63
ATOM     63  C   UNL A   1      44.476  28.142  35.228  1.00  0.00     0.058 A 
ATOM     64  C   UNL A   1      45.815  28.559  35.181  1.00  0.00     0.135 A 
ATOM     65  C   UNL A   1      44.191  26.942  35.902  1.00  0.00     0.135 A 
ATOM     66  F   UNL A   1      46.149  29.692  34.541  1.00  0.00    -0.206 F 
ATOM     67  C   UNL A   1      46.838  27.790  35.732  1.00  0.00     0.059 A 
ATOM     68  C   UNL A   1      45.194  26.172  36.487  1.00  0.00     0.059 A 
ATOM     69  F   UNL A   1      42.928  26.496  35.986  1.00  0.00    -0.206 F 
ATOM     70  C   UNL A   1      46.518  26.592  36.373  1.00  0.00     0.060 A 
BRANCH  70  71
ATOM     71  S   UNL A   1      47.856  25.580  37.042  1.00  0.00     0.124 S 
ATOM     72  O   UNL A   1      47.296  24.238  36.913  1.00  0.00    -0.237 OA
ATOM     73  O   UNL A   1      48.964  25.892  36.146  1.00  0.00    -0.237 OA
ATOM     74  O   UNL A   1      48.002  26.070  38.408  1.00  0.00    -0.744 OA
ENDBRANCH  70  71
ENDBRANCH  49  63
BRANCH  50  75
ATOM     75  C   UNL A   1      36.891  32.762  30.623  1.00  0.00     0.058 A 
ATOM     76  C   UNL A   1      35.591  32.352  30.944  1.00  0.00     0.135 A 
ATOM     77  C   UNL A   1      37.038  33.828  29.718  1.00  0.00     0.135 A 
ATOM     78  F   UNL A   1      35.399  31.333  31.794  1.00  0.00    -0.206 F 
ATOM     79  C   UNL A   1      34.475  32.987  30.406  1.00  0.00     0.059 A 
ATOM     80  C   UNL A   1      35.940  34.495  29.188  1.00  0.00     0.059 A 
ATOM     81  F   UNL A   1      38.263  34.268  29.392  1.00  0.00    -0.206 F 
ATOM     82  C   UNL A   1      34.660  34.068  29.539  1.00  0.00     0.060 A 
BRANCH  82  83
ATOM     83  S   UNL A   1      33.206  34.952  28.932  1.00  0.00     0.124 S 
ATOM     84  O   UNL A   1      32.677  34.009  27.952  1.00  0.00    -0.237 OA
ATOM     85  O   UNL A   1      32.418  35.118  30.148  1.00  0.00    -0.237 OA
ATOM     86  O   UNL A   1      33.768  36.184  28.385  1.00  0.00    -0.744 OA
ENDBRANCH  82  83
ENDBRANCH  50  75
BRANCH  62  87
ATOM     87  C   UNL A   1      39.663  33.220  37.023  1.00  0.00     0.058 A 
ATOM     88  C   UNL A   1      38.723  32.800  37.975  1.00  0.00     0.135 A 
ATOM     89  C   UNL A   1      40.342  34.428  37.257  1.00  0.00     0.135 A 
ATOM     90  F   UNL A   1      38.040  31.659  37.793  1.00  0.00    -0.206 F 
ATOM     91  C   UNL A   1      38.460  33.553  39.116  1.00  0.00     0.059 A 
ATOM     92  C   UNL A   1      40.111  35.185  38.400  1.00  0.00     0.059 A 
ATOM     93  F   UNL A   1      41.255  34.870  36.378  1.00  0.00    -0.206 F 
ATOM     94  C   UNL A   1      39.163  34.742  39.320  1.00  0.00     0.060 A 
BRANCH  94  95
ATOM     95  S   UNL A   1      38.852  35.683  40.830  1.00  0.00     0.124 S 
ATOM     96  O   UNL A   1      37.758  34.926  41.429  1.00  0.00    -0.237 OA
ATOM     97  O   UNL A   1      40.135  35.600  41.521  1.00  0.00    -0.237 OA
ATOM     98  O   UNL A   1      38.499  37.010  40.335  1.00  0.00    -0.744 OA
ENDBRANCH  94  95
ENDBRANCH  62  87
ENDBRANCH  36  37
ENDBRANCH  29  31
ENDBRANCH  28  29
ENDBRANCH  27  28
ENDBRANCH   1  27
TORSDOF 17
ENDMDL
