MODEL 1
REMARK VINA RESULT:     -10.0      0.000      0.000
REMARK SMILES CC(C)OC[C@H](O)CC1(C(=O)OCCOC(=O)c2ccc(-c3c4nc(c(-c5c(F)cc(S(=O)(=O)[O-])cc5F)c5ccc([nH]5)c(-c5c(F)cc(S(=O)(=O)[O-])cc5F)c5nc(c(-c6c(F)cc(S(=O)(=O)[O-])cc6F)c6ccc3[nH]6)C=C5)C=C4)cc2)CCCCC1
REMARK SMILES IDX 13 1 12 2 10 3 11 4 9 5 84 6 88 7 85 8 87 9 86 10 8 11 6 12
REMARK SMILES IDX 5 13 4 14 2 15 1 16 3 17 7 18 14 20 15 21 16 22 17 23 18 24
REMARK SMILES IDX 19 25 83 26 20 27 82 28 21 29 22 30 23 31 76 32 24 33 81 34
REMARK SMILES IDX 75 35 77 36 25 37 80 38 74 39 73 40 26 42 60 43 39 44 59 45
REMARK SMILES IDX 40 46 43 47 58 48 78 49 41 50 42 51 57 53 79 54 44 55 27 56
REMARK SMILES IDX 28 57 37 58 29 59 30 60 36 61 38 62 31 63 32 64 33 65 34 66
REMARK SMILES IDX 35 67 61 68 62 69 71 70 63 71 64 72 70 73 72 74 65 75 66 76
REMARK SMILES IDX 67 77 68 78 69 79 45 80 46 81 55 82 47 83 48 84 54 85 56 86
REMARK SMILES IDX 49 87 50 88 51 89 52 90 53 91
REMARK H PARENT 7 19 77 41 43 52
REMARK Flexibility Score: inf
ROOT
ATOM      1  C   UNL A   1      36.375  22.856  23.393  1.00  0.00     0.274 C 
ENDROOT
BRANCH   1   2
ATOM      2  O   UNL A   1      35.442  23.802  23.935  1.00  0.00    -0.462 OA
BRANCH   2   3
ATOM      3  C   UNL A   1      34.240  23.849  23.300  1.00  0.00     0.312 C 
ATOM      4  O   UNL A   1      34.088  24.249  22.149  1.00  0.00    -0.252 OA
BRANCH   3   5
ATOM      5  C   UNL A   1      33.087  23.303  24.177  1.00  0.00     0.071 C 
ATOM      6  C   UNL A   1      31.813  24.128  23.854  1.00  0.00     0.019 C 
ATOM      7  C   UNL A   1      33.383  23.475  25.689  1.00  0.00     0.019 C 
ATOM      8  C   UNL A   1      31.947  25.602  24.243  1.00  0.00     0.001 C 
ATOM      9  C   UNL A   1      33.524  24.940  26.111  1.00  0.00     0.001 C 
ATOM     10  C   UNL A   1      32.308  25.768  25.715  1.00  0.00     0.000 C 
BRANCH   5  11
ATOM     11  C   UNL A   1      32.793  21.789  23.872  1.00  0.00     0.053 C 
BRANCH  11  12
ATOM     12  C   UNL A   1      33.045  20.827  25.036  1.00  0.00     0.141 C 
BRANCH  12  13
ATOM     13  C   UNL A   1      33.914  19.618  24.684  1.00  0.00     0.192 C 
BRANCH  13  14
ATOM     14  O   UNL A   1      33.126  18.426  24.748  1.00  0.00    -0.376 OA
BRANCH  14  15
ATOM     15  C   UNL A   1      32.987  17.567  23.615  1.00  0.00     0.112 C 
ATOM     16  C   UNL A   1      32.338  18.236  22.418  1.00  0.00     0.038 C 
ATOM     17  C   UNL A   1      34.273  16.827  23.265  1.00  0.00     0.038 C 
ENDBRANCH  14  15
ENDBRANCH  13  14
ENDBRANCH  12  13
BRANCH  12  18
ATOM     18  O   UNL A   1      31.771  20.337  25.457  1.00  0.00    -0.391 OA
ATOM     19  H   UNL A   1      31.773  19.368  25.434  1.00  0.00     0.211 HD
ENDBRANCH  12  18
ENDBRANCH  11  12
ENDBRANCH   5  11
ENDBRANCH   3   5
ENDBRANCH   2   3
ENDBRANCH   1   2
BRANCH   1  20
ATOM     20  C   UNL A   1      37.130  22.166  24.531  1.00  0.00     0.275 C 
BRANCH  20  21
ATOM     21  O   UNL A   1      37.563  23.134  25.504  1.00  0.00    -0.458 OA
BRANCH  21  22
ATOM     22  C   UNL A   1      38.731  22.838  26.137  1.00  0.00     0.338 C 
ATOM     23  O   UNL A   1      39.301  21.767  26.149  1.00  0.00    -0.246 OA
BRANCH  22  24
ATOM     24  C   UNL A   1      39.291  24.074  26.745  1.00  0.00     0.060 A 
ATOM     25  C   UNL A   1      39.959  24.966  25.899  1.00  0.00     0.016 A 
ATOM     26  C   UNL A   1      39.129  24.385  28.100  1.00  0.00     0.016 A 
ATOM     27  C   UNL A   1      40.443  26.177  26.399  1.00  0.00     0.010 A 
ATOM     28  C   UNL A   1      39.651  25.581  28.608  1.00  0.00     0.010 A 
ATOM     29  C   UNL A   1      40.313  26.485  27.763  1.00  0.00    -0.014 A 
BRANCH  29  30
ATOM     30  C   UNL A   1      40.970  27.706  28.302  1.00  0.00     0.031 A 
ATOM     31  C   UNL A   1      42.459  27.829  28.196  1.00  0.00     0.074 A 
ATOM     32  C   UNL A   1      40.256  28.708  28.847  1.00  0.00     0.049 A 
ATOM     33  N   UNL A   1      43.227  28.830  28.531  1.00  0.00    -0.248 NA
ATOM     34  C   UNL A   1      43.177  26.665  27.652  1.00  0.00     0.031 C 
ATOM     35  C   UNL A   1      38.813  28.684  29.026  1.00  0.00     0.029 A 
ATOM     36  N   UNL A   1      40.622  29.937  29.335  1.00  0.00    -0.354 N 
ATOM     37  C   UNL A   1      44.519  28.424  28.231  1.00  0.00     0.074 A 
ATOM     38  C   UNL A   1      44.432  27.086  27.687  1.00  0.00     0.031 C 
ATOM     39  C   UNL A   1      38.395  29.859  29.518  1.00  0.00     0.029 A 
ATOM     40  C   UNL A   1      39.559  30.705  29.760  1.00  0.00     0.049 A 
ATOM     41  H   UNL A   1      41.556  30.244  29.376  1.00  0.00     0.167 HD
ATOM     42  C   UNL A   1      45.677  29.098  28.420  1.00  0.00     0.037 A 
ATOM     43  C   UNL A   1      39.528  31.936  30.308  1.00  0.00     0.037 A 
ATOM     44  C   UNL A   1      45.765  30.388  29.048  1.00  0.00     0.049 A 
ATOM     45  C   UNL A   1      40.834  32.643  30.551  1.00  0.00     0.074 A 
ATOM     46  C   UNL A   1      46.897  31.123  29.350  1.00  0.00     0.029 A 
ATOM     47  N   UNL A   1      44.677  31.121  29.501  1.00  0.00    -0.354 N 
ATOM     48  N   UNL A   1      42.049  32.251  30.245  1.00  0.00    -0.248 NA
ATOM     49  C   UNL A   1      40.775  33.939  31.241  1.00  0.00     0.031 C 
ATOM     50  C   UNL A   1      46.495  32.283  30.023  1.00  0.00     0.029 A 
ATOM     51  C   UNL A   1      45.111  32.293  30.099  1.00  0.00     0.049 A 
ATOM     52  H   UNL A   1      43.735  30.849  29.411  1.00  0.00     0.167 HD
ATOM     53  C   UNL A   1      42.898  33.246  30.710  1.00  0.00     0.074 A 
ATOM     54  C   UNL A   1      42.057  34.275  31.290  1.00  0.00     0.031 C 
ATOM     55  C   UNL A   1      44.252  33.298  30.674  1.00  0.00     0.037 A 
BRANCH  42  56
ATOM     56  C   UNL A   1      46.933  28.397  27.998  1.00  0.00     0.058 A 
ATOM     57  C   UNL A   1      47.469  28.568  26.711  1.00  0.00     0.135 A 
ATOM     58  C   UNL A   1      47.580  27.509  28.870  1.00  0.00     0.135 A 
ATOM     59  F   UNL A   1      46.867  29.384  25.831  1.00  0.00    -0.206 F 
ATOM     60  C   UNL A   1      48.589  27.858  26.294  1.00  0.00     0.059 A 
ATOM     61  C   UNL A   1      48.712  26.803  28.480  1.00  0.00     0.059 A 
ATOM     62  F   UNL A   1      47.095  27.300  30.104  1.00  0.00    -0.206 F 
ATOM     63  C   UNL A   1      49.198  26.970  27.183  1.00  0.00     0.060 A 
BRANCH  63  64
ATOM     64  S   UNL A   1      50.630  26.028  26.618  1.00  0.00     0.124 S 
ATOM     65  O   UNL A   1      51.729  26.881  27.055  1.00  0.00    -0.237 OA
ATOM     66  O   UNL A   1      50.480  24.768  27.338  1.00  0.00    -0.237 OA
ATOM     67  O   UNL A   1      50.433  25.947  25.173  1.00  0.00    -0.744 OA
ENDBRANCH  63  64
ENDBRANCH  42  56
BRANCH  43  68
ATOM     68  C   UNL A   1      38.233  32.564  30.700  1.00  0.00     0.058 A 
ATOM     69  C   UNL A   1      37.479  33.308  29.780  1.00  0.00     0.135 A 
ATOM     70  C   UNL A   1      37.726  32.438  32.003  1.00  0.00     0.135 A 
ATOM     71  F   UNL A   1      37.924  33.473  28.525  1.00  0.00    -0.206 F 
ATOM     72  C   UNL A   1      36.275  33.911  30.138  1.00  0.00     0.059 A 
ATOM     73  C   UNL A   1      36.512  33.008  32.377  1.00  0.00     0.059 A 
ATOM     74  F   UNL A   1      38.402  31.734  32.924  1.00  0.00    -0.206 F 
ATOM     75  C   UNL A   1      35.798  33.754  31.441  1.00  0.00     0.060 A 
BRANCH  75  76
ATOM     76  S   UNL A   1      34.210  34.490  31.887  1.00  0.00     0.124 S 
ATOM     77  O   UNL A   1      33.669  33.489  32.799  1.00  0.00    -0.237 OA
ATOM     78  O   UNL A   1      34.613  35.756  32.493  1.00  0.00    -0.237 OA
ATOM     79  O   UNL A   1      33.527  34.612  30.603  1.00  0.00    -0.744 OA
ENDBRANCH  75  76
ENDBRANCH  43  68
BRANCH  55  80
ATOM     80  C   UNL A   1      44.907  34.510  31.272  1.00  0.00     0.058 A 
ATOM     81  C   UNL A   1      45.311  34.537  32.617  1.00  0.00     0.135 A 
ATOM     82  C   UNL A   1      45.181  35.634  30.478  1.00  0.00     0.135 A 
ATOM     83  F   UNL A   1      45.063  33.488  33.418  1.00  0.00    -0.206 F 
ATOM     84  C   UNL A   1      45.953  35.644  33.157  1.00  0.00     0.059 A 
ATOM     85  C   UNL A   1      45.841  36.744  30.993  1.00  0.00     0.059 A 
ATOM     86  F   UNL A   1      44.819  35.652  29.186  1.00  0.00    -0.206 F 
ATOM     87  C   UNL A   1      46.215  36.744  32.336  1.00  0.00     0.060 A 
BRANCH  87  88
ATOM     88  S   UNL A   1      47.086  38.163  33.036  1.00  0.00     0.124 S 
ATOM     89  O   UNL A   1      46.960  37.908  34.467  1.00  0.00    -0.237 OA
ATOM     90  O   UNL A   1      48.427  38.014  32.481  1.00  0.00    -0.237 OA
ATOM     91  O   UNL A   1      46.330  39.306  32.532  1.00  0.00    -0.744 OA
ENDBRANCH  87  88
ENDBRANCH  55  80
ENDBRANCH  29  30
ENDBRANCH  22  24
ENDBRANCH  21  22
ENDBRANCH  20  21
ENDBRANCH   1  20
TORSDOF 20
ENDMDL
MODEL 2
REMARK VINA RESULT:     -10.0      3.449      7.926
REMARK SMILES CC(C)OC[C@H](O)CC1(C(=O)OCCOC(=O)c2ccc(-c3c4nc(c(-c5c(F)cc(S(=O)(=O)[O-])cc5F)c5ccc([nH]5)c(-c5c(F)cc(S(=O)(=O)[O-])cc5F)c5nc(c(-c6c(F)cc(S(=O)(=O)[O-])cc6F)c6ccc3[nH]6)C=C5)C=C4)cc2)CCCCC1
REMARK SMILES IDX 13 1 12 2 10 3 11 4 9 5 84 6 88 7 85 8 87 9 86 10 8 11 6 12
REMARK SMILES IDX 5 13 4 14 2 15 1 16 3 17 7 18 14 20 15 21 16 22 17 23 18 24
REMARK SMILES IDX 19 25 83 26 20 27 82 28 21 29 22 30 23 31 76 32 24 33 81 34
REMARK SMILES IDX 75 35 77 36 25 37 80 38 74 39 73 40 26 42 60 43 39 44 59 45
REMARK SMILES IDX 40 46 43 47 58 48 78 49 41 50 42 51 57 53 79 54 44 55 27 56
REMARK SMILES IDX 28 57 37 58 29 59 30 60 36 61 38 62 31 63 32 64 33 65 34 66
REMARK SMILES IDX 35 67 61 68 62 69 71 70 63 71 64 72 70 73 72 74 65 75 66 76
REMARK SMILES IDX 67 77 68 78 69 79 45 80 46 81 55 82 47 83 48 84 54 85 56 86
REMARK SMILES IDX 49 87 50 88 51 89 52 90 53 91
REMARK H PARENT 7 19 77 41 43 52
REMARK Flexibility Score: inf
ROOT
ATOM      1  C   UNL A   1      31.796  27.696  27.265  1.00  0.00     0.274 C 
ENDROOT
BRANCH   1   2
ATOM      2  O   UNL A   1      32.045  26.460  26.579  1.00  0.00    -0.462 OA
BRANCH   2   3
ATOM      3  C   UNL A   1      30.975  25.950  25.913  1.00  0.00     0.312 C 
ATOM      4  O   UNL A   1      29.993  25.460  26.465  1.00  0.00    -0.252 OA
BRANCH   3   5
ATOM      5  C   UNL A   1      31.112  26.091  24.378  1.00  0.00     0.071 C 
ATOM      6  C   UNL A   1      30.556  24.796  23.729  1.00  0.00     0.019 C 
ATOM      7  C   UNL A   1      32.594  26.231  23.943  1.00  0.00     0.019 C 
ATOM      8  C   UNL A   1      31.374  23.554  24.090  1.00  0.00     0.001 C 
ATOM      9  C   UNL A   1      33.441  25.004  24.292  1.00  0.00     0.001 C 
ATOM     10  C   UNL A   1      32.845  23.720  23.727  1.00  0.00     0.000 C 
BRANCH   5  11
ATOM     11  C   UNL A   1      30.292  27.316  23.832  1.00  0.00     0.053 C 
BRANCH  11  12
ATOM     12  C   UNL A   1      30.987  28.137  22.743  1.00  0.00     0.141 C 
BRANCH  12  13
ATOM     13  C   UNL A   1      30.381  29.521  22.505  1.00  0.00     0.192 C 
BRANCH  13  14
ATOM     14  O   UNL A   1      29.129  29.385  21.826  1.00  0.00    -0.376 OA
BRANCH  14  15
ATOM     15  C   UNL A   1      27.916  29.872  22.402  1.00  0.00     0.112 C 
ATOM     16  C   UNL A   1      27.103  28.801  23.107  1.00  0.00     0.038 C 
ATOM     17  C   UNL A   1      28.115  31.127  23.245  1.00  0.00     0.038 C 
ENDBRANCH  14  15
ENDBRANCH  13  14
ENDBRANCH  12  13
BRANCH  12  18
ATOM     18  O   UNL A   1      30.873  27.398  21.526  1.00  0.00    -0.391 OA
ATOM     19  H   UNL A   1      31.133  27.961  20.780  1.00  0.00     0.211 HD
ENDBRANCH  12  18
ENDBRANCH  11  12
ENDBRANCH   5  11
ENDBRANCH   3   5
ENDBRANCH   2   3
ENDBRANCH   1   2
BRANCH   1  20
ATOM     20  C   UNL A   1      32.783  28.761  26.784  1.00  0.00     0.275 C 
BRANCH  20  21
ATOM     21  O   UNL A   1      34.007  28.687  27.538  1.00  0.00    -0.458 OA
BRANCH  21  22
ATOM     22  C   UNL A   1      34.578  29.885  27.837  1.00  0.00     0.338 C 
ATOM     23  O   UNL A   1      34.025  30.964  27.887  1.00  0.00    -0.246 OA
BRANCH  22  24
ATOM     24  C   UNL A   1      36.001  29.675  28.214  1.00  0.00     0.060 A 
ATOM     25  C   UNL A   1      36.968  29.853  27.219  1.00  0.00     0.016 A 
ATOM     26  C   UNL A   1      36.394  29.358  29.520  1.00  0.00     0.016 A 
ATOM     27  C   UNL A   1      38.325  29.740  27.531  1.00  0.00     0.010 A 
ATOM     28  C   UNL A   1      37.753  29.205  29.821  1.00  0.00     0.010 A 
ATOM     29  C   UNL A   1      38.728  29.393  28.830  1.00  0.00    -0.014 A 
BRANCH  29  30
ATOM     30  C   UNL A   1      40.166  29.127  29.101  1.00  0.00     0.031 A 
ATOM     31  C   UNL A   1      40.733  27.789  28.739  1.00  0.00     0.074 A 
ATOM     32  C   UNL A   1      40.969  30.069  29.631  1.00  0.00     0.049 A 
ATOM     33  N   UNL A   1      41.966  27.368  28.818  1.00  0.00    -0.248 NA
ATOM     34  C   UNL A   1      39.780  26.789  28.229  1.00  0.00     0.031 C 
ATOM     35  C   UNL A   1      40.522  31.388  30.046  1.00  0.00     0.029 A 
ATOM     36  N   UNL A   1      42.315  30.083  29.899  1.00  0.00    -0.354 N 
ATOM     37  C   UNL A   1      41.944  26.059  28.362  1.00  0.00     0.074 A 
ATOM     38  C   UNL A   1      40.574  25.753  28.006  1.00  0.00     0.031 C 
ATOM     39  C   UNL A   1      41.571  32.117  30.453  1.00  0.00     0.029 A 
ATOM     40  C   UNL A   1      42.768  31.286  30.397  1.00  0.00     0.049 A 
ATOM     41  H   UNL A   1      42.902  29.308  29.749  1.00  0.00     0.167 HD
ATOM     42  C   UNL A   1      42.969  25.182  28.275  1.00  0.00     0.037 A 
ATOM     43  C   UNL A   1      44.000  31.666  30.789  1.00  0.00     0.037 A 
ATOM     44  C   UNL A   1      44.308  25.461  28.719  1.00  0.00     0.049 A 
ATOM     45  C   UNL A   1      45.113  30.655  30.727  1.00  0.00     0.074 A 
ATOM     46  C   UNL A   1      45.402  24.615  28.740  1.00  0.00     0.029 A 
ATOM     47  N   UNL A   1      44.727  26.672  29.252  1.00  0.00    -0.354 N 
ATOM     48  N   UNL A   1      45.078  29.422  30.275  1.00  0.00    -0.248 NA
ATOM     49  C   UNL A   1      46.421  31.066  31.255  1.00  0.00     0.031 C 
ATOM     50  C   UNL A   1      46.472  25.303  29.324  1.00  0.00     0.029 A 
ATOM     51  C   UNL A   1      46.058  26.591  29.624  1.00  0.00     0.049 A 
ATOM     52  H   UNL A   1      44.160  27.471  29.352  1.00  0.00     0.167 HD
ATOM     53  C   UNL A   1      46.354  28.910  30.470  1.00  0.00     0.074 A 
ATOM     54  C   UNL A   1      47.148  29.975  31.052  1.00  0.00     0.031 C 
ATOM     55  C   UNL A   1      46.824  27.666  30.207  1.00  0.00     0.037 A 
BRANCH  42  56
ATOM     56  C   UNL A   1      42.640  23.821  27.740  1.00  0.00     0.058 A 
ATOM     57  C   UNL A   1      42.420  22.731  28.597  1.00  0.00     0.135 A 
ATOM     58  C   UNL A   1      42.592  23.593  26.356  1.00  0.00     0.135 A 
ATOM     59  F   UNL A   1      42.487  22.893  29.928  1.00  0.00    -0.206 F 
ATOM     60  C   UNL A   1      42.193  21.453  28.099  1.00  0.00     0.059 A 
ATOM     61  C   UNL A   1      42.347  22.327  25.837  1.00  0.00     0.059 A 
ATOM     62  F   UNL A   1      42.812  24.600  25.498  1.00  0.00    -0.206 F 
ATOM     63  C   UNL A   1      42.168  21.260  26.716  1.00  0.00     0.060 A 
BRANCH  63  64
ATOM     64  S   UNL A   1      41.907  19.590  26.082  1.00  0.00     0.124 S 
ATOM     65  O   UNL A   1      40.471  19.597  25.828  1.00  0.00    -0.237 OA
ATOM     66  O   UNL A   1      42.760  19.567  24.898  1.00  0.00    -0.237 OA
ATOM     67  O   UNL A   1      42.347  18.737  27.183  1.00  0.00    -0.744 OA
ENDBRANCH  63  64
ENDBRANCH  42  56
BRANCH  43  68
ATOM     68  C   UNL A   1      44.245  33.042  31.309  1.00  0.00     0.058 A 
ATOM     69  C   UNL A   1      44.628  34.085  30.452  1.00  0.00     0.135 A 
ATOM     70  C   UNL A   1      44.106  33.342  32.674  1.00  0.00     0.135 A 
ATOM     71  F   UNL A   1      44.790  33.851  29.141  1.00  0.00    -0.206 F 
ATOM     72  C   UNL A   1      44.873  35.371  30.928  1.00  0.00     0.059 A 
ATOM     73  C   UNL A   1      44.318  34.626  33.169  1.00  0.00     0.059 A 
ATOM     74  F   UNL A   1      43.737  32.385  33.540  1.00  0.00    -0.206 F 
ATOM     75  C   UNL A   1      44.714  35.632  32.291  1.00  0.00     0.060 A 
BRANCH  75  76
ATOM     76  S   UNL A   1      44.978  37.313  32.897  1.00  0.00     0.124 S 
ATOM     77  O   UNL A   1      44.803  37.138  34.334  1.00  0.00    -0.237 OA
ATOM     78  O   UNL A   1      46.338  37.596  32.448  1.00  0.00    -0.237 OA
ATOM     79  O   UNL A   1      43.935  38.079  32.221  1.00  0.00    -0.744 OA
ENDBRANCH  75  76
ENDBRANCH  43  68
BRANCH  55  80
ATOM     80  C   UNL A   1      48.262  27.393  30.537  1.00  0.00     0.058 A 
ATOM     81  C   UNL A   1      48.658  27.011  31.830  1.00  0.00     0.135 A 
ATOM     82  C   UNL A   1      49.246  27.461  29.539  1.00  0.00     0.135 A 
ATOM     83  F   UNL A   1      47.754  26.940  32.820  1.00  0.00    -0.206 F 
ATOM     84  C   UNL A   1      49.984  26.719  32.124  1.00  0.00     0.059 A 
ATOM     85  C   UNL A   1      50.575  27.152  29.807  1.00  0.00     0.059 A 
ATOM     86  F   UNL A   1      48.915  27.814  28.287  1.00  0.00    -0.206 F 
ATOM     87  C   UNL A   1      50.937  26.792  31.104  1.00  0.00     0.060 A 
BRANCH  87  88
ATOM     88  S   UNL A   1      52.651  26.372  31.485  1.00  0.00     0.124 S 
ATOM     89  O   UNL A   1      52.532  24.968  31.864  1.00  0.00    -0.237 OA
ATOM     90  O   UNL A   1      53.328  26.633  30.219  1.00  0.00    -0.237 OA
ATOM     91  O   UNL A   1      52.990  27.290  32.570  1.00  0.00    -0.744 OA
ENDBRANCH  87  88
ENDBRANCH  55  80
ENDBRANCH  29  30
ENDBRANCH  22  24
ENDBRANCH  21  22
ENDBRANCH  20  21
ENDBRANCH   1  20
TORSDOF 20
ENDMDL
MODEL 3
REMARK VINA RESULT:      -9.9      3.649      9.733
REMARK SMILES CC(C)OC[C@H](O)CC1(C(=O)OCCOC(=O)c2ccc(-c3c4nc(c(-c5c(F)cc(S(=O)(=O)[O-])cc5F)c5ccc([nH]5)c(-c5c(F)cc(S(=O)(=O)[O-])cc5F)c5nc(c(-c6c(F)cc(S(=O)(=O)[O-])cc6F)c6ccc3[nH]6)C=C5)C=C4)cc2)CCCCC1
REMARK SMILES IDX 13 1 12 2 10 3 11 4 9 5 84 6 88 7 85 8 87 9 86 10 8 11 6 12
REMARK SMILES IDX 5 13 4 14 2 15 1 16 3 17 7 18 14 20 15 21 16 22 17 23 18 24
REMARK SMILES IDX 19 25 83 26 20 27 82 28 21 29 22 30 23 31 76 32 24 33 81 34
REMARK SMILES IDX 75 35 77 36 25 37 80 38 74 39 73 40 26 42 60 43 39 44 59 45
REMARK SMILES IDX 40 46 43 47 58 48 78 49 41 50 42 51 57 53 79 54 44 55 27 56
REMARK SMILES IDX 28 57 37 58 29 59 30 60 36 61 38 62 31 63 32 64 33 65 34 66
REMARK SMILES IDX 35 67 61 68 62 69 71 70 63 71 64 72 70 73 72 74 65 75 66 76
REMARK SMILES IDX 67 77 68 78 69 79 45 80 46 81 55 82 47 83 48 84 54 85 56 86
REMARK SMILES IDX 49 87 50 88 51 89 52 90 53 91
REMARK H PARENT 7 19 77 41 43 52
REMARK Flexibility Score: inf
ROOT
ATOM      1  C   UNL A   1      31.748  28.409  26.327  1.00  0.00     0.274 C 
ENDROOT
BRANCH   1   2
ATOM      2  O   UNL A   1      32.045  27.170  25.666  1.00  0.00    -0.462 OA
BRANCH   2   3
ATOM      3  C   UNL A   1      31.093  26.746  24.792  1.00  0.00     0.312 C 
ATOM      4  O   UNL A   1      29.942  26.463  25.115  1.00  0.00    -0.252 OA
BRANCH   3   5
ATOM      5  C   UNL A   1      31.609  26.697  23.334  1.00  0.00     0.071 C 
ATOM      6  C   UNL A   1      31.419  25.249  22.809  1.00  0.00     0.019 C 
ATOM      7  C   UNL A   1      33.122  27.030  23.247  1.00  0.00     0.019 C 
ATOM      8  C   UNL A   1      32.269  24.228  23.568  1.00  0.00     0.001 C 
ATOM      9  C   UNL A   1      34.000  26.026  23.999  1.00  0.00     0.001 C 
ATOM     10  C   UNL A   1      33.749  24.594  23.543  1.00  0.00     0.000 C 
BRANCH   5  11
ATOM     11  C   UNL A   1      30.808  27.676  22.401  1.00  0.00     0.053 C 
BRANCH  11  12
ATOM     12  C   UNL A   1      30.775  29.137  22.859  1.00  0.00     0.141 C 
BRANCH  12  13
ATOM     13  C   UNL A   1      29.442  29.585  23.460  1.00  0.00     0.192 C 
BRANCH  13  14
ATOM     14  O   UNL A   1      29.516  30.970  23.812  1.00  0.00    -0.376 OA
BRANCH  14  15
ATOM     15  C   UNL A   1      28.537  31.904  23.356  1.00  0.00     0.112 C 
ATOM     16  C   UNL A   1      29.089  33.297  23.112  1.00  0.00     0.038 C 
ATOM     17  C   UNL A   1      27.702  31.377  22.195  1.00  0.00     0.038 C 
ENDBRANCH  14  15
ENDBRANCH  13  14
ENDBRANCH  12  13
BRANCH  12  18
ATOM     18  O   UNL A   1      31.023  29.942  21.705  1.00  0.00    -0.391 OA
ATOM     19  H   UNL A   1      30.213  30.415  21.460  1.00  0.00     0.211 HD
ENDBRANCH  12  18
ENDBRANCH  11  12
ENDBRANCH   5  11
ENDBRANCH   3   5
ENDBRANCH   2   3
ENDBRANCH   1   2
BRANCH   1  20
ATOM     20  C   UNL A   1      32.999  29.288  26.361  1.00  0.00     0.275 C 
BRANCH  20  21
ATOM     21  O   UNL A   1      33.571  29.295  27.682  1.00  0.00    -0.458 OA
BRANCH  21  22
ATOM     22  C   UNL A   1      34.300  30.401  27.994  1.00  0.00     0.338 C 
ATOM     23  O   UNL A   1      33.876  31.519  28.199  1.00  0.00    -0.246 OA
BRANCH  22  24
ATOM     24  C   UNL A   1      35.728  30.021  28.161  1.00  0.00     0.060 A 
ATOM     25  C   UNL A   1      36.133  29.565  29.421  1.00  0.00     0.016 A 
ATOM     26  C   UNL A   1      36.645  30.060  27.105  1.00  0.00     0.016 A 
ATOM     27  C   UNL A   1      37.444  29.126  29.619  1.00  0.00     0.010 A 
ATOM     28  C   UNL A   1      37.970  29.658  27.317  1.00  0.00     0.010 A 
ATOM     29  C   UNL A   1      38.380  29.189  28.574  1.00  0.00    -0.014 A 
BRANCH  29  30
ATOM     30  C   UNL A   1      39.804  28.863  28.850  1.00  0.00     0.031 A 
ATOM     31  C   UNL A   1      40.653  29.877  29.553  1.00  0.00     0.074 A 
ATOM     32  C   UNL A   1      40.332  27.671  28.513  1.00  0.00     0.049 A 
ATOM     33  N   UNL A   1      41.891  29.776  29.956  1.00  0.00    -0.248 NA
ATOM     34  C   UNL A   1      40.027  31.180  29.827  1.00  0.00     0.031 C 
ATOM     35  C   UNL A   1      39.611  26.626  27.805  1.00  0.00     0.029 A 
ATOM     36  N   UNL A   1      41.572  27.123  28.724  1.00  0.00    -0.354 N 
ATOM     37  C   UNL A   1      42.193  30.998  30.539  1.00  0.00     0.074 A 
ATOM     38  C   UNL A   1      41.009  31.824  30.439  1.00  0.00     0.031 C 
ATOM     39  C   UNL A   1      40.382  25.535  27.693  1.00  0.00     0.029 A 
ATOM     40  C   UNL A   1      41.693  25.829  28.263  1.00  0.00     0.049 A 
ATOM     41  H   UNL A   1      42.307  27.607  29.164  1.00  0.00     0.167 HD
ATOM     42  C   UNL A   1      43.363  31.402  31.084  1.00  0.00     0.037 A 
ATOM     43  C   UNL A   1      42.746  24.988  28.273  1.00  0.00     0.037 A 
ATOM     44  C   UNL A   1      44.563  30.610  31.096  1.00  0.00     0.049 A 
ATOM     45  C   UNL A   1      44.049  25.481  28.843  1.00  0.00     0.074 A 
ATOM     46  C   UNL A   1      45.818  30.957  31.561  1.00  0.00     0.029 A 
ATOM     47  N   UNL A   1      44.663  29.322  30.589  1.00  0.00    -0.354 N 
ATOM     48  N   UNL A   1      44.313  26.636  29.408  1.00  0.00    -0.248 NA
ATOM     49  C   UNL A   1      45.204  24.578  28.748  1.00  0.00     0.031 C 
ATOM     50  C   UNL A   1      46.688  29.892  31.297  1.00  0.00     0.029 A 
ATOM     51  C   UNL A   1      45.965  28.865  30.711  1.00  0.00     0.049 A 
ATOM     52  H   UNL A   1      43.919  28.809  30.200  1.00  0.00     0.167 HD
ATOM     53  C   UNL A   1      45.663  26.601  29.730  1.00  0.00     0.074 A 
ATOM     54  C   UNL A   1      46.155  25.298  29.326  1.00  0.00     0.031 C 
ATOM     55  C   UNL A   1      46.430  27.565  30.295  1.00  0.00     0.037 A 
BRANCH  42  56
ATOM     56  C   UNL A   1      43.393  32.793  31.643  1.00  0.00     0.058 A 
ATOM     57  C   UNL A   1      43.664  33.903  30.827  1.00  0.00     0.135 A 
ATOM     58  C   UNL A   1      43.199  33.013  33.015  1.00  0.00     0.135 A 
ATOM     59  F   UNL A   1      43.888  33.738  29.514  1.00  0.00    -0.206 F 
ATOM     60  C   UNL A   1      43.770  35.183  31.360  1.00  0.00     0.059 A 
ATOM     61  C   UNL A   1      43.282  34.287  33.565  1.00  0.00     0.059 A 
ATOM     62  F   UNL A   1      42.954  31.981  33.837  1.00  0.00    -0.206 F 
ATOM     63  C   UNL A   1      43.586  35.363  32.732  1.00  0.00     0.060 A 
BRANCH  63  64
ATOM     64  S   UNL A   1      43.762  37.024  33.416  1.00  0.00     0.124 S 
ATOM     65  O   UNL A   1      44.989  36.889  34.194  1.00  0.00    -0.237 OA
ATOM     66  O   UNL A   1      43.859  37.849  32.217  1.00  0.00    -0.237 OA
ATOM     67  O   UNL A   1      42.540  37.200  34.196  1.00  0.00    -0.744 OA
ENDBRANCH  63  64
ENDBRANCH  42  56
BRANCH  43  68
ATOM     68  C   UNL A   1      42.631  23.617  27.698  1.00  0.00     0.058 A 
ATOM     69  C   UNL A   1      42.444  22.497  28.522  1.00  0.00     0.135 A 
ATOM     70  C   UNL A   1      42.714  23.397  26.313  1.00  0.00     0.135 A 
ATOM     71  F   UNL A   1      42.373  22.647  29.853  1.00  0.00    -0.206 F 
ATOM     72  C   UNL A   1      42.350  21.209  27.998  1.00  0.00     0.059 A 
ATOM     73  C   UNL A   1      42.595  22.123  25.764  1.00  0.00     0.059 A 
ATOM     74  F   UNL A   1      42.888  24.431  25.476  1.00  0.00    -0.206 F 
ATOM     75  C   UNL A   1      42.425  21.033  26.614  1.00  0.00     0.060 A 
BRANCH  75  76
ATOM     76  S   UNL A   1      42.248  19.369  25.933  1.00  0.00     0.124 S 
ATOM     77  O   UNL A   1      42.759  18.549  27.024  1.00  0.00    -0.237 OA
ATOM     78  O   UNL A   1      40.811  19.285  25.688  1.00  0.00    -0.237 OA
ATOM     79  O   UNL A   1      43.075  19.412  24.730  1.00  0.00    -0.744 OA
ENDBRANCH  75  76
ENDBRANCH  43  68
BRANCH  55  80
ATOM     80  C   UNL A   1      47.880  27.244  30.517  1.00  0.00     0.058 A 
ATOM     81  C   UNL A   1      48.864  27.613  29.585  1.00  0.00     0.135 A 
ATOM     82  C   UNL A   1      48.295  26.609  31.697  1.00  0.00     0.135 A 
ATOM     83  F   UNL A   1      48.515  28.215  28.436  1.00  0.00    -0.206 F 
ATOM     84  C   UNL A   1      50.210  27.350  29.811  1.00  0.00     0.059 A 
ATOM     85  C   UNL A   1      49.638  26.357  31.953  1.00  0.00     0.059 A 
ATOM     86  F   UNL A   1      47.392  26.244  32.621  1.00  0.00    -0.206 F 
ATOM     87  C   UNL A   1      50.587  26.722  31.000  1.00  0.00     0.060 A 
BRANCH  87  88
ATOM     88  S   UNL A   1      52.342  26.421  31.304  1.00  0.00     0.124 S 
ATOM     89  O   UNL A   1      52.833  26.161  29.955  1.00  0.00    -0.237 OA
ATOM     90  O   UNL A   1      52.777  27.678  31.906  1.00  0.00    -0.237 OA
ATOM     91  O   UNL A   1      52.336  25.272  32.205  1.00  0.00    -0.744 OA
ENDBRANCH  87  88
ENDBRANCH  55  80
ENDBRANCH  29  30
ENDBRANCH  22  24
ENDBRANCH  21  22
ENDBRANCH  20  21
ENDBRANCH   1  20
TORSDOF 20
ENDMDL
