MODEL 1
REMARK VINA RESULT:     -12.6      0.000      0.000
REMARK SMILES Cc1cc([N+](=O)[O-])c(C(C)(C)C)cc1C(=O)OCCOC(=O)c1ccc(-c2c3nc(c(-c4c(F)cc(S(=O)(=O)[O-])cc4F)c4ccc([nH]4)c(-c4c(F)cc(S(=O)(=O)[O-])cc4F)c4nc(c(-c5c(F)cc(S(=O)(=O)[O-])cc5F)c5ccc2[nH]5)C=C4)C=C3)cc1
REMARK SMILES IDX 19 1 18 2 17 3 15 4 16 5 14 6 1 7 2 8 3 9 4 10 13 11 8 12
REMARK SMILES IDX 5 13 6 14 7 15 9 16 10 17 11 18 12 19 20 20 21 21 22 22
REMARK SMILES IDX 23 23 24 24 88 25 25 26 87 27 26 28 27 29 28 30 81 31 29 32
REMARK SMILES IDX 86 33 80 34 82 35 30 36 85 37 79 38 78 39 31 41 65 42 44 43
REMARK SMILES IDX 64 44 45 45 48 46 63 47 83 48 46 49 47 50 62 52 84 53 49 54
REMARK SMILES IDX 32 55 33 56 42 57 34 58 35 59 41 60 43 61 36 62 37 63 38 64
REMARK SMILES IDX 39 65 40 66 66 67 67 68 76 69 68 70 69 71 75 72 77 73 70 74
REMARK SMILES IDX 71 75 72 76 73 77 74 78 50 79 51 80 60 81 52 82 53 83 59 84
REMARK SMILES IDX 61 85 54 86 55 87 56 88 57 89 58 90
REMARK H PARENT 82 40 48 51
REMARK Flexibility Score: inf
ROOT
ATOM      1  C   UNL A   1      34.366  30.237  27.639  1.00  0.00     0.275 C 
ENDROOT
BRANCH   1   2
ATOM      2  C   UNL A   1      33.695  29.794  26.323  1.00  0.00     0.275 C 
BRANCH   2   3
ATOM      3  O   UNL A   1      34.041  28.455  25.898  1.00  0.00    -0.458 OA
BRANCH   3   4
ATOM      4  C   UNL A   1      33.122  27.531  26.285  1.00  0.00     0.338 C 
ATOM      5  O   UNL A   1      32.503  27.564  27.328  1.00  0.00    -0.246 OA
BRANCH   4   6
ATOM      6  C   UNL A   1      33.049  26.302  25.460  1.00  0.00     0.063 A 
ATOM      7  C   UNL A   1      31.227  27.454  24.078  1.00  0.00     0.045 C 
ATOM      8  C   UNL A   1      32.211  26.345  24.341  1.00  0.00    -0.030 A 
ATOM      9  C   UNL A   1      32.291  25.301  23.418  1.00  0.00     0.090 A 
ATOM     10  C   UNL A   1      33.262  24.277  23.531  1.00  0.00     0.273 A 
ATOM     11  C   UNL A   1      34.003  25.262  25.593  1.00  0.00     0.027 A 
ATOM     12  C   UNL A   1      34.193  24.245  24.604  1.00  0.00     0.036 A 
BRANCH  10  13
ATOM     13  N   UNL A   1      33.198  23.291  22.443  1.00  0.00     0.063 N 
ATOM     14  O   UNL A   1      33.689  23.619  21.351  1.00  0.00    -0.258 OA
ATOM     15  O   UNL A   1      32.589  22.234  22.634  1.00  0.00    -0.258 OA
ENDBRANCH  10  13
BRANCH  12  16
ATOM     16  C   UNL A   1      35.400  23.263  24.725  1.00  0.00    -0.006 C 
ATOM     17  C   UNL A   1      34.920  21.821  25.002  1.00  0.00     0.016 C 
ATOM     18  C   UNL A   1      36.347  23.320  23.496  1.00  0.00     0.016 C 
ATOM     19  C   UNL A   1      36.350  23.587  25.913  1.00  0.00     0.016 C 
ENDBRANCH  12  16
ENDBRANCH   4   6
ENDBRANCH   3   4
ENDBRANCH   2   3
ENDBRANCH   1   2
BRANCH   1  20
ATOM     20  O   UNL A   1      35.748  30.658  27.626  1.00  0.00    -0.458 OA
BRANCH  20  21
ATOM     21  C   UNL A   1      36.427  30.590  28.799  1.00  0.00     0.338 C 
ATOM     22  O   UNL A   1      36.003  31.041  29.856  1.00  0.00    -0.246 OA
BRANCH  21  23
ATOM     23  C   UNL A   1      37.523  29.595  28.652  1.00  0.00     0.060 A 
ATOM     24  C   UNL A   1      38.397  29.700  27.561  1.00  0.00     0.016 A 
ATOM     25  C   UNL A   1      37.869  28.828  29.769  1.00  0.00     0.016 A 
ATOM     26  C   UNL A   1      39.680  29.168  27.642  1.00  0.00     0.010 A 
ATOM     27  C   UNL A   1      39.172  28.425  29.911  1.00  0.00     0.010 A 
ATOM     28  C   UNL A   1      40.068  28.578  28.843  1.00  0.00    -0.014 A 
BRANCH  28  29
ATOM     29  C   UNL A   1      41.259  27.763  28.992  1.00  0.00     0.031 A 
ATOM     30  C   UNL A   1      41.338  26.354  28.567  1.00  0.00     0.074 A 
ATOM     31  C   UNL A   1      42.285  28.530  29.421  1.00  0.00     0.049 A 
ATOM     32  N   UNL A   1      42.285  25.559  28.919  1.00  0.00    -0.248 NA
ATOM     33  C   UNL A   1      40.349  25.681  27.733  1.00  0.00     0.031 C 
ATOM     34  C   UNL A   1      43.711  28.301  29.482  1.00  0.00     0.029 A 
ATOM     35  N   UNL A   1      42.113  29.752  30.090  1.00  0.00    -0.354 N 
ATOM     36  C   UNL A   1      42.195  24.401  28.164  1.00  0.00     0.074 A 
ATOM     37  C   UNL A   1      40.908  24.481  27.532  1.00  0.00     0.031 C 
ATOM     38  C   UNL A   1      44.231  29.146  30.397  1.00  0.00     0.029 A 
ATOM     39  C   UNL A   1      43.118  29.849  31.038  1.00  0.00     0.049 A 
ATOM     40  H   UNL A   1      41.408  30.417  29.916  1.00  0.00     0.167 HD
ATOM     41  C   UNL A   1      43.307  23.612  28.069  1.00  0.00     0.037 A 
ATOM     42  C   UNL A   1      42.731  29.722  32.343  1.00  0.00     0.037 A 
ATOM     43  C   UNL A   1      44.314  24.131  28.994  1.00  0.00     0.049 A 
ATOM     44  C   UNL A   1      43.270  28.425  32.894  1.00  0.00     0.074 A 
ATOM     45  C   UNL A   1      45.348  25.032  28.809  1.00  0.00     0.029 A 
ATOM     46  N   UNL A   1      44.064  24.082  30.362  1.00  0.00    -0.354 N 
ATOM     47  N   UNL A   1      43.395  27.317  32.208  1.00  0.00    -0.248 NA
ATOM     48  C   UNL A   1      43.878  28.355  34.216  1.00  0.00     0.031 C 
ATOM     49  C   UNL A   1      45.616  25.636  30.068  1.00  0.00     0.029 A 
ATOM     50  C   UNL A   1      44.762  25.084  31.012  1.00  0.00     0.049 A 
ATOM     51  H   UNL A   1      43.474  23.428  30.803  1.00  0.00     0.167 HD
ATOM     52  C   UNL A   1      44.177  26.444  32.922  1.00  0.00     0.074 A 
ATOM     53  C   UNL A   1      44.428  27.131  34.180  1.00  0.00     0.031 C 
ATOM     54  C   UNL A   1      44.649  25.250  32.451  1.00  0.00     0.037 A 
BRANCH  41  55
ATOM     55  C   UNL A   1      43.629  22.586  26.987  1.00  0.00     0.058 A 
ATOM     56  C   UNL A   1      42.861  21.397  26.903  1.00  0.00     0.135 A 
ATOM     57  C   UNL A   1      44.696  22.641  26.067  1.00  0.00     0.135 A 
ATOM     58  F   UNL A   1      41.778  21.207  27.670  1.00  0.00    -0.206 F 
ATOM     59  C   UNL A   1      43.168  20.335  26.047  1.00  0.00     0.059 A 
ATOM     60  C   UNL A   1      45.030  21.585  25.203  1.00  0.00     0.059 A 
ATOM     61  F   UNL A   1      45.461  23.728  25.936  1.00  0.00    -0.206 F 
ATOM     62  C   UNL A   1      44.270  20.426  25.211  1.00  0.00     0.060 A 
BRANCH  62  63
ATOM     63  S   UNL A   1      44.668  19.032  24.138  1.00  0.00     0.124 S 
ATOM     64  O   UNL A   1      43.700  18.028  24.572  1.00  0.00    -0.237 OA
ATOM     65  O   UNL A   1      44.449  19.591  22.809  1.00  0.00    -0.237 OA
ATOM     66  O   UNL A   1      46.059  18.734  24.467  1.00  0.00    -0.744 OA
ENDBRANCH  62  63
ENDBRANCH  41  55
BRANCH  42  67
ATOM     67  C   UNL A   1      41.418  30.390  32.673  1.00  0.00     0.058 A 
ATOM     68  C   UNL A   1      40.371  29.570  33.166  1.00  0.00     0.135 A 
ATOM     69  C   UNL A   1      41.216  31.773  32.783  1.00  0.00     0.135 A 
ATOM     70  F   UNL A   1      40.470  28.233  33.078  1.00  0.00    -0.206 F 
ATOM     71  C   UNL A   1      39.262  30.078  33.840  1.00  0.00     0.059 A 
ATOM     72  C   UNL A   1      40.087  32.311  33.436  1.00  0.00     0.059 A 
ATOM     73  F   UNL A   1      42.142  32.633  32.334  1.00  0.00    -0.206 F 
ATOM     74  C   UNL A   1      39.139  31.452  34.000  1.00  0.00     0.060 A 
BRANCH  74  75
ATOM     75  S   UNL A   1      37.836  32.061  35.105  1.00  0.00     0.124 S 
ATOM     76  O   UNL A   1      36.677  32.098  34.220  1.00  0.00    -0.237 OA
ATOM     77  O   UNL A   1      37.811  31.031  36.141  1.00  0.00    -0.237 OA
ATOM     78  O   UNL A   1      38.345  33.360  35.529  1.00  0.00    -0.744 OA
ENDBRANCH  74  75
ENDBRANCH  42  67
BRANCH  54  79
ATOM     79  C   UNL A   1      45.179  24.152  33.337  1.00  0.00     0.058 A 
ATOM     80  C   UNL A   1      46.464  24.180  33.899  1.00  0.00     0.135 A 
ATOM     81  C   UNL A   1      44.334  23.107  33.785  1.00  0.00     0.135 A 
ATOM     82  F   UNL A   1      47.309  25.197  33.670  1.00  0.00    -0.206 F 
ATOM     83  C   UNL A   1      46.924  23.185  34.752  1.00  0.00     0.059 A 
ATOM     84  C   UNL A   1      44.748  22.147  34.698  1.00  0.00     0.059 A 
ATOM     85  F   UNL A   1      43.066  22.990  33.365  1.00  0.00    -0.206 F 
ATOM     86  C   UNL A   1      46.060  22.168  35.142  1.00  0.00     0.060 A 
BRANCH  86  87
ATOM     87  S   UNL A   1      46.650  20.886  36.253  1.00  0.00     0.124 S 
ATOM     88  O   UNL A   1      46.875  21.653  37.475  1.00  0.00    -0.237 OA
ATOM     89  O   UNL A   1      45.528  19.952  36.290  1.00  0.00    -0.237 OA
ATOM     90  O   UNL A   1      47.848  20.390  35.585  1.00  0.00    -0.744 OA
ENDBRANCH  86  87
ENDBRANCH  54  79
ENDBRANCH  28  29
ENDBRANCH  21  23
ENDBRANCH  20  21
ENDBRANCH   1  20
TORSDOF 16
ENDMDL
MODEL 2
REMARK VINA RESULT:     -12.6      1.412      2.037
REMARK SMILES Cc1cc([N+](=O)[O-])c(C(C)(C)C)cc1C(=O)OCCOC(=O)c1ccc(-c2c3nc(c(-c4c(F)cc(S(=O)(=O)[O-])cc4F)c4ccc([nH]4)c(-c4c(F)cc(S(=O)(=O)[O-])cc4F)c4nc(c(-c5c(F)cc(S(=O)(=O)[O-])cc5F)c5ccc2[nH]5)C=C4)C=C3)cc1
REMARK SMILES IDX 19 1 18 2 17 3 15 4 16 5 14 6 1 7 2 8 3 9 4 10 13 11 8 12
REMARK SMILES IDX 5 13 6 14 7 15 9 16 10 17 11 18 12 19 20 20 21 21 22 22
REMARK SMILES IDX 23 23 24 24 88 25 25 26 87 27 26 28 27 29 28 30 81 31 29 32
REMARK SMILES IDX 86 33 80 34 82 35 30 36 85 37 79 38 78 39 31 41 65 42 44 43
REMARK SMILES IDX 64 44 45 45 48 46 63 47 83 48 46 49 47 50 62 52 84 53 49 54
REMARK SMILES IDX 32 55 33 56 42 57 34 58 35 59 41 60 43 61 36 62 37 63 38 64
REMARK SMILES IDX 39 65 40 66 66 67 67 68 76 69 68 70 69 71 75 72 77 73 70 74
REMARK SMILES IDX 71 75 72 76 73 77 74 78 50 79 51 80 60 81 52 82 53 83 59 84
REMARK SMILES IDX 61 85 54 86 55 87 56 88 57 89 58 90
REMARK H PARENT 82 40 48 51
REMARK Flexibility Score: inf
ROOT
ATOM      1  C   UNL A   1      34.636  29.799  27.176  1.00  0.00     0.275 C 
ENDROOT
BRANCH   1   2
ATOM      2  C   UNL A   1      34.382  28.456  26.460  1.00  0.00     0.275 C 
BRANCH   2   3
ATOM      3  O   UNL A   1      33.527  28.552  25.298  1.00  0.00    -0.458 OA
BRANCH   3   4
ATOM      4  C   UNL A   1      33.396  27.365  24.647  1.00  0.00     0.338 C 
ATOM      5  O   UNL A   1      33.670  27.180  23.480  1.00  0.00    -0.246 OA
BRANCH   4   6
ATOM      6  C   UNL A   1      32.669  26.300  25.379  1.00  0.00     0.063 A 
ATOM      7  C   UNL A   1      30.487  27.391  24.603  1.00  0.00     0.045 C 
ATOM      8  C   UNL A   1      31.278  26.280  25.239  1.00  0.00    -0.030 A 
ATOM      9  C   UNL A   1      30.585  25.167  25.719  1.00  0.00     0.090 A 
ATOM     10  C   UNL A   1      31.258  24.032  26.232  1.00  0.00     0.273 A 
ATOM     11  C   UNL A   1      33.346  25.178  25.919  1.00  0.00     0.027 A 
ATOM     12  C   UNL A   1      32.675  23.975  26.307  1.00  0.00     0.036 A 
BRANCH  10  13
ATOM     13  N   UNL A   1      30.348  22.958  26.656  1.00  0.00     0.063 N 
ATOM     14  O   UNL A   1      30.195  22.004  25.876  1.00  0.00    -0.258 OA
ATOM     15  O   UNL A   1      29.719  23.094  27.709  1.00  0.00    -0.258 OA
ENDBRANCH  10  13
BRANCH  12  16
ATOM     16  C   UNL A   1      33.510  22.714  26.695  1.00  0.00    -0.006 C 
ATOM     17  C   UNL A   1      33.199  22.263  28.139  1.00  0.00     0.016 C 
ATOM     18  C   UNL A   1      33.340  21.547  25.686  1.00  0.00     0.016 C 
ATOM     19  C   UNL A   1      35.046  22.958  26.691  1.00  0.00     0.016 C 
ENDBRANCH  12  16
ENDBRANCH   4   6
ENDBRANCH   3   4
ENDBRANCH   2   3
ENDBRANCH   1   2
BRANCH   1  20
ATOM     20  O   UNL A   1      35.355  29.813  28.429  1.00  0.00    -0.458 OA
BRANCH  20  21
ATOM     21  C   UNL A   1      36.305  30.769  28.589  1.00  0.00     0.338 C 
ATOM     22  O   UNL A   1      36.059  31.968  28.632  1.00  0.00    -0.246 OA
BRANCH  21  23
ATOM     23  C   UNL A   1      37.556  30.117  29.060  1.00  0.00     0.060 A 
ATOM     24  C   UNL A   1      37.466  29.003  29.907  1.00  0.00     0.016 A 
ATOM     25  C   UNL A   1      38.741  30.392  28.371  1.00  0.00     0.016 A 
ATOM     26  C   UNL A   1      38.503  28.076  29.953  1.00  0.00     0.010 A 
ATOM     27  C   UNL A   1      39.703  29.418  28.303  1.00  0.00     0.010 A 
ATOM     28  C   UNL A   1      39.592  28.273  29.106  1.00  0.00    -0.014 A 
BRANCH  28  29
ATOM     29  C   UNL A   1      40.845  27.551  29.225  1.00  0.00     0.031 A 
ATOM     30  C   UNL A   1      41.036  26.169  28.750  1.00  0.00     0.074 A 
ATOM     31  C   UNL A   1      41.808  28.383  29.681  1.00  0.00     0.049 A 
ATOM     32  N   UNL A   1      42.044  25.441  29.074  1.00  0.00    -0.248 NA
ATOM     33  C   UNL A   1      40.101  25.448  27.894  1.00  0.00     0.031 C 
ATOM     34  C   UNL A   1      43.247  28.267  29.733  1.00  0.00     0.029 A 
ATOM     35  N   UNL A   1      41.541  29.563  30.392  1.00  0.00    -0.354 N 
ATOM     36  C   UNL A   1      42.045  24.307  28.277  1.00  0.00     0.074 A 
ATOM     37  C   UNL A   1      40.754  24.305  27.650  1.00  0.00     0.031 C 
ATOM     38  C   UNL A   1      43.701  29.118  30.677  1.00  0.00     0.029 A 
ATOM     39  C   UNL A   1      42.538  29.706  31.343  1.00  0.00     0.049 A 
ATOM     40  H   UNL A   1      40.784  30.174  30.242  1.00  0.00     0.167 HD
ATOM     41  C   UNL A   1      43.216  23.613  28.154  1.00  0.00     0.037 A 
ATOM     42  C   UNL A   1      42.167  29.503  32.643  1.00  0.00     0.037 A 
ATOM     43  C   UNL A   1      44.181  24.178  29.097  1.00  0.00     0.049 A 
ATOM     44  C   UNL A   1      42.810  28.234  33.147  1.00  0.00     0.074 A 
ATOM     45  C   UNL A   1      45.140  25.166  28.943  1.00  0.00     0.029 A 
ATOM     46  N   UNL A   1      43.941  24.061  30.462  1.00  0.00    -0.354 N 
ATOM     47  N   UNL A   1      43.021  27.165  32.422  1.00  0.00    -0.248 NA
ATOM     48  C   UNL A   1      43.426  28.166  34.465  1.00  0.00     0.031 C 
ATOM     49  C   UNL A   1      45.363  25.744  30.222  1.00  0.00     0.029 A 
ATOM     50  C   UNL A   1      44.559  25.093  31.147  1.00  0.00     0.049 A 
ATOM     51  H   UNL A   1      43.407  23.347  30.880  1.00  0.00     0.167 HD
ATOM     52  C   UNL A   1      43.873  26.332  33.104  1.00  0.00     0.074 A 
ATOM     53  C   UNL A   1      44.072  26.992  34.386  1.00  0.00     0.031 C 
ATOM     54  C   UNL A   1      44.437  25.198  32.590  1.00  0.00     0.037 A 
BRANCH  41  55
ATOM     55  C   UNL A   1      43.616  22.655  27.036  1.00  0.00     0.058 A 
ATOM     56  C   UNL A   1      42.953  21.407  26.917  1.00  0.00     0.135 A 
ATOM     57  C   UNL A   1      44.665  22.834  26.112  1.00  0.00     0.135 A 
ATOM     58  F   UNL A   1      41.897  21.100  27.684  1.00  0.00    -0.206 F 
ATOM     59  C   UNL A   1      43.343  20.405  26.024  1.00  0.00     0.059 A 
ATOM     60  C   UNL A   1      45.082  21.839  25.211  1.00  0.00     0.059 A 
ATOM     61  F   UNL A   1      45.333  23.986  26.012  1.00  0.00    -0.206 F 
ATOM     62  C   UNL A   1      44.425  20.619  25.184  1.00  0.00     0.060 A 
BRANCH  62  63
ATOM     63  S   UNL A   1      44.932  19.301  24.063  1.00  0.00     0.124 S 
ATOM     64  O   UNL A   1      46.378  19.266  24.267  1.00  0.00    -0.237 OA
ATOM     65  O   UNL A   1      44.191  18.155  24.576  1.00  0.00    -0.237 OA
ATOM     66  O   UNL A   1      44.503  19.783  22.753  1.00  0.00    -0.744 OA
ENDBRANCH  62  63
ENDBRANCH  41  55
BRANCH  42  67
ATOM     67  C   UNL A   1      40.805  30.050  32.997  1.00  0.00     0.058 A 
ATOM     68  C   UNL A   1      40.648  31.459  33.013  1.00  0.00     0.135 A 
ATOM     69  C   UNL A   1      39.620  29.302  33.059  1.00  0.00     0.135 A 
ATOM     70  F   UNL A   1      41.732  32.253  32.981  1.00  0.00    -0.206 F 
ATOM     71  C   UNL A   1      39.404  32.086  32.959  1.00  0.00     0.059 A 
ATOM     72  C   UNL A   1      38.351  29.916  33.035  1.00  0.00     0.059 A 
ATOM     73  F   UNL A   1      39.662  27.962  33.063  1.00  0.00    -0.206 F 
ATOM     74  C   UNL A   1      38.256  31.307  32.940  1.00  0.00     0.060 A 
BRANCH  74  75
ATOM     75  S   UNL A   1      36.678  32.137  32.601  1.00  0.00     0.124 S 
ATOM     76  O   UNL A   1      35.861  31.041  32.091  1.00  0.00    -0.237 OA
ATOM     77  O   UNL A   1      36.310  32.641  33.923  1.00  0.00    -0.237 OA
ATOM     78  O   UNL A   1      37.044  33.155  31.625  1.00  0.00    -0.744 OA
ENDBRANCH  74  75
ENDBRANCH  42  67
BRANCH  54  79
ATOM     79  C   UNL A   1      45.056  24.115  33.437  1.00  0.00     0.058 A 
ATOM     80  C   UNL A   1      46.374  24.183  33.916  1.00  0.00     0.135 A 
ATOM     81  C   UNL A   1      44.275  23.043  33.933  1.00  0.00     0.135 A 
ATOM     82  F   UNL A   1      47.170  25.227  33.638  1.00  0.00    -0.206 F 
ATOM     83  C   UNL A   1      46.918  23.201  34.734  1.00  0.00     0.059 A 
ATOM     84  C   UNL A   1      44.776  22.095  34.815  1.00  0.00     0.059 A 
ATOM     85  F   UNL A   1      42.987  22.888  33.594  1.00  0.00    -0.206 F 
ATOM     86  C   UNL A   1      46.113  22.156  35.174  1.00  0.00     0.060 A 
BRANCH  86  87
ATOM     87  S   UNL A   1      46.811  20.892  36.240  1.00  0.00     0.124 S 
ATOM     88  O   UNL A   1      45.726  20.696  37.196  1.00  0.00    -0.237 OA
ATOM     89  O   UNL A   1      47.047  19.786  35.317  1.00  0.00    -0.237 OA
ATOM     90  O   UNL A   1      48.014  21.527  36.768  1.00  0.00    -0.744 OA
ENDBRANCH  86  87
ENDBRANCH  54  79
ENDBRANCH  28  29
ENDBRANCH  21  23
ENDBRANCH  20  21
ENDBRANCH   1  20
TORSDOF 16
ENDMDL
MODEL 3
REMARK VINA RESULT:     -12.5      4.857     11.443
REMARK SMILES Cc1cc([N+](=O)[O-])c(C(C)(C)C)cc1C(=O)OCCOC(=O)c1ccc(-c2c3nc(c(-c4c(F)cc(S(=O)(=O)[O-])cc4F)c4ccc([nH]4)c(-c4c(F)cc(S(=O)(=O)[O-])cc4F)c4nc(c(-c5c(F)cc(S(=O)(=O)[O-])cc5F)c5ccc2[nH]5)C=C4)C=C3)cc1
REMARK SMILES IDX 19 1 18 2 17 3 15 4 16 5 14 6 1 7 2 8 3 9 4 10 13 11 8 12
REMARK SMILES IDX 5 13 6 14 7 15 9 16 10 17 11 18 12 19 20 20 21 21 22 22
REMARK SMILES IDX 23 23 24 24 88 25 25 26 87 27 26 28 27 29 28 30 81 31 29 32
REMARK SMILES IDX 86 33 80 34 82 35 30 36 85 37 79 38 78 39 31 41 65 42 44 43
REMARK SMILES IDX 64 44 45 45 48 46 63 47 83 48 46 49 47 50 62 52 84 53 49 54
REMARK SMILES IDX 32 55 33 56 42 57 34 58 35 59 41 60 43 61 36 62 37 63 38 64
REMARK SMILES IDX 39 65 40 66 66 67 67 68 76 69 68 70 69 71 75 72 77 73 70 74
REMARK SMILES IDX 71 75 72 76 73 77 74 78 50 79 51 80 60 81 52 82 53 83 59 84
REMARK SMILES IDX 61 85 54 86 55 87 56 88 57 89 58 90
REMARK H PARENT 82 40 48 51
REMARK Flexibility Score: inf
ROOT
ATOM      1  C   UNL A   1      39.154  22.444  26.169  1.00  0.00     0.275 C 
ENDROOT
BRANCH   1   2
ATOM      2  C   UNL A   1      37.893  21.938  25.439  1.00  0.00     0.275 C 
BRANCH   2   3
ATOM      3  O   UNL A   1      36.732  22.785  25.596  1.00  0.00    -0.458 OA
BRANCH   3   4
ATOM      4  C   UNL A   1      35.581  22.169  25.215  1.00  0.00     0.338 C 
ATOM      5  O   UNL A   1      35.524  21.115  24.616  1.00  0.00    -0.246 OA
BRANCH   4   6
ATOM      6  C   UNL A   1      34.339  22.963  25.364  1.00  0.00     0.063 A 
ATOM      7  C   UNL A   1      34.002  21.829  27.635  1.00  0.00     0.045 C 
ATOM      8  C   UNL A   1      33.669  22.858  26.588  1.00  0.00    -0.030 A 
ATOM      9  C   UNL A   1      32.634  23.758  26.851  1.00  0.00     0.090 A 
ATOM     10  C   UNL A   1      32.329  24.823  25.970  1.00  0.00     0.273 A 
ATOM     11  C   UNL A   1      34.016  24.010  24.465  1.00  0.00     0.027 A 
ATOM     12  C   UNL A   1      33.045  25.020  24.759  1.00  0.00     0.036 A 
BRANCH  10  13
ATOM     13  N   UNL A   1      31.227  25.673  26.444  1.00  0.00     0.063 N 
ATOM     14  O   UNL A   1      31.533  26.718  27.040  1.00  0.00    -0.258 OA
ATOM     15  O   UNL A   1      30.068  25.271  26.311  1.00  0.00    -0.258 OA
ENDBRANCH  10  13
BRANCH  12  16
ATOM     16  C   UNL A   1      32.899  26.252  23.812  1.00  0.00    -0.006 C 
ATOM     17  C   UNL A   1      31.427  26.464  23.396  1.00  0.00     0.016 C 
ATOM     18  C   UNL A   1      33.512  27.547  24.411  1.00  0.00     0.016 C 
ATOM     19  C   UNL A   1      33.661  26.097  22.465  1.00  0.00     0.016 C 
ENDBRANCH  12  16
ENDBRANCH   4   6
ENDBRANCH   3   4
ENDBRANCH   2   3
ENDBRANCH   1   2
BRANCH   1  20
ATOM     20  O   UNL A   1      39.082  23.652  26.958  1.00  0.00    -0.458 OA
BRANCH  20  21
ATOM     21  C   UNL A   1      40.206  24.411  27.034  1.00  0.00     0.338 C 
ATOM     22  O   UNL A   1      41.246  24.142  26.446  1.00  0.00    -0.246 OA
BRANCH  21  23
ATOM     23  C   UNL A   1      39.843  25.735  27.605  1.00  0.00     0.060 A 
ATOM     24  C   UNL A   1      39.304  25.794  28.898  1.00  0.00     0.016 A 
ATOM     25  C   UNL A   1      40.377  26.879  27.005  1.00  0.00     0.016 A 
ATOM     26  C   UNL A   1      39.432  26.954  29.655  1.00  0.00     0.010 A 
ATOM     27  C   UNL A   1      40.631  27.975  27.788  1.00  0.00     0.010 A 
ATOM     28  C   UNL A   1      40.143  28.019  29.103  1.00  0.00    -0.014 A 
BRANCH  28  29
ATOM     29  C   UNL A   1      40.138  29.362  29.653  1.00  0.00     0.031 A 
ATOM     30  C   UNL A   1      39.018  30.304  29.486  1.00  0.00     0.074 A 
ATOM     31  C   UNL A   1      41.221  29.533  30.444  1.00  0.00     0.049 A 
ATOM     32  N   UNL A   1      39.105  31.561  29.743  1.00  0.00    -0.248 NA
ATOM     33  C   UNL A   1      37.698  29.946  28.982  1.00  0.00     0.031 C 
ATOM     34  C   UNL A   1      41.564  30.547  31.414  1.00  0.00     0.029 A 
ATOM     35  N   UNL A   1      42.387  28.758  30.341  1.00  0.00    -0.354 N 
ATOM     36  C   UNL A   1      37.832  32.107  29.717  1.00  0.00     0.074 A 
ATOM     37  C   UNL A   1      37.014  31.088  29.122  1.00  0.00     0.031 C 
ATOM     38  C   UNL A   1      42.904  30.536  31.574  1.00  0.00     0.029 A 
ATOM     39  C   UNL A   1      43.461  29.593  30.602  1.00  0.00     0.049 A 
ATOM     40  H   UNL A   1      42.431  27.799  30.124  1.00  0.00     0.167 HD
ATOM     41  C   UNL A   1      37.635  33.301  30.352  1.00  0.00     0.037 A 
ATOM     42  C   UNL A   1      44.252  29.912  29.534  1.00  0.00     0.037 A 
ATOM     43  C   UNL A   1      38.940  33.816  30.767  1.00  0.00     0.049 A 
ATOM     44  C   UNL A   1      44.071  31.373  29.204  1.00  0.00     0.074 A 
ATOM     45  C   UNL A   1      39.641  33.682  31.954  1.00  0.00     0.029 A 
ATOM     46  N   UNL A   1      39.865  34.177  29.793  1.00  0.00    -0.354 N 
ATOM     47  N   UNL A   1      42.944  32.030  29.318  1.00  0.00    -0.248 NA
ATOM     48  C   UNL A   1      45.208  32.230  28.899  1.00  0.00     0.031 C 
ATOM     49  C   UNL A   1      41.022  33.822  31.649  1.00  0.00     0.029 A 
ATOM     50  C   UNL A   1      41.152  34.062  30.288  1.00  0.00     0.049 A 
ATOM     51  H   UNL A   1      39.636  34.473  28.882  1.00  0.00     0.167 HD
ATOM     52  C   UNL A   1      43.207  33.373  29.221  1.00  0.00     0.074 A 
ATOM     53  C   UNL A   1      44.632  33.442  28.931  1.00  0.00     0.031 C 
ATOM     54  C   UNL A   1      42.297  34.368  29.449  1.00  0.00     0.037 A 
BRANCH  41  55
ATOM     55  C   UNL A   1      36.318  33.876  30.865  1.00  0.00     0.058 A 
ATOM     56  C   UNL A   1      35.306  34.234  29.939  1.00  0.00     0.135 A 
ATOM     57  C   UNL A   1      35.999  34.180  32.204  1.00  0.00     0.135 A 
ATOM     58  F   UNL A   1      35.427  33.964  28.631  1.00  0.00    -0.206 F 
ATOM     59  C   UNL A   1      34.129  34.900  30.296  1.00  0.00     0.059 A 
ATOM     60  C   UNL A   1      34.829  34.856  32.587  1.00  0.00     0.059 A 
ATOM     61  F   UNL A   1      36.790  33.823  33.219  1.00  0.00    -0.206 F 
ATOM     62  C   UNL A   1      33.905  35.228  31.624  1.00  0.00     0.060 A 
BRANCH  62  63
ATOM     63  S   UNL A   1      32.397  36.116  32.058  1.00  0.00     0.124 S 
ATOM     64  O   UNL A   1      32.872  37.040  33.085  1.00  0.00    -0.237 OA
ATOM     65  O   UNL A   1      32.016  36.722  30.788  1.00  0.00    -0.237 OA
ATOM     66  O   UNL A   1      31.506  35.063  32.537  1.00  0.00    -0.744 OA
ENDBRANCH  62  63
ENDBRANCH  41  55
BRANCH  42  67
ATOM     67  C   UNL A   1      44.493  28.772  28.573  1.00  0.00     0.058 A 
ATOM     68  C   UNL A   1      44.067  28.943  27.232  1.00  0.00     0.135 A 
ATOM     69  C   UNL A   1      45.325  27.669  28.815  1.00  0.00     0.135 A 
ATOM     70  F   UNL A   1      43.247  29.960  26.915  1.00  0.00    -0.206 F 
ATOM     71  C   UNL A   1      44.535  28.158  26.180  1.00  0.00     0.059 A 
ATOM     72  C   UNL A   1      45.789  26.844  27.770  1.00  0.00     0.059 A 
ATOM     73  F   UNL A   1      45.771  27.413  30.053  1.00  0.00    -0.206 F 
ATOM     74  C   UNL A   1      45.422  27.125  26.450  1.00  0.00     0.060 A 
BRANCH  74  75
ATOM     75  S   UNL A   1      46.216  26.301  25.042  1.00  0.00     0.124 S 
ATOM     76  O   UNL A   1      47.462  25.824  25.630  1.00  0.00    -0.237 OA
ATOM     77  O   UNL A   1      45.238  25.269  24.704  1.00  0.00    -0.237 OA
ATOM     78  O   UNL A   1      46.351  27.375  24.066  1.00  0.00    -0.744 OA
ENDBRANCH  74  75
ENDBRANCH  42  67
BRANCH  54  79
ATOM     79  C   UNL A   1      42.482  35.792  28.989  1.00  0.00     0.058 A 
ATOM     80  C   UNL A   1      43.286  36.715  29.675  1.00  0.00     0.135 A 
ATOM     81  C   UNL A   1      41.979  36.223  27.738  1.00  0.00     0.135 A 
ATOM     82  F   UNL A   1      43.939  36.379  30.798  1.00  0.00    -0.206 F 
ATOM     83  C   UNL A   1      43.486  38.011  29.216  1.00  0.00     0.059 A 
ATOM     84  C   UNL A   1      42.233  37.488  27.223  1.00  0.00     0.059 A 
ATOM     85  F   UNL A   1      41.236  35.425  26.957  1.00  0.00    -0.206 F 
ATOM     86  C   UNL A   1      42.950  38.391  27.991  1.00  0.00     0.060 A 
BRANCH  86  87
ATOM     87  S   UNL A   1      43.216  40.062  27.391  1.00  0.00     0.124 S 
ATOM     88  O   UNL A   1      43.483  40.771  28.639  1.00  0.00    -0.237 OA
ATOM     89  O   UNL A   1      44.359  39.905  26.496  1.00  0.00    -0.237 OA
ATOM     90  O   UNL A   1      41.954  40.386  26.735  1.00  0.00    -0.744 OA
ENDBRANCH  86  87
ENDBRANCH  54  79
ENDBRANCH  28  29
ENDBRANCH  21  23
ENDBRANCH  20  21
ENDBRANCH   1  20
TORSDOF 16
ENDMDL
