MODEL 1
REMARK VINA RESULT:     -10.5      0.000      0.000
REMARK SMILES CC[NH2+][C@]1(C(=O)OCCOC(=O)c2ccc(-c3c4nc(c(-c5c(F)cc(S(=O)(=O)[O-])cc5F)c5ccc([nH]5)c(-c5c(F)cc(S(=O)(=O)[O-])cc5F)c5nc(c(-c6c(F)cc(S(=O)(=O)[O-])cc6F)c6ccc3[nH]6)C=C5)C=C4)cc2)CCC[C@H]1CC[N@H+]1CCC[C@@H](CC)C1
REMARK SMILES IDX 8 1 7 2 5 3 6 4 4 5 79 6 82 7 80 8 81 9 3 10 2 13 1 14 83 15
REMARK SMILES IDX 84 16 85 17 86 18 92 19 87 21 89 22 88 23 90 24 91 25 9 26
REMARK SMILES IDX 10 27 11 28 12 29 13 30 14 31 78 32 15 33 77 34 16 35 17 36
REMARK SMILES IDX 18 37 71 38 19 39 76 40 70 41 72 42 20 43 75 44 69 45 68 46
REMARK SMILES IDX 21 48 55 49 34 50 54 51 35 52 38 53 53 54 73 55 36 56 37 57
REMARK SMILES IDX 52 59 74 60 39 61 22 62 23 63 32 64 24 65 25 66 31 67 33 68
REMARK SMILES IDX 26 69 27 70 28 71 29 72 30 73 56 74 57 75 66 76 58 77 59 78
REMARK SMILES IDX 65 79 67 80 60 81 61 82 62 83 63 84 64 85 40 86 41 87 50 88
REMARK SMILES IDX 42 89 43 90 49 91 51 92 44 93 45 94 46 95 47 96 48 97
REMARK H PARENT 3 11 3 12 85 20 72 47 38 58
REMARK Flexibility Score: inf
ROOT
ATOM      1  C   UNL A   1      31.656  27.652  26.883  1.00  0.00     0.274 C 
ENDROOT
BRANCH   1   2
ATOM      2  O   UNL A   1      32.048  27.318  25.547  1.00  0.00    -0.457 OA
BRANCH   2   3
ATOM      3  C   UNL A   1      31.064  26.893  24.717  1.00  0.00     0.368 C 
ATOM      4  O   UNL A   1      29.888  26.800  25.057  1.00  0.00    -0.245 OA
BRANCH   3   5
ATOM      5  C   UNL A   1      31.567  26.633  23.282  1.00  0.00     0.197 C 
ATOM      6  C   UNL A   1      33.077  27.015  23.233  1.00  0.00     0.081 C 
ATOM      7  C   UNL A   1      31.592  25.089  22.900  1.00  0.00     0.068 C 
ATOM      8  C   UNL A   1      33.632  26.217  22.064  1.00  0.00     0.008 C 
ATOM      9  C   UNL A   1      33.017  24.850  22.295  1.00  0.00     0.011 C 
BRANCH   5  10
ATOM     10  N   UNL A   1      30.997  27.577  22.234  1.00  0.00    -0.332 N 
ATOM     11  H   UNL A   1      31.626  27.544  21.433  1.00  0.00     0.347 HD
ATOM     12  H   UNL A   1      30.047  27.231  22.097  1.00  0.00     0.347 HD
BRANCH  10  13
ATOM     13  C   UNL A   1      30.797  28.982  22.554  1.00  0.00     0.257 C 
ATOM     14  C   UNL A   1      29.333  29.401  22.471  1.00  0.00     0.071 C 
ENDBRANCH  10  13
ENDBRANCH   5  10
BRANCH   7  15
ATOM     15  C   UNL A   1      31.298  23.886  23.934  1.00  0.00     0.072 C 
BRANCH  15  16
ATOM     16  C   UNL A   1      31.982  23.587  25.341  1.00  0.00     0.262 C 
BRANCH  16  17
ATOM     17  N   UNL A   1      33.267  22.836  25.497  1.00  0.00    -0.335 N 
ATOM     18  C   UNL A   1      33.439  21.759  24.497  1.00  0.00     0.262 C 
ATOM     19  C   UNL A   1      34.469  23.716  25.351  1.00  0.00     0.265 C 
ATOM     20  H   UNL A   1      33.202  22.448  26.439  1.00  0.00     0.348 HD
ATOM     21  C   UNL A   1      34.718  20.930  24.728  1.00  0.00     0.062 C 
ATOM     22  C   UNL A   1      35.751  22.966  25.793  1.00  0.00     0.044 C 
ATOM     23  C   UNL A   1      35.986  21.774  24.865  1.00  0.00     0.015 C 
BRANCH  22  24
ATOM     24  C   UNL A   1      37.023  23.832  25.911  1.00  0.00     0.006 C 
ATOM     25  C   UNL A   1      38.312  23.017  25.969  1.00  0.00     0.004 C 
ENDBRANCH  22  24
ENDBRANCH  16  17
ENDBRANCH  15  16
ENDBRANCH   7  15
ENDBRANCH   3   5
ENDBRANCH   2   3
ENDBRANCH   1   2
BRANCH   1  26
ATOM     26  C   UNL A   1      32.115  29.096  27.182  1.00  0.00     0.275 C 
BRANCH  26  27
ATOM     27  O   UNL A   1      33.567  29.221  27.188  1.00  0.00    -0.458 OA
BRANCH  27  28
ATOM     28  C   UNL A   1      34.117  30.343  27.748  1.00  0.00     0.338 C 
ATOM     29  O   UNL A   1      33.534  31.408  27.885  1.00  0.00    -0.246 OA
BRANCH  28  30
ATOM     30  C   UNL A   1      35.562  30.133  28.123  1.00  0.00     0.060 A 
ATOM     31  C   UNL A   1      35.902  29.613  29.364  1.00  0.00     0.016 A 
ATOM     32  C   UNL A   1      36.605  30.330  27.231  1.00  0.00     0.016 A 
ATOM     33  C   UNL A   1      37.202  29.239  29.747  1.00  0.00     0.010 A 
ATOM     34  C   UNL A   1      37.893  29.840  27.552  1.00  0.00     0.010 A 
ATOM     35  C   UNL A   1      38.227  29.273  28.817  1.00  0.00    -0.014 A 
BRANCH  35  36
ATOM     36  C   UNL A   1      39.629  28.762  29.089  1.00  0.00     0.031 A 
ATOM     37  C   UNL A   1      40.641  29.769  29.568  1.00  0.00     0.074 A 
ATOM     38  C   UNL A   1      40.088  27.506  28.850  1.00  0.00     0.049 A 
ATOM     39  N   UNL A   1      41.940  29.785  29.440  1.00  0.00    -0.248 NA
ATOM     40  C   UNL A   1      40.078  30.959  30.223  1.00  0.00     0.031 C 
ATOM     41  C   UNL A   1      39.295  26.334  28.488  1.00  0.00     0.029 A 
ATOM     42  N   UNL A   1      41.383  27.014  28.832  1.00  0.00    -0.354 N 
ATOM     43  C   UNL A   1      42.332  31.039  29.887  1.00  0.00     0.074 A 
ATOM     44  C   UNL A   1      41.126  31.765  30.227  1.00  0.00     0.031 C 
ATOM     45  C   UNL A   1      40.106  25.299  28.199  1.00  0.00     0.029 A 
ATOM     46  C   UNL A   1      41.491  25.719  28.360  1.00  0.00     0.049 A 
ATOM     47  H   UNL A   1      42.159  27.542  29.129  1.00  0.00     0.167 HD
ATOM     48  C   UNL A   1      43.580  31.538  30.052  1.00  0.00     0.037 A 
ATOM     49  C   UNL A   1      42.569  24.956  28.072  1.00  0.00     0.037 A 
ATOM     50  C   UNL A   1      44.783  30.771  29.906  1.00  0.00     0.049 A 
ATOM     51  C   UNL A   1      43.956  25.500  28.311  1.00  0.00     0.074 A 
ATOM     52  C   UNL A   1      46.085  31.155  30.174  1.00  0.00     0.029 A 
ATOM     53  N   UNL A   1      44.827  29.443  29.515  1.00  0.00    -0.354 N 
ATOM     54  N   UNL A   1      44.312  26.697  28.705  1.00  0.00    -0.248 NA
ATOM     55  C   UNL A   1      45.087  24.581  28.094  1.00  0.00     0.031 C 
ATOM     56  C   UNL A   1      46.917  30.050  29.963  1.00  0.00     0.029 A 
ATOM     57  C   UNL A   1      46.130  28.980  29.569  1.00  0.00     0.049 A 
ATOM     58  H   UNL A   1      44.048  28.908  29.241  1.00  0.00     0.167 HD
ATOM     59  C   UNL A   1      45.696  26.656  28.843  1.00  0.00     0.074 A 
ATOM     60  C   UNL A   1      46.120  25.325  28.469  1.00  0.00     0.031 C 
ATOM     61  C   UNL A   1      46.535  27.635  29.256  1.00  0.00     0.037 A 
BRANCH  48  62
ATOM     62  C   UNL A   1      43.676  32.980  30.457  1.00  0.00     0.058 A 
ATOM     63  C   UNL A   1      43.799  34.001  29.502  1.00  0.00     0.135 A 
ATOM     64  C   UNL A   1      43.727  33.333  31.814  1.00  0.00     0.135 A 
ATOM     65  F   UNL A   1      43.775  33.710  28.192  1.00  0.00    -0.206 F 
ATOM     66  C   UNL A   1      44.060  35.312  29.876  1.00  0.00     0.059 A 
ATOM     67  C   UNL A   1      43.949  34.647  32.212  1.00  0.00     0.059 A 
ATOM     68  F   UNL A   1      43.602  32.394  32.765  1.00  0.00    -0.206 F 
ATOM     69  C   UNL A   1      44.153  35.621  31.235  1.00  0.00     0.060 A 
BRANCH  69  70
ATOM     70  S   UNL A   1      44.569  37.309  31.713  1.00  0.00     0.124 S 
ATOM     71  O   UNL A   1      43.843  38.079  30.709  1.00  0.00    -0.237 OA
ATOM     72  O   UNL A   1      44.047  37.394  33.073  1.00  0.00    -0.237 OA
ATOM     73  O   UNL A   1      46.024  37.339  31.601  1.00  0.00    -0.744 OA
ENDBRANCH  69  70
ENDBRANCH  48  62
BRANCH  49  74
ATOM     74  C   UNL A   1      42.415  23.568  27.544  1.00  0.00     0.058 A 
ATOM     75  C   UNL A   1      42.384  22.466  28.413  1.00  0.00     0.135 A 
ATOM     76  C   UNL A   1      42.377  23.307  26.165  1.00  0.00     0.135 A 
ATOM     77  F   UNL A   1      42.438  22.661  29.739  1.00  0.00    -0.206 F 
ATOM     78  C   UNL A   1      42.349  21.157  27.939  1.00  0.00     0.059 A 
ATOM     79  C   UNL A   1      42.326  22.005  25.665  1.00  0.00     0.059 A 
ATOM     80  F   UNL A   1      42.403  24.323  25.288  1.00  0.00    -0.206 F 
ATOM     81  C   UNL A   1      42.328  20.936  26.561  1.00  0.00     0.060 A 
BRANCH  81  82
ATOM     82  S   UNL A   1      42.283  19.231  25.960  1.00  0.00     0.124 S 
ATOM     83  O   UNL A   1      42.831  18.502  27.098  1.00  0.00    -0.237 OA
ATOM     84  O   UNL A   1      40.860  19.035  25.701  1.00  0.00    -0.237 OA
ATOM     85  O   UNL A   1      43.129  19.273  24.771  1.00  0.00    -0.744 OA
ENDBRANCH  81  82
ENDBRANCH  49  74
BRANCH  61  86
ATOM     86  C   UNL A   1      47.988  27.298  29.430  1.00  0.00     0.058 A 
ATOM     87  C   UNL A   1      48.917  27.484  28.397  1.00  0.00     0.135 A 
ATOM     88  C   UNL A   1      48.469  26.898  30.687  1.00  0.00     0.135 A 
ATOM     89  F   UNL A   1      48.504  27.855  27.175  1.00  0.00    -0.206 F 
ATOM     90  C   UNL A   1      50.279  27.296  28.608  1.00  0.00     0.059 A 
ATOM     91  C   UNL A   1      49.828  26.720  30.925  1.00  0.00     0.059 A 
ATOM     92  F   UNL A   1      47.616  26.711  31.708  1.00  0.00    -0.206 F 
ATOM     93  C   UNL A   1      50.726  26.925  29.879  1.00  0.00     0.060 A 
BRANCH  93  94
ATOM     94  S   UNL A   1      52.503  26.787  30.170  1.00  0.00     0.124 S 
ATOM     95  O   UNL A   1      52.562  25.686  31.126  1.00  0.00    -0.237 OA
ATOM     96  O   UNL A   1      53.020  26.497  28.837  1.00  0.00    -0.237 OA
ATOM     97  O   UNL A   1      52.862  28.100  30.701  1.00  0.00    -0.744 OA
ENDBRANCH  93  94
ENDBRANCH  61  86
ENDBRANCH  35  36
ENDBRANCH  28  30
ENDBRANCH  27  28
ENDBRANCH  26  27
ENDBRANCH   1  26
TORSDOF 20
ENDMDL
MODEL 2
REMARK VINA RESULT:     -10.2      3.569      9.250
REMARK SMILES CC[NH2+][C@]1(C(=O)OCCOC(=O)c2ccc(-c3c4nc(c(-c5c(F)cc(S(=O)(=O)[O-])cc5F)c5ccc([nH]5)c(-c5c(F)cc(S(=O)(=O)[O-])cc5F)c5nc(c(-c6c(F)cc(S(=O)(=O)[O-])cc6F)c6ccc3[nH]6)C=C5)C=C4)cc2)CCC[C@H]1CC[N@H+]1CCC[C@@H](CC)C1
REMARK SMILES IDX 8 1 7 2 5 3 6 4 4 5 79 6 82 7 80 8 81 9 3 10 2 13 1 14 83 15
REMARK SMILES IDX 84 16 85 17 86 18 92 19 87 21 89 22 88 23 90 24 91 25 9 26
REMARK SMILES IDX 10 27 11 28 12 29 13 30 14 31 78 32 15 33 77 34 16 35 17 36
REMARK SMILES IDX 18 37 71 38 19 39 76 40 70 41 72 42 20 43 75 44 69 45 68 46
REMARK SMILES IDX 21 48 55 49 34 50 54 51 35 52 38 53 53 54 73 55 36 56 37 57
REMARK SMILES IDX 52 59 74 60 39 61 22 62 23 63 32 64 24 65 25 66 31 67 33 68
REMARK SMILES IDX 26 69 27 70 28 71 29 72 30 73 56 74 57 75 66 76 58 77 59 78
REMARK SMILES IDX 65 79 67 80 60 81 61 82 62 83 63 84 64 85 40 86 41 87 50 88
REMARK SMILES IDX 42 89 43 90 49 91 51 92 44 93 45 94 46 95 47 96 48 97
REMARK H PARENT 3 11 3 12 85 20 72 47 38 58
REMARK Flexibility Score: inf
ROOT
ATOM      1  C   UNL A   1      35.332  23.991  24.004  1.00  0.00     0.274 C 
ENDROOT
BRANCH   1   2
ATOM      2  O   UNL A   1      34.409  25.016  24.386  1.00  0.00    -0.457 OA
BRANCH   2   3
ATOM      3  C   UNL A   1      33.800  25.689  23.379  1.00  0.00     0.368 C 
ATOM      4  O   UNL A   1      33.937  25.397  22.194  1.00  0.00    -0.245 OA
BRANCH   3   5
ATOM      5  C   UNL A   1      32.848  26.790  23.889  1.00  0.00     0.197 C 
ATOM      6  C   UNL A   1      32.903  27.972  22.876  1.00  0.00     0.081 C 
ATOM      7  C   UNL A   1      31.317  26.364  23.836  1.00  0.00     0.068 C 
ATOM      8  C   UNL A   1      31.587  28.705  23.077  1.00  0.00     0.008 C 
ATOM      9  C   UNL A   1      30.593  27.562  23.132  1.00  0.00     0.011 C 
BRANCH   5  10
ATOM     10  N   UNL A   1      33.312  27.482  25.163  1.00  0.00    -0.332 N 
ATOM     11  H   UNL A   1      34.322  27.358  25.215  1.00  0.00     0.347 HD
ATOM     12  H   UNL A   1      32.962  28.434  25.054  1.00  0.00     0.347 HD
BRANCH  10  13
ATOM     13  C   UNL A   1      32.771  27.072  26.449  1.00  0.00     0.257 C 
ATOM     14  C   UNL A   1      31.919  28.156  27.101  1.00  0.00     0.071 C 
ENDBRANCH  10  13
ENDBRANCH   5  10
BRANCH   7  15
ATOM     15  C   UNL A   1      30.768  25.004  23.163  1.00  0.00     0.072 C 
BRANCH  15  16
ATOM     16  C   UNL A   1      30.852  23.512  23.714  1.00  0.00     0.262 C 
BRANCH  16  17
ATOM     17  N   UNL A   1      31.980  22.997  24.550  1.00  0.00    -0.335 N 
ATOM     18  C   UNL A   1      31.815  23.283  25.993  1.00  0.00     0.262 C 
ATOM     19  C   UNL A   1      32.137  21.512  24.451  1.00  0.00     0.265 C 
ATOM     20  H   UNL A   1      32.796  23.483  24.175  1.00  0.00     0.348 HD
ATOM     21  C   UNL A   1      33.029  22.834  26.832  1.00  0.00     0.062 C 
ATOM     22  C   UNL A   1      33.471  21.060  25.099  1.00  0.00     0.044 C 
ATOM     23  C   UNL A   1      33.443  21.382  26.594  1.00  0.00     0.015 C 
BRANCH  22  24
ATOM     24  C   UNL A   1      33.863  19.586  24.861  1.00  0.00     0.006 C 
ATOM     25  C   UNL A   1      32.798  18.591  25.311  1.00  0.00     0.004 C 
ENDBRANCH  22  24
ENDBRANCH  16  17
ENDBRANCH  15  16
ENDBRANCH   7  15
ENDBRANCH   3   5
ENDBRANCH   2   3
ENDBRANCH   1   2
BRANCH   1  26
ATOM     26  C   UNL A   1      36.228  23.659  25.217  1.00  0.00     0.275 C 
BRANCH  26  27
ATOM     27  O   UNL A   1      37.644  23.650  24.868  1.00  0.00    -0.458 OA
BRANCH  27  28
ATOM     28  C   UNL A   1      38.529  23.132  25.775  1.00  0.00     0.338 C 
ATOM     29  O   UNL A   1      38.767  21.942  25.912  1.00  0.00    -0.246 OA
BRANCH  28  30
ATOM     30  C   UNL A   1      39.138  24.207  26.641  1.00  0.00     0.060 A 
ATOM     31  C   UNL A   1      39.933  25.197  26.082  1.00  0.00     0.016 A 
ATOM     32  C   UNL A   1      38.852  24.334  27.991  1.00  0.00     0.016 A 
ATOM     33  C   UNL A   1      40.416  26.321  26.775  1.00  0.00     0.010 A 
ATOM     34  C   UNL A   1      39.219  25.521  28.668  1.00  0.00     0.010 A 
ATOM     35  C   UNL A   1      40.006  26.552  28.077  1.00  0.00    -0.014 A 
BRANCH  35  36
ATOM     36  C   UNL A   1      40.358  27.802  28.863  1.00  0.00     0.031 A 
ATOM     37  C   UNL A   1      41.597  27.744  29.716  1.00  0.00     0.074 A 
ATOM     38  C   UNL A   1      39.613  28.934  28.949  1.00  0.00     0.049 A 
ATOM     39  N   UNL A   1      41.903  28.397  30.804  1.00  0.00    -0.248 NA
ATOM     40  C   UNL A   1      42.595  26.745  29.304  1.00  0.00     0.031 C 
ATOM     41  C   UNL A   1      38.439  29.277  28.152  1.00  0.00     0.029 A 
ATOM     42  N   UNL A   1      39.719  30.012  29.813  1.00  0.00    -0.354 N 
ATOM     43  C   UNL A   1      43.067  27.801  31.270  1.00  0.00     0.074 A 
ATOM     44  C   UNL A   1      43.366  26.701  30.377  1.00  0.00     0.031 C 
ATOM     45  C   UNL A   1      37.885  30.416  28.610  1.00  0.00     0.029 A 
ATOM     46  C   UNL A   1      38.666  30.904  29.738  1.00  0.00     0.049 A 
ATOM     47  H   UNL A   1      40.479  30.132  30.428  1.00  0.00     0.167 HD
ATOM     48  C   UNL A   1      43.852  28.156  32.315  1.00  0.00     0.037 A 
ATOM     49  C   UNL A   1      38.346  31.980  30.492  1.00  0.00     0.037 A 
ATOM     50  C   UNL A   1      43.678  29.351  33.088  1.00  0.00     0.049 A 
ATOM     51  C   UNL A   1      39.256  32.402  31.619  1.00  0.00     0.074 A 
ATOM     52  C   UNL A   1      44.494  29.858  34.083  1.00  0.00     0.029 A 
ATOM     53  N   UNL A   1      42.649  30.261  32.909  1.00  0.00    -0.354 N 
ATOM     54  N   UNL A   1      40.336  31.811  32.067  1.00  0.00    -0.248 NA
ATOM     55  C   UNL A   1      38.920  33.650  32.325  1.00  0.00     0.031 C 
ATOM     56  C   UNL A   1      43.969  31.088  34.493  1.00  0.00     0.029 A 
ATOM     57  C   UNL A   1      42.829  31.345  33.749  1.00  0.00     0.049 A 
ATOM     58  H   UNL A   1      41.902  30.154  32.277  1.00  0.00     0.167 HD
ATOM     59  C   UNL A   1      40.840  32.645  33.060  1.00  0.00     0.074 A 
ATOM     60  C   UNL A   1      39.938  33.770  33.168  1.00  0.00     0.031 C 
ATOM     61  C   UNL A   1      41.961  32.492  33.805  1.00  0.00     0.037 A 
BRANCH  48  62
ATOM     62  C   UNL A   1      44.997  27.240  32.631  1.00  0.00     0.058 A 
ATOM     63  C   UNL A   1      44.835  26.132  33.478  1.00  0.00     0.135 A 
ATOM     64  C   UNL A   1      46.284  27.522  32.149  1.00  0.00     0.135 A 
ATOM     65  F   UNL A   1      43.626  25.834  33.980  1.00  0.00    -0.206 F 
ATOM     66  C   UNL A   1      45.925  25.387  33.909  1.00  0.00     0.059 A 
ATOM     67  C   UNL A   1      47.384  26.764  32.537  1.00  0.00     0.059 A 
ATOM     68  F   UNL A   1      46.488  28.562  31.327  1.00  0.00    -0.206 F 
ATOM     69  C   UNL A   1      47.198  25.724  33.447  1.00  0.00     0.060 A 
BRANCH  69  70
ATOM     70  S   UNL A   1      48.617  24.802  34.070  1.00  0.00     0.124 S 
ATOM     71  O   UNL A   1      47.981  23.575  34.538  1.00  0.00    -0.237 OA
ATOM     72  O   UNL A   1      49.456  24.666  32.884  1.00  0.00    -0.237 OA
ATOM     73  O   UNL A   1      49.151  25.674  35.113  1.00  0.00    -0.744 OA
ENDBRANCH  69  70
ENDBRANCH  48  62
BRANCH  49  74
ATOM     74  C   UNL A   1      37.117  32.782  30.213  1.00  0.00     0.058 A 
ATOM     75  C   UNL A   1      35.909  32.500  30.870  1.00  0.00     0.135 A 
ATOM     76  C   UNL A   1      37.103  33.788  29.233  1.00  0.00     0.135 A 
ATOM     77  F   UNL A   1      35.865  31.534  31.800  1.00  0.00    -0.206 F 
ATOM     78  C   UNL A   1      34.727  33.162  30.549  1.00  0.00     0.059 A 
ATOM     79  C   UNL A   1      35.936  34.476  28.905  1.00  0.00     0.059 A 
ATOM     80  F   UNL A   1      38.231  34.099  28.575  1.00  0.00    -0.206 F 
ATOM     81  C   UNL A   1      34.748  34.145  29.558  1.00  0.00     0.060 A 
BRANCH  81  82
ATOM     82  S   UNL A   1      33.205  34.996  29.152  1.00  0.00     0.124 S 
ATOM     83  O   UNL A   1      32.629  34.103  28.153  1.00  0.00    -0.237 OA
ATOM     84  O   UNL A   1      32.526  35.031  30.443  1.00  0.00    -0.237 OA
ATOM     85  O   UNL A   1      33.658  36.292  28.654  1.00  0.00    -0.744 OA
ENDBRANCH  81  82
ENDBRANCH  49  74
BRANCH  61  86
ATOM     86  C   UNL A   1      42.349  33.602  34.738  1.00  0.00     0.058 A 
ATOM     87  C   UNL A   1      41.963  33.602  36.085  1.00  0.00     0.135 A 
ATOM     88  C   UNL A   1      43.219  34.614  34.300  1.00  0.00     0.135 A 
ATOM     89  F   UNL A   1      41.125  32.662  36.549  1.00  0.00    -0.206 F 
ATOM     90  C   UNL A   1      42.438  34.563  36.973  1.00  0.00     0.059 A 
ATOM     91  C   UNL A   1      43.718  35.575  35.173  1.00  0.00     0.059 A 
ATOM     92  F   UNL A   1      43.619  34.652  33.019  1.00  0.00    -0.206 F 
ATOM     93  C   UNL A   1      43.324  35.538  36.510  1.00  0.00     0.060 A 
BRANCH  93  94
ATOM     94  S   UNL A   1      44.017  36.716  37.691  1.00  0.00     0.124 S 
ATOM     95  O   UNL A   1      44.831  35.846  38.534  1.00  0.00    -0.237 OA
ATOM     96  O   UNL A   1      44.755  37.632  36.827  1.00  0.00    -0.237 OA
ATOM     97  O   UNL A   1      42.835  37.286  38.333  1.00  0.00    -0.744 OA
ENDBRANCH  93  94
ENDBRANCH  61  86
ENDBRANCH  35  36
ENDBRANCH  28  30
ENDBRANCH  27  28
ENDBRANCH  26  27
ENDBRANCH   1  26
TORSDOF 20
ENDMDL
MODEL 3
REMARK VINA RESULT:     -10.2      1.490      2.495
REMARK SMILES CC[NH2+][C@]1(C(=O)OCCOC(=O)c2ccc(-c3c4nc(c(-c5c(F)cc(S(=O)(=O)[O-])cc5F)c5ccc([nH]5)c(-c5c(F)cc(S(=O)(=O)[O-])cc5F)c5nc(c(-c6c(F)cc(S(=O)(=O)[O-])cc6F)c6ccc3[nH]6)C=C5)C=C4)cc2)CCC[C@H]1CC[N@H+]1CCC[C@@H](CC)C1
REMARK SMILES IDX 8 1 7 2 5 3 6 4 4 5 79 6 82 7 80 8 81 9 3 10 2 13 1 14 83 15
REMARK SMILES IDX 84 16 85 17 86 18 92 19 87 21 89 22 88 23 90 24 91 25 9 26
REMARK SMILES IDX 10 27 11 28 12 29 13 30 14 31 78 32 15 33 77 34 16 35 17 36
REMARK SMILES IDX 18 37 71 38 19 39 76 40 70 41 72 42 20 43 75 44 69 45 68 46
REMARK SMILES IDX 21 48 55 49 34 50 54 51 35 52 38 53 53 54 73 55 36 56 37 57
REMARK SMILES IDX 52 59 74 60 39 61 22 62 23 63 32 64 24 65 25 66 31 67 33 68
REMARK SMILES IDX 26 69 27 70 28 71 29 72 30 73 56 74 57 75 66 76 58 77 59 78
REMARK SMILES IDX 65 79 67 80 60 81 61 82 62 83 63 84 64 85 40 86 41 87 50 88
REMARK SMILES IDX 42 89 43 90 49 91 51 92 44 93 45 94 46 95 47 96 48 97
REMARK H PARENT 3 11 3 12 85 20 72 47 38 58
REMARK Flexibility Score: inf
ROOT
ATOM      1  C   UNL A   1      33.392  29.727  27.091  1.00  0.00     0.274 C 
ENDROOT
BRANCH   1   2
ATOM      2  O   UNL A   1      33.047  29.698  25.701  1.00  0.00    -0.457 OA
BRANCH   2   3
ATOM      3  C   UNL A   1      33.119  28.491  25.086  1.00  0.00     0.368 C 
ATOM      4  O   UNL A   1      33.975  27.651  25.346  1.00  0.00    -0.245 OA
BRANCH   3   5
ATOM      5  C   UNL A   1      31.957  28.258  24.098  1.00  0.00     0.197 C 
ATOM      6  C   UNL A   1      32.551  27.607  22.813  1.00  0.00     0.081 C 
ATOM      7  C   UNL A   1      30.927  27.155  24.596  1.00  0.00     0.068 C 
ATOM      8  C   UNL A   1      31.374  26.885  22.176  1.00  0.00     0.008 C 
ATOM      9  C   UNL A   1      30.742  26.197  23.371  1.00  0.00     0.011 C 
BRANCH   5  10
ATOM     10  N   UNL A   1      31.355  29.532  23.522  1.00  0.00    -0.332 N 
ATOM     11  H   UNL A   1      31.897  30.310  23.895  1.00  0.00     0.347 HD
ATOM     12  H   UNL A   1      31.393  29.376  22.514  1.00  0.00     0.347 HD
BRANCH  10  13
ATOM     13  C   UNL A   1      29.954  29.844  23.759  1.00  0.00     0.257 C 
ATOM     14  C   UNL A   1      29.104  29.720  22.499  1.00  0.00     0.071 C 
ENDBRANCH  10  13
ENDBRANCH   5  10
BRANCH   7  15
ATOM     15  C   UNL A   1      31.135  26.233  25.904  1.00  0.00     0.072 C 
BRANCH  15  16
ATOM     16  C   UNL A   1      31.447  24.673  25.988  1.00  0.00     0.262 C 
BRANCH  16  17
ATOM     17  N   UNL A   1      32.680  24.040  25.424  1.00  0.00    -0.335 N 
ATOM     18  C   UNL A   1      33.925  24.516  26.068  1.00  0.00     0.262 C 
ATOM     19  C   UNL A   1      32.687  22.553  25.585  1.00  0.00     0.265 C 
ATOM     20  H   UNL A   1      32.656  24.308  24.440  1.00  0.00     0.348 HD
ATOM     21  C   UNL A   1      35.193  23.931  25.414  1.00  0.00     0.062 C 
ATOM     22  C   UNL A   1      33.830  21.919  24.751  1.00  0.00     0.044 C 
ATOM     23  C   UNL A   1      35.177  22.408  25.284  1.00  0.00     0.015 C 
BRANCH  22  24
ATOM     24  C   UNL A   1      33.804  20.380  24.645  1.00  0.00     0.006 C 
ATOM     25  C   UNL A   1      32.431  19.815  24.295  1.00  0.00     0.004 C 
ENDBRANCH  22  24
ENDBRANCH  16  17
ENDBRANCH  15  16
ENDBRANCH   7  15
ENDBRANCH   3   5
ENDBRANCH   2   3
ENDBRANCH   1   2
BRANCH   1  26
ATOM     26  C   UNL A   1      33.220  31.172  27.608  1.00  0.00     0.275 C 
BRANCH  26  27
ATOM     27  O   UNL A   1      34.497  31.796  27.929  1.00  0.00    -0.458 OA
BRANCH  27  28
ATOM     28  C   UNL A   1      34.997  31.631  29.194  1.00  0.00     0.338 C 
ATOM     29  O   UNL A   1      34.509  32.116  30.203  1.00  0.00    -0.246 OA
BRANCH  28  30
ATOM     30  C   UNL A   1      36.272  30.825  29.192  1.00  0.00     0.060 A 
ATOM     31  C   UNL A   1      36.896  30.494  27.998  1.00  0.00     0.016 A 
ATOM     32  C   UNL A   1      36.941  30.477  30.355  1.00  0.00     0.016 A 
ATOM     33  C   UNL A   1      38.158  29.883  27.897  1.00  0.00     0.010 A 
ATOM     34  C   UNL A   1      38.264  29.983  30.271  1.00  0.00     0.010 A 
ATOM     35  C   UNL A   1      38.914  29.678  29.039  1.00  0.00    -0.014 A 
BRANCH  35  36
ATOM     36  C   UNL A   1      40.339  29.156  29.025  1.00  0.00     0.031 A 
ATOM     37  C   UNL A   1      41.438  30.168  29.208  1.00  0.00     0.074 A 
ATOM     38  C   UNL A   1      40.724  27.880  28.767  1.00  0.00     0.049 A 
ATOM     39  N   UNL A   1      42.677  30.152  28.796  1.00  0.00    -0.248 NA
ATOM     40  C   UNL A   1      41.042  31.405  29.898  1.00  0.00     0.031 C 
ATOM     41  C   UNL A   1      39.864  26.705  28.660  1.00  0.00     0.029 A 
ATOM     42  N   UNL A   1      41.981  27.362  28.493  1.00  0.00    -0.354 N 
ATOM     43  C   UNL A   1      43.167  31.421  29.069  1.00  0.00     0.074 A 
ATOM     44  C   UNL A   1      42.070  32.189  29.622  1.00  0.00     0.031 C 
ATOM     45  C   UNL A   1      40.583  25.639  28.261  1.00  0.00     0.029 A 
ATOM     46  C   UNL A   1      41.973  26.040  28.087  1.00  0.00     0.049 A 
ATOM     47  H   UNL A   1      42.807  27.890  28.579  1.00  0.00     0.167 HD
ATOM     48  C   UNL A   1      44.424  31.903  28.924  1.00  0.00     0.037 A 
ATOM     49  C   UNL A   1      42.955  25.241  27.615  1.00  0.00     0.037 A 
ATOM     50  C   UNL A   1      45.559  31.106  28.563  1.00  0.00     0.049 A 
ATOM     51  C   UNL A   1      44.364  25.770  27.509  1.00  0.00     0.074 A 
ATOM     52  C   UNL A   1      46.890  31.478  28.513  1.00  0.00     0.029 A 
ATOM     53  N   UNL A   1      45.506  29.757  28.252  1.00  0.00    -0.354 N 
ATOM     54  N   UNL A   1      44.806  26.980  27.742  1.00  0.00    -0.248 NA
ATOM     55  C   UNL A   1      45.412  24.818  27.104  1.00  0.00     0.031 C 
ATOM     56  C   UNL A   1      47.647  30.347  28.190  1.00  0.00     0.029 A 
ATOM     57  C   UNL A   1      46.785  29.273  28.045  1.00  0.00     0.049 A 
ATOM     58  H   UNL A   1      44.682  29.223  28.190  1.00  0.00     0.167 HD
ATOM     59  C   UNL A   1      46.186  26.920  27.573  1.00  0.00     0.074 A 
ATOM     60  C   UNL A   1      46.508  25.561  27.195  1.00  0.00     0.031 C 
ATOM     61  C   UNL A   1      47.103  27.903  27.732  1.00  0.00     0.037 A 
BRANCH  48  62
ATOM     62  C   UNL A   1      44.616  33.364  29.211  1.00  0.00     0.058 A 
ATOM     63  C   UNL A   1      44.909  33.823  30.504  1.00  0.00     0.135 A 
ATOM     64  C   UNL A   1      44.422  34.316  28.199  1.00  0.00     0.135 A 
ATOM     65  F   UNL A   1      45.083  32.950  31.509  1.00  0.00    -0.206 F 
ATOM     66  C   UNL A   1      44.916  35.178  30.805  1.00  0.00     0.059 A 
ATOM     67  C   UNL A   1      44.464  35.680  28.471  1.00  0.00     0.059 A 
ATOM     68  F   UNL A   1      44.152  33.927  26.943  1.00  0.00    -0.206 F 
ATOM     69  C   UNL A   1      44.673  36.098  29.784  1.00  0.00     0.060 A 
BRANCH  69  70
ATOM     70  S   UNL A   1      44.606  37.853  30.196  1.00  0.00     0.124 S 
ATOM     71  O   UNL A   1      45.946  38.288  29.817  1.00  0.00    -0.237 OA
ATOM     72  O   UNL A   1      43.520  38.339  29.350  1.00  0.00    -0.237 OA
ATOM     73  O   UNL A   1      44.325  37.849  31.629  1.00  0.00    -0.744 OA
ENDBRANCH  69  70
ENDBRANCH  48  62
BRANCH  49  74
ATOM     74  C   UNL A   1      42.679  23.828  27.218  1.00  0.00     0.058 A 
ATOM     75  C   UNL A   1      42.574  22.816  28.185  1.00  0.00     0.135 A 
ATOM     76  C   UNL A   1      42.593  23.447  25.870  1.00  0.00     0.135 A 
ATOM     77  F   UNL A   1      42.669  23.125  29.487  1.00  0.00    -0.206 F 
ATOM     78  C   UNL A   1      42.424  21.477  27.834  1.00  0.00     0.059 A 
ATOM     79  C   UNL A   1      42.427  22.115  25.492  1.00  0.00     0.059 A 
ATOM     80  F   UNL A   1      42.685  24.375  24.903  1.00  0.00    -0.206 F 
ATOM     81  C   UNL A   1      42.359  21.135  26.482  1.00  0.00     0.060 A 
BRANCH  81  82
ATOM     82  S   UNL A   1      42.164  19.392  26.041  1.00  0.00     0.124 S 
ATOM     83  O   UNL A   1      43.031  19.284  24.873  1.00  0.00    -0.237 OA
ATOM     84  O   UNL A   1      42.631  18.716  27.247  1.00  0.00    -0.237 OA
ATOM     85  O   UNL A   1      40.733  19.271  25.778  1.00  0.00    -0.744 OA
ENDBRANCH  81  82
ENDBRANCH  49  74
BRANCH  61  86
ATOM     86  C   UNL A   1      48.555  27.549  27.600  1.00  0.00     0.058 A 
ATOM     87  C   UNL A   1      49.299  27.070  28.687  1.00  0.00     0.135 A 
ATOM     88  C   UNL A   1      49.173  27.580  26.339  1.00  0.00     0.135 A 
ATOM     89  F   UNL A   1      48.756  27.032  29.914  1.00  0.00    -0.206 F 
ATOM     90  C   UNL A   1      50.606  26.619  28.526  1.00  0.00     0.059 A 
ATOM     91  C   UNL A   1      50.472  27.120  26.152  1.00  0.00     0.059 A 
ATOM     92  F   UNL A   1      48.498  28.028  25.268  1.00  0.00    -0.206 F 
ATOM     93  C   UNL A   1      51.179  26.637  27.252  1.00  0.00     0.060 A 
BRANCH  93  94
ATOM     94  S   UNL A   1      52.836  25.952  27.034  1.00  0.00     0.124 S 
ATOM     95  O   UNL A   1      52.547  24.684  26.372  1.00  0.00    -0.237 OA
ATOM     96  O   UNL A   1      53.489  26.964  26.210  1.00  0.00    -0.237 OA
ATOM     97  O   UNL A   1      53.341  25.846  28.401  1.00  0.00    -0.744 OA
ENDBRANCH  93  94
ENDBRANCH  61  86
ENDBRANCH  35  36
ENDBRANCH  28  30
ENDBRANCH  27  28
ENDBRANCH  26  27
ENDBRANCH   1  26
TORSDOF 20
ENDMDL
