MODEL 1
REMARK VINA RESULT:     -12.0      0.000      0.000
REMARK SMILES COc1ccccc1C(=O)N/C(=C/c1ccc2c(c1)OCO2)C(=O)Nc1ccc(C(=O)OCCOC(=O)c2ccc(-c3c4nc(c(-c5c(F)cc(S(=O)(=O)[O-])cc5F)c5ccc([nH]5)c(-c5c(F)cc(S(=O)(=O)[O-])cc5F)c5nc(c(-c6c(F)cc(S(=O)(=O)[O-])cc6F)c6ccc3[nH]6)C=C5)C=C4)cc2)cc1
REMARK SMILES IDX 33 1 32 2 30 3 31 4 29 5 26 6 27 7 105 8 28 9 104 10 25 11
REMARK SMILES IDX 23 12 24 13 12 15 13 16 11 17 9 18 10 19 8 21 3 22 4 23 5 24
REMARK SMILES IDX 7 25 6 26 2 27 1 28 14 29 15 30 19 31 16 32 18 33 17 34
REMARK SMILES IDX 20 35 22 36 21 37 34 38 35 39 36 40 37 41 38 42 39 43 103 44
REMARK SMILES IDX 40 45 102 46 41 47 42 48 43 49 96 50 44 51 101 52 95 53
REMARK SMILES IDX 97 54 45 55 100 56 94 57 93 58 46 60 80 61 59 62 79 63 60 64
REMARK SMILES IDX 63 65 78 66 98 67 61 68 62 69 77 71 99 72 64 73 47 74 48 75
REMARK SMILES IDX 57 76 49 77 50 78 56 79 58 80 51 81 52 82 53 83 54 84 55 85
REMARK SMILES IDX 81 86 82 87 91 88 83 89 84 90 90 91 92 92 85 93 86 94 87 95
REMARK SMILES IDX 88 96 89 97 65 98 66 99 75 100 67 101 68 102 74 103 76 104
REMARK SMILES IDX 69 105 70 106 71 107 72 108 73 109
REMARK H PARENT 25 14 11 20 97 59 63 70
REMARK Flexibility Score: inf
ROOT
ATOM      1  C   UNL A   1      34.640  32.434  29.061  1.00  0.00     0.275 C 
ENDROOT
BRANCH   1   2
ATOM      2  O   UNL A   1      34.290  31.167  28.475  1.00  0.00    -0.458 OA
BRANCH   2   3
ATOM      3  C   UNL A   1      33.223  31.141  27.641  1.00  0.00     0.338 C 
ATOM      4  O   UNL A   1      32.514  32.076  27.320  1.00  0.00    -0.246 OA
BRANCH   3   5
ATOM      5  C   UNL A   1      33.085  29.778  27.092  1.00  0.00     0.060 A 
ATOM      6  C   UNL A   1      32.544  26.404  25.599  1.00  0.00     0.041 A 
ATOM      7  C   UNL A   1      31.285  27.277  26.481  1.00  0.00     0.027 A 
ATOM      8  C   UNL A   1      34.133  27.211  25.343  1.00  0.00     0.027 A 
ATOM      9  C   UNL A   1      31.551  28.903  27.175  1.00  0.00     0.018 A 
ATOM     10  C   UNL A   1      34.444  29.018  26.210  1.00  0.00     0.018 A 
BRANCH   6  11
ATOM     11  N   UNL A   1      32.651  25.004  25.787  1.00  0.00    -0.321 N 
ATOM     12  C   UNL A   1      32.141  24.261  24.742  1.00  0.00     0.272 C 
ATOM     13  O   UNL A   1      30.935  24.016  24.778  1.00  0.00    -0.267 OA
ATOM     14  H   UNL A   1      33.054  24.598  26.589  1.00  0.00     0.170 HD
BRANCH  12  15
ATOM     15  C   UNL A   1      33.018  24.025  23.480  1.00  0.00     0.108 C 
ATOM     16  C   UNL A   1      34.265  23.455  23.518  1.00  0.00     0.040 C 
BRANCH  15  17
ATOM     17  N   UNL A   1      32.552  24.407  22.215  1.00  0.00    -0.317 N 
ATOM     18  C   UNL A   1      32.059  25.568  21.626  1.00  0.00     0.259 C 
ATOM     19  O   UNL A   1      31.536  25.481  20.513  1.00  0.00    -0.269 OA
ATOM     20  H   UNL A   1      32.580  23.659  21.577  1.00  0.00     0.170 HD
BRANCH  18  21
ATOM     21  C   UNL A   1      32.169  26.910  22.242  1.00  0.00     0.082 A 
ATOM     22  C   UNL A   1      31.050  27.500  22.819  1.00  0.00     0.131 A 
ATOM     23  C   UNL A   1      31.026  28.890  22.924  1.00  0.00     0.047 A 
ATOM     24  C   UNL A   1      32.213  29.618  22.738  1.00  0.00     0.004 A 
ATOM     25  C   UNL A   1      33.397  27.579  22.277  1.00  0.00     0.018 A 
ATOM     26  C   UNL A   1      33.420  28.942  22.558  1.00  0.00     0.001 A 
BRANCH  22  27
ATOM     27  O   UNL A   1      30.134  26.593  23.258  1.00  0.00    -0.496 OA
ATOM     28  C   UNL A   1      28.814  26.919  23.634  1.00  0.00     0.278 C 
ENDBRANCH  22  27
ENDBRANCH  18  21
ENDBRANCH  15  17
BRANCH  16  29
ATOM     29  C   UNL A   1      34.940  22.843  24.707  1.00  0.00    -0.019 A 
ATOM     30  C   UNL A   1      35.724  21.249  24.604  1.00  0.00     0.012 A 
ATOM     31  C   UNL A   1      35.786  24.126  25.628  1.00  0.00     0.058 A 
ATOM     32  C   UNL A   1      37.347  20.890  25.281  1.00  0.00     0.051 A 
ATOM     33  C   UNL A   1      37.650  23.733  26.321  1.00  0.00     0.166 A 
ATOM     34  C   UNL A   1      38.301  22.100  26.102  1.00  0.00     0.165 A 
ATOM     35  O   UNL A   1      38.817  24.458  26.567  1.00  0.00    -0.454 OA
ATOM     36  O   UNL A   1      39.653  22.131  26.238  1.00  0.00    -0.454 OA
ATOM     37  C   UNL A   1      39.893  23.559  26.129  1.00  0.00     0.468 C 
ENDBRANCH  16  29
ENDBRANCH  12  15
ENDBRANCH   6  11
ENDBRANCH   3   5
ENDBRANCH   2   3
ENDBRANCH   1   2
BRANCH   1  38
ATOM     38  C   UNL A   1      35.089  32.264  30.515  1.00  0.00     0.275 C 
BRANCH  38  39
ATOM     39  O   UNL A   1      36.487  31.927  30.596  1.00  0.00    -0.458 OA
BRANCH  39  40
ATOM     40  C   UNL A   1      36.737  30.699  31.111  1.00  0.00     0.338 C 
ATOM     41  O   UNL A   1      36.096  30.125  31.976  1.00  0.00    -0.246 OA
BRANCH  40  42
ATOM     42  C   UNL A   1      37.818  30.035  30.367  1.00  0.00     0.060 A 
ATOM     43  C   UNL A   1      38.703  29.291  31.120  1.00  0.00     0.016 A 
ATOM     44  C   UNL A   1      38.117  30.294  29.035  1.00  0.00     0.016 A 
ATOM     45  C   UNL A   1      39.938  28.925  30.613  1.00  0.00     0.010 A 
ATOM     46  C   UNL A   1      39.334  29.824  28.489  1.00  0.00     0.010 A 
ATOM     47  C   UNL A   1      40.295  29.180  29.291  1.00  0.00    -0.014 A 
BRANCH  47  48
ATOM     48  C   UNL A   1      41.688  28.835  28.850  1.00  0.00     0.031 A 
ATOM     49  C   UNL A   1      42.801  29.855  28.939  1.00  0.00     0.074 A 
ATOM     50  C   UNL A   1      41.998  27.570  28.479  1.00  0.00     0.049 A 
ATOM     51  N   UNL A   1      44.033  29.776  28.500  1.00  0.00    -0.248 NA
ATOM     52  C   UNL A   1      42.494  31.133  29.602  1.00  0.00     0.031 C 
ATOM     53  C   UNL A   1      41.059  26.443  28.430  1.00  0.00     0.029 A 
ATOM     54  N   UNL A   1      43.193  27.001  28.101  1.00  0.00    -0.354 N 
ATOM     55  C   UNL A   1      44.621  31.009  28.767  1.00  0.00     0.074 A 
ATOM     56  C   UNL A   1      43.609  31.822  29.404  1.00  0.00     0.031 C 
ATOM     57  C   UNL A   1      41.721  25.318  28.130  1.00  0.00     0.029 A 
ATOM     58  C   UNL A   1      43.096  25.659  27.802  1.00  0.00     0.049 A 
ATOM     59  H   UNL A   1      44.037  27.505  28.050  1.00  0.00     0.167 HD
ATOM     60  C   UNL A   1      45.884  31.424  28.501  1.00  0.00     0.037 A 
ATOM     61  C   UNL A   1      43.980  24.801  27.254  1.00  0.00     0.037 A 
ATOM     62  C   UNL A   1      46.900  30.589  27.905  1.00  0.00     0.049 A 
ATOM     63  C   UNL A   1      45.341  25.310  26.883  1.00  0.00     0.074 A 
ATOM     64  C   UNL A   1      48.207  30.919  27.588  1.00  0.00     0.029 A 
ATOM     65  N   UNL A   1      46.728  29.261  27.539  1.00  0.00    -0.354 N 
ATOM     66  N   UNL A   1      45.855  26.502  27.072  1.00  0.00    -0.248 NA
ATOM     67  C   UNL A   1      46.238  24.364  26.208  1.00  0.00     0.031 C 
ATOM     68  C   UNL A   1      48.800  29.817  26.964  1.00  0.00     0.029 A 
ATOM     69  C   UNL A   1      47.894  28.769  26.972  1.00  0.00     0.049 A 
ATOM     70  H   UNL A   1      45.900  28.744  27.664  1.00  0.00     0.167 HD
ATOM     71  C   UNL A   1      47.146  26.441  26.563  1.00  0.00     0.074 A 
ATOM     72  C   UNL A   1      47.341  25.088  26.082  1.00  0.00     0.031 C 
ATOM     73  C   UNL A   1      48.084  27.420  26.498  1.00  0.00     0.037 A 
BRANCH  60  74
ATOM     74  C   UNL A   1      46.232  32.865  28.789  1.00  0.00     0.058 A 
ATOM     75  C   UNL A   1      45.990  33.901  27.872  1.00  0.00     0.135 A 
ATOM     76  C   UNL A   1      46.789  33.216  30.031  1.00  0.00     0.135 A 
ATOM     77  F   UNL A   1      45.474  33.629  26.663  1.00  0.00    -0.206 F 
ATOM     78  C   UNL A   1      46.316  35.224  28.164  1.00  0.00     0.059 A 
ATOM     79  C   UNL A   1      47.087  34.536  30.360  1.00  0.00     0.059 A 
ATOM     80  F   UNL A   1      47.043  32.271  30.949  1.00  0.00    -0.206 F 
ATOM     81  C   UNL A   1      46.860  35.531  29.413  1.00  0.00     0.060 A 
BRANCH  81  82
ATOM     82  S   UNL A   1      47.268  37.252  29.778  1.00  0.00     0.124 S 
ATOM     83  O   UNL A   1      46.005  37.743  30.323  1.00  0.00    -0.237 OA
ATOM     84  O   UNL A   1      48.360  37.114  30.737  1.00  0.00    -0.237 OA
ATOM     85  O   UNL A   1      47.644  37.799  28.478  1.00  0.00    -0.744 OA
ENDBRANCH  81  82
ENDBRANCH  60  74
BRANCH  61  86
ATOM     86  C   UNL A   1      43.573  23.398  26.948  1.00  0.00     0.058 A 
ATOM     87  C   UNL A   1      43.358  22.971  25.630  1.00  0.00     0.135 A 
ATOM     88  C   UNL A   1      43.388  22.455  27.974  1.00  0.00     0.135 A 
ATOM     89  F   UNL A   1      43.505  23.832  24.612  1.00  0.00    -0.206 F 
ATOM     90  C   UNL A   1      42.962  21.667  25.340  1.00  0.00     0.059 A 
ATOM     91  C   UNL A   1      43.037  21.136  27.707  1.00  0.00     0.059 A 
ATOM     92  F   UNL A   1      43.583  22.804  29.255  1.00  0.00    -0.206 F 
ATOM     93  C   UNL A   1      42.814  20.755  26.386  1.00  0.00     0.060 A 
BRANCH  93  94
ATOM     94  S   UNL A   1      42.352  19.055  25.994  1.00  0.00     0.124 S 
ATOM     95  O   UNL A   1      40.914  19.180  25.790  1.00  0.00    -0.237 OA
ATOM     96  O   UNL A   1      43.148  18.793  24.799  1.00  0.00    -0.237 OA
ATOM     97  O   UNL A   1      42.758  18.313  27.184  1.00  0.00    -0.744 OA
ENDBRANCH  93  94
ENDBRANCH  61  86
BRANCH  73  98
ATOM     98  C   UNL A   1      49.431  27.043  25.940  1.00  0.00     0.058 A 
ATOM     99  C   UNL A   1      49.745  27.190  24.578  1.00  0.00     0.135 A 
ATOM    100  C   UNL A   1      50.429  26.535  26.788  1.00  0.00     0.135 A 
ATOM    101  F   UNL A   1      48.829  27.663  23.719  1.00  0.00    -0.206 F 
ATOM    102  C   UNL A   1      50.981  26.801  24.072  1.00  0.00     0.059 A 
ATOM    103  C   UNL A   1      51.686  26.182  26.313  1.00  0.00     0.059 A 
ATOM    104  F   UNL A   1      50.188  26.383  28.101  1.00  0.00    -0.206 F 
ATOM    105  C   UNL A   1      51.946  26.299  24.949  1.00  0.00     0.060 A 
BRANCH 105 106
ATOM    106  S   UNL A   1      53.547  25.807  24.279  1.00  0.00     0.124 S 
ATOM    107  O   UNL A   1      54.440  26.774  24.908  1.00  0.00    -0.237 OA
ATOM    108  O   UNL A   1      53.670  24.430  24.747  1.00  0.00    -0.237 OA
ATOM    109  O   UNL A   1      53.374  25.959  22.836  1.00  0.00    -0.744 OA
ENDBRANCH 105 106
ENDBRANCH  73  98
ENDBRANCH  47  48
ENDBRANCH  40  42
ENDBRANCH  39  40
ENDBRANCH  38  39
ENDBRANCH   1  38
TORSDOF 20
ENDMDL
MODEL 2
REMARK VINA RESULT:     -11.5      1.076      7.895
REMARK SMILES COc1ccccc1C(=O)N/C(=C/c1ccc2c(c1)OCO2)C(=O)Nc1ccc(C(=O)OCCOC(=O)c2ccc(-c3c4nc(c(-c5c(F)cc(S(=O)(=O)[O-])cc5F)c5ccc([nH]5)c(-c5c(F)cc(S(=O)(=O)[O-])cc5F)c5nc(c(-c6c(F)cc(S(=O)(=O)[O-])cc6F)c6ccc3[nH]6)C=C5)C=C4)cc2)cc1
REMARK SMILES IDX 33 1 32 2 30 3 31 4 29 5 26 6 27 7 105 8 28 9 104 10 25 11
REMARK SMILES IDX 23 12 24 13 12 15 13 16 11 17 9 18 10 19 8 21 3 22 4 23 5 24
REMARK SMILES IDX 7 25 6 26 2 27 1 28 14 29 15 30 19 31 16 32 18 33 17 34
REMARK SMILES IDX 20 35 22 36 21 37 34 38 35 39 36 40 37 41 38 42 39 43 103 44
REMARK SMILES IDX 40 45 102 46 41 47 42 48 43 49 96 50 44 51 101 52 95 53
REMARK SMILES IDX 97 54 45 55 100 56 94 57 93 58 46 60 80 61 59 62 79 63 60 64
REMARK SMILES IDX 63 65 78 66 98 67 61 68 62 69 77 71 99 72 64 73 47 74 48 75
REMARK SMILES IDX 57 76 49 77 50 78 56 79 58 80 51 81 52 82 53 83 54 84 55 85
REMARK SMILES IDX 81 86 82 87 91 88 83 89 84 90 90 91 92 92 85 93 86 94 87 95
REMARK SMILES IDX 88 96 89 97 65 98 66 99 75 100 67 101 68 102 74 103 76 104
REMARK SMILES IDX 69 105 70 106 71 107 72 108 73 109
REMARK H PARENT 25 14 11 20 97 59 63 70
REMARK Flexibility Score: inf
ROOT
ATOM      1  C   UNL A   1      34.790  32.549  29.625  1.00  0.00     0.275 C 
ENDROOT
BRANCH   1   2
ATOM      2  O   UNL A   1      34.621  31.349  28.848  1.00  0.00    -0.458 OA
BRANCH   2   3
ATOM      3  C   UNL A   1      33.783  31.409  27.786  1.00  0.00     0.338 C 
ATOM      4  O   UNL A   1      33.421  32.404  27.185  1.00  0.00    -0.246 OA
BRANCH   3   5
ATOM      5  C   UNL A   1      33.419  30.034  27.392  1.00  0.00     0.060 A 
ATOM      6  C   UNL A   1      32.316  26.646  26.291  1.00  0.00     0.041 A 
ATOM      7  C   UNL A   1      31.241  27.787  27.107  1.00  0.00     0.027 A 
ATOM      8  C   UNL A   1      33.995  27.170  25.905  1.00  0.00     0.027 A 
ATOM      9  C   UNL A   1      31.777  29.417  27.612  1.00  0.00     0.018 A 
ATOM     10  C   UNL A   1      34.610  28.988  26.561  1.00  0.00     0.018 A 
BRANCH   6  11
ATOM     11  N   UNL A   1      32.222  25.273  26.628  1.00  0.00    -0.321 N 
ATOM     12  C   UNL A   1      31.076  24.663  26.160  1.00  0.00     0.272 C 
ATOM     13  O   UNL A   1      30.077  24.746  26.876  1.00  0.00    -0.267 OA
ATOM     14  H   UNL A   1      32.911  24.798  27.146  1.00  0.00     0.170 HD
BRANCH  12  15
ATOM     15  C   UNL A   1      31.027  24.169  24.687  1.00  0.00     0.108 C 
ATOM     16  C   UNL A   1      31.681  23.049  24.240  1.00  0.00     0.040 C 
BRANCH  15  17
ATOM     17  N   UNL A   1      30.292  24.878  23.728  1.00  0.00    -0.317 N 
ATOM     18  C   UNL A   1      30.440  26.064  23.015  1.00  0.00     0.259 C 
ATOM     19  O   UNL A   1      29.468  26.494  22.389  1.00  0.00    -0.269 OA
ATOM     20  H   UNL A   1      29.452  24.419  23.501  1.00  0.00     0.170 HD
BRANCH  18  21
ATOM     21  C   UNL A   1      31.712  26.816  22.927  1.00  0.00     0.082 A 
ATOM     22  C   UNL A   1      31.719  28.191  23.131  1.00  0.00     0.131 A 
ATOM     23  C   UNL A   1      32.760  28.929  22.567  1.00  0.00     0.047 A 
ATOM     24  C   UNL A   1      33.900  28.262  22.088  1.00  0.00     0.004 A 
ATOM     25  C   UNL A   1      32.916  26.149  22.672  1.00  0.00     0.018 A 
ATOM     26  C   UNL A   1      34.029  26.887  22.277  1.00  0.00     0.001 A 
BRANCH  22  27
ATOM     27  O   UNL A   1      30.698  28.619  23.923  1.00  0.00    -0.496 OA
ATOM     28  C   UNL A   1      29.899  29.748  23.644  1.00  0.00     0.278 C 
ENDBRANCH  22  27
ENDBRANCH  18  21
ENDBRANCH  15  17
BRANCH  16  29
ATOM     29  C   UNL A   1      32.421  22.045  25.070  1.00  0.00    -0.019 A 
ATOM     30  C   UNL A   1      32.482  20.329  24.606  1.00  0.00     0.012 A 
ATOM     31  C   UNL A   1      33.927  22.792  25.691  1.00  0.00     0.058 A 
ATOM     32  C   UNL A   1      33.981  19.342  24.631  1.00  0.00     0.051 A 
ATOM     33  C   UNL A   1      35.629  21.692  25.641  1.00  0.00     0.166 A 
ATOM     34  C   UNL A   1      35.523  20.003  25.115  1.00  0.00     0.165 A 
ATOM     35  O   UNL A   1      36.994  21.936  25.488  1.00  0.00    -0.454 OA
ATOM     36  O   UNL A   1      36.757  19.564  24.756  1.00  0.00    -0.454 OA
ATOM     37  C   UNL A   1      37.461  20.829  24.644  1.00  0.00     0.468 C 
ENDBRANCH  16  29
ENDBRANCH  12  15
ENDBRANCH   6  11
ENDBRANCH   3   5
ENDBRANCH   2   3
ENDBRANCH   1   2
BRANCH   1  38
ATOM     38  C   UNL A   1      35.222  32.222  31.057  1.00  0.00     0.275 C 
BRANCH  38  39
ATOM     39  O   UNL A   1      36.624  31.901  31.121  1.00  0.00    -0.458 OA
BRANCH  39  40
ATOM     40  C   UNL A   1      36.892  30.655  31.579  1.00  0.00     0.338 C 
ATOM     41  O   UNL A   1      36.295  30.055  32.458  1.00  0.00    -0.246 OA
BRANCH  40  42
ATOM     42  C   UNL A   1      37.926  30.010  30.756  1.00  0.00     0.060 A 
ATOM     43  C   UNL A   1      38.928  29.357  31.443  1.00  0.00     0.016 A 
ATOM     44  C   UNL A   1      38.066  30.211  29.387  1.00  0.00     0.016 A 
ATOM     45  C   UNL A   1      40.122  29.031  30.823  1.00  0.00     0.010 A 
ATOM     46  C   UNL A   1      39.243  29.778  28.736  1.00  0.00     0.010 A 
ATOM     47  C   UNL A   1      40.320  29.231  29.459  1.00  0.00    -0.014 A 
BRANCH  47  48
ATOM     48  C   UNL A   1      41.676  28.938  28.885  1.00  0.00     0.031 A 
ATOM     49  C   UNL A   1      42.001  27.570  28.329  1.00  0.00     0.074 A 
ATOM     50  C   UNL A   1      42.592  29.926  28.747  1.00  0.00     0.049 A 
ATOM     51  N   UNL A   1      43.148  27.100  27.902  1.00  0.00    -0.248 NA
ATOM     52  C   UNL A   1      40.898  26.598  28.244  1.00  0.00     0.031 C 
ATOM     53  C   UNL A   1      42.402  31.326  29.145  1.00  0.00     0.029 A 
ATOM     54  N   UNL A   1      43.857  29.924  28.203  1.00  0.00    -0.354 N 
ATOM     55  C   UNL A   1      42.921  25.769  27.567  1.00  0.00     0.074 A 
ATOM     56  C   UNL A   1      41.528  25.501  27.845  1.00  0.00     0.031 C 
ATOM     57  C   UNL A   1      43.461  32.052  28.763  1.00  0.00     0.029 A 
ATOM     58  C   UNL A   1      44.478  31.153  28.242  1.00  0.00     0.049 A 
ATOM     59  H   UNL A   1      44.278  29.120  27.822  1.00  0.00     0.167 HD
ATOM     60  C   UNL A   1      43.797  24.854  27.080  1.00  0.00     0.037 A 
ATOM     61  C   UNL A   1      45.745  31.522  27.966  1.00  0.00     0.037 A 
ATOM     62  C   UNL A   1      45.175  25.144  26.765  1.00  0.00     0.049 A 
ATOM     63  C   UNL A   1      46.719  30.472  27.517  1.00  0.00     0.074 A 
ATOM     64  C   UNL A   1      46.144  24.284  26.274  1.00  0.00     0.029 A 
ATOM     65  N   UNL A   1      45.783  26.385  26.904  1.00  0.00    -0.354 N 
ATOM     66  N   UNL A   1      46.506  29.200  27.281  1.00  0.00    -0.248 NA
ATOM     67  C   UNL A   1      48.107  30.903  27.315  1.00  0.00     0.031 C 
ATOM     68  C   UNL A   1      47.351  24.984  26.189  1.00  0.00     0.029 A 
ATOM     69  C   UNL A   1      47.118  26.304  26.539  1.00  0.00     0.049 A 
ATOM     70  H   UNL A   1      45.331  27.201  27.216  1.00  0.00     0.167 HD
ATOM     71  C   UNL A   1      47.731  28.683  26.875  1.00  0.00     0.074 A 
ATOM     72  C   UNL A   1      48.670  29.786  26.875  1.00  0.00     0.031 C 
ATOM     73  C   UNL A   1      48.047  27.408  26.536  1.00  0.00     0.037 A 
BRANCH  60  74
ATOM     74  C   UNL A   1      43.317  23.432  26.916  1.00  0.00     0.058 A 
ATOM     75  C   UNL A   1      43.105  22.572  28.006  1.00  0.00     0.135 A 
ATOM     76  C   UNL A   1      43.029  22.934  25.632  1.00  0.00     0.135 A 
ATOM     77  F   UNL A   1      43.376  22.982  29.255  1.00  0.00    -0.206 F 
ATOM     78  C   UNL A   1      42.657  21.265  27.827  1.00  0.00     0.059 A 
ATOM     79  C   UNL A   1      42.544  21.645  25.433  1.00  0.00     0.059 A 
ATOM     80  F   UNL A   1      43.211  23.708  24.551  1.00  0.00    -0.206 F 
ATOM     81  C   UNL A   1      42.375  20.812  26.536  1.00  0.00     0.060 A 
BRANCH  81  82
ATOM     82  S   UNL A   1      41.787  19.118  26.323  1.00  0.00     0.124 S 
ATOM     83  O   UNL A   1      42.763  18.586  25.377  1.00  0.00    -0.237 OA
ATOM     84  O   UNL A   1      41.869  18.590  27.681  1.00  0.00    -0.237 OA
ATOM     85  O   UNL A   1      40.435  19.287  25.799  1.00  0.00    -0.744 OA
ENDBRANCH  81  82
ENDBRANCH  60  74
BRANCH  61  86
ATOM     86  C   UNL A   1      46.182  32.932  28.188  1.00  0.00     0.058 A 
ATOM     87  C   UNL A   1      46.685  33.355  29.427  1.00  0.00     0.135 A 
ATOM     88  C   UNL A   1      46.101  33.888  27.161  1.00  0.00     0.135 A 
ATOM     89  F   UNL A   1      46.770  32.489  30.448  1.00  0.00    -0.206 F 
ATOM     90  C   UNL A   1      47.079  34.673  29.643  1.00  0.00     0.059 A 
ATOM     91  C   UNL A   1      46.530  35.199  27.339  1.00  0.00     0.059 A 
ATOM     92  F   UNL A   1      45.632  33.541  25.952  1.00  0.00    -0.206 F 
ATOM     93  C   UNL A   1      47.005  35.585  28.589  1.00  0.00     0.060 A 
BRANCH  93  94
ATOM     94  S   UNL A   1      47.568  37.278  28.868  1.00  0.00     0.124 S 
ATOM     95  O   UNL A   1      48.998  37.157  28.617  1.00  0.00    -0.237 OA
ATOM     96  O   UNL A   1      46.803  38.019  27.870  1.00  0.00    -0.237 OA
ATOM     97  O   UNL A   1      47.189  37.534  30.254  1.00  0.00    -0.744 OA
ENDBRANCH  93  94
ENDBRANCH  61  86
BRANCH  73  98
ATOM     98  C   UNL A   1      49.458  27.150  26.075  1.00  0.00     0.058 A 
ATOM     99  C   UNL A   1      50.497  26.854  26.973  1.00  0.00     0.135 A 
ATOM    100  C   UNL A   1      49.771  27.192  24.707  1.00  0.00     0.135 A 
ATOM    101  F   UNL A   1      50.258  26.808  28.294  1.00  0.00    -0.206 F 
ATOM    102  C   UNL A   1      51.802  26.657  26.534  1.00  0.00     0.059 A 
ATOM    103  C   UNL A   1      51.059  26.954  24.242  1.00  0.00     0.059 A 
ATOM    104  F   UNL A   1      48.815  27.460  23.801  1.00  0.00    -0.206 F 
ATOM    105  C   UNL A   1      52.073  26.708  25.165  1.00  0.00     0.060 A 
BRANCH 105 106
ATOM    106  S   UNL A   1      53.768  26.442  24.611  1.00  0.00     0.124 S 
ATOM    107  O   UNL A   1      53.816  27.261  23.404  1.00  0.00    -0.237 OA
ATOM    108  O   UNL A   1      54.546  26.935  25.743  1.00  0.00    -0.237 OA
ATOM    109  O   UNL A   1      53.833  24.999  24.393  1.00  0.00    -0.744 OA
ENDBRANCH 105 106
ENDBRANCH  73  98
ENDBRANCH  47  48
ENDBRANCH  40  42
ENDBRANCH  39  40
ENDBRANCH  38  39
ENDBRANCH   1  38
TORSDOF 20
ENDMDL
MODEL 3
REMARK VINA RESULT:     -11.3      1.347      2.145
REMARK SMILES COc1ccccc1C(=O)N/C(=C/c1ccc2c(c1)OCO2)C(=O)Nc1ccc(C(=O)OCCOC(=O)c2ccc(-c3c4nc(c(-c5c(F)cc(S(=O)(=O)[O-])cc5F)c5ccc([nH]5)c(-c5c(F)cc(S(=O)(=O)[O-])cc5F)c5nc(c(-c6c(F)cc(S(=O)(=O)[O-])cc6F)c6ccc3[nH]6)C=C5)C=C4)cc2)cc1
REMARK SMILES IDX 33 1 32 2 30 3 31 4 29 5 26 6 27 7 105 8 28 9 104 10 25 11
REMARK SMILES IDX 23 12 24 13 12 15 13 16 11 17 9 18 10 19 8 21 3 22 4 23 5 24
REMARK SMILES IDX 7 25 6 26 2 27 1 28 14 29 15 30 19 31 16 32 18 33 17 34
REMARK SMILES IDX 20 35 22 36 21 37 34 38 35 39 36 40 37 41 38 42 39 43 103 44
REMARK SMILES IDX 40 45 102 46 41 47 42 48 43 49 96 50 44 51 101 52 95 53
REMARK SMILES IDX 97 54 45 55 100 56 94 57 93 58 46 60 80 61 59 62 79 63 60 64
REMARK SMILES IDX 63 65 78 66 98 67 61 68 62 69 77 71 99 72 64 73 47 74 48 75
REMARK SMILES IDX 57 76 49 77 50 78 56 79 58 80 51 81 52 82 53 83 54 84 55 85
REMARK SMILES IDX 81 86 82 87 91 88 83 89 84 90 90 91 92 92 85 93 86 94 87 95
REMARK SMILES IDX 88 96 89 97 65 98 66 99 75 100 67 101 68 102 74 103 76 104
REMARK SMILES IDX 69 105 70 106 71 107 72 108 73 109
REMARK H PARENT 25 14 11 20 97 59 63 70
REMARK Flexibility Score: inf
ROOT
ATOM      1  C   UNL A   1      34.642  33.253  30.025  1.00  0.00     0.275 C 
ENDROOT
BRANCH   1   2
ATOM      2  O   UNL A   1      33.883  32.256  29.317  1.00  0.00    -0.458 OA
BRANCH   2   3
ATOM      3  C   UNL A   1      34.105  32.134  27.987  1.00  0.00     0.338 C 
ATOM      4  O   UNL A   1      34.606  32.957  27.243  1.00  0.00    -0.246 OA
BRANCH   3   5
ATOM      5  C   UNL A   1      33.713  30.776  27.563  1.00  0.00     0.060 A 
ATOM      6  C   UNL A   1      32.598  27.440  26.326  1.00  0.00     0.041 A 
ATOM      7  C   UNL A   1      31.477  28.766  26.651  1.00  0.00     0.027 A 
ATOM      8  C   UNL A   1      34.363  27.735  26.526  1.00  0.00     0.027 A 
ATOM      9  C   UNL A   1      32.026  30.368  27.225  1.00  0.00     0.018 A 
ATOM     10  C   UNL A   1      34.960  29.529  27.260  1.00  0.00     0.018 A 
BRANCH   6  11
ATOM     11  N   UNL A   1      32.207  26.125  26.679  1.00  0.00    -0.321 N 
ATOM     12  C   UNL A   1      31.003  25.735  26.131  1.00  0.00     0.272 C 
ATOM     13  O   UNL A   1      29.988  26.038  26.759  1.00  0.00    -0.267 OA
ATOM     14  H   UNL A   1      32.746  25.542  27.262  1.00  0.00     0.170 HD
BRANCH  12  15
ATOM     15  C   UNL A   1      30.971  25.209  24.668  1.00  0.00     0.108 C 
ATOM     16  C   UNL A   1      31.595  24.057  24.262  1.00  0.00     0.040 C 
BRANCH  15  17
ATOM     17  N   UNL A   1      30.285  25.921  23.676  1.00  0.00    -0.317 N 
ATOM     18  C   UNL A   1      30.551  26.999  22.837  1.00  0.00     0.259 C 
ATOM     19  O   UNL A   1      29.612  27.502  22.216  1.00  0.00    -0.269 OA
ATOM     20  H   UNL A   1      29.377  25.568  23.537  1.00  0.00     0.170 HD
BRANCH  18  21
ATOM     21  C   UNL A   1      31.908  27.547  22.611  1.00  0.00     0.082 A 
ATOM     22  C   UNL A   1      32.903  26.735  22.079  1.00  0.00     0.131 A 
ATOM     23  C   UNL A   1      34.231  27.074  22.339  1.00  0.00     0.047 A 
ATOM     24  C   UNL A   1      34.531  28.348  22.849  1.00  0.00     0.004 A 
ATOM     25  C   UNL A   1      32.191  28.887  22.899  1.00  0.00     0.018 A 
ATOM     26  C   UNL A   1      33.519  29.296  22.988  1.00  0.00     0.001 A 
BRANCH  22  27
ATOM     27  O   UNL A   1      32.413  25.722  21.313  1.00  0.00    -0.496 OA
ATOM     28  C   UNL A   1      32.562  25.646  19.912  1.00  0.00     0.278 C 
ENDBRANCH  22  27
ENDBRANCH  18  21
ENDBRANCH  15  17
BRANCH  16  29
ATOM     29  C   UNL A   1      32.279  23.048  25.133  1.00  0.00    -0.019 A 
ATOM     30  C   UNL A   1      32.163  21.305  24.792  1.00  0.00     0.012 A 
ATOM     31  C   UNL A   1      33.874  23.691  25.637  1.00  0.00     0.058 A 
ATOM     32  C   UNL A   1      33.566  20.186  24.828  1.00  0.00     0.051 A 
ATOM     33  C   UNL A   1      35.465  22.435  25.599  1.00  0.00     0.166 A 
ATOM     34  C   UNL A   1      35.182  20.732  25.202  1.00  0.00     0.165 A 
ATOM     35  O   UNL A   1      36.838  22.540  25.374  1.00  0.00    -0.454 OA
ATOM     36  O   UNL A   1      36.354  20.155  24.826  1.00  0.00    -0.454 OA
ATOM     37  C   UNL A   1      37.163  21.339  24.595  1.00  0.00     0.468 C 
ENDBRANCH  16  29
ENDBRANCH  12  15
ENDBRANCH   6  11
ENDBRANCH   3   5
ENDBRANCH   2   3
ENDBRANCH   1   2
BRANCH   1  38
ATOM     38  C   UNL A   1      35.788  32.616  30.817  1.00  0.00     0.275 C 
BRANCH  38  39
ATOM     39  O   UNL A   1      36.351  31.493  30.112  1.00  0.00    -0.458 OA
BRANCH  39  40
ATOM     40  C   UNL A   1      36.830  30.512  30.914  1.00  0.00     0.338 C 
ATOM     41  O   UNL A   1      36.175  29.703  31.551  1.00  0.00    -0.246 OA
BRANCH  40  42
ATOM     42  C   UNL A   1      38.294  30.420  30.803  1.00  0.00     0.060 A 
ATOM     43  C   UNL A   1      38.823  30.669  29.554  1.00  0.00     0.016 A 
ATOM     44  C   UNL A   1      39.116  29.893  31.793  1.00  0.00     0.016 A 
ATOM     45  C   UNL A   1      40.110  30.270  29.233  1.00  0.00     0.010 A 
ATOM     46  C   UNL A   1      40.462  29.588  31.491  1.00  0.00     0.010 A 
ATOM     47  C   UNL A   1      40.966  29.717  30.183  1.00  0.00    -0.014 A 
BRANCH  47  48
ATOM     48  C   UNL A   1      42.310  29.226  29.729  1.00  0.00     0.031 A 
ATOM     49  C   UNL A   1      43.543  30.087  29.890  1.00  0.00     0.074 A 
ATOM     50  C   UNL A   1      42.462  27.957  29.279  1.00  0.00     0.049 A 
ATOM     51  N   UNL A   1      44.761  29.879  29.455  1.00  0.00    -0.248 NA
ATOM     52  C   UNL A   1      43.391  31.350  30.632  1.00  0.00     0.031 C 
ATOM     53  C   UNL A   1      41.389  26.964  29.153  1.00  0.00     0.029 A 
ATOM     54  N   UNL A   1      43.581  27.265  28.873  1.00  0.00    -0.354 N 
ATOM     55  C   UNL A   1      45.497  31.007  29.805  1.00  0.00     0.074 A 
ATOM     56  C   UNL A   1      44.587  31.902  30.486  1.00  0.00     0.031 C 
ATOM     57  C   UNL A   1      41.907  25.785  28.785  1.00  0.00     0.029 A 
ATOM     58  C   UNL A   1      43.318  25.968  28.488  1.00  0.00     0.049 A 
ATOM     59  H   UNL A   1      44.483  27.659  28.860  1.00  0.00     0.167 HD
ATOM     60  C   UNL A   1      46.806  31.274  29.574  1.00  0.00     0.037 A 
ATOM     61  C   UNL A   1      44.094  25.040  27.892  1.00  0.00     0.037 A 
ATOM     62  C   UNL A   1      47.716  30.355  28.931  1.00  0.00     0.049 A 
ATOM     63  C   UNL A   1      45.514  25.394  27.562  1.00  0.00     0.074 A 
ATOM     64  C   UNL A   1      49.059  30.535  28.644  1.00  0.00     0.029 A 
ATOM     65  N   UNL A   1      47.382  29.085  28.479  1.00  0.00    -0.354 N 
ATOM     66  N   UNL A   1      46.173  26.496  27.831  1.00  0.00    -0.248 NA
ATOM     67  C   UNL A   1      46.293  24.385  26.833  1.00  0.00     0.031 C 
ATOM     68  C   UNL A   1      49.516  29.408  27.954  1.00  0.00     0.029 A 
ATOM     69  C   UNL A   1      48.484  28.486  27.889  1.00  0.00     0.049 A 
ATOM     70  H   UNL A   1      46.493  28.672  28.566  1.00  0.00     0.167 HD
ATOM     71  C   UNL A   1      47.452  26.303  27.327  1.00  0.00     0.074 A 
ATOM     72  C   UNL A   1      47.481  24.969  26.761  1.00  0.00     0.031 C 
ATOM     73  C   UNL A   1      48.508  27.156  27.331  1.00  0.00     0.037 A 
BRANCH  60  74
ATOM     74  C   UNL A   1      47.330  32.638  29.955  1.00  0.00     0.058 A 
ATOM     75  C   UNL A   1      47.189  33.764  29.128  1.00  0.00     0.135 A 
ATOM     76  C   UNL A   1      47.957  32.823  31.200  1.00  0.00     0.135 A 
ATOM     77  F   UNL A   1      46.613  33.649  27.920  1.00  0.00    -0.206 F 
ATOM     78  C   UNL A   1      47.677  35.012  29.506  1.00  0.00     0.059 A 
ATOM     79  C   UNL A   1      48.418  34.070  31.615  1.00  0.00     0.059 A 
ATOM     80  F   UNL A   1      48.122  31.786  32.036  1.00  0.00    -0.206 F 
ATOM     81  C   UNL A   1      48.286  35.156  30.754  1.00  0.00     0.060 A 
BRANCH  81  82
ATOM     82  S   UNL A   1      48.906  36.784  31.232  1.00  0.00     0.124 S 
ATOM     83  O   UNL A   1      49.869  37.054  30.169  1.00  0.00    -0.237 OA
ATOM     84  O   UNL A   1      47.693  37.595  31.208  1.00  0.00    -0.237 OA
ATOM     85  O   UNL A   1      49.480  36.557  32.555  1.00  0.00    -0.744 OA
ENDBRANCH  81  82
ENDBRANCH  60  74
BRANCH  61  86
ATOM     86  C   UNL A   1      43.517  23.723  27.493  1.00  0.00     0.058 A 
ATOM     87  C   UNL A   1      43.307  22.702  28.433  1.00  0.00     0.135 A 
ATOM     88  C   UNL A   1      43.166  23.457  26.158  1.00  0.00     0.135 A 
ATOM     89  F   UNL A   1      43.639  22.895  29.718  1.00  0.00    -0.206 F 
ATOM     90  C   UNL A   1      42.785  21.466  28.062  1.00  0.00     0.059 A 
ATOM     91  C   UNL A   1      42.600  22.247  25.772  1.00  0.00     0.059 A 
ATOM     92  F   UNL A   1      43.339  24.396  25.216  1.00  0.00    -0.206 F 
ATOM     93  C   UNL A   1      42.426  21.251  26.731  1.00  0.00     0.060 A 
BRANCH  93  94
ATOM     94  S   UNL A   1      41.701  19.663  26.274  1.00  0.00     0.124 S 
ATOM     95  O   UNL A   1      42.407  19.363  25.034  1.00  0.00    -0.237 OA
ATOM     96  O   UNL A   1      42.044  18.831  27.423  1.00  0.00    -0.237 OA
ATOM     97  O   UNL A   1      40.280  19.970  26.133  1.00  0.00    -0.744 OA
ENDBRANCH  93  94
ENDBRANCH  61  86
BRANCH  73  98
ATOM     98  C   UNL A   1      49.804  26.646  26.758  1.00  0.00     0.058 A 
ATOM     99  C   UNL A   1      50.153  26.834  25.410  1.00  0.00     0.135 A 
ATOM    100  C   UNL A   1      50.718  25.965  27.579  1.00  0.00     0.135 A 
ATOM    101  F   UNL A   1      49.315  27.471  24.577  1.00  0.00    -0.206 F 
ATOM    102  C   UNL A   1      51.336  26.323  24.888  1.00  0.00     0.059 A 
ATOM    103  C   UNL A   1      51.927  25.485  27.089  1.00  0.00     0.059 A 
ATOM    104  F   UNL A   1      50.443  25.765  28.879  1.00  0.00    -0.206 F 
ATOM    105  C   UNL A   1      52.218  25.651  25.737  1.00  0.00     0.060 A 
BRANCH 105 106
ATOM    106  S   UNL A   1      53.753  25.001  25.047  1.00  0.00     0.124 S 
ATOM    107  O   UNL A   1      54.733  25.457  26.027  1.00  0.00    -0.237 OA
ATOM    108  O   UNL A   1      53.499  23.565  25.022  1.00  0.00    -0.237 OA
ATOM    109  O   UNL A   1      53.834  25.640  23.735  1.00  0.00    -0.744 OA
ENDBRANCH 105 106
ENDBRANCH  73  98
ENDBRANCH  47  48
ENDBRANCH  40  42
ENDBRANCH  39  40
ENDBRANCH  38  39
ENDBRANCH   1  38
TORSDOF 20
ENDMDL
