MODEL 1
REMARK VINA RESULT:     -12.1      0.000      0.000
REMARK SMILES Cc1cccc(-c2cccc(C(=O)OCCOC(=O)c3ccc(-c4c5nc(c(-c6c(F)cc(S(=O)(=O)[O-])cc6F)c6ccc([nH]6)c(-c6c(F)cc(S(=O)(=O)[O-])cc6F)c6nc(c(-c7c(F)cc(S(=O)(=O)[O-])cc7F)c7ccc4[nH]7)C=C6)C=C5)cc3)c2)c1
REMARK SMILES IDX 16 1 15 2 14 3 12 4 13 5 11 6 7 7 8 8 86 9 9 10 10 11 6 12
REMARK SMILES IDX 1 13 2 14 3 15 87 16 4 17 5 18 17 19 18 20 19 21 20 22 21 23
REMARK SMILES IDX 85 24 22 25 84 26 23 27 24 28 25 29 78 30 26 31 83 32 77 33
REMARK SMILES IDX 79 34 27 35 82 36 76 37 75 38 28 40 62 41 41 42 61 43 42 44
REMARK SMILES IDX 45 45 60 46 80 47 43 48 44 49 59 51 81 52 46 53 29 54 30 55
REMARK SMILES IDX 39 56 31 57 32 58 38 59 40 60 33 61 34 62 35 63 36 64 37 65
REMARK SMILES IDX 63 66 64 67 73 68 65 69 66 70 72 71 74 72 67 73 68 74 69 75
REMARK SMILES IDX 70 76 71 77 47 78 48 79 57 80 49 81 50 82 56 83 58 84 51 85
REMARK SMILES IDX 52 86 53 87 54 88 55 89
REMARK H PARENT 79 39 45 50
REMARK Flexibility Score: inf
ROOT
ATOM      1  C   UNL A   1      33.661  28.440  25.379  1.00  0.00     0.275 C 
ENDROOT
BRANCH   1   2
ATOM      2  C   UNL A   1      32.133  28.504  25.199  1.00  0.00     0.275 C 
BRANCH   2   3
ATOM      3  O   UNL A   1      31.440  27.259  24.997  1.00  0.00    -0.458 OA
BRANCH   3   4
ATOM      4  C   UNL A   1      31.320  26.581  26.177  1.00  0.00     0.338 C 
ATOM      5  O   UNL A   1      31.028  27.106  27.249  1.00  0.00    -0.246 OA
BRANCH   4   6
ATOM      6  C   UNL A   1      31.732  25.152  26.159  1.00  0.00     0.060 A 
ATOM      7  C   UNL A   1      33.286  23.275  25.913  1.00  0.00    -0.018 A 
ATOM      8  C   UNL A   1      32.173  22.407  25.924  1.00  0.00     0.009 A 
ATOM      9  C   UNL A   1      33.049  24.667  26.056  1.00  0.00     0.024 A 
ATOM     10  C   UNL A   1      30.872  22.883  26.033  1.00  0.00     0.002 A 
ATOM     11  C   UNL A   1      30.656  24.248  26.137  1.00  0.00     0.016 A 
BRANCH   7  12
ATOM     12  C   UNL A   1      34.632  22.668  25.770  1.00  0.00    -0.018 A 
ATOM     13  C   UNL A   1      38.313  23.710  26.125  1.00  0.00     0.044 C 
ATOM     14  C   UNL A   1      37.089  22.893  25.839  1.00  0.00    -0.051 A 
ATOM     15  C   UNL A   1      37.218  21.616  25.289  1.00  0.00     0.003 A 
ATOM     16  C   UNL A   1      35.799  23.400  26.083  1.00  0.00     0.012 A 
ATOM     17  C   UNL A   1      36.081  20.864  25.000  1.00  0.00     0.001 A 
ATOM     18  C   UNL A   1      34.804  21.389  25.230  1.00  0.00     0.009 A 
ENDBRANCH   7  12
ENDBRANCH   4   6
ENDBRANCH   3   4
ENDBRANCH   2   3
ENDBRANCH   1   2
BRANCH   1  19
ATOM     19  O   UNL A   1      34.244  28.422  26.702  1.00  0.00    -0.458 OA
BRANCH  19  20
ATOM     20  C   UNL A   1      34.400  29.558  27.424  1.00  0.00     0.338 C 
ATOM     21  O   UNL A   1      33.557  30.415  27.615  1.00  0.00    -0.246 OA
BRANCH  20  22
ATOM     22  C   UNL A   1      35.758  29.700  27.916  1.00  0.00     0.060 A 
ATOM     23  C   UNL A   1      36.798  29.942  27.009  1.00  0.00     0.016 A 
ATOM     24  C   UNL A   1      35.928  29.702  29.300  1.00  0.00     0.016 A 
ATOM     25  C   UNL A   1      38.082  30.102  27.486  1.00  0.00     0.010 A 
ATOM     26  C   UNL A   1      37.178  29.982  29.784  1.00  0.00     0.010 A 
ATOM     27  C   UNL A   1      38.247  30.052  28.866  1.00  0.00    -0.014 A 
BRANCH  27  28
ATOM     28  C   UNL A   1      39.458  29.494  29.432  1.00  0.00     0.031 A 
ATOM     29  C   UNL A   1      39.801  28.092  29.211  1.00  0.00     0.074 A 
ATOM     30  C   UNL A   1      40.259  30.508  29.824  1.00  0.00     0.049 A 
ATOM     31  N   UNL A   1      40.823  27.509  29.718  1.00  0.00    -0.248 NA
ATOM     32  C   UNL A   1      38.964  27.191  28.424  1.00  0.00     0.031 C 
ATOM     33  C   UNL A   1      41.695  30.623  29.955  1.00  0.00     0.029 A 
ATOM     34  N   UNL A   1      39.781  31.733  30.330  1.00  0.00    -0.354 N 
ATOM     35  C   UNL A   1      40.996  26.328  29.023  1.00  0.00     0.074 A 
ATOM     36  C   UNL A   1      39.725  26.095  28.385  1.00  0.00     0.031 C 
ATOM     37  C   UNL A   1      41.962  31.667  30.768  1.00  0.00     0.029 A 
ATOM     38  C   UNL A   1      40.684  32.132  31.308  1.00  0.00     0.049 A 
ATOM     39  H   UNL A   1      38.970  32.211  30.046  1.00  0.00     0.167 HD
ATOM     40  C   UNL A   1      42.268  25.842  28.907  1.00  0.00     0.037 A 
ATOM     41  C   UNL A   1      40.279  31.992  32.608  1.00  0.00     0.037 A 
ATOM     42  C   UNL A   1      43.163  26.666  29.734  1.00  0.00     0.049 A 
ATOM     43  C   UNL A   1      41.118  30.918  33.271  1.00  0.00     0.074 A 
ATOM     44  C   UNL A   1      43.992  27.730  29.417  1.00  0.00     0.029 A 
ATOM     45  N   UNL A   1      42.951  26.735  31.112  1.00  0.00    -0.354 N 
ATOM     46  N   UNL A   1      41.528  29.819  32.685  1.00  0.00    -0.248 NA
ATOM     47  C   UNL A   1      41.731  31.129  34.577  1.00  0.00     0.031 C 
ATOM     48  C   UNL A   1      44.163  28.513  30.594  1.00  0.00     0.029 A 
ATOM     49  C   UNL A   1      43.441  27.926  31.622  1.00  0.00     0.049 A 
ATOM     50  H   UNL A   1      42.514  26.033  31.647  1.00  0.00     0.167 HD
ATOM     51  C   UNL A   1      42.535  29.263  33.439  1.00  0.00     0.074 A 
ATOM     52  C   UNL A   1      42.591  30.098  34.630  1.00  0.00     0.031 C 
ATOM     53  C   UNL A   1      43.331  28.220  33.045  1.00  0.00     0.037 A 
BRANCH  40  54
ATOM     54  C   UNL A   1      42.757  24.893  27.816  1.00  0.00     0.058 A 
ATOM     55  C   UNL A   1      42.597  23.494  27.962  1.00  0.00     0.135 A 
ATOM     56  C   UNL A   1      43.442  25.264  26.639  1.00  0.00     0.135 A 
ATOM     57  F   UNL A   1      41.909  22.973  28.989  1.00  0.00    -0.206 F 
ATOM     58  C   UNL A   1      43.131  22.556  27.070  1.00  0.00     0.059 A 
ATOM     59  C   UNL A   1      44.012  24.347  25.747  1.00  0.00     0.059 A 
ATOM     60  F   UNL A   1      43.557  26.539  26.256  1.00  0.00    -0.206 F 
ATOM     61  C   UNL A   1      43.858  22.990  25.971  1.00  0.00     0.060 A 
BRANCH  61  62
ATOM     62  S   UNL A   1      44.542  21.777  24.827  1.00  0.00     0.124 S 
ATOM     63  O   UNL A   1      44.411  22.459  23.543  1.00  0.00    -0.237 OA
ATOM     64  O   UNL A   1      45.903  21.618  25.327  1.00  0.00    -0.237 OA
ATOM     65  O   UNL A   1      43.676  20.614  25.002  1.00  0.00    -0.744 OA
ENDBRANCH  61  62
ENDBRANCH  40  54
BRANCH  41  66
ATOM     66  C   UNL A   1      38.822  32.316  32.848  1.00  0.00     0.058 A 
ATOM     67  C   UNL A   1      38.417  33.674  32.763  1.00  0.00     0.135 A 
ATOM     68  C   UNL A   1      37.783  31.375  32.895  1.00  0.00     0.135 A 
ATOM     69  F   UNL A   1      39.345  34.646  32.736  1.00  0.00    -0.206 F 
ATOM     70  C   UNL A   1      37.084  34.068  32.614  1.00  0.00     0.059 A 
ATOM     71  C   UNL A   1      36.428  31.749  32.770  1.00  0.00     0.059 A 
ATOM     72  F   UNL A   1      38.063  30.067  32.989  1.00  0.00    -0.206 F 
ATOM     73  C   UNL A   1      36.091  33.096  32.599  1.00  0.00     0.060 A 
BRANCH  73  74
ATOM     74  S   UNL A   1      34.403  33.600  32.149  1.00  0.00     0.124 S 
ATOM     75  O   UNL A   1      34.517  35.050  32.071  1.00  0.00    -0.237 OA
ATOM     76  O   UNL A   1      34.185  32.910  30.883  1.00  0.00    -0.237 OA
ATOM     77  O   UNL A   1      33.601  33.078  33.249  1.00  0.00    -0.744 OA
ENDBRANCH  73  74
ENDBRANCH  41  66
BRANCH  53  78
ATOM     78  C   UNL A   1      44.173  27.386  33.982  1.00  0.00     0.058 A 
ATOM     79  C   UNL A   1      45.498  27.713  34.312  1.00  0.00     0.135 A 
ATOM     80  C   UNL A   1      43.584  26.352  34.752  1.00  0.00     0.135 A 
ATOM     81  F   UNL A   1      46.137  28.736  33.728  1.00  0.00    -0.206 F 
ATOM     82  C   UNL A   1      46.203  27.038  35.304  1.00  0.00     0.059 A 
ATOM     83  C   UNL A   1      44.245  25.719  35.796  1.00  0.00     0.059 A 
ATOM     84  F   UNL A   1      42.326  25.939  34.540  1.00  0.00    -0.206 F 
ATOM     85  C   UNL A   1      45.566  26.054  36.051  1.00  0.00     0.060 A 
BRANCH  85  86
ATOM     86  S   UNL A   1      46.440  25.258  37.405  1.00  0.00     0.124 S 
ATOM     87  O   UNL A   1      45.510  25.471  38.510  1.00  0.00    -0.237 OA
ATOM     88  O   UNL A   1      46.566  23.880  36.941  1.00  0.00    -0.237 OA
ATOM     89  O   UNL A   1      47.692  26.004  37.477  1.00  0.00    -0.744 OA
ENDBRANCH  85  86
ENDBRANCH  53  78
ENDBRANCH  27  28
ENDBRANCH  20  22
ENDBRANCH  19  20
ENDBRANCH   1  19
TORSDOF 15
ENDMDL
MODEL 2
REMARK VINA RESULT:     -12.0      0.747      1.639
REMARK SMILES Cc1cccc(-c2cccc(C(=O)OCCOC(=O)c3ccc(-c4c5nc(c(-c6c(F)cc(S(=O)(=O)[O-])cc6F)c6ccc([nH]6)c(-c6c(F)cc(S(=O)(=O)[O-])cc6F)c6nc(c(-c7c(F)cc(S(=O)(=O)[O-])cc7F)c7ccc4[nH]7)C=C6)C=C5)cc3)c2)c1
REMARK SMILES IDX 16 1 15 2 14 3 12 4 13 5 11 6 7 7 8 8 86 9 9 10 10 11 6 12
REMARK SMILES IDX 1 13 2 14 3 15 87 16 4 17 5 18 17 19 18 20 19 21 20 22 21 23
REMARK SMILES IDX 85 24 22 25 84 26 23 27 24 28 25 29 78 30 26 31 83 32 77 33
REMARK SMILES IDX 79 34 27 35 82 36 76 37 75 38 28 40 62 41 41 42 61 43 42 44
REMARK SMILES IDX 45 45 60 46 80 47 43 48 44 49 59 51 81 52 46 53 29 54 30 55
REMARK SMILES IDX 39 56 31 57 32 58 38 59 40 60 33 61 34 62 35 63 36 64 37 65
REMARK SMILES IDX 63 66 64 67 73 68 65 69 66 70 72 71 74 72 67 73 68 74 69 75
REMARK SMILES IDX 70 76 71 77 47 78 48 79 57 80 49 81 50 82 56 83 58 84 51 85
REMARK SMILES IDX 52 86 53 87 54 88 55 89
REMARK H PARENT 79 39 45 50
REMARK Flexibility Score: inf
ROOT
ATOM      1  C   UNL A   1      33.592  28.546  25.343  1.00  0.00     0.275 C 
ENDROOT
BRANCH   1   2
ATOM      2  C   UNL A   1      32.056  28.437  25.324  1.00  0.00     0.275 C 
BRANCH   2   3
ATOM      3  O   UNL A   1      31.474  27.246  25.885  1.00  0.00    -0.458 OA
BRANCH   3   4
ATOM      4  C   UNL A   1      31.731  26.166  25.089  1.00  0.00     0.338 C 
ATOM      5  O   UNL A   1      31.281  26.021  23.955  1.00  0.00    -0.246 OA
BRANCH   4   6
ATOM      6  C   UNL A   1      32.473  25.045  25.723  1.00  0.00     0.060 A 
ATOM      7  C   UNL A   1      34.350  23.507  26.053  1.00  0.00    -0.018 A 
ATOM      8  C   UNL A   1      33.523  22.747  26.906  1.00  0.00     0.009 A 
ATOM      9  C   UNL A   1      33.811  24.686  25.475  1.00  0.00     0.024 A 
ATOM     10  C   UNL A   1      32.204  23.102  27.159  1.00  0.00     0.002 A 
ATOM     11  C   UNL A   1      31.682  24.238  26.560  1.00  0.00     0.016 A 
BRANCH   7  12
ATOM     12  C   UNL A   1      35.737  23.029  25.831  1.00  0.00    -0.018 A 
ATOM     13  C   UNL A   1      37.543  19.771  24.888  1.00  0.00     0.044 C 
ATOM     14  C   UNL A   1      37.298  21.193  25.296  1.00  0.00    -0.051 A 
ATOM     15  C   UNL A   1      38.375  22.020  25.618  1.00  0.00     0.003 A 
ATOM     16  C   UNL A   1      35.992  21.708  25.395  1.00  0.00     0.012 A 
ATOM     17  C   UNL A   1      38.149  23.334  26.020  1.00  0.00     0.001 A 
ATOM     18  C   UNL A   1      36.844  23.828  26.133  1.00  0.00     0.009 A 
ENDBRANCH   7  12
ENDBRANCH   4   6
ENDBRANCH   3   4
ENDBRANCH   2   3
ENDBRANCH   1   2
BRANCH   1  19
ATOM     19  O   UNL A   1      34.318  28.477  26.591  1.00  0.00    -0.458 OA
BRANCH  19  20
ATOM     20  C   UNL A   1      34.478  29.568  27.379  1.00  0.00     0.338 C 
ATOM     21  O   UNL A   1      33.635  30.409  27.630  1.00  0.00    -0.246 OA
BRANCH  20  22
ATOM     22  C   UNL A   1      35.840  29.684  27.867  1.00  0.00     0.060 A 
ATOM     23  C   UNL A   1      36.875  29.956  26.962  1.00  0.00     0.016 A 
ATOM     24  C   UNL A   1      36.020  29.631  29.248  1.00  0.00     0.016 A 
ATOM     25  C   UNL A   1      38.163  30.091  27.436  1.00  0.00     0.010 A 
ATOM     26  C   UNL A   1      37.275  29.885  29.734  1.00  0.00     0.010 A 
ATOM     27  C   UNL A   1      38.338  29.986  28.811  1.00  0.00    -0.014 A 
BRANCH  27  28
ATOM     28  C   UNL A   1      39.550  29.400  29.346  1.00  0.00     0.031 A 
ATOM     29  C   UNL A   1      39.868  27.998  29.094  1.00  0.00     0.074 A 
ATOM     30  C   UNL A   1      40.372  30.395  29.744  1.00  0.00     0.049 A 
ATOM     31  N   UNL A   1      40.890  27.391  29.572  1.00  0.00    -0.248 NA
ATOM     32  C   UNL A   1      39.005  27.124  28.305  1.00  0.00     0.031 C 
ATOM     33  C   UNL A   1      41.812  30.487  29.852  1.00  0.00     0.029 A 
ATOM     34  N   UNL A   1      39.920  31.617  30.280  1.00  0.00    -0.354 N 
ATOM     35  C   UNL A   1      41.035  26.221  28.852  1.00  0.00     0.074 A 
ATOM     36  C   UNL A   1      39.750  26.018  28.232  1.00  0.00     0.031 C 
ATOM     37  C   UNL A   1      42.107  31.512  30.680  1.00  0.00     0.029 A 
ATOM     38  C   UNL A   1      40.845  31.985  31.250  1.00  0.00     0.049 A 
ATOM     39  H   UNL A   1      39.112  32.112  30.019  1.00  0.00     0.167 HD
ATOM     40  C   UNL A   1      42.298  25.719  28.706  1.00  0.00     0.037 A 
ATOM     41  C   UNL A   1      40.460  31.826  32.554  1.00  0.00     0.037 A 
ATOM     42  C   UNL A   1      43.218  26.515  29.532  1.00  0.00     0.049 A 
ATOM     43  C   UNL A   1      41.295  30.728  33.182  1.00  0.00     0.074 A 
ATOM     44  C   UNL A   1      44.057  27.573  29.221  1.00  0.00     0.029 A 
ATOM     45  N   UNL A   1      43.030  26.561  30.915  1.00  0.00    -0.354 N 
ATOM     46  N   UNL A   1      41.679  29.634  32.569  1.00  0.00    -0.248 NA
ATOM     47  C   UNL A   1      41.932  30.906  34.482  1.00  0.00     0.031 C 
ATOM     48  C   UNL A   1      44.259  28.331  30.409  1.00  0.00     0.029 A 
ATOM     49  C   UNL A   1      43.546  27.735  31.439  1.00  0.00     0.049 A 
ATOM     50  H   UNL A   1      42.592  25.855  31.445  1.00  0.00     0.167 HD
ATOM     51  C   UNL A   1      42.690  29.050  33.296  1.00  0.00     0.074 A 
ATOM     52  C   UNL A   1      42.778  29.862  34.501  1.00  0.00     0.031 C 
ATOM     53  C   UNL A   1      43.464  28.004  32.868  1.00  0.00     0.037 A 
BRANCH  40  54
ATOM     54  C   UNL A   1      42.754  24.784  27.590  1.00  0.00     0.058 A 
ATOM     55  C   UNL A   1      43.313  23.521  27.900  1.00  0.00     0.135 A 
ATOM     56  C   UNL A   1      42.739  25.071  26.208  1.00  0.00     0.135 A 
ATOM     57  F   UNL A   1      43.344  23.061  29.159  1.00  0.00    -0.206 F 
ATOM     58  C   UNL A   1      43.871  22.665  26.942  1.00  0.00     0.059 A 
ATOM     59  C   UNL A   1      43.316  24.248  25.233  1.00  0.00     0.059 A 
ATOM     60  F   UNL A   1      42.117  26.146  25.713  1.00  0.00    -0.206 F 
ATOM     61  C   UNL A   1      43.888  23.044  25.608  1.00  0.00     0.060 A 
BRANCH  61  62
ATOM     62  S   UNL A   1      44.607  21.937  24.382  1.00  0.00     0.124 S 
ATOM     63  O   UNL A   1      44.026  20.650  24.752  1.00  0.00    -0.237 OA
ATOM     64  O   UNL A   1      44.131  22.513  23.130  1.00  0.00    -0.237 OA
ATOM     65  O   UNL A   1      46.045  22.056  24.613  1.00  0.00    -0.744 OA
ENDBRANCH  61  62
ENDBRANCH  40  54
BRANCH  41  66
ATOM     66  C   UNL A   1      39.012  32.167  32.824  1.00  0.00     0.058 A 
ATOM     67  C   UNL A   1      38.617  33.526  32.731  1.00  0.00     0.135 A 
ATOM     68  C   UNL A   1      37.966  31.235  32.909  1.00  0.00     0.135 A 
ATOM     69  F   UNL A   1      39.553  34.490  32.669  1.00  0.00    -0.206 F 
ATOM     70  C   UNL A   1      37.284  33.931  32.609  1.00  0.00     0.059 A 
ATOM     71  C   UNL A   1      36.612  31.620  32.812  1.00  0.00     0.059 A 
ATOM     72  F   UNL A   1      38.237  29.926  33.013  1.00  0.00    -0.206 F 
ATOM     73  C   UNL A   1      36.283  32.968  32.631  1.00  0.00     0.060 A 
BRANCH  73  74
ATOM     74  S   UNL A   1      34.589  33.481  32.215  1.00  0.00     0.124 S 
ATOM     75  O   UNL A   1      33.847  33.120  33.416  1.00  0.00    -0.237 OA
ATOM     76  O   UNL A   1      34.735  34.909  31.963  1.00  0.00    -0.237 OA
ATOM     77  O   UNL A   1      34.294  32.700  31.020  1.00  0.00    -0.744 OA
ENDBRANCH  73  74
ENDBRANCH  41  66
BRANCH  53  78
ATOM     78  C   UNL A   1      44.310  27.141  33.775  1.00  0.00     0.058 A 
ATOM     79  C   UNL A   1      43.775  26.110  34.565  1.00  0.00     0.135 A 
ATOM     80  C   UNL A   1      45.725  27.186  33.698  1.00  0.00     0.135 A 
ATOM     81  F   UNL A   1      42.454  25.897  34.643  1.00  0.00    -0.206 F 
ATOM     82  C   UNL A   1      44.581  25.215  35.261  1.00  0.00     0.059 A 
ATOM     83  C   UNL A   1      46.544  26.255  34.323  1.00  0.00     0.059 A 
ATOM     84  F   UNL A   1      46.366  28.120  32.981  1.00  0.00    -0.206 F 
ATOM     85  C   UNL A   1      45.963  25.284  35.123  1.00  0.00     0.060 A 
BRANCH  85  86
ATOM     86  S   UNL A   1      47.000  24.060  35.933  1.00  0.00     0.124 S 
ATOM     87  O   UNL A   1      47.223  23.111  34.847  1.00  0.00    -0.237 OA
ATOM     88  O   UNL A   1      48.164  24.842  36.338  1.00  0.00    -0.237 OA
ATOM     89  O   UNL A   1      46.162  23.586  37.029  1.00  0.00    -0.744 OA
ENDBRANCH  85  86
ENDBRANCH  53  78
ENDBRANCH  27  28
ENDBRANCH  20  22
ENDBRANCH  19  20
ENDBRANCH   1  19
TORSDOF 15
ENDMDL
MODEL 3
REMARK VINA RESULT:     -12.0      3.785      9.648
REMARK SMILES Cc1cccc(-c2cccc(C(=O)OCCOC(=O)c3ccc(-c4c5nc(c(-c6c(F)cc(S(=O)(=O)[O-])cc6F)c6ccc([nH]6)c(-c6c(F)cc(S(=O)(=O)[O-])cc6F)c6nc(c(-c7c(F)cc(S(=O)(=O)[O-])cc7F)c7ccc4[nH]7)C=C6)C=C5)cc3)c2)c1
REMARK SMILES IDX 16 1 15 2 14 3 12 4 13 5 11 6 7 7 8 8 86 9 9 10 10 11 6 12
REMARK SMILES IDX 1 13 2 14 3 15 87 16 4 17 5 18 17 19 18 20 19 21 20 22 21 23
REMARK SMILES IDX 85 24 22 25 84 26 23 27 24 28 25 29 78 30 26 31 83 32 77 33
REMARK SMILES IDX 79 34 27 35 82 36 76 37 75 38 28 40 62 41 41 42 61 43 42 44
REMARK SMILES IDX 45 45 60 46 80 47 43 48 44 49 59 51 81 52 46 53 29 54 30 55
REMARK SMILES IDX 39 56 31 57 32 58 38 59 40 60 33 61 34 62 35 63 36 64 37 65
REMARK SMILES IDX 63 66 64 67 73 68 65 69 66 70 72 71 74 72 67 73 68 74 69 75
REMARK SMILES IDX 70 76 71 77 47 78 48 79 57 80 49 81 50 82 56 83 58 84 51 85
REMARK SMILES IDX 52 86 53 87 54 88 55 89
REMARK H PARENT 79 39 45 50
REMARK Flexibility Score: inf
ROOT
ATOM      1  C   UNL A   1      37.844  21.295  25.005  1.00  0.00     0.275 C 
ENDROOT
BRANCH   1   2
ATOM      2  C   UNL A   1      36.452  20.648  25.129  1.00  0.00     0.275 C 
BRANCH   2   3
ATOM      3  O   UNL A   1      35.322  21.429  24.699  1.00  0.00    -0.458 OA
BRANCH   3   4
ATOM      4  C   UNL A   1      34.641  21.921  25.776  1.00  0.00     0.338 C 
ATOM      5  O   UNL A   1      34.691  21.437  26.904  1.00  0.00    -0.246 OA
BRANCH   4   6
ATOM      6  C   UNL A   1      33.667  23.009  25.496  1.00  0.00     0.060 A 
ATOM      7  C   UNL A   1      32.653  25.224  25.750  1.00  0.00    -0.018 A 
ATOM      8  C   UNL A   1      31.566  24.769  24.975  1.00  0.00     0.009 A 
ATOM      9  C   UNL A   1      33.726  24.326  25.989  1.00  0.00     0.024 A 
ATOM     10  C   UNL A   1      31.508  23.472  24.480  1.00  0.00     0.002 A 
ATOM     11  C   UNL A   1      32.549  22.596  24.752  1.00  0.00     0.016 A 
BRANCH   7  12
ATOM     12  C   UNL A   1      32.607  26.620  26.250  1.00  0.00    -0.018 A 
ATOM     13  C   UNL A   1      35.047  29.493  26.998  1.00  0.00     0.044 C 
ATOM     14  C   UNL A   1      33.783  28.693  26.893  1.00  0.00    -0.051 A 
ATOM     15  C   UNL A   1      32.591  29.204  27.410  1.00  0.00     0.003 A 
ATOM     16  C   UNL A   1      33.776  27.413  26.310  1.00  0.00     0.012 A 
ATOM     17  C   UNL A   1      31.420  28.453  27.334  1.00  0.00     0.001 A 
ATOM     18  C   UNL A   1      31.432  27.173  26.769  1.00  0.00     0.009 A 
ENDBRANCH   7  12
ENDBRANCH   4   6
ENDBRANCH   3   4
ENDBRANCH   2   3
ENDBRANCH   1   2
BRANCH   1  19
ATOM     19  O   UNL A   1      38.286  22.277  25.970  1.00  0.00    -0.458 OA
BRANCH  19  20
ATOM     20  C   UNL A   1      38.008  23.595  25.819  1.00  0.00     0.338 C 
ATOM     21  O   UNL A   1      37.206  24.080  25.043  1.00  0.00    -0.246 OA
BRANCH  20  22
ATOM     22  C   UNL A   1      38.850  24.422  26.664  1.00  0.00     0.060 A 
ATOM     23  C   UNL A   1      38.604  24.473  28.042  1.00  0.00     0.016 A 
ATOM     24  C   UNL A   1      39.945  25.032  26.054  1.00  0.00     0.016 A 
ATOM     25  C   UNL A   1      39.425  25.240  28.842  1.00  0.00     0.010 A 
ATOM     26  C   UNL A   1      40.833  25.694  26.861  1.00  0.00     0.010 A 
ATOM     27  C   UNL A   1      40.485  25.885  28.215  1.00  0.00    -0.014 A 
BRANCH  27  28
ATOM     28  C   UNL A   1      40.928  27.181  28.688  1.00  0.00     0.031 A 
ATOM     29  C   UNL A   1      40.057  28.347  28.578  1.00  0.00     0.074 A 
ATOM     30  C   UNL A   1      42.010  27.006  29.477  1.00  0.00     0.049 A 
ATOM     31  N   UNL A   1      40.391  29.535  28.924  1.00  0.00    -0.248 NA
ATOM     32  C   UNL A   1      38.718  28.278  28.000  1.00  0.00     0.031 C 
ATOM     33  C   UNL A   1      42.545  27.769  30.584  1.00  0.00     0.029 A 
ATOM     34  N   UNL A   1      42.972  25.997  29.275  1.00  0.00    -0.354 N 
ATOM     35  C   UNL A   1      39.227  30.273  28.997  1.00  0.00     0.074 A 
ATOM     36  C   UNL A   1      38.268  29.514  28.236  1.00  0.00     0.031 C 
ATOM     37  C   UNL A   1      43.839  27.420  30.750  1.00  0.00     0.029 A 
ATOM     38  C   UNL A   1      44.198  26.547  29.633  1.00  0.00     0.049 A 
ATOM     39  H   UNL A   1      42.809  25.085  28.946  1.00  0.00     0.167 HD
ATOM     40  C   UNL A   1      39.189  31.309  29.888  1.00  0.00     0.037 A 
ATOM     41  C   UNL A   1      45.040  26.882  28.607  1.00  0.00     0.037 A 
ATOM     42  C   UNL A   1      40.530  31.482  30.466  1.00  0.00     0.049 A 
ATOM     43  C   UNL A   1      45.176  28.391  28.558  1.00  0.00     0.074 A 
ATOM     44  C   UNL A   1      41.089  31.035  31.653  1.00  0.00     0.029 A 
ATOM     45  N   UNL A   1      41.601  31.796  29.626  1.00  0.00    -0.354 N 
ATOM     46  N   UNL A   1      44.203  29.240  28.791  1.00  0.00    -0.248 NA
ATOM     47  C   UNL A   1      46.480  29.035  28.455  1.00  0.00     0.031 C 
ATOM     48  C   UNL A   1      42.498  30.958  31.468  1.00  0.00     0.029 A 
ATOM     49  C   UNL A   1      42.795  31.356  30.172  1.00  0.00     0.049 A 
ATOM     50  H   UNL A   1      41.518  32.268  28.765  1.00  0.00     0.167 HD
ATOM     51  C   UNL A   1      44.744  30.485  29.009  1.00  0.00     0.074 A 
ATOM     52  C   UNL A   1      46.165  30.308  28.745  1.00  0.00     0.031 C 
ATOM     53  C   UNL A   1      44.053  31.574  29.470  1.00  0.00     0.037 A 
BRANCH  40  54
ATOM     54  C   UNL A   1      37.923  31.911  30.493  1.00  0.00     0.058 A 
ATOM     55  C   UNL A   1      37.224  32.936  29.810  1.00  0.00     0.135 A 
ATOM     56  C   UNL A   1      37.369  31.589  31.750  1.00  0.00     0.135 A 
ATOM     57  F   UNL A   1      37.574  33.317  28.573  1.00  0.00    -0.206 F 
ATOM     58  C   UNL A   1      36.133  33.625  30.355  1.00  0.00     0.059 A 
ATOM     59  C   UNL A   1      36.299  32.282  32.331  1.00  0.00     0.059 A 
ATOM     60  F   UNL A   1      37.800  30.550  32.471  1.00  0.00    -0.206 F 
ATOM     61  C   UNL A   1      35.686  33.305  31.629  1.00  0.00     0.060 A 
BRANCH  61  62
ATOM     62  S   UNL A   1      34.282  34.196  32.324  1.00  0.00     0.124 S 
ATOM     63  O   UNL A   1      34.937  35.271  33.064  1.00  0.00    -0.237 OA
ATOM     64  O   UNL A   1      33.552  34.600  31.128  1.00  0.00    -0.237 OA
ATOM     65  O   UNL A   1      33.614  33.193  33.150  1.00  0.00    -0.744 OA
ENDBRANCH  61  62
ENDBRANCH  40  54
BRANCH  41  66
ATOM     66  C   UNL A   1      45.037  25.908  27.451  1.00  0.00     0.058 A 
ATOM     67  C   UNL A   1      45.654  24.644  27.641  1.00  0.00     0.135 A 
ATOM     68  C   UNL A   1      44.261  26.037  26.290  1.00  0.00     0.135 A 
ATOM     69  F   UNL A   1      46.436  24.439  28.715  1.00  0.00    -0.206 F 
ATOM     70  C   UNL A   1      45.424  23.547  26.807  1.00  0.00     0.059 A 
ATOM     71  C   UNL A   1      44.032  24.949  25.419  1.00  0.00     0.059 A 
ATOM     72  F   UNL A   1      43.648  27.196  26.014  1.00  0.00    -0.206 F 
ATOM     73  C   UNL A   1      44.593  23.700  25.704  1.00  0.00     0.060 A 
BRANCH  73  74
ATOM     74  S   UNL A   1      44.102  22.210  24.785  1.00  0.00     0.124 S 
ATOM     75  O   UNL A   1      42.666  22.150  25.025  1.00  0.00    -0.237 OA
ATOM     76  O   UNL A   1      44.506  22.523  23.419  1.00  0.00    -0.237 OA
ATOM     77  O   UNL A   1      44.901  21.162  25.408  1.00  0.00    -0.744 OA
ENDBRANCH  73  74
ENDBRANCH  41  66
BRANCH  53  78
ATOM     78  C   UNL A   1      44.540  33.001  29.369  1.00  0.00     0.058 A 
ATOM     79  C   UNL A   1      44.382  33.781  28.212  1.00  0.00     0.135 A 
ATOM     80  C   UNL A   1      44.980  33.695  30.524  1.00  0.00     0.135 A 
ATOM     81  F   UNL A   1      43.879  33.267  27.081  1.00  0.00    -0.206 F 
ATOM     82  C   UNL A   1      44.678  35.140  28.188  1.00  0.00     0.059 A 
ATOM     83  C   UNL A   1      45.207  35.065  30.540  1.00  0.00     0.059 A 
ATOM     84  F   UNL A   1      45.175  33.072  31.695  1.00  0.00    -0.206 F 
ATOM     85  C   UNL A   1      45.074  35.778  29.358  1.00  0.00     0.060 A 
BRANCH  85  86
ATOM     86  S   UNL A   1      45.351  37.553  29.354  1.00  0.00     0.124 S 
ATOM     87  O   UNL A   1      44.978  37.897  27.985  1.00  0.00    -0.237 OA
ATOM     88  O   UNL A   1      44.440  38.024  30.394  1.00  0.00    -0.237 OA
ATOM     89  O   UNL A   1      46.769  37.671  29.675  1.00  0.00    -0.744 OA
ENDBRANCH  85  86
ENDBRANCH  53  78
ENDBRANCH  27  28
ENDBRANCH  20  22
ENDBRANCH  19  20
ENDBRANCH   1  19
TORSDOF 15
ENDMDL
