MODEL 1
REMARK VINA RESULT:      -9.4      0.000      0.000
REMARK SMILES O=C(OCCOC(=O)c1cnc(Nc2ccccc2)nc1)c1ccc(-c2c3nc(c(-c4c(F)cc(S(=O)(=O)[O-])cc4F)c4ccc([nH]4)c(-c4c(F)cc(S(=O)(=O)[O-])cc4F)c4nc(c(-c5c(F)cc(S(=O)(=O)[O-])cc5F)c5ccc2[nH]5)C=C4)C=C3)cc1
REMARK SMILES IDX 4 1 3 2 2 3 1 4 22 5 23 6 87 7 24 8 86 9 25 10 26 11 27 12
REMARK SMILES IDX 80 13 28 14 85 15 79 16 81 17 29 18 84 19 78 20 77 21 30 23
REMARK SMILES IDX 64 24 43 25 63 26 44 27 47 28 62 29 82 30 45 31 46 32 61 34
REMARK SMILES IDX 83 35 48 36 31 37 32 38 41 39 33 40 34 41 40 42 42 43 35 44
REMARK SMILES IDX 36 45 37 46 38 47 39 48 65 49 66 50 75 51 67 52 68 53 74 54
REMARK SMILES IDX 76 55 69 56 70 57 71 58 72 59 73 60 49 61 50 62 59 63 51 64
REMARK SMILES IDX 52 65 58 66 60 67 53 68 54 69 55 70 56 71 57 72 5 73 6 74
REMARK SMILES IDX 7 75 8 76 9 77 10 78 21 79 11 80 20 81 12 82 13 83 14 85
REMARK SMILES IDX 15 86 19 87 16 88 18 89 17 90
REMARK H PARENT 81 22 47 33 13 84
REMARK Flexibility Score: inf
ROOT
ATOM      1  C   UNL A   1      34.360  33.058  27.985  1.00  0.00     0.275 C 
ENDROOT
BRANCH   1   2
ATOM      2  O   UNL A   1      33.770  31.750  28.104  1.00  0.00    -0.458 OA
BRANCH   2   3
ATOM      3  C   UNL A   1      34.304  30.528  27.870  1.00  0.00     0.338 C 
ATOM      4  O   UNL A   1      33.569  29.644  27.432  1.00  0.00    -0.246 OA
BRANCH   3   5
ATOM      5  C   UNL A   1      35.694  30.142  28.265  1.00  0.00     0.060 A 
ATOM      6  C   UNL A   1      36.100  29.722  29.533  1.00  0.00     0.016 A 
ATOM      7  C   UNL A   1      36.673  30.227  27.258  1.00  0.00     0.016 A 
ATOM      8  C   UNL A   1      37.417  29.310  29.770  1.00  0.00     0.010 A 
ATOM      9  C   UNL A   1      37.990  29.817  27.487  1.00  0.00     0.010 A 
ATOM     10  C   UNL A   1      38.366  29.345  28.748  1.00  0.00    -0.014 A 
BRANCH  10  11
ATOM     11  C   UNL A   1      39.777  29.007  29.036  1.00  0.00     0.031 A 
ATOM     12  C   UNL A   1      40.663  30.079  29.592  1.00  0.00     0.074 A 
ATOM     13  C   UNL A   1      40.231  27.751  28.858  1.00  0.00     0.049 A 
ATOM     14  N   UNL A   1      41.930  30.025  29.890  1.00  0.00    -0.248 NA
ATOM     15  C   UNL A   1      40.027  31.375  29.888  1.00  0.00     0.031 C 
ATOM     16  C   UNL A   1      39.402  26.619  28.453  1.00  0.00     0.029 A 
ATOM     17  N   UNL A   1      41.488  27.211  28.979  1.00  0.00    -0.354 N 
ATOM     18  C   UNL A   1      42.235  31.258  30.450  1.00  0.00     0.074 A 
ATOM     19  C   UNL A   1      41.038  32.064  30.396  1.00  0.00     0.031 C 
ATOM     20  C   UNL A   1      40.176  25.532  28.310  1.00  0.00     0.029 A 
ATOM     21  C   UNL A   1      41.567  25.902  28.551  1.00  0.00     0.049 A 
ATOM     22  H   UNL A   1      42.257  27.711  29.336  1.00  0.00     0.167 HD
ATOM     23  C   UNL A   1      43.407  31.657  30.992  1.00  0.00     0.037 A 
ATOM     24  C   UNL A   1      42.648  25.123  28.321  1.00  0.00     0.037 A 
ATOM     25  C   UNL A   1      44.584  30.834  31.016  1.00  0.00     0.049 A 
ATOM     26  C   UNL A   1      44.002  25.726  28.642  1.00  0.00     0.074 A 
ATOM     27  C   UNL A   1      45.821  31.112  31.563  1.00  0.00     0.029 A 
ATOM     28  N   UNL A   1      44.669  29.574  30.438  1.00  0.00    -0.354 N 
ATOM     29  N   UNL A   1      44.272  26.862  29.248  1.00  0.00    -0.248 NA
ATOM     30  C   UNL A   1      45.198  24.966  28.255  1.00  0.00     0.031 C 
ATOM     31  C   UNL A   1      46.673  30.043  31.263  1.00  0.00     0.029 A 
ATOM     32  C   UNL A   1      45.954  29.084  30.564  1.00  0.00     0.049 A 
ATOM     33  H   UNL A   1      43.923  29.101  30.003  1.00  0.00     0.167 HD
ATOM     34  C   UNL A   1      45.653  26.902  29.400  1.00  0.00     0.074 A 
ATOM     35  C   UNL A   1      46.170  25.695  28.790  1.00  0.00     0.031 C 
ATOM     36  C   UNL A   1      46.424  27.837  30.009  1.00  0.00     0.037 A 
BRANCH  23  37
ATOM     37  C   UNL A   1      43.464  33.034  31.582  1.00  0.00     0.058 A 
ATOM     38  C   UNL A   1      43.224  33.256  32.948  1.00  0.00     0.135 A 
ATOM     39  C   UNL A   1      43.777  34.142  30.781  1.00  0.00     0.135 A 
ATOM     40  F   UNL A   1      42.897  32.233  33.753  1.00  0.00    -0.206 F 
ATOM     41  C   UNL A   1      43.276  34.533  33.495  1.00  0.00     0.059 A 
ATOM     42  C   UNL A   1      43.852  35.426  31.310  1.00  0.00     0.059 A 
ATOM     43  F   UNL A   1      44.002  33.982  29.467  1.00  0.00    -0.206 F 
ATOM     44  C   UNL A   1      43.590  35.614  32.668  1.00  0.00     0.060 A 
BRANCH  44  45
ATOM     45  S   UNL A   1      43.658  37.264  33.394  1.00  0.00     0.124 S 
ATOM     46  O   UNL A   1      43.670  38.107  32.203  1.00  0.00    -0.237 OA
ATOM     47  O   UNL A   1      42.433  37.306  34.186  1.00  0.00    -0.237 OA
ATOM     48  O   UNL A   1      44.898  37.247  34.163  1.00  0.00    -0.744 OA
ENDBRANCH  44  45
ENDBRANCH  23  37
BRANCH  24  49
ATOM     49  C   UNL A   1      42.529  23.767  27.681  1.00  0.00     0.058 A 
ATOM     50  C   UNL A   1      42.434  22.579  28.420  1.00  0.00     0.135 A 
ATOM     51  C   UNL A   1      42.608  23.619  26.286  1.00  0.00     0.135 A 
ATOM     52  F   UNL A   1      42.316  22.629  29.756  1.00  0.00    -0.206 F 
ATOM     53  C   UNL A   1      42.507  21.320  27.816  1.00  0.00     0.059 A 
ATOM     54  C   UNL A   1      42.660  22.382  25.652  1.00  0.00     0.059 A 
ATOM     55  F   UNL A   1      42.610  24.701  25.501  1.00  0.00    -0.206 F 
ATOM     56  C   UNL A   1      42.636  21.233  26.429  1.00  0.00     0.060 A 
BRANCH  56  57
ATOM     57  S   UNL A   1      42.826  19.613  25.653  1.00  0.00     0.124 S 
ATOM     58  O   UNL A   1      41.454  19.294  25.273  1.00  0.00    -0.237 OA
ATOM     59  O   UNL A   1      43.741  19.914  24.558  1.00  0.00    -0.237 OA
ATOM     60  O   UNL A   1      43.381  18.789  26.724  1.00  0.00    -0.744 OA
ENDBRANCH  56  57
ENDBRANCH  24  49
BRANCH  36  61
ATOM     61  C   UNL A   1      47.889  27.541  30.159  1.00  0.00     0.058 A 
ATOM     62  C   UNL A   1      48.843  28.042  29.264  1.00  0.00     0.135 A 
ATOM     63  C   UNL A   1      48.344  26.826  31.279  1.00  0.00     0.135 A 
ATOM     64  F   UNL A   1      48.455  28.721  28.173  1.00  0.00    -0.206 F 
ATOM     65  C   UNL A   1      50.203  27.845  29.474  1.00  0.00     0.059 A 
ATOM     66  C   UNL A   1      49.698  26.640  31.524  1.00  0.00     0.059 A 
ATOM     67  F   UNL A   1      47.467  26.337  32.171  1.00  0.00    -0.206 F 
ATOM     68  C   UNL A   1      50.621  27.151  30.613  1.00  0.00     0.060 A 
BRANCH  68  69
ATOM     69  S   UNL A   1      52.391  26.973  30.919  1.00  0.00     0.124 S 
ATOM     70  O   UNL A   1      52.708  25.788  30.128  1.00  0.00    -0.237 OA
ATOM     71  O   UNL A   1      52.926  28.234  30.416  1.00  0.00    -0.237 OA
ATOM     72  O   UNL A   1      52.469  26.802  32.367  1.00  0.00    -0.744 OA
ENDBRANCH  68  69
ENDBRANCH  36  61
ENDBRANCH  10  11
ENDBRANCH   3   5
ENDBRANCH   2   3
ENDBRANCH   1   2
BRANCH   1  73
ATOM     73  C   UNL A   1      33.592  34.176  28.695  1.00  0.00     0.275 C 
BRANCH  73  74
ATOM     74  O   UNL A   1      34.372  34.883  29.673  1.00  0.00    -0.458 OA
BRANCH  74  75
ATOM     75  C   UNL A   1      34.063  34.606  30.967  1.00  0.00     0.341 C 
ATOM     76  O   UNL A   1      33.070  34.954  31.575  1.00  0.00    -0.246 OA
BRANCH  75  77
ATOM     77  C   UNL A   1      35.043  33.666  31.506  1.00  0.00     0.096 A 
ATOM     78  C   UNL A   1      34.772  32.361  31.821  1.00  0.00     0.132 A 
ATOM     79  C   UNL A   1      36.319  34.087  31.779  1.00  0.00     0.132 A 
ATOM     80  N   UNL A   1      35.676  31.542  32.407  1.00  0.00    -0.220 NA
ATOM     81  N   UNL A   1      37.228  33.324  32.426  1.00  0.00    -0.220 NA
ATOM     82  C   UNL A   1      36.867  32.066  32.747  1.00  0.00     0.227 A 
BRANCH  82  83
ATOM     83  N   UNL A   1      37.744  31.391  33.584  1.00  0.00    -0.324 N 
ATOM     84  H   UNL A   1      37.721  31.700  34.519  1.00  0.00     0.170 HD
BRANCH  83  85
ATOM     85  C   UNL A   1      38.653  30.356  33.352  1.00  0.00     0.041 A 
ATOM     86  C   UNL A   1      40.021  30.576  33.572  1.00  0.00     0.026 A 
ATOM     87  C   UNL A   1      38.248  29.097  32.903  1.00  0.00     0.026 A 
ATOM     88  C   UNL A   1      40.960  29.568  33.337  1.00  0.00     0.002 A 
ATOM     89  C   UNL A   1      39.189  28.100  32.624  1.00  0.00     0.002 A 
ATOM     90  C   UNL A   1      40.545  28.333  32.850  1.00  0.00     0.000 A 
ENDBRANCH  83  85
ENDBRANCH  82  83
ENDBRANCH  75  77
ENDBRANCH  74  75
ENDBRANCH  73  74
ENDBRANCH   1  73
TORSDOF 16
ENDMDL
MODEL 2
REMARK VINA RESULT:      -9.3      2.733     10.834
REMARK SMILES O=C(OCCOC(=O)c1cnc(Nc2ccccc2)nc1)c1ccc(-c2c3nc(c(-c4c(F)cc(S(=O)(=O)[O-])cc4F)c4ccc([nH]4)c(-c4c(F)cc(S(=O)(=O)[O-])cc4F)c4nc(c(-c5c(F)cc(S(=O)(=O)[O-])cc5F)c5ccc2[nH]5)C=C4)C=C3)cc1
REMARK SMILES IDX 4 1 3 2 2 3 1 4 22 5 23 6 87 7 24 8 86 9 25 10 26 11 27 12
REMARK SMILES IDX 80 13 28 14 85 15 79 16 81 17 29 18 84 19 78 20 77 21 30 23
REMARK SMILES IDX 64 24 43 25 63 26 44 27 47 28 62 29 82 30 45 31 46 32 61 34
REMARK SMILES IDX 83 35 48 36 31 37 32 38 41 39 33 40 34 41 40 42 42 43 35 44
REMARK SMILES IDX 36 45 37 46 38 47 39 48 65 49 66 50 75 51 67 52 68 53 74 54
REMARK SMILES IDX 76 55 69 56 70 57 71 58 72 59 73 60 49 61 50 62 59 63 51 64
REMARK SMILES IDX 52 65 58 66 60 67 53 68 54 69 55 70 56 71 57 72 5 73 6 74
REMARK SMILES IDX 7 75 8 76 9 77 10 78 21 79 11 80 20 81 12 82 13 83 14 85
REMARK SMILES IDX 15 86 19 87 16 88 18 89 17 90
REMARK H PARENT 81 22 47 33 13 84
REMARK Flexibility Score: inf
ROOT
ATOM      1  C   UNL A   1      40.408  21.175  27.091  1.00  0.00     0.275 C 
ENDROOT
BRANCH   1   2
ATOM      2  O   UNL A   1      39.524  21.767  26.123  1.00  0.00    -0.458 OA
BRANCH   2   3
ATOM      3  C   UNL A   1      38.807  22.914  26.183  1.00  0.00     0.338 C 
ATOM      4  O   UNL A   1      37.734  22.965  25.584  1.00  0.00    -0.246 OA
BRANCH   3   5
ATOM      5  C   UNL A   1      39.318  24.179  26.798  1.00  0.00     0.060 A 
ATOM      6  C   UNL A   1      40.154  25.112  26.182  1.00  0.00     0.016 A 
ATOM      7  C   UNL A   1      38.920  24.431  28.124  1.00  0.00     0.016 A 
ATOM      8  C   UNL A   1      40.508  26.302  26.828  1.00  0.00     0.010 A 
ATOM      9  C   UNL A   1      39.269  25.617  28.776  1.00  0.00     0.010 A 
ATOM     10  C   UNL A   1      40.060  26.567  28.123  1.00  0.00    -0.014 A 
BRANCH  10  11
ATOM     11  C   UNL A   1      40.525  27.778  28.833  1.00  0.00     0.031 A 
ATOM     12  C   UNL A   1      41.892  27.759  29.445  1.00  0.00     0.074 A 
ATOM     13  C   UNL A   1      39.759  28.885  28.874  1.00  0.00     0.049 A 
ATOM     14  N   UNL A   1      42.495  28.684  30.138  1.00  0.00    -0.248 NA
ATOM     15  C   UNL A   1      42.704  26.551  29.214  1.00  0.00     0.031 C 
ATOM     16  C   UNL A   1      38.478  29.033  28.188  1.00  0.00     0.029 A 
ATOM     17  N   UNL A   1      39.928  30.086  29.518  1.00  0.00    -0.354 N 
ATOM     18  C   UNL A   1      43.770  28.193  30.385  1.00  0.00     0.074 A 
ATOM     19  C   UNL A   1      43.837  26.864  29.825  1.00  0.00     0.031 C 
ATOM     20  C   UNL A   1      37.953  30.232  28.486  1.00  0.00     0.029 A 
ATOM     21  C   UNL A   1      38.826  30.914  29.434  1.00  0.00     0.049 A 
ATOM     22  H   UNL A   1      40.754  30.332  29.994  1.00  0.00     0.167 HD
ATOM     23  C   UNL A   1      44.797  28.822  30.998  1.00  0.00     0.037 A 
ATOM     24  C   UNL A   1      38.540  32.054  30.101  1.00  0.00     0.037 A 
ATOM     25  C   UNL A   1      44.692  30.140  31.558  1.00  0.00     0.049 A 
ATOM     26  C   UNL A   1      39.605  32.576  31.046  1.00  0.00     0.074 A 
ATOM     27  C   UNL A   1      45.668  30.898  32.175  1.00  0.00     0.029 A 
ATOM     28  N   UNL A   1      43.520  30.885  31.589  1.00  0.00    -0.354 N 
ATOM     29  N   UNL A   1      40.839  32.148  31.210  1.00  0.00    -0.248 NA
ATOM     30  C   UNL A   1      39.261  33.721  31.900  1.00  0.00     0.031 C 
ATOM     31  C   UNL A   1      45.071  32.077  32.633  1.00  0.00     0.029 A 
ATOM     32  C   UNL A   1      43.733  32.071  32.266  1.00  0.00     0.049 A 
ATOM     33  H   UNL A   1      42.665  30.609  31.188  1.00  0.00     0.167 HD
ATOM     34  C   UNL A   1      41.439  33.028  32.105  1.00  0.00     0.074 A 
ATOM     35  C   UNL A   1      40.424  33.991  32.479  1.00  0.00     0.031 C 
ATOM     36  C   UNL A   1      42.716  33.052  32.558  1.00  0.00     0.037 A 
BRANCH  23  37
ATOM     37  C   UNL A   1      46.100  28.087  31.096  1.00  0.00     0.058 A 
ATOM     38  C   UNL A   1      46.369  27.211  32.160  1.00  0.00     0.135 A 
ATOM     39  C   UNL A   1      47.086  28.246  30.111  1.00  0.00     0.135 A 
ATOM     40  F   UNL A   1      45.469  27.043  33.142  1.00  0.00    -0.206 F 
ATOM     41  C   UNL A   1      47.578  26.531  32.252  1.00  0.00     0.059 A 
ATOM     42  C   UNL A   1      48.295  27.562  30.172  1.00  0.00     0.059 A 
ATOM     43  F   UNL A   1      46.881  29.082  29.081  1.00  0.00    -0.206 F 
ATOM     44  C   UNL A   1      48.536  26.713  31.253  1.00  0.00     0.060 A 
BRANCH  44  45
ATOM     45  S   UNL A   1      50.099  25.819  31.385  1.00  0.00     0.124 S 
ATOM     46  O   UNL A   1      49.973  24.851  30.299  1.00  0.00    -0.237 OA
ATOM     47  O   UNL A   1      51.082  26.877  31.178  1.00  0.00    -0.237 OA
ATOM     48  O   UNL A   1      50.058  25.258  32.732  1.00  0.00    -0.744 OA
ENDBRANCH  44  45
ENDBRANCH  23  37
BRANCH  24  49
ATOM     49  C   UNL A   1      37.195  32.720  29.997  1.00  0.00     0.058 A 
ATOM     50  C   UNL A   1      36.908  33.719  29.056  1.00  0.00     0.135 A 
ATOM     51  C   UNL A   1      36.176  32.433  30.920  1.00  0.00     0.135 A 
ATOM     52  F   UNL A   1      37.810  34.030  28.113  1.00  0.00    -0.206 F 
ATOM     53  C   UNL A   1      35.718  34.453  29.090  1.00  0.00     0.059 A 
ATOM     54  C   UNL A   1      34.971  33.128  30.967  1.00  0.00     0.059 A 
ATOM     55  F   UNL A   1      36.330  31.433  31.794  1.00  0.00    -0.206 F 
ATOM     56  C   UNL A   1      34.760  34.158  30.062  1.00  0.00     0.060 A 
BRANCH  56  57
ATOM     57  S   UNL A   1      33.263  35.163  30.169  1.00  0.00     0.124 S 
ATOM     58  O   UNL A   1      32.444  34.606  29.099  1.00  0.00    -0.237 OA
ATOM     59  O   UNL A   1      32.816  34.884  31.530  1.00  0.00    -0.237 OA
ATOM     60  O   UNL A   1      33.751  36.520  29.936  1.00  0.00    -0.744 OA
ENDBRANCH  56  57
ENDBRANCH  24  49
BRANCH  36  61
ATOM     61  C   UNL A   1      43.130  34.220  33.408  1.00  0.00     0.058 A 
ATOM     62  C   UNL A   1      43.147  34.150  34.807  1.00  0.00     0.135 A 
ATOM     63  C   UNL A   1      43.613  35.389  32.798  1.00  0.00     0.135 A 
ATOM     64  F   UNL A   1      42.684  33.058  35.436  1.00  0.00    -0.206 F 
ATOM     65  C   UNL A   1      43.630  35.204  35.576  1.00  0.00     0.059 A 
ATOM     66  C   UNL A   1      44.125  36.442  33.545  1.00  0.00     0.059 A 
ATOM     67  F   UNL A   1      43.627  35.497  31.459  1.00  0.00    -0.206 F 
ATOM     68  C   UNL A   1      44.126  36.341  34.934  1.00  0.00     0.060 A 
BRANCH  68  69
ATOM     69  S   UNL A   1      44.827  37.667  35.939  1.00  0.00     0.124 S 
ATOM     70  O   UNL A   1      44.860  37.049  37.260  1.00  0.00    -0.237 OA
ATOM     71  O   UNL A   1      46.125  37.887  35.308  1.00  0.00    -0.237 OA
ATOM     72  O   UNL A   1      43.869  38.758  35.779  1.00  0.00    -0.744 OA
ENDBRANCH  68  69
ENDBRANCH  36  61
ENDBRANCH  10  11
ENDBRANCH   3   5
ENDBRANCH   2   3
ENDBRANCH   1   2
BRANCH   1  73
ATOM     73  C   UNL A   1      41.437  20.201  26.510  1.00  0.00     0.275 C 
BRANCH  73  74
ATOM     74  O   UNL A   1      42.800  20.597  26.733  1.00  0.00    -0.458 OA
BRANCH  74  75
ATOM     75  C   UNL A   1      43.524  20.833  25.606  1.00  0.00     0.341 C 
ATOM     76  O   UNL A   1      43.711  20.067  24.682  1.00  0.00    -0.246 OA
BRANCH  75  77
ATOM     77  C   UNL A   1      43.931  22.235  25.579  1.00  0.00     0.096 A 
ATOM     78  C   UNL A   1      43.546  23.171  26.502  1.00  0.00     0.132 A 
ATOM     79  C   UNL A   1      44.709  22.704  24.552  1.00  0.00     0.132 A 
ATOM     80  N   UNL A   1      43.862  24.483  26.398  1.00  0.00    -0.220 NA
ATOM     81  N   UNL A   1      44.988  24.014  24.372  1.00  0.00    -0.220 NA
ATOM     82  C   UNL A   1      44.530  24.879  25.299  1.00  0.00     0.227 A 
BRANCH  82  83
ATOM     83  N   UNL A   1      44.658  26.222  24.974  1.00  0.00    -0.324 N 
ATOM     84  H   UNL A   1      45.294  26.396  24.242  1.00  0.00     0.170 HD
BRANCH  83  85
ATOM     85  C   UNL A   1      44.058  27.373  25.489  1.00  0.00     0.041 A 
ATOM     86  C   UNL A   1      44.762  28.170  26.403  1.00  0.00     0.026 A 
ATOM     87  C   UNL A   1      42.767  27.765  25.124  1.00  0.00     0.026 A 
ATOM     88  C   UNL A   1      44.187  29.321  26.949  1.00  0.00     0.002 A 
ATOM     89  C   UNL A   1      42.172  28.892  25.702  1.00  0.00     0.002 A 
ATOM     90  C   UNL A   1      42.885  29.675  26.608  1.00  0.00     0.000 A 
ENDBRANCH  83  85
ENDBRANCH  82  83
ENDBRANCH  75  77
ENDBRANCH  74  75
ENDBRANCH  73  74
ENDBRANCH   1  73
TORSDOF 16
ENDMDL
MODEL 3
REMARK VINA RESULT:      -9.2      2.787     10.750
REMARK SMILES O=C(OCCOC(=O)c1cnc(Nc2ccccc2)nc1)c1ccc(-c2c3nc(c(-c4c(F)cc(S(=O)(=O)[O-])cc4F)c4ccc([nH]4)c(-c4c(F)cc(S(=O)(=O)[O-])cc4F)c4nc(c(-c5c(F)cc(S(=O)(=O)[O-])cc5F)c5ccc2[nH]5)C=C4)C=C3)cc1
REMARK SMILES IDX 4 1 3 2 2 3 1 4 22 5 23 6 87 7 24 8 86 9 25 10 26 11 27 12
REMARK SMILES IDX 80 13 28 14 85 15 79 16 81 17 29 18 84 19 78 20 77 21 30 23
REMARK SMILES IDX 64 24 43 25 63 26 44 27 47 28 62 29 82 30 45 31 46 32 61 34
REMARK SMILES IDX 83 35 48 36 31 37 32 38 41 39 33 40 34 41 40 42 42 43 35 44
REMARK SMILES IDX 36 45 37 46 38 47 39 48 65 49 66 50 75 51 67 52 68 53 74 54
REMARK SMILES IDX 76 55 69 56 70 57 71 58 72 59 73 60 49 61 50 62 59 63 51 64
REMARK SMILES IDX 52 65 58 66 60 67 53 68 54 69 55 70 56 71 57 72 5 73 6 74
REMARK SMILES IDX 7 75 8 76 9 77 10 78 21 79 11 80 20 81 12 82 13 83 14 85
REMARK SMILES IDX 15 86 19 87 16 88 18 89 17 90
REMARK H PARENT 81 22 47 33 13 84
REMARK Flexibility Score: inf
ROOT
ATOM      1  C   UNL A   1      40.121  21.068  26.752  1.00  0.00     0.275 C 
ENDROOT
BRANCH   1   2
ATOM      2  O   UNL A   1      39.333  21.823  25.814  1.00  0.00    -0.458 OA
BRANCH   2   3
ATOM      3  C   UNL A   1      38.589  22.939  25.998  1.00  0.00     0.338 C 
ATOM      4  O   UNL A   1      37.545  23.059  25.358  1.00  0.00    -0.246 OA
BRANCH   3   5
ATOM      5  C   UNL A   1      39.041  24.111  26.812  1.00  0.00     0.060 A 
ATOM      6  C   UNL A   1      38.595  24.443  28.092  1.00  0.00     0.016 A 
ATOM      7  C   UNL A   1      39.996  24.953  26.211  1.00  0.00     0.016 A 
ATOM      8  C   UNL A   1      39.146  25.522  28.791  1.00  0.00     0.010 A 
ATOM      9  C   UNL A   1      40.551  26.032  26.904  1.00  0.00     0.010 A 
ATOM     10  C   UNL A   1      40.134  26.316  28.207  1.00  0.00    -0.014 A 
BRANCH  10  11
ATOM     11  C   UNL A   1      40.634  27.516  28.914  1.00  0.00     0.031 A 
ATOM     12  C   UNL A   1      41.984  27.447  29.559  1.00  0.00     0.074 A 
ATOM     13  C   UNL A   1      39.915  28.655  28.923  1.00  0.00     0.049 A 
ATOM     14  N   UNL A   1      42.609  28.354  30.255  1.00  0.00    -0.248 NA
ATOM     15  C   UNL A   1      42.749  26.202  29.361  1.00  0.00     0.031 C 
ATOM     16  C   UNL A   1      38.658  28.848  28.206  1.00  0.00     0.029 A 
ATOM     17  N   UNL A   1      40.119  29.856  29.557  1.00  0.00    -0.354 N 
ATOM     18  C   UNL A   1      43.856  27.814  30.539  1.00  0.00     0.074 A 
ATOM     19  C   UNL A   1      43.880  26.475  29.995  1.00  0.00     0.031 C 
ATOM     20  C   UNL A   1      38.177  30.072  28.476  1.00  0.00     0.029 A 
ATOM     21  C   UNL A   1      39.056  30.728  29.437  1.00  0.00     0.049 A 
ATOM     22  H   UNL A   1      40.943  30.072  30.050  1.00  0.00     0.167 HD
ATOM     23  C   UNL A   1      44.895  28.406  31.168  1.00  0.00     0.037 A 
ATOM     24  C   UNL A   1      38.804  31.888  30.083  1.00  0.00     0.037 A 
ATOM     25  C   UNL A   1      44.832  29.735  31.709  1.00  0.00     0.049 A 
ATOM     26  C   UNL A   1      39.867  32.377  31.047  1.00  0.00     0.074 A 
ATOM     27  C   UNL A   1      45.825  30.458  32.341  1.00  0.00     0.029 A 
ATOM     28  N   UNL A   1      43.693  30.529  31.704  1.00  0.00    -0.354 N 
ATOM     29  N   UNL A   1      41.077  31.899  31.246  1.00  0.00    -0.248 NA
ATOM     30  C   UNL A   1      39.552  33.546  31.879  1.00  0.00     0.031 C 
ATOM     31  C   UNL A   1      45.268  31.668  32.770  1.00  0.00     0.029 A 
ATOM     32  C   UNL A   1      43.940  31.713  32.372  1.00  0.00     0.049 A 
ATOM     33  H   UNL A   1      42.836  30.284  31.286  1.00  0.00     0.167 HD
ATOM     34  C   UNL A   1      41.693  32.764  32.144  1.00  0.00     0.074 A 
ATOM     35  C   UNL A   1      40.712  33.774  32.482  1.00  0.00     0.031 C 
ATOM     36  C   UNL A   1      42.959  32.740  32.628  1.00  0.00     0.037 A 
BRANCH  23  37
ATOM     37  C   UNL A   1      46.162  27.618  31.307  1.00  0.00     0.058 A 
ATOM     38  C   UNL A   1      47.177  27.686  30.339  1.00  0.00     0.135 A 
ATOM     39  C   UNL A   1      46.374  26.797  32.424  1.00  0.00     0.135 A 
ATOM     40  F   UNL A   1      47.014  28.438  29.239  1.00  0.00    -0.206 F 
ATOM     41  C   UNL A   1      48.352  26.954  30.467  1.00  0.00     0.059 A 
ATOM     42  C   UNL A   1      47.549  26.070  32.582  1.00  0.00     0.059 A 
ATOM     43  F   UNL A   1      45.428  26.688  33.370  1.00  0.00    -0.206 F 
ATOM     44  C   UNL A   1      48.529  26.147  31.593  1.00  0.00     0.060 A 
BRANCH  44  45
ATOM     45  S   UNL A   1      50.062  25.206  31.746  1.00  0.00     0.124 S 
ATOM     46  O   UNL A   1      50.184  24.628  30.412  1.00  0.00    -0.237 OA
ATOM     47  O   UNL A   1      51.032  26.244  32.077  1.00  0.00    -0.237 OA
ATOM     48  O   UNL A   1      49.773  24.257  32.817  1.00  0.00    -0.744 OA
ENDBRANCH  44  45
ENDBRANCH  23  37
BRANCH  24  49
ATOM     49  C   UNL A   1      37.491  32.608  29.939  1.00  0.00     0.058 A 
ATOM     50  C   UNL A   1      36.283  32.103  30.443  1.00  0.00     0.135 A 
ATOM     51  C   UNL A   1      37.398  33.797  29.196  1.00  0.00     0.135 A 
ATOM     52  F   UNL A   1      36.284  30.993  31.197  1.00  0.00    -0.206 F 
ATOM     53  C   UNL A   1      35.050  32.691  30.145  1.00  0.00     0.059 A 
ATOM     54  C   UNL A   1      36.189  34.420  28.901  1.00  0.00     0.059 A 
ATOM     55  F   UNL A   1      38.509  34.396  28.757  1.00  0.00    -0.206 F 
ATOM     56  C   UNL A   1      35.013  33.844  29.359  1.00  0.00     0.060 A 
BRANCH  56  57
ATOM     57  S   UNL A   1      33.419  34.553  28.894  1.00  0.00     0.124 S 
ATOM     58  O   UNL A   1      32.753  34.680  30.186  1.00  0.00    -0.237 OA
ATOM     59  O   UNL A   1      33.824  35.801  28.257  1.00  0.00    -0.237 OA
ATOM     60  O   UNL A   1      32.850  33.549  27.999  1.00  0.00    -0.744 OA
ENDBRANCH  56  57
ENDBRANCH  24  49
BRANCH  36  61
ATOM     61  C   UNL A   1      43.403  33.900  33.474  1.00  0.00     0.058 A 
ATOM     62  C   UNL A   1      43.883  35.088  32.910  1.00  0.00     0.135 A 
ATOM     63  C   UNL A   1      43.243  33.846  34.868  1.00  0.00     0.135 A 
ATOM     64  F   UNL A   1      44.063  35.183  31.583  1.00  0.00    -0.206 F 
ATOM     65  C   UNL A   1      44.192  36.189  33.701  1.00  0.00     0.059 A 
ATOM     66  C   UNL A   1      43.520  34.942  35.676  1.00  0.00     0.059 A 
ATOM     67  F   UNL A   1      42.775  32.731  35.453  1.00  0.00    -0.206 F 
ATOM     68  C   UNL A   1      43.997  36.109  35.083  1.00  0.00     0.060 A 
BRANCH  68  69
ATOM     69  S   UNL A   1      44.322  37.571  36.091  1.00  0.00     0.124 S 
ATOM     70  O   UNL A   1      43.442  37.341  37.232  1.00  0.00    -0.237 OA
ATOM     71  O   UNL A   1      45.752  37.456  36.359  1.00  0.00    -0.237 OA
ATOM     72  O   UNL A   1      43.943  38.677  35.217  1.00  0.00    -0.744 OA
ENDBRANCH  68  69
ENDBRANCH  36  61
ENDBRANCH  10  11
ENDBRANCH   3   5
ENDBRANCH   2   3
ENDBRANCH   1   2
BRANCH   1  73
ATOM     73  C   UNL A   1      41.170  20.151  26.117  1.00  0.00     0.275 C 
BRANCH  73  74
ATOM     74  O   UNL A   1      42.515  20.434  26.533  1.00  0.00    -0.458 OA
BRANCH  74  75
ATOM     75  C   UNL A   1      43.407  20.611  25.522  1.00  0.00     0.341 C 
ATOM     76  O   UNL A   1      43.705  19.808  24.659  1.00  0.00    -0.246 OA
BRANCH  75  77
ATOM     77  C   UNL A   1      43.859  21.999  25.515  1.00  0.00     0.096 A 
ATOM     78  C   UNL A   1      43.633  22.892  26.528  1.00  0.00     0.132 A 
ATOM     79  C   UNL A   1      44.513  22.502  24.420  1.00  0.00     0.132 A 
ATOM     80  N   UNL A   1      43.981  24.198  26.452  1.00  0.00    -0.220 NA
ATOM     81  N   UNL A   1      44.815  23.812  24.274  1.00  0.00    -0.220 NA
ATOM     82  C   UNL A   1      44.514  24.636  25.298  1.00  0.00     0.227 A 
BRANCH  82  83
ATOM     83  N   UNL A   1      44.649  25.990  25.030  1.00  0.00    -0.324 N 
ATOM     84  H   UNL A   1      45.344  26.198  24.364  1.00  0.00     0.170 HD
BRANCH  83  85
ATOM     85  C   UNL A   1      43.986  27.115  25.526  1.00  0.00     0.041 A 
ATOM     86  C   UNL A   1      42.728  27.459  25.009  1.00  0.00     0.026 A 
ATOM     87  C   UNL A   1      44.534  27.920  26.529  1.00  0.00     0.026 A 
ATOM     88  C   UNL A   1      42.042  28.586  25.472  1.00  0.00     0.002 A 
ATOM     89  C   UNL A   1      43.871  29.073  26.962  1.00  0.00     0.002 A 
ATOM     90  C   UNL A   1      42.620  29.401  26.440  1.00  0.00     0.000 A 
ENDBRANCH  83  85
ENDBRANCH  82  83
ENDBRANCH  75  77
ENDBRANCH  74  75
ENDBRANCH  73  74
ENDBRANCH   1  73
TORSDOF 16
ENDMDL
