MODEL 1
REMARK VINA RESULT:     -11.6      0.000      0.000
REMARK SMILES CC[NH+]1CC[NH+]([C@@H]2CC(=O)N(c3ccc(C(=O)OCCOC(=O)c4ccc(-c5c6nc(c(-c7c(F)cc(S(=O)(=O)[O-])cc7F)c7ccc([nH]7)c(-c7c(F)cc(S(=O)(=O)[O-])cc7F)c7nc(c(-c8c(F)cc(S(=O)(=O)[O-])cc8F)c8ccc5[nH]8)C=C7)C=C6)cc4)cc3)C2=O)CC1
REMARK SMILES IDX 19 1 18 2 16 3 17 4 15 5 12 6 13 7 91 8 14 9 90 10 11 11
REMARK SMILES IDX 7 12 8 13 92 14 9 15 93 16 10 17 6 18 3 19 4 20 95 21 5 23
REMARK SMILES IDX 94 24 2 26 1 27 20 28 21 29 22 30 23 31 24 32 25 33 89 34
REMARK SMILES IDX 26 35 88 36 27 37 28 38 29 39 82 40 30 41 87 42 81 43 83 44
REMARK SMILES IDX 31 45 86 46 80 47 79 48 32 50 66 51 45 52 65 53 46 54 49 55
REMARK SMILES IDX 64 56 84 57 47 58 48 59 63 61 85 62 50 63 33 64 34 65 43 66
REMARK SMILES IDX 35 67 36 68 42 69 44 70 37 71 38 72 39 73 40 74 41 75 67 76
REMARK SMILES IDX 68 77 77 78 69 79 70 80 76 81 78 82 71 83 72 84 73 85 74 86
REMARK SMILES IDX 75 87 51 88 52 89 61 90 53 91 54 92 60 93 62 94 55 95 56 96
REMARK SMILES IDX 57 97 58 98 59 99
REMARK H PARENT 3 22 6 25 83 49 49 60
REMARK Flexibility Score: inf
ROOT
ATOM      1  C   UNL A   1      42.717  22.009  26.116  1.00  0.00     0.275 C 
ENDROOT
BRANCH   1   2
ATOM      2  O   UNL A   1      41.470  21.392  25.739  1.00  0.00    -0.458 OA
BRANCH   2   3
ATOM      3  C   UNL A   1      40.511  21.396  26.696  1.00  0.00     0.338 C 
ATOM      4  O   UNL A   1      40.654  21.111  27.872  1.00  0.00    -0.246 OA
BRANCH   3   5
ATOM      5  C   UNL A   1      39.227  21.881  26.146  1.00  0.00     0.060 A 
ATOM      6  C   UNL A   1      36.705  22.847  25.347  1.00  0.00     0.052 A 
ATOM      7  C   UNL A   1      37.615  23.688  25.985  1.00  0.00     0.028 A 
ATOM      8  C   UNL A   1      37.087  21.519  25.089  1.00  0.00     0.028 A 
ATOM      9  C   UNL A   1      38.840  23.194  26.412  1.00  0.00     0.018 A 
ATOM     10  C   UNL A   1      38.354  21.041  25.461  1.00  0.00     0.018 A 
BRANCH   6  11
ATOM     11  N   UNL A   1      35.401  23.329  25.081  1.00  0.00    -0.245 N 
ATOM     12  C   UNL A   1      33.640  24.471  24.009  1.00  0.00     0.285 C 
ATOM     13  C   UNL A   1      33.251  24.162  25.446  1.00  0.00     0.176 C 
ATOM     14  C   UNL A   1      34.991  23.790  23.847  1.00  0.00     0.292 C 
ATOM     15  C   UNL A   1      34.433  23.467  26.039  1.00  0.00     0.240 C 
ATOM     16  O   UNL A   1      35.568  23.662  22.774  1.00  0.00    -0.267 OA
ATOM     17  O   UNL A   1      34.474  23.151  27.222  1.00  0.00    -0.274 OA
BRANCH  12  18
ATOM     18  N   UNL A   1      33.663  25.863  23.514  1.00  0.00    -0.315 N 
ATOM     19  N   UNL A   1      31.012  27.219  23.030  1.00  0.00    -0.326 N 
ATOM     20  C   UNL A   1      31.609  26.280  22.055  1.00  0.00     0.324 C 
ATOM     21  C   UNL A   1      31.614  27.075  24.371  1.00  0.00     0.324 C 
ATOM     22  H   UNL A   1      30.026  26.972  23.112  1.00  0.00     0.348 HD
ATOM     23  C   UNL A   1      33.137  26.050  22.158  1.00  0.00     0.325 C 
ATOM     24  C   UNL A   1      33.145  26.917  24.397  1.00  0.00     0.325 C 
ATOM     25  H   UNL A   1      34.674  25.998  23.499  1.00  0.00     0.349 HD
BRANCH  19  26
ATOM     26  C   UNL A   1      31.074  28.610  22.559  1.00  0.00     0.259 C 
ATOM     27  C   UNL A   1      29.758  29.325  22.852  1.00  0.00     0.071 C 
ENDBRANCH  19  26
ENDBRANCH  12  18
ENDBRANCH   6  11
ENDBRANCH   3   5
ENDBRANCH   2   3
ENDBRANCH   1   2
BRANCH   1  28
ATOM     28  C   UNL A   1      42.801  23.458  25.631  1.00  0.00     0.275 C 
BRANCH  28  29
ATOM     29  O   UNL A   1      42.210  24.367  26.578  1.00  0.00    -0.458 OA
BRANCH  29  30
ATOM     30  C   UNL A   1      41.923  25.591  26.082  1.00  0.00     0.338 C 
ATOM     31  O   UNL A   1      42.032  25.961  24.924  1.00  0.00    -0.246 OA
BRANCH  30  32
ATOM     32  C   UNL A   1      41.356  26.460  27.123  1.00  0.00     0.060 A 
ATOM     33  C   UNL A   1      41.891  27.732  27.263  1.00  0.00     0.016 A 
ATOM     34  C   UNL A   1      40.503  25.956  28.101  1.00  0.00     0.016 A 
ATOM     35  C   UNL A   1      41.753  28.419  28.463  1.00  0.00     0.010 A 
ATOM     36  C   UNL A   1      40.210  26.739  29.227  1.00  0.00     0.010 A 
ATOM     37  C   UNL A   1      40.877  27.959  29.454  1.00  0.00    -0.014 A 
BRANCH  37  38
ATOM     38  C   UNL A   1      40.661  28.755  30.702  1.00  0.00     0.031 A 
ATOM     39  C   UNL A   1      39.559  29.788  30.780  1.00  0.00     0.074 A 
ATOM     40  C   UNL A   1      41.455  28.555  31.777  1.00  0.00     0.049 A 
ATOM     41  N   UNL A   1      39.348  30.705  31.691  1.00  0.00    -0.248 NA
ATOM     42  C   UNL A   1      38.580  29.807  29.681  1.00  0.00     0.031 C 
ATOM     43  C   UNL A   1      42.535  27.567  31.867  1.00  0.00     0.029 A 
ATOM     44  N   UNL A   1      41.481  29.170  33.007  1.00  0.00    -0.354 N 
ATOM     45  C   UNL A   1      38.254  31.445  31.247  1.00  0.00     0.074 A 
ATOM     46  C   UNL A   1      37.855  30.877  29.977  1.00  0.00     0.031 C 
ATOM     47  C   UNL A   1      43.078  27.606  33.089  1.00  0.00     0.029 A 
ATOM     48  C   UNL A   1      42.479  28.703  33.834  1.00  0.00     0.049 A 
ATOM     49  H   UNL A   1      40.848  29.875  33.272  1.00  0.00     0.167 HD
ATOM     50  C   UNL A   1      37.644  32.498  31.843  1.00  0.00     0.037 A 
ATOM     51  C   UNL A   1      42.917  29.140  35.029  1.00  0.00     0.037 A 
ATOM     52  C   UNL A   1      38.021  33.020  33.134  1.00  0.00     0.049 A 
ATOM     53  C   UNL A   1      42.258  30.338  35.648  1.00  0.00     0.074 A 
ATOM     54  C   UNL A   1      37.451  34.067  33.839  1.00  0.00     0.029 A 
ATOM     55  N   UNL A   1      39.055  32.530  33.921  1.00  0.00    -0.354 N 
ATOM     56  N   UNL A   1      41.255  31.050  35.195  1.00  0.00    -0.248 NA
ATOM     57  C   UNL A   1      42.800  30.803  36.931  1.00  0.00     0.031 C 
ATOM     58  C   UNL A   1      38.175  34.245  35.023  1.00  0.00     0.029 A 
ATOM     59  C   UNL A   1      39.154  33.269  35.089  1.00  0.00     0.049 A 
ATOM     60  H   UNL A   1      39.633  31.770  33.682  1.00  0.00     0.167 HD
ATOM     61  C   UNL A   1      41.030  32.036  36.148  1.00  0.00     0.074 A 
ATOM     62  C   UNL A   1      41.990  31.815  37.210  1.00  0.00     0.031 C 
ATOM     63  C   UNL A   1      40.111  33.032  36.143  1.00  0.00     0.037 A 
BRANCH  50  64
ATOM     64  C   UNL A   1      36.527  33.186  31.099  1.00  0.00     0.058 A 
ATOM     65  C   UNL A   1      35.178  33.035  31.459  1.00  0.00     0.135 A 
ATOM     66  C   UNL A   1      36.820  34.053  30.030  1.00  0.00     0.135 A 
ATOM     67  F   UNL A   1      34.834  32.214  32.464  1.00  0.00    -0.206 F 
ATOM     68  C   UNL A   1      34.161  33.692  30.769  1.00  0.00     0.059 A 
ATOM     69  C   UNL A   1      35.821  34.744  29.348  1.00  0.00     0.059 A 
ATOM     70  F   UNL A   1      38.091  34.242  29.644  1.00  0.00    -0.206 F 
ATOM     71  C   UNL A   1      34.493  34.545  29.715  1.00  0.00     0.060 A 
BRANCH  71  72
ATOM     72  S   UNL A   1      33.162  35.392  28.835  1.00  0.00     0.124 S 
ATOM     73  O   UNL A   1      33.908  36.366  28.045  1.00  0.00    -0.237 OA
ATOM     74  O   UNL A   1      32.546  34.304  28.080  1.00  0.00    -0.237 OA
ATOM     75  O   UNL A   1      32.343  35.948  29.908  1.00  0.00    -0.744 OA
ENDBRANCH  71  72
ENDBRANCH  50  64
BRANCH  51  76
ATOM     76  C   UNL A   1      44.071  28.467  35.689  1.00  0.00     0.058 A 
ATOM     77  C   UNL A   1      45.389  28.850  35.408  1.00  0.00     0.135 A 
ATOM     78  C   UNL A   1      43.875  27.445  36.634  1.00  0.00     0.135 A 
ATOM     79  F   UNL A   1      45.630  29.814  34.507  1.00  0.00    -0.206 F 
ATOM     80  C   UNL A   1      46.474  28.238  36.029  1.00  0.00     0.059 A 
ATOM     81  C   UNL A   1      44.941  26.843  37.295  1.00  0.00     0.059 A 
ATOM     82  F   UNL A   1      42.633  27.050  36.953  1.00  0.00    -0.206 F 
ATOM     83  C   UNL A   1      46.239  27.239  36.976  1.00  0.00     0.060 A 
BRANCH  83  84
ATOM     84  S   UNL A   1      47.652  26.486  37.811  1.00  0.00     0.124 S 
ATOM     85  O   UNL A   1      48.765  26.998  37.020  1.00  0.00    -0.237 OA
ATOM     86  O   UNL A   1      47.529  27.023  39.163  1.00  0.00    -0.237 OA
ATOM     87  O   UNL A   1      47.394  25.056  37.686  1.00  0.00    -0.744 OA
ENDBRANCH  83  84
ENDBRANCH  51  76
BRANCH  63  88
ATOM     88  C   UNL A   1      40.067  33.932  37.346  1.00  0.00     0.058 A 
ATOM     89  C   UNL A   1      39.227  33.669  38.440  1.00  0.00     0.135 A 
ATOM     90  C   UNL A   1      40.908  35.054  37.420  1.00  0.00     0.135 A 
ATOM     91  F   UNL A   1      38.395  32.617  38.417  1.00  0.00    -0.206 F 
ATOM     92  C   UNL A   1      39.206  34.501  39.555  1.00  0.00     0.059 A 
ATOM     93  C   UNL A   1      40.927  35.881  38.537  1.00  0.00     0.059 A 
ATOM     94  F   UNL A   1      41.735  35.349  36.403  1.00  0.00    -0.206 F 
ATOM     95  C   UNL A   1      40.063  35.603  39.596  1.00  0.00     0.060 A 
BRANCH  95  96
ATOM     96  S   UNL A   1      40.050  36.654  41.063  1.00  0.00     0.124 S 
ATOM     97  O   UNL A   1      41.243  36.193  41.766  1.00  0.00    -0.237 OA
ATOM     98  O   UNL A   1      40.133  37.992  40.487  1.00  0.00    -0.237 OA
ATOM     99  O   UNL A   1      38.779  36.331  41.703  1.00  0.00    -0.744 OA
ENDBRANCH  95  96
ENDBRANCH  63  88
ENDBRANCH  37  38
ENDBRANCH  30  32
ENDBRANCH  29  30
ENDBRANCH  28  29
ENDBRANCH   1  28
TORSDOF 17
ENDMDL
MODEL 2
REMARK VINA RESULT:     -11.5      1.393      8.379
REMARK SMILES CC[NH+]1CC[NH+]([C@@H]2CC(=O)N(c3ccc(C(=O)OCCOC(=O)c4ccc(-c5c6nc(c(-c7c(F)cc(S(=O)(=O)[O-])cc7F)c7ccc([nH]7)c(-c7c(F)cc(S(=O)(=O)[O-])cc7F)c7nc(c(-c8c(F)cc(S(=O)(=O)[O-])cc8F)c8ccc5[nH]8)C=C7)C=C6)cc4)cc3)C2=O)CC1
REMARK SMILES IDX 19 1 18 2 16 3 17 4 15 5 12 6 13 7 91 8 14 9 90 10 11 11
REMARK SMILES IDX 7 12 8 13 92 14 9 15 93 16 10 17 6 18 3 19 4 20 95 21 5 23
REMARK SMILES IDX 94 24 2 26 1 27 20 28 21 29 22 30 23 31 24 32 25 33 89 34
REMARK SMILES IDX 26 35 88 36 27 37 28 38 29 39 82 40 30 41 87 42 81 43 83 44
REMARK SMILES IDX 31 45 86 46 80 47 79 48 32 50 66 51 45 52 65 53 46 54 49 55
REMARK SMILES IDX 64 56 84 57 47 58 48 59 63 61 85 62 50 63 33 64 34 65 43 66
REMARK SMILES IDX 35 67 36 68 42 69 44 70 37 71 38 72 39 73 40 74 41 75 67 76
REMARK SMILES IDX 68 77 77 78 69 79 70 80 76 81 78 82 71 83 72 84 73 85 74 86
REMARK SMILES IDX 75 87 51 88 52 89 61 90 53 91 54 92 60 93 62 94 55 95 56 96
REMARK SMILES IDX 57 97 58 98 59 99
REMARK H PARENT 3 22 6 25 83 49 49 60
REMARK Flexibility Score: inf
ROOT
ATOM      1  C   UNL A   1      39.596  21.283  25.938  1.00  0.00     0.275 C 
ENDROOT
BRANCH   1   2
ATOM      2  O   UNL A   1      38.249  21.722  26.205  1.00  0.00    -0.458 OA
BRANCH   2   3
ATOM      3  C   UNL A   1      37.357  21.484  25.213  1.00  0.00     0.338 C 
ATOM      4  O   UNL A   1      37.419  20.604  24.374  1.00  0.00    -0.246 OA
BRANCH   3   5
ATOM      5  C   UNL A   1      36.206  22.407  25.315  1.00  0.00     0.060 A 
ATOM      6  C   UNL A   1      34.015  24.174  25.246  1.00  0.00     0.052 A 
ATOM      7  C   UNL A   1      33.903  22.888  24.722  1.00  0.00     0.028 A 
ATOM      8  C   UNL A   1      35.235  24.555  25.832  1.00  0.00     0.028 A 
ATOM      9  C   UNL A   1      34.999  22.036  24.723  1.00  0.00     0.018 A 
ATOM     10  C   UNL A   1      36.320  23.667  25.894  1.00  0.00     0.018 A 
BRANCH   6  11
ATOM     11  N   UNL A   1      32.939  25.078  25.074  1.00  0.00    -0.245 N 
ATOM     12  C   UNL A   1      31.733  26.974  24.361  1.00  0.00     0.285 C 
ATOM     13  C   UNL A   1      31.029  26.335  25.549  1.00  0.00     0.176 C 
ATOM     14  C   UNL A   1      32.881  26.019  24.068  1.00  0.00     0.292 C 
ATOM     15  C   UNL A   1      31.880  25.170  25.936  1.00  0.00     0.240 C 
ATOM     16  O   UNL A   1      33.590  26.090  23.072  1.00  0.00    -0.267 OA
ATOM     17  O   UNL A   1      31.630  24.483  26.920  1.00  0.00    -0.274 OA
BRANCH  12  18
ATOM     18  N   UNL A   1      32.185  28.379  24.416  1.00  0.00    -0.315 N 
ATOM     19  N   UNL A   1      33.224  29.413  27.053  1.00  0.00    -0.326 N 
ATOM     20  C   UNL A   1      31.777  29.312  26.758  1.00  0.00     0.324 C 
ATOM     21  C   UNL A   1      34.031  28.584  26.135  1.00  0.00     0.324 C 
ATOM     22  H   UNL A   1      33.359  29.043  27.993  1.00  0.00     0.348 HD
ATOM     23  C   UNL A   1      31.374  29.260  25.263  1.00  0.00     0.325 C 
ATOM     24  C   UNL A   1      33.612  28.636  24.654  1.00  0.00     0.325 C 
ATOM     25  H   UNL A   1      32.028  28.622  23.438  1.00  0.00     0.349 HD
BRANCH  19  26
ATOM     26  C   UNL A   1      33.684  30.809  27.063  1.00  0.00     0.259 C 
ATOM     27  C   UNL A   1      34.902  30.955  27.971  1.00  0.00     0.071 C 
ENDBRANCH  19  26
ENDBRANCH  12  18
ENDBRANCH   6  11
ENDBRANCH   3   5
ENDBRANCH   2   3
ENDBRANCH   1   2
BRANCH   1  28
ATOM     28  C   UNL A   1      40.630  22.181  26.620  1.00  0.00     0.275 C 
BRANCH  28  29
ATOM     29  O   UNL A   1      40.334  23.575  26.416  1.00  0.00    -0.458 OA
BRANCH  29  30
ATOM     30  C   UNL A   1      41.387  24.406  26.588  1.00  0.00     0.338 C 
ATOM     31  O   UNL A   1      42.497  24.301  26.093  1.00  0.00    -0.246 OA
BRANCH  30  32
ATOM     32  C   UNL A   1      41.015  25.561  27.417  1.00  0.00     0.060 A 
ATOM     33  C   UNL A   1      41.850  26.668  27.394  1.00  0.00     0.016 A 
ATOM     34  C   UNL A   1      40.018  25.465  28.384  1.00  0.00     0.016 A 
ATOM     35  C   UNL A   1      41.837  27.573  28.448  1.00  0.00     0.010 A 
ATOM     36  C   UNL A   1      39.884  26.487  29.336  1.00  0.00     0.010 A 
ATOM     37  C   UNL A   1      40.829  27.528  29.418  1.00  0.00    -0.014 A 
BRANCH  37  38
ATOM     38  C   UNL A   1      40.768  28.565  30.495  1.00  0.00     0.031 A 
ATOM     39  C   UNL A   1      41.711  28.512  31.675  1.00  0.00     0.074 A 
ATOM     40  C   UNL A   1      39.862  29.566  30.419  1.00  0.00     0.049 A 
ATOM     41  N   UNL A   1      41.677  29.194  32.792  1.00  0.00    -0.248 NA
ATOM     42  C   UNL A   1      42.824  27.552  31.600  1.00  0.00     0.031 C 
ATOM     43  C   UNL A   1      38.911  29.773  29.321  1.00  0.00     0.029 A 
ATOM     44  N   UNL A   1      39.588  30.603  31.279  1.00  0.00    -0.354 N 
ATOM     45  C   UNL A   1      42.722  28.706  33.574  1.00  0.00     0.074 A 
ATOM     46  C   UNL A   1      43.362  27.659  32.807  1.00  0.00     0.031 C 
ATOM     47  C   UNL A   1      38.202  30.885  29.546  1.00  0.00     0.029 A 
ATOM     48  C   UNL A   1      38.550  31.406  30.860  1.00  0.00     0.049 A 
ATOM     49  H   UNL A   1      40.086  30.758  32.113  1.00  0.00     0.167 HD
ATOM     50  C   UNL A   1      43.108  29.096  34.814  1.00  0.00     0.037 A 
ATOM     51  C   UNL A   1      37.899  32.408  31.478  1.00  0.00     0.037 A 
ATOM     52  C   UNL A   1      42.492  30.176  35.545  1.00  0.00     0.049 A 
ATOM     53  C   UNL A   1      38.311  32.790  32.870  1.00  0.00     0.074 A 
ATOM     54  C   UNL A   1      42.823  30.667  36.797  1.00  0.00     0.029 A 
ATOM     55  N   UNL A   1      41.427  30.942  35.089  1.00  0.00    -0.354 N 
ATOM     56  N   UNL A   1      39.271  32.290  33.609  1.00  0.00    -0.248 NA
ATOM     57  C   UNL A   1      37.542  33.859  33.519  1.00  0.00     0.031 C 
ATOM     58  C   UNL A   1      41.924  31.689  37.120  1.00  0.00     0.029 A 
ATOM     59  C   UNL A   1      41.074  31.882  36.044  1.00  0.00     0.049 A 
ATOM     60  H   UNL A   1      40.987  30.831  34.215  1.00  0.00     0.167 HD
ATOM     61  C   UNL A   1      39.237  32.998  34.804  1.00  0.00     0.074 A 
ATOM     62  C   UNL A   1      38.172  33.973  34.679  1.00  0.00     0.031 C 
ATOM     63  C   UNL A   1      40.017  32.853  35.903  1.00  0.00     0.037 A 
BRANCH  50  64
ATOM     64  C   UNL A   1      44.223  28.333  35.483  1.00  0.00     0.058 A 
ATOM     65  C   UNL A   1      43.989  27.197  36.274  1.00  0.00     0.135 A 
ATOM     66  C   UNL A   1      45.561  28.722  35.288  1.00  0.00     0.135 A 
ATOM     67  F   UNL A   1      42.734  26.781  36.506  1.00  0.00    -0.206 F 
ATOM     68  C   UNL A   1      45.034  26.495  36.871  1.00  0.00     0.059 A 
ATOM     69  C   UNL A   1      46.623  28.016  35.849  1.00  0.00     0.059 A 
ATOM     70  F   UNL A   1      45.849  29.797  34.537  1.00  0.00    -0.206 F 
ATOM     71  C   UNL A   1      46.348  26.912  36.652  1.00  0.00     0.060 A 
BRANCH  71  72
ATOM     72  S   UNL A   1      47.691  25.988  37.430  1.00  0.00     0.124 S 
ATOM     73  O   UNL A   1      48.525  25.659  36.278  1.00  0.00    -0.237 OA
ATOM     74  O   UNL A   1      48.250  26.970  38.355  1.00  0.00    -0.237 OA
ATOM     75  O   UNL A   1      47.010  24.858  38.055  1.00  0.00    -0.744 OA
ENDBRANCH  71  72
ENDBRANCH  50  64
BRANCH  51  76
ATOM     76  C   UNL A   1      36.757  33.082  30.800  1.00  0.00     0.058 A 
ATOM     77  C   UNL A   1      35.433  32.832  31.188  1.00  0.00     0.135 A 
ATOM     78  C   UNL A   1      36.968  34.011  29.765  1.00  0.00     0.135 A 
ATOM     79  F   UNL A   1      35.177  31.948  32.164  1.00  0.00    -0.206 F 
ATOM     80  C   UNL A   1      34.360  33.466  30.571  1.00  0.00     0.059 A 
ATOM     81  C   UNL A   1      35.914  34.685  29.158  1.00  0.00     0.059 A 
ATOM     82  F   UNL A   1      38.215  34.300  29.364  1.00  0.00    -0.206 F 
ATOM     83  C   UNL A   1      34.611  34.396  29.560  1.00  0.00     0.060 A 
BRANCH  83  84
ATOM     84  S   UNL A   1      33.213  35.249  28.800  1.00  0.00     0.124 S 
ATOM     85  O   UNL A   1      33.884  36.334  28.092  1.00  0.00    -0.237 OA
ATOM     86  O   UNL A   1      32.633  34.203  27.965  1.00  0.00    -0.237 OA
ATOM     87  O   UNL A   1      32.401  35.651  29.944  1.00  0.00    -0.744 OA
ENDBRANCH  83  84
ENDBRANCH  51  76
BRANCH  63  88
ATOM     88  C   UNL A   1      39.780  33.804  37.043  1.00  0.00     0.058 A 
ATOM     89  C   UNL A   1      38.890  33.505  38.086  1.00  0.00     0.135 A 
ATOM     90  C   UNL A   1      40.487  35.016  37.111  1.00  0.00     0.135 A 
ATOM     91  F   UNL A   1      38.181  32.366  38.065  1.00  0.00    -0.206 F 
ATOM     92  C   UNL A   1      38.690  34.386  39.144  1.00  0.00     0.059 A 
ATOM     93  C   UNL A   1      40.327  35.896  38.175  1.00  0.00     0.059 A 
ATOM     94  F   UNL A   1      41.355  35.348  36.142  1.00  0.00    -0.206 F 
ATOM     95  C   UNL A   1      39.417  35.578  39.182  1.00  0.00     0.060 A 
BRANCH  95  96
ATOM     96  S   UNL A   1      39.174  36.695  40.578  1.00  0.00     0.124 S 
ATOM     97  O   UNL A   1      38.536  37.838  39.933  1.00  0.00    -0.237 OA
ATOM     98  O   UNL A   1      38.319  35.908  41.461  1.00  0.00    -0.237 OA
ATOM     99  O   UNL A   1      40.528  36.927  41.069  1.00  0.00    -0.744 OA
ENDBRANCH  95  96
ENDBRANCH  63  88
ENDBRANCH  37  38
ENDBRANCH  30  32
ENDBRANCH  29  30
ENDBRANCH  28  29
ENDBRANCH   1  28
TORSDOF 17
ENDMDL
MODEL 3
REMARK VINA RESULT:     -11.5      0.909      8.220
REMARK SMILES CC[NH+]1CC[NH+]([C@@H]2CC(=O)N(c3ccc(C(=O)OCCOC(=O)c4ccc(-c5c6nc(c(-c7c(F)cc(S(=O)(=O)[O-])cc7F)c7ccc([nH]7)c(-c7c(F)cc(S(=O)(=O)[O-])cc7F)c7nc(c(-c8c(F)cc(S(=O)(=O)[O-])cc8F)c8ccc5[nH]8)C=C7)C=C6)cc4)cc3)C2=O)CC1
REMARK SMILES IDX 19 1 18 2 16 3 17 4 15 5 12 6 13 7 91 8 14 9 90 10 11 11
REMARK SMILES IDX 7 12 8 13 92 14 9 15 93 16 10 17 6 18 3 19 4 20 95 21 5 23
REMARK SMILES IDX 94 24 2 26 1 27 20 28 21 29 22 30 23 31 24 32 25 33 89 34
REMARK SMILES IDX 26 35 88 36 27 37 28 38 29 39 82 40 30 41 87 42 81 43 83 44
REMARK SMILES IDX 31 45 86 46 80 47 79 48 32 50 66 51 45 52 65 53 46 54 49 55
REMARK SMILES IDX 64 56 84 57 47 58 48 59 63 61 85 62 50 63 33 64 34 65 43 66
REMARK SMILES IDX 35 67 36 68 42 69 44 70 37 71 38 72 39 73 40 74 41 75 67 76
REMARK SMILES IDX 68 77 77 78 69 79 70 80 76 81 78 82 71 83 72 84 73 85 74 86
REMARK SMILES IDX 75 87 51 88 52 89 61 90 53 91 54 92 60 93 62 94 55 95 56 96
REMARK SMILES IDX 57 97 58 98 59 99
REMARK H PARENT 3 22 6 25 83 49 49 60
REMARK Flexibility Score: inf
ROOT
ATOM      1  C   UNL A   1      42.670  21.394  26.820  1.00  0.00     0.275 C 
ENDROOT
BRANCH   1   2
ATOM      2  O   UNL A   1      41.307  21.024  27.105  1.00  0.00    -0.458 OA
BRANCH   2   3
ATOM      3  C   UNL A   1      40.727  20.207  26.192  1.00  0.00     0.338 C 
ATOM      4  O   UNL A   1      41.194  19.179  25.734  1.00  0.00    -0.246 OA
BRANCH   3   5
ATOM      5  C   UNL A   1      39.369  20.683  25.853  1.00  0.00     0.060 A 
ATOM      6  C   UNL A   1      36.844  21.550  24.956  1.00  0.00     0.052 A 
ATOM      7  C   UNL A   1      37.245  20.228  24.771  1.00  0.00     0.028 A 
ATOM      8  C   UNL A   1      37.717  22.428  25.624  1.00  0.00     0.028 A 
ATOM      9  C   UNL A   1      38.507  19.818  25.180  1.00  0.00     0.018 A 
ATOM     10  C   UNL A   1      38.964  21.992  26.097  1.00  0.00     0.018 A 
BRANCH   6  11
ATOM     11  N   UNL A   1      35.628  21.982  24.375  1.00  0.00    -0.245 N 
ATOM     12  C   UNL A   1      34.118  23.266  23.099  1.00  0.00     0.285 C 
ATOM     13  C   UNL A   1      33.355  22.460  24.139  1.00  0.00     0.176 C 
ATOM     14  C   UNL A   1      35.555  22.795  23.263  1.00  0.00     0.292 C 
ATOM     15  C   UNL A   1      34.395  21.709  24.903  1.00  0.00     0.240 C 
ATOM     16  O   UNL A   1      36.461  23.085  22.491  1.00  0.00    -0.267 OA
ATOM     17  O   UNL A   1      34.113  21.018  25.875  1.00  0.00    -0.274 OA
BRANCH  12  18
ATOM     18  N   UNL A   1      34.022  24.740  23.066  1.00  0.00    -0.315 N 
ATOM     19  N   UNL A   1      31.460  25.997  24.044  1.00  0.00    -0.326 N 
ATOM     20  C   UNL A   1      31.591  25.424  22.686  1.00  0.00     0.324 C 
ATOM     21  C   UNL A   1      32.519  25.510  24.950  1.00  0.00     0.324 C 
ATOM     22  H   UNL A   1      30.569  25.672  24.417  1.00  0.00     0.348 HD
ATOM     23  C   UNL A   1      33.029  25.277  22.129  1.00  0.00     0.325 C 
ATOM     24  C   UNL A   1      33.935  25.455  24.346  1.00  0.00     0.325 C 
ATOM     25  H   UNL A   1      34.956  24.940  22.709  1.00  0.00     0.349 HD
BRANCH  19  26
ATOM     26  C   UNL A   1      31.410  27.466  24.015  1.00  0.00     0.259 C 
ATOM     27  C   UNL A   1      30.229  27.936  23.169  1.00  0.00     0.071 C 
ENDBRANCH  19  26
ENDBRANCH  12  18
ENDBRANCH   6  11
ENDBRANCH   3   5
ENDBRANCH   2   3
ENDBRANCH   1   2
BRANCH   1  28
ATOM     28  C   UNL A   1      42.759  22.784  26.186  1.00  0.00     0.275 C 
BRANCH  28  29
ATOM     29  O   UNL A   1      41.789  23.685  26.751  1.00  0.00    -0.458 OA
BRANCH  29  30
ATOM     30  C   UNL A   1      41.744  24.903  26.167  1.00  0.00     0.338 C 
ATOM     31  O   UNL A   1      41.976  25.169  24.998  1.00  0.00    -0.246 OA
BRANCH  30  32
ATOM     32  C   UNL A   1      41.281  25.924  27.117  1.00  0.00     0.060 A 
ATOM     33  C   UNL A   1      41.837  27.192  27.023  1.00  0.00     0.016 A 
ATOM     34  C   UNL A   1      40.517  25.583  28.229  1.00  0.00     0.016 A 
ATOM     35  C   UNL A   1      41.814  28.046  28.119  1.00  0.00     0.010 A 
ATOM     36  C   UNL A   1      40.335  26.526  29.252  1.00  0.00     0.010 A 
ATOM     37  C   UNL A   1      41.028  27.752  29.239  1.00  0.00    -0.014 A 
BRANCH  37  38
ATOM     38  C   UNL A   1      40.934  28.723  30.373  1.00  0.00     0.031 A 
ATOM     39  C   UNL A   1      41.882  28.636  31.547  1.00  0.00     0.074 A 
ATOM     40  C   UNL A   1      39.992  29.694  30.355  1.00  0.00     0.049 A 
ATOM     41  N   UNL A   1      41.828  29.253  32.701  1.00  0.00    -0.248 NA
ATOM     42  C   UNL A   1      43.028  27.723  31.416  1.00  0.00     0.031 C 
ATOM     43  C   UNL A   1      39.031  29.928  29.272  1.00  0.00     0.029 A 
ATOM     44  N   UNL A   1      39.685  30.670  31.273  1.00  0.00    -0.354 N 
ATOM     45  C   UNL A   1      42.892  28.759  33.452  1.00  0.00     0.074 A 
ATOM     46  C   UNL A   1      43.566  27.781  32.626  1.00  0.00     0.031 C 
ATOM     47  C   UNL A   1      38.283  31.000  29.562  1.00  0.00     0.029 A 
ATOM     48  C   UNL A   1      38.617  31.457  30.902  1.00  0.00     0.049 A 
ATOM     49  H   UNL A   1      40.180  30.794  32.114  1.00  0.00     0.167 HD
ATOM     50  C   UNL A   1      43.268  29.091  34.712  1.00  0.00     0.037 A 
ATOM     51  C   UNL A   1      37.933  32.399  31.578  1.00  0.00     0.037 A 
ATOM     52  C   UNL A   1      42.616  30.105  35.504  1.00  0.00     0.049 A 
ATOM     53  C   UNL A   1      38.335  32.715  32.988  1.00  0.00     0.074 A 
ATOM     54  C   UNL A   1      42.934  30.535  36.782  1.00  0.00     0.029 A 
ATOM     55  N   UNL A   1      41.523  30.856  35.094  1.00  0.00    -0.354 N 
ATOM     56  N   UNL A   1      39.315  32.208  33.696  1.00  0.00    -0.248 NA
ATOM     57  C   UNL A   1      37.531  33.717  33.698  1.00  0.00     0.031 C 
ATOM     58  C   UNL A   1      42.000  31.505  37.164  1.00  0.00     0.029 A 
ATOM     59  C   UNL A   1      41.140  31.728  36.101  1.00  0.00     0.049 A 
ATOM     60  H   UNL A   1      41.084  30.780  34.216  1.00  0.00     0.167 HD
ATOM     61  C   UNL A   1      39.260  32.846  34.930  1.00  0.00     0.074 A 
ATOM     62  C   UNL A   1      38.160  33.788  34.862  1.00  0.00     0.031 C 
ATOM     63  C   UNL A   1      40.048  32.667  36.018  1.00  0.00     0.037 A 
BRANCH  50  64
ATOM     64  C   UNL A   1      44.412  28.331  35.335  1.00  0.00     0.058 A 
ATOM     65  C   UNL A   1      44.220  27.147  36.064  1.00  0.00     0.135 A 
ATOM     66  C   UNL A   1      45.735  28.776  35.157  1.00  0.00     0.135 A 
ATOM     67  F   UNL A   1      42.981  26.676  36.277  1.00  0.00    -0.206 F 
ATOM     68  C   UNL A   1      45.292  26.450  36.619  1.00  0.00     0.059 A 
ATOM     69  C   UNL A   1      46.822  28.078  35.675  1.00  0.00     0.059 A 
ATOM     70  F   UNL A   1      45.982  29.899  34.464  1.00  0.00    -0.206 F 
ATOM     71  C   UNL A   1      46.590  26.923  36.418  1.00  0.00     0.060 A 
BRANCH  71  72
ATOM     72  S   UNL A   1      47.968  26.005  37.140  1.00  0.00     0.124 S 
ATOM     73  O   UNL A   1      48.304  26.839  38.289  1.00  0.00    -0.237 OA
ATOM     74  O   UNL A   1      47.355  24.717  37.451  1.00  0.00    -0.237 OA
ATOM     75  O   UNL A   1      48.961  25.982  36.070  1.00  0.00    -0.744 OA
ENDBRANCH  71  72
ENDBRANCH  50  64
BRANCH  51  76
ATOM     76  C   UNL A   1      36.765  33.069  30.940  1.00  0.00     0.058 A 
ATOM     77  C   UNL A   1      35.453  32.763  31.328  1.00  0.00     0.135 A 
ATOM     78  C   UNL A   1      36.939  34.049  29.947  1.00  0.00     0.135 A 
ATOM     79  F   UNL A   1      35.232  31.829  32.266  1.00  0.00    -0.206 F 
ATOM     80  C   UNL A   1      34.356  33.393  30.750  1.00  0.00     0.059 A 
ATOM     81  C   UNL A   1      35.860  34.719  29.380  1.00  0.00     0.059 A 
ATOM     82  F   UNL A   1      38.173  34.392  29.548  1.00  0.00    -0.206 F 
ATOM     83  C   UNL A   1      34.570  34.374  29.780  1.00  0.00     0.060 A 
BRANCH  83  84
ATOM     84  S   UNL A   1      33.141  35.219  29.071  1.00  0.00     0.124 S 
ATOM     85  O   UNL A   1      32.631  34.209  28.151  1.00  0.00    -0.237 OA
ATOM     86  O   UNL A   1      32.323  35.479  30.252  1.00  0.00    -0.237 OA
ATOM     87  O   UNL A   1      33.724  36.403  28.449  1.00  0.00    -0.744 OA
ENDBRANCH  83  84
ENDBRANCH  51  76
BRANCH  63  88
ATOM     88  C   UNL A   1      39.782  33.542  37.211  1.00  0.00     0.058 A 
ATOM     89  C   UNL A   1      40.439  34.769  37.393  1.00  0.00     0.135 A 
ATOM     90  C   UNL A   1      38.823  33.163  38.164  1.00  0.00     0.135 A 
ATOM     91  F   UNL A   1      41.372  35.173  36.518  1.00  0.00    -0.206 F 
ATOM     92  C   UNL A   1      40.173  35.578  38.494  1.00  0.00     0.059 A 
ATOM     93  C   UNL A   1      38.518  33.970  39.255  1.00  0.00     0.059 A 
ATOM     94  F   UNL A   1      38.161  32.002  38.035  1.00  0.00    -0.206 F 
ATOM     95  C   UNL A   1      39.207  35.171  39.417  1.00  0.00     0.060 A 
BRANCH  95  96
ATOM     96  S   UNL A   1      38.847  36.246  40.821  1.00  0.00     0.124 S 
ATOM     97  O   UNL A   1      38.478  37.490  40.152  1.00  0.00    -0.237 OA
ATOM     98  O   UNL A   1      37.759  35.537  41.485  1.00  0.00    -0.237 OA
ATOM     99  O   UNL A   1      40.108  36.280  41.557  1.00  0.00    -0.744 OA
ENDBRANCH  95  96
ENDBRANCH  63  88
ENDBRANCH  37  38
ENDBRANCH  30  32
ENDBRANCH  29  30
ENDBRANCH  28  29
ENDBRANCH   1  28
TORSDOF 17
ENDMDL
