MODEL 1
REMARK VINA RESULT:     -10.7      0.000      0.000
REMARK SMILES CC(C)CCN(C(=O)N[C@H](C(=O)OCCOC(=O)c1ccc(-c2c3nc(c(-c4c(F)cc(S(=O)(=O)[O-])cc4F)c4ccc([nH]4)c(-c4c(F)cc(S(=O)(=O)[O-])cc4F)c4nc(c(-c5c(F)cc(S(=O)(=O)[O-])cc5F)c5ccc2[nH]5)C=C4)C=C3)cc1)[C@H](C)O)C1CCCC1
REMARK SMILES IDX 14 1 13 2 11 3 12 4 10 5 9 6 7 7 8 8 6 10 5 11 4 12 2 13
REMARK SMILES IDX 1 14 3 15 88 16 89 17 92 18 90 19 91 20 85 21 86 22 87 23
REMARK SMILES IDX 15 25 16 26 17 27 18 28 19 29 20 30 84 31 21 32 83 33 22 34
REMARK SMILES IDX 23 35 24 36 77 37 25 38 82 39 76 40 78 41 26 42 81 43 75 44
REMARK SMILES IDX 74 45 27 47 61 48 40 49 60 50 41 51 44 52 59 53 79 54 42 55
REMARK SMILES IDX 43 56 58 58 80 59 45 60 28 61 29 62 38 63 30 64 31 65 37 66
REMARK SMILES IDX 39 67 32 68 33 69 34 70 35 71 36 72 62 73 63 74 72 75 64 76
REMARK SMILES IDX 65 77 71 78 73 79 66 80 67 81 68 82 69 83 70 84 46 85 47 86
REMARK SMILES IDX 56 87 48 88 49 89 55 90 57 91 50 92 51 93 52 94 53 95 54 96
REMARK H PARENT 9 9 87 24 78 46 44 57
REMARK Flexibility Score: inf
ROOT
ATOM      1  C   UNL A   1      31.800  29.221  26.673  1.00  0.00     0.274 C 
ENDROOT
BRANCH   1   2
ATOM      2  O   UNL A   1      31.707  29.356  25.243  1.00  0.00    -0.460 OA
BRANCH   2   3
ATOM      3  C   UNL A   1      32.431  28.458  24.530  1.00  0.00     0.331 C 
ATOM      4  O   UNL A   1      33.406  27.853  24.977  1.00  0.00    -0.250 OA
BRANCH   3   5
ATOM      5  C   UNL A   1      32.029  28.347  23.050  1.00  0.00     0.222 C 
BRANCH   5   6
ATOM      6  N   UNL A   1      32.582  27.372  22.054  1.00  0.00    -0.322 N 
ATOM      7  C   UNL A   1      32.828  26.098  21.715  1.00  0.00     0.318 C 
ATOM      8  O   UNL A   1      33.172  25.984  20.530  1.00  0.00    -0.249 OA
ATOM      9  H   UNL A   1      32.918  27.917  21.306  1.00  0.00     0.166 HD
BRANCH   7  10
ATOM     10  N   UNL A   1      32.795  25.004  22.547  1.00  0.00    -0.322 N 
BRANCH  10  11
ATOM     11  C   UNL A   1      31.558  24.435  23.071  1.00  0.00     0.122 C 
BRANCH  11  12
ATOM     12  C   UNL A   1      31.243  24.540  24.576  1.00  0.00     0.024 C 
BRANCH  12  13
ATOM     13  C   UNL A   1      30.991  23.253  25.401  1.00  0.00    -0.016 C 
ATOM     14  C   UNL A   1      31.735  22.010  24.907  1.00  0.00     0.007 C 
ATOM     15  C   UNL A   1      31.306  23.491  26.879  1.00  0.00     0.007 C 
ENDBRANCH  12  13
ENDBRANCH  11  12
ENDBRANCH  10  11
BRANCH  10  16
ATOM     16  C   UNL A   1      34.134  24.579  23.085  1.00  0.00     0.087 C 
ATOM     17  C   UNL A   1      34.301  24.826  24.588  1.00  0.00     0.025 C 
ATOM     18  C   UNL A   1      34.521  23.106  23.044  1.00  0.00     0.025 C 
ATOM     19  C   UNL A   1      35.558  24.078  25.005  1.00  0.00     0.002 C 
ATOM     20  C   UNL A   1      35.602  22.865  24.097  1.00  0.00     0.002 C 
ENDBRANCH  10  16
ENDBRANCH   7  10
ENDBRANCH   5   6
BRANCH   5  21
ATOM     21  C   UNL A   1      30.540  28.732  22.869  1.00  0.00     0.145 C 
ATOM     22  C   UNL A   1      29.618  27.544  23.149  1.00  0.00     0.041 C 
BRANCH  21  23
ATOM     23  O   UNL A   1      30.242  29.152  21.527  1.00  0.00    -0.391 OA
ATOM     24  H   UNL A   1      29.872  30.049  21.543  1.00  0.00     0.211 HD
ENDBRANCH  21  23
ENDBRANCH   5  21
ENDBRANCH   3   5
ENDBRANCH   2   3
ENDBRANCH   1   2
BRANCH   1  25
ATOM     25  C   UNL A   1      32.345  30.519  27.258  1.00  0.00     0.275 C 
BRANCH  25  26
ATOM     26  O   UNL A   1      33.756  30.591  26.980  1.00  0.00    -0.458 OA
BRANCH  26  27
ATOM     27  C   UNL A   1      34.404  31.555  27.668  1.00  0.00     0.338 C 
ATOM     28  O   UNL A   1      33.897  32.609  28.033  1.00  0.00    -0.246 OA
BRANCH  27  29
ATOM     29  C   UNL A   1      35.777  31.147  28.071  1.00  0.00     0.060 A 
ATOM     30  C   UNL A   1      36.847  32.003  28.373  1.00  0.00     0.016 A 
ATOM     31  C   UNL A   1      35.985  29.770  28.124  1.00  0.00     0.016 A 
ATOM     32  C   UNL A   1      38.098  31.464  28.739  1.00  0.00     0.010 A 
ATOM     33  C   UNL A   1      37.222  29.229  28.440  1.00  0.00     0.010 A 
ATOM     34  C   UNL A   1      38.267  30.064  28.833  1.00  0.00    -0.014 A 
BRANCH  34  35
ATOM     35  C   UNL A   1      39.195  29.433  29.810  1.00  0.00     0.031 A 
ATOM     36  C   UNL A   1      39.430  29.954  31.203  1.00  0.00     0.074 A 
ATOM     37  C   UNL A   1      40.125  28.642  29.231  1.00  0.00     0.049 A 
ATOM     38  N   UNL A   1      40.336  29.581  32.074  1.00  0.00    -0.248 NA
ATOM     39  C   UNL A   1      38.604  31.085  31.647  1.00  0.00     0.031 C 
ATOM     40  C   UNL A   1      40.179  28.341  27.792  1.00  0.00     0.029 A 
ATOM     41  N   UNL A   1      41.232  28.017  29.729  1.00  0.00    -0.354 N 
ATOM     42  C   UNL A   1      40.224  30.454  33.154  1.00  0.00     0.074 A 
ATOM     43  C   UNL A   1      39.165  31.386  32.815  1.00  0.00     0.031 C 
ATOM     44  C   UNL A   1      41.231  27.567  27.533  1.00  0.00     0.029 A 
ATOM     45  C   UNL A   1      41.927  27.310  28.778  1.00  0.00     0.049 A 
ATOM     46  H   UNL A   1      41.505  28.069  30.674  1.00  0.00     0.167 HD
ATOM     47  C   UNL A   1      40.947  30.466  34.306  1.00  0.00     0.037 A 
ATOM     48  C   UNL A   1      42.989  26.497  28.888  1.00  0.00     0.037 A 
ATOM     49  C   UNL A   1      41.997  29.508  34.594  1.00  0.00     0.049 A 
ATOM     50  C   UNL A   1      43.558  26.291  30.246  1.00  0.00     0.074 A 
ATOM     51  C   UNL A   1      42.684  29.298  35.779  1.00  0.00     0.029 A 
ATOM     52  N   UNL A   1      42.523  28.607  33.674  1.00  0.00    -0.354 N 
ATOM     53  N   UNL A   1      43.309  26.971  31.338  1.00  0.00    -0.248 NA
ATOM     54  C   UNL A   1      44.511  25.194  30.401  1.00  0.00     0.031 C 
ATOM     55  C   UNL A   1      43.640  28.293  35.567  1.00  0.00     0.029 A 
ATOM     56  C   UNL A   1      43.522  27.842  34.263  1.00  0.00     0.049 A 
ATOM     57  H   UNL A   1      42.230  28.523  32.738  1.00  0.00     0.167 HD
ATOM     58  C   UNL A   1      44.096  26.397  32.321  1.00  0.00     0.074 A 
ATOM     59  C   UNL A   1      44.784  25.279  31.697  1.00  0.00     0.031 C 
ATOM     60  C   UNL A   1      44.244  26.774  33.615  1.00  0.00     0.037 A 
BRANCH  47  61
ATOM     61  C   UNL A   1      40.629  31.511  35.357  1.00  0.00     0.058 A 
ATOM     62  C   UNL A   1      41.412  32.669  35.512  1.00  0.00     0.135 A 
ATOM     63  C   UNL A   1      39.484  31.406  36.168  1.00  0.00     0.135 A 
ATOM     64  F   UNL A   1      42.511  32.846  34.761  1.00  0.00    -0.206 F 
ATOM     65  C   UNL A   1      41.099  33.654  36.448  1.00  0.00     0.059 A 
ATOM     66  C   UNL A   1      39.132  32.395  37.090  1.00  0.00     0.059 A 
ATOM     67  F   UNL A   1      38.677  30.337  36.065  1.00  0.00    -0.206 F 
ATOM     68  C   UNL A   1      39.958  33.508  37.235  1.00  0.00     0.060 A 
BRANCH  68  69
ATOM     69  S   UNL A   1      39.555  34.802  38.431  1.00  0.00     0.124 S 
ATOM     70  O   UNL A   1      38.295  34.313  38.981  1.00  0.00    -0.237 OA
ATOM     71  O   UNL A   1      40.698  34.760  39.340  1.00  0.00    -0.237 OA
ATOM     72  O   UNL A   1      39.458  36.007  37.613  1.00  0.00    -0.744 OA
ENDBRANCH  68  69
ENDBRANCH  47  61
BRANCH  48  73
ATOM     73  C   UNL A   1      43.383  25.711  27.696  1.00  0.00     0.058 A 
ATOM     74  C   UNL A   1      44.482  26.131  26.931  1.00  0.00     0.135 A 
ATOM     75  C   UNL A   1      42.850  24.438  27.441  1.00  0.00     0.135 A 
ATOM     76  F   UNL A   1      45.042  27.328  27.164  1.00  0.00    -0.206 F 
ATOM     77  C   UNL A   1      45.052  25.311  25.966  1.00  0.00     0.059 A 
ATOM     78  C   UNL A   1      43.417  23.591  26.493  1.00  0.00     0.059 A 
ATOM     79  F   UNL A   1      41.840  23.970  28.191  1.00  0.00    -0.206 F 
ATOM     80  C   UNL A   1      44.523  24.036  25.765  1.00  0.00     0.060 A 
BRANCH  80  81
ATOM     81  S   UNL A   1      45.368  22.927  24.618  1.00  0.00     0.124 S 
ATOM     82  O   UNL A   1      46.239  23.853  23.903  1.00  0.00    -0.237 OA
ATOM     83  O   UNL A   1      46.034  21.994  25.522  1.00  0.00    -0.237 OA
ATOM     84  O   UNL A   1      44.274  22.355  23.838  1.00  0.00    -0.744 OA
ENDBRANCH  80  81
ENDBRANCH  48  73
BRANCH  60  85
ATOM     85  C   UNL A   1      45.238  25.979  34.407  1.00  0.00     0.058 A 
ATOM     86  C   UNL A   1      44.830  24.893  35.202  1.00  0.00     0.135 A 
ATOM     87  C   UNL A   1      46.591  26.342  34.431  1.00  0.00     0.135 A 
ATOM     88  F   UNL A   1      43.541  24.516  35.221  1.00  0.00    -0.206 F 
ATOM     89  C   UNL A   1      45.721  24.233  36.039  1.00  0.00     0.059 A 
ATOM     90  C   UNL A   1      47.505  25.678  35.241  1.00  0.00     0.059 A 
ATOM     91  F   UNL A   1      47.031  27.368  33.685  1.00  0.00    -0.206 F 
ATOM     92  C   UNL A   1      47.054  24.644  36.063  1.00  0.00     0.060 A 
BRANCH  92  93
ATOM     93  S   UNL A   1      48.193  23.820  37.194  1.00  0.00     0.124 S 
ATOM     94  O   UNL A   1      49.309  23.508  36.306  1.00  0.00    -0.237 OA
ATOM     95  O   UNL A   1      48.448  24.853  38.193  1.00  0.00    -0.237 OA
ATOM     96  O   UNL A   1      47.426  22.672  37.668  1.00  0.00    -0.744 OA
ENDBRANCH  92  93
ENDBRANCH  60  85
ENDBRANCH  34  35
ENDBRANCH  27  29
ENDBRANCH  26  27
ENDBRANCH  25  26
ENDBRANCH   1  25
TORSDOF 22
ENDMDL
MODEL 2
REMARK VINA RESULT:     -10.5      1.141      2.324
REMARK SMILES CC(C)CCN(C(=O)N[C@H](C(=O)OCCOC(=O)c1ccc(-c2c3nc(c(-c4c(F)cc(S(=O)(=O)[O-])cc4F)c4ccc([nH]4)c(-c4c(F)cc(S(=O)(=O)[O-])cc4F)c4nc(c(-c5c(F)cc(S(=O)(=O)[O-])cc5F)c5ccc2[nH]5)C=C4)C=C3)cc1)[C@H](C)O)C1CCCC1
REMARK SMILES IDX 14 1 13 2 11 3 12 4 10 5 9 6 7 7 8 8 6 10 5 11 4 12 2 13
REMARK SMILES IDX 1 14 3 15 88 16 89 17 92 18 90 19 91 20 85 21 86 22 87 23
REMARK SMILES IDX 15 25 16 26 17 27 18 28 19 29 20 30 84 31 21 32 83 33 22 34
REMARK SMILES IDX 23 35 24 36 77 37 25 38 82 39 76 40 78 41 26 42 81 43 75 44
REMARK SMILES IDX 74 45 27 47 61 48 40 49 60 50 41 51 44 52 59 53 79 54 42 55
REMARK SMILES IDX 43 56 58 58 80 59 45 60 28 61 29 62 38 63 30 64 31 65 37 66
REMARK SMILES IDX 39 67 32 68 33 69 34 70 35 71 36 72 62 73 63 74 72 75 64 76
REMARK SMILES IDX 65 77 71 78 73 79 66 80 67 81 68 82 69 83 70 84 46 85 47 86
REMARK SMILES IDX 56 87 48 88 49 89 55 90 57 91 50 92 51 93 52 94 53 95 54 96
REMARK H PARENT 9 9 87 24 78 46 44 57
REMARK Flexibility Score: inf
ROOT
ATOM      1  C   UNL A   1      31.719  29.361  25.876  1.00  0.00     0.274 C 
ENDROOT
BRANCH   1   2
ATOM      2  O   UNL A   1      32.701  28.871  24.945  1.00  0.00    -0.460 OA
BRANCH   2   3
ATOM      3  C   UNL A   1      33.157  27.618  25.194  1.00  0.00     0.331 C 
ATOM      4  O   UNL A   1      33.745  27.295  26.227  1.00  0.00    -0.250 OA
BRANCH   3   5
ATOM      5  C   UNL A   1      33.013  26.642  24.015  1.00  0.00     0.222 C 
BRANCH   5   6
ATOM      6  N   UNL A   1      33.960  25.534  23.664  1.00  0.00    -0.322 N 
ATOM      7  C   UNL A   1      34.592  24.410  24.029  1.00  0.00     0.318 C 
ATOM      8  O   UNL A   1      35.138  23.842  23.073  1.00  0.00    -0.249 OA
ATOM      9  H   UNL A   1      34.250  25.715  22.740  1.00  0.00     0.166 HD
BRANCH   7  10
ATOM     10  N   UNL A   1      34.725  23.919  25.308  1.00  0.00    -0.322 N 
BRANCH  10  11
ATOM     11  C   UNL A   1      35.985  23.934  26.042  1.00  0.00     0.122 C 
BRANCH  11  12
ATOM     12  C   UNL A   1      37.238  23.279  25.428  1.00  0.00     0.024 C 
BRANCH  12  13
ATOM     13  C   UNL A   1      38.630  23.546  26.054  1.00  0.00    -0.016 C 
ATOM     14  C   UNL A   1      38.640  24.546  27.212  1.00  0.00     0.007 C 
ATOM     15  C   UNL A   1      39.278  22.233  26.499  1.00  0.00     0.007 C 
ENDBRANCH  12  13
ENDBRANCH  11  12
ENDBRANCH  10  11
BRANCH  10  16
ATOM     16  C   UNL A   1      33.542  23.137  25.810  1.00  0.00     0.087 C 
ATOM     17  C   UNL A   1      32.489  23.999  26.515  1.00  0.00     0.025 C 
ATOM     18  C   UNL A   1      32.636  22.430  24.810  1.00  0.00     0.025 C 
ATOM     19  C   UNL A   1      31.260  23.117  26.680  1.00  0.00     0.002 C 
ATOM     20  C   UNL A   1      31.277  22.205  25.470  1.00  0.00     0.002 C 
ENDBRANCH  10  16
ENDBRANCH   7  10
ENDBRANCH   5   6
BRANCH   5  21
ATOM     21  C   UNL A   1      31.516  26.376  23.720  1.00  0.00     0.145 C 
ATOM     22  C   UNL A   1      31.337  25.203  22.756  1.00  0.00     0.041 C 
BRANCH  21  23
ATOM     23  O   UNL A   1      30.873  27.499  23.095  1.00  0.00    -0.391 OA
ATOM     24  H   UNL A   1      31.385  27.775  22.319  1.00  0.00     0.211 HD
ENDBRANCH  21  23
ENDBRANCH   5  21
ENDBRANCH   3   5
ENDBRANCH   2   3
ENDBRANCH   1   2
BRANCH   1  25
ATOM     25  C   UNL A   1      32.192  30.698  26.436  1.00  0.00     0.275 C 
BRANCH  25  26
ATOM     26  O   UNL A   1      33.226  30.449  27.408  1.00  0.00    -0.458 OA
BRANCH  26  27
ATOM     27  C   UNL A   1      34.025  31.511  27.644  1.00  0.00     0.338 C 
ATOM     28  O   UNL A   1      33.645  32.675  27.673  1.00  0.00    -0.246 OA
BRANCH  27  29
ATOM     29  C   UNL A   1      35.411  31.113  28.013  1.00  0.00     0.060 A 
ATOM     30  C   UNL A   1      36.487  31.976  28.266  1.00  0.00     0.016 A 
ATOM     31  C   UNL A   1      35.624  29.737  28.087  1.00  0.00     0.016 A 
ATOM     32  C   UNL A   1      37.751  31.446  28.605  1.00  0.00     0.010 A 
ATOM     33  C   UNL A   1      36.871  29.204  28.376  1.00  0.00     0.010 A 
ATOM     34  C   UNL A   1      37.925  30.049  28.721  1.00  0.00    -0.014 A 
BRANCH  34  35
ATOM     35  C   UNL A   1      38.883  29.438  29.682  1.00  0.00     0.031 A 
ATOM     36  C   UNL A   1      39.159  29.987  31.056  1.00  0.00     0.074 A 
ATOM     37  C   UNL A   1      39.798  28.639  29.090  1.00  0.00     0.049 A 
ATOM     38  N   UNL A   1      40.092  29.632  31.907  1.00  0.00    -0.248 NA
ATOM     39  C   UNL A   1      38.343  31.124  31.503  1.00  0.00     0.031 C 
ATOM     40  C   UNL A   1      39.809  28.310  27.656  1.00  0.00     0.029 A 
ATOM     41  N   UNL A   1      40.921  28.026  29.566  1.00  0.00    -0.354 N 
ATOM     42  C   UNL A   1      40.009  30.525  32.973  1.00  0.00     0.074 A 
ATOM     43  C   UNL A   1      38.938  31.448  32.648  1.00  0.00     0.031 C 
ATOM     44  C   UNL A   1      40.856  27.533  27.380  1.00  0.00     0.029 A 
ATOM     45  C   UNL A   1      41.589  27.301  28.609  1.00  0.00     0.049 A 
ATOM     46  H   UNL A   1      41.222  28.096  30.502  1.00  0.00     0.167 HD
ATOM     47  C   UNL A   1      40.766  30.560  34.102  1.00  0.00     0.037 A 
ATOM     48  C   UNL A   1      42.656  26.493  28.702  1.00  0.00     0.037 A 
ATOM     49  C   UNL A   1      41.827  29.610  34.376  1.00  0.00     0.049 A 
ATOM     50  C   UNL A   1      43.265  26.314  30.046  1.00  0.00     0.074 A 
ATOM     51  C   UNL A   1      42.550  29.425  35.544  1.00  0.00     0.029 A 
ATOM     52  N   UNL A   1      42.328  28.693  33.459  1.00  0.00    -0.354 N 
ATOM     53  N   UNL A   1      43.048  27.014  31.132  1.00  0.00    -0.248 NA
ATOM     54  C   UNL A   1      44.226  25.222  30.194  1.00  0.00     0.031 C 
ATOM     55  C   UNL A   1      43.501  28.417  35.323  1.00  0.00     0.029 A 
ATOM     56  C   UNL A   1      43.346  27.942  34.032  1.00  0.00     0.049 A 
ATOM     57  H   UNL A   1      42.007  28.591  32.534  1.00  0.00     0.167 HD
ATOM     58  C   UNL A   1      43.865  26.461  32.101  1.00  0.00     0.074 A 
ATOM     59  C   UNL A   1      44.537  25.332  31.479  1.00  0.00     0.031 C 
ATOM     60  C   UNL A   1      44.051  26.863  33.383  1.00  0.00     0.037 A 
BRANCH  47  61
ATOM     61  C   UNL A   1      40.478  31.625  35.142  1.00  0.00     0.058 A 
ATOM     62  C   UNL A   1      39.422  31.498  36.061  1.00  0.00     0.135 A 
ATOM     63  C   UNL A   1      41.313  32.750  35.286  1.00  0.00     0.135 A 
ATOM     64  F   UNL A   1      38.593  30.443  35.996  1.00  0.00    -0.206 F 
ATOM     65  C   UNL A   1      39.180  32.454  37.047  1.00  0.00     0.059 A 
ATOM     66  C   UNL A   1      41.110  33.704  36.286  1.00  0.00     0.059 A 
ATOM     67  F   UNL A   1      42.354  32.930  34.456  1.00  0.00    -0.206 F 
ATOM     68  C   UNL A   1      40.028  33.556  37.151  1.00  0.00     0.060 A 
BRANCH  68  69
ATOM     69  S   UNL A   1      39.712  34.777  38.446  1.00  0.00     0.124 S 
ATOM     70  O   UNL A   1      38.536  34.211  39.102  1.00  0.00    -0.237 OA
ATOM     71  O   UNL A   1      40.947  34.739  39.225  1.00  0.00    -0.237 OA
ATOM     72  O   UNL A   1      39.484  36.012  37.704  1.00  0.00    -0.744 OA
ENDBRANCH  68  69
ENDBRANCH  47  61
BRANCH  48  73
ATOM     73  C   UNL A   1      43.016  25.684  27.514  1.00  0.00     0.058 A 
ATOM     74  C   UNL A   1      44.058  26.119  26.681  1.00  0.00     0.135 A 
ATOM     75  C   UNL A   1      42.517  24.387  27.324  1.00  0.00     0.135 A 
ATOM     76  F   UNL A   1      44.585  27.341  26.850  1.00  0.00    -0.206 F 
ATOM     77  C   UNL A   1      44.607  25.291  25.711  1.00  0.00     0.059 A 
ATOM     78  C   UNL A   1      43.064  23.532  26.372  1.00  0.00     0.059 A 
ATOM     79  F   UNL A   1      41.565  23.907  28.139  1.00  0.00    -0.206 F 
ATOM     80  C   UNL A   1      44.115  23.992  25.575  1.00  0.00     0.060 A 
BRANCH  80  81
ATOM     81  S   UNL A   1      44.939  22.879  24.417  1.00  0.00     0.124 S 
ATOM     82  O   UNL A   1      45.346  21.790  25.297  1.00  0.00    -0.237 OA
ATOM     83  O   UNL A   1      43.872  22.570  23.470  1.00  0.00    -0.237 OA
ATOM     84  O   UNL A   1      46.022  23.697  23.878  1.00  0.00    -0.744 OA
ENDBRANCH  80  81
ENDBRANCH  48  73
BRANCH  60  85
ATOM     85  C   UNL A   1      45.070  26.085  34.161  1.00  0.00     0.058 A 
ATOM     86  C   UNL A   1      44.704  24.949  34.904  1.00  0.00     0.135 A 
ATOM     87  C   UNL A   1      46.404  26.512  34.222  1.00  0.00     0.135 A 
ATOM     88  F   UNL A   1      43.435  24.510  34.885  1.00  0.00    -0.206 F 
ATOM     89  C   UNL A   1      45.613  24.300  35.729  1.00  0.00     0.059 A 
ATOM     90  C   UNL A   1      47.336  25.860  35.022  1.00  0.00     0.059 A 
ATOM     91  F   UNL A   1      46.804  27.587  33.525  1.00  0.00    -0.206 F 
ATOM     92  C   UNL A   1      46.924  24.773  35.793  1.00  0.00     0.060 A 
BRANCH  92  93
ATOM     93  S   UNL A   1      48.084  23.960  36.910  1.00  0.00     0.124 S 
ATOM     94  O   UNL A   1      49.366  24.351  36.332  1.00  0.00    -0.237 OA
ATOM     95  O   UNL A   1      47.759  24.563  38.198  1.00  0.00    -0.237 OA
ATOM     96  O   UNL A   1      47.741  22.546  36.781  1.00  0.00    -0.744 OA
ENDBRANCH  92  93
ENDBRANCH  60  85
ENDBRANCH  34  35
ENDBRANCH  27  29
ENDBRANCH  26  27
ENDBRANCH  25  26
ENDBRANCH   1  25
TORSDOF 22
ENDMDL
MODEL 3
REMARK VINA RESULT:      -9.7      1.168      1.901
REMARK SMILES CC(C)CCN(C(=O)N[C@H](C(=O)OCCOC(=O)c1ccc(-c2c3nc(c(-c4c(F)cc(S(=O)(=O)[O-])cc4F)c4ccc([nH]4)c(-c4c(F)cc(S(=O)(=O)[O-])cc4F)c4nc(c(-c5c(F)cc(S(=O)(=O)[O-])cc5F)c5ccc2[nH]5)C=C4)C=C3)cc1)[C@H](C)O)C1CCCC1
REMARK SMILES IDX 14 1 13 2 11 3 12 4 10 5 9 6 7 7 8 8 6 10 5 11 4 12 2 13
REMARK SMILES IDX 1 14 3 15 88 16 89 17 92 18 90 19 91 20 85 21 86 22 87 23
REMARK SMILES IDX 15 25 16 26 17 27 18 28 19 29 20 30 84 31 21 32 83 33 22 34
REMARK SMILES IDX 23 35 24 36 77 37 25 38 82 39 76 40 78 41 26 42 81 43 75 44
REMARK SMILES IDX 74 45 27 47 61 48 40 49 60 50 41 51 44 52 59 53 79 54 42 55
REMARK SMILES IDX 43 56 58 58 80 59 45 60 28 61 29 62 38 63 30 64 31 65 37 66
REMARK SMILES IDX 39 67 32 68 33 69 34 70 35 71 36 72 62 73 63 74 72 75 64 76
REMARK SMILES IDX 65 77 71 78 73 79 66 80 67 81 68 82 69 83 70 84 46 85 47 86
REMARK SMILES IDX 56 87 48 88 49 89 55 90 57 91 50 92 51 93 52 94 53 95 54 96
REMARK H PARENT 9 9 87 24 78 46 44 57
REMARK Flexibility Score: inf
ROOT
ATOM      1  C   UNL A   1      31.507  29.904  26.492  1.00  0.00     0.274 C 
ENDROOT
BRANCH   1   2
ATOM      2  O   UNL A   1      32.305  28.727  26.266  1.00  0.00    -0.460 OA
BRANCH   2   3
ATOM      3  C   UNL A   1      32.319  28.277  24.986  1.00  0.00     0.331 C 
ATOM      4  O   UNL A   1      32.815  28.898  24.046  1.00  0.00    -0.250 OA
BRANCH   3   5
ATOM      5  C   UNL A   1      31.532  26.976  24.761  1.00  0.00     0.222 C 
BRANCH   5   6
ATOM      6  N   UNL A   1      31.298  25.896  25.775  1.00  0.00    -0.322 N 
ATOM      7  C   UNL A   1      31.588  24.668  26.225  1.00  0.00     0.318 C 
ATOM      8  O   UNL A   1      31.117  24.454  27.352  1.00  0.00    -0.249 OA
ATOM      9  H   UNL A   1      30.621  26.255  26.393  1.00  0.00     0.166 HD
BRANCH   7  10
ATOM     10  N   UNL A   1      32.260  23.679  25.545  1.00  0.00    -0.322 N 
BRANCH  10  11
ATOM     11  C   UNL A   1      32.519  22.357  26.105  1.00  0.00     0.122 C 
BRANCH  11  12
ATOM     12  C   UNL A   1      31.861  21.114  25.473  1.00  0.00     0.024 C 
BRANCH  12  13
ATOM     13  C   UNL A   1      32.728  20.108  24.675  1.00  0.00    -0.016 C 
ATOM     14  C   UNL A   1      32.742  18.681  25.229  1.00  0.00     0.007 C 
ATOM     15  C   UNL A   1      32.310  20.088  23.204  1.00  0.00     0.007 C 
ENDBRANCH  12  13
ENDBRANCH  11  12
ENDBRANCH  10  11
BRANCH  10  16
ATOM     16  C   UNL A   1      32.930  24.130  24.275  1.00  0.00     0.087 C 
ATOM     17  C   UNL A   1      34.310  23.502  24.051  1.00  0.00     0.025 C 
ATOM     18  C   UNL A   1      32.294  23.786  22.934  1.00  0.00     0.025 C 
ATOM     19  C   UNL A   1      34.695  23.823  22.615  1.00  0.00     0.002 C 
ATOM     20  C   UNL A   1      33.380  23.843  21.861  1.00  0.00     0.002 C 
ENDBRANCH  10  16
ENDBRANCH   7  10
ENDBRANCH   5   6
BRANCH   5  21
ATOM     21  C   UNL A   1      30.388  27.212  23.743  1.00  0.00     0.145 C 
ATOM     22  C   UNL A   1      29.242  26.220  23.951  1.00  0.00     0.041 C 
BRANCH  21  23
ATOM     23  O   UNL A   1      30.819  27.033  22.383  1.00  0.00    -0.391 OA
ATOM     24  H   UNL A   1      30.357  26.274  21.994  1.00  0.00     0.211 HD
ENDBRANCH  21  23
ENDBRANCH   5  21
ENDBRANCH   3   5
ENDBRANCH   2   3
ENDBRANCH   1   2
BRANCH   1  25
ATOM     25  C   UNL A   1      32.434  31.088  26.746  1.00  0.00     0.275 C 
BRANCH  25  26
ATOM     26  O   UNL A   1      33.573  30.627  27.497  1.00  0.00    -0.458 OA
BRANCH  26  27
ATOM     27  C   UNL A   1      34.338  31.620  28.000  1.00  0.00     0.338 C 
ATOM     28  O   UNL A   1      33.930  32.742  28.272  1.00  0.00    -0.246 OA
BRANCH  27  29
ATOM     29  C   UNL A   1      35.717  31.168  28.331  1.00  0.00     0.060 A 
ATOM     30  C   UNL A   1      36.869  31.967  28.372  1.00  0.00     0.016 A 
ATOM     31  C   UNL A   1      35.836  29.806  28.603  1.00  0.00     0.016 A 
ATOM     32  C   UNL A   1      38.115  31.391  28.701  1.00  0.00     0.010 A 
ATOM     33  C   UNL A   1      37.061  29.221  28.886  1.00  0.00     0.010 A 
ATOM     34  C   UNL A   1      38.197  30.017  29.021  1.00  0.00    -0.014 A 
BRANCH  34  35
ATOM     35  C   UNL A   1      39.184  29.480  29.997  1.00  0.00     0.031 A 
ATOM     36  C   UNL A   1      39.485  30.121  31.326  1.00  0.00     0.074 A 
ATOM     37  C   UNL A   1      40.093  28.652  29.439  1.00  0.00     0.049 A 
ATOM     38  N   UNL A   1      40.441  29.833  32.176  1.00  0.00    -0.248 NA
ATOM     39  C   UNL A   1      38.668  31.278  31.716  1.00  0.00     0.031 C 
ATOM     40  C   UNL A   1      40.075  28.229  28.030  1.00  0.00     0.029 A 
ATOM     41  N   UNL A   1      41.233  28.082  29.928  1.00  0.00    -0.354 N 
ATOM     42  C   UNL A   1      40.373  30.793  33.183  1.00  0.00     0.074 A 
ATOM     43  C   UNL A   1      39.285  31.683  32.823  1.00  0.00     0.031 C 
ATOM     44  C   UNL A   1      41.123  27.445  27.781  1.00  0.00     0.029 A 
ATOM     45  C   UNL A   1      41.887  27.302  29.005  1.00  0.00     0.049 A 
ATOM     46  H   UNL A   1      41.555  28.217  30.849  1.00  0.00     0.167 HD
ATOM     47  C   UNL A   1      41.155  30.910  34.289  1.00  0.00     0.037 A 
ATOM     48  C   UNL A   1      42.964  26.511  29.126  1.00  0.00     0.037 A 
ATOM     49  C   UNL A   1      42.232  29.990  34.600  1.00  0.00     0.049 A 
ATOM     50  C   UNL A   1      43.606  26.428  30.464  1.00  0.00     0.074 A 
ATOM     51  C   UNL A   1      42.984  29.889  35.761  1.00  0.00     0.029 A 
ATOM     52  N   UNL A   1      42.722  29.018  33.734  1.00  0.00    -0.354 N 
ATOM     53  N   UNL A   1      43.406  27.196  31.507  1.00  0.00    -0.248 NA
ATOM     54  C   UNL A   1      44.582  25.357  30.661  1.00  0.00     0.031 C 
ATOM     55  C   UNL A   1      43.940  28.878  35.584  1.00  0.00     0.029 A 
ATOM     56  C   UNL A   1      43.760  28.316  34.331  1.00  0.00     0.049 A 
ATOM     57  H   UNL A   1      42.381  28.852  32.826  1.00  0.00     0.167 HD
ATOM     58  C   UNL A   1      44.251  26.715  32.491  1.00  0.00     0.074 A 
ATOM     59  C   UNL A   1      44.921  25.555  31.928  1.00  0.00     0.031 C 
ATOM     60  C   UNL A   1      44.462  27.203  33.738  1.00  0.00     0.037 A 
BRANCH  47  61
ATOM     61  C   UNL A   1      40.880  32.039  35.263  1.00  0.00     0.058 A 
ATOM     62  C   UNL A   1      39.894  31.934  36.260  1.00  0.00     0.135 A 
ATOM     63  C   UNL A   1      41.661  33.210  35.263  1.00  0.00     0.135 A 
ATOM     64  F   UNL A   1      39.120  30.839  36.332  1.00  0.00    -0.206 F 
ATOM     65  C   UNL A   1      39.667  32.953  37.185  1.00  0.00     0.059 A 
ATOM     66  C   UNL A   1      41.474  34.229  36.200  1.00  0.00     0.059 A 
ATOM     67  F   UNL A   1      42.635  33.373  34.352  1.00  0.00    -0.206 F 
ATOM     68  C   UNL A   1      40.460  34.098  37.147  1.00  0.00     0.060 A 
BRANCH  68  69
ATOM     69  S   UNL A   1      40.165  35.401  38.365  1.00  0.00     0.124 S 
ATOM     70  O   UNL A   1      39.059  34.838  39.134  1.00  0.00    -0.237 OA
ATOM     71  O   UNL A   1      41.445  35.477  39.064  1.00  0.00    -0.237 OA
ATOM     72  O   UNL A   1      39.834  36.564  37.548  1.00  0.00    -0.744 OA
ENDBRANCH  68  69
ENDBRANCH  47  61
BRANCH  48  73
ATOM     73  C   UNL A   1      43.306  25.630  27.985  1.00  0.00     0.058 A 
ATOM     74  C   UNL A   1      44.196  26.092  27.005  1.00  0.00     0.135 A 
ATOM     75  C   UNL A   1      42.961  24.269  27.974  1.00  0.00     0.135 A 
ATOM     76  F   UNL A   1      44.577  27.379  27.000  1.00  0.00    -0.206 F 
ATOM     77  C   UNL A   1      44.748  25.236  26.061  1.00  0.00     0.059 A 
ATOM     78  C   UNL A   1      43.516  23.388  27.051  1.00  0.00     0.059 A 
ATOM     79  F   UNL A   1      42.163  23.770  28.931  1.00  0.00    -0.206 F 
ATOM     80  C   UNL A   1      44.415  23.882  26.103  1.00  0.00     0.060 A 
BRANCH  80  81
ATOM     81  S   UNL A   1      45.257  22.756  24.969  1.00  0.00     0.124 S 
ATOM     82  O   UNL A   1      45.977  23.690  24.111  1.00  0.00    -0.237 OA
ATOM     83  O   UNL A   1      46.078  21.959  25.876  1.00  0.00    -0.237 OA
ATOM     84  O   UNL A   1      44.157  22.033  24.337  1.00  0.00    -0.744 OA
ENDBRANCH  80  81
ENDBRANCH  48  73
BRANCH  60  85
ATOM     85  C   UNL A   1      45.507  26.488  34.541  1.00  0.00     0.058 A 
ATOM     86  C   UNL A   1      45.164  25.429  35.399  1.00  0.00     0.135 A 
ATOM     87  C   UNL A   1      46.845  26.903  34.509  1.00  0.00     0.135 A 
ATOM     88  F   UNL A   1      43.892  25.003  35.473  1.00  0.00    -0.206 F 
ATOM     89  C   UNL A   1      46.101  24.846  36.243  1.00  0.00     0.059 A 
ATOM     90  C   UNL A   1      47.806  26.317  35.326  1.00  0.00     0.059 A 
ATOM     91  F   UNL A   1      47.224  27.907  33.701  1.00  0.00    -0.206 F 
ATOM     92  C   UNL A   1      47.417  25.309  36.210  1.00  0.00     0.060 A 
BRANCH  92  93
ATOM     93  S   UNL A   1      48.617  24.588  37.348  1.00  0.00     0.124 S 
ATOM     94  O   UNL A   1      48.555  23.177  36.979  1.00  0.00    -0.237 OA
ATOM     95  O   UNL A   1      49.850  25.283  36.989  1.00  0.00    -0.237 OA
ATOM     96  O   UNL A   1      48.077  24.920  38.663  1.00  0.00    -0.744 OA
ENDBRANCH  92  93
ENDBRANCH  60  85
ENDBRANCH  34  35
ENDBRANCH  27  29
ENDBRANCH  26  27
ENDBRANCH  25  26
ENDBRANCH   1  25
TORSDOF 22
ENDMDL
