MODEL 1
REMARK VINA RESULT:     -10.0      0.000      0.000
REMARK SMILES COCCN(CC(=O)OCCOC(=O)c1ccc(-c2c3nc(c(-c4c(F)cc(S(=O)(=O)[O-])cc4F)c4ccc([nH]4)c(-c4c(F)cc(S(=O)(=O)[O-])cc4F)c4nc(c(-c5c(F)cc(S(=O)(=O)[O-])cc5F)c5ccc2[nH]5)C=C4)C=C3)cc1)C(=O)c1cccc(N)c1
REMARK SMILES IDX 10 1 9 2 7 3 8 4 6 5 5 6 4 7 3 8 2 9 1 10 81 11 82 12 83 13
REMARK SMILES IDX 84 14 89 15 85 16 87 17 86 18 88 19 11 22 12 23 13 24 14 25
REMARK SMILES IDX 15 26 16 27 80 28 17 29 79 30 18 31 19 32 20 33 73 34 21 35
REMARK SMILES IDX 78 36 72 37 74 38 22 39 77 40 71 41 70 42 23 44 57 45 36 46
REMARK SMILES IDX 56 47 37 48 40 49 55 50 75 51 38 52 39 53 54 55 76 56 41 57
REMARK SMILES IDX 24 58 25 59 34 60 26 61 27 62 33 63 35 64 28 65 29 66 30 67
REMARK SMILES IDX 31 68 32 69 58 70 59 71 68 72 60 73 61 74 67 75 69 76 62 77
REMARK SMILES IDX 63 78 64 79 65 80 66 81 42 82 43 83 52 84 44 85 45 86 51 87
REMARK SMILES IDX 53 88 46 89 47 90 48 91 49 92 50 93
REMARK H PARENT 88 20 88 21 74 43 40 54
REMARK Flexibility Score: inf
ROOT
ATOM      1  C   UNL A   1      37.616  23.018  26.347  1.00  0.00     0.274 C 
ENDROOT
BRANCH   1   2
ATOM      2  O   UNL A   1      37.045  22.654  25.063  1.00  0.00    -0.461 OA
BRANCH   2   3
ATOM      3  C   UNL A   1      35.903  23.312  24.721  1.00  0.00     0.325 C 
ATOM      4  O   UNL A   1      35.510  24.331  25.288  1.00  0.00    -0.250 OA
BRANCH   3   5
ATOM      5  C   UNL A   1      35.225  22.815  23.432  1.00  0.00     0.242 C 
BRANCH   5   6
ATOM      6  N   UNL A   1      33.782  22.533  23.384  1.00  0.00    -0.325 N 
BRANCH   6   7
ATOM      7  C   UNL A   1      33.012  23.271  22.375  1.00  0.00     0.149 C 
BRANCH   7   8
ATOM      8  C   UNL A   1      32.948  24.791  22.638  1.00  0.00     0.181 C 
BRANCH   8   9
ATOM      9  O   UNL A   1      33.529  25.535  21.567  1.00  0.00    -0.383 OA
ATOM     10  C   UNL A   1      32.677  25.650  20.437  1.00  0.00     0.194 C 
ENDBRANCH   8   9
ENDBRANCH   7   8
ENDBRANCH   6   7
BRANCH   6  11
ATOM     11  C   UNL A   1      33.095  21.605  24.179  1.00  0.00     0.254 C 
ATOM     12  O   UNL A   1      32.404  21.932  25.144  1.00  0.00    -0.269 OA
BRANCH  11  13
ATOM     13  C   UNL A   1      33.146  20.157  23.879  1.00  0.00     0.042 A 
ATOM     14  C   UNL A   1      32.308  19.592  22.914  1.00  0.00     0.014 A 
ATOM     15  C   UNL A   1      33.997  19.337  24.635  1.00  0.00     0.039 A 
ATOM     16  C   UNL A   1      32.368  18.222  22.661  1.00  0.00     0.003 A 
ATOM     17  C   UNL A   1      34.128  17.979  24.319  1.00  0.00     0.032 A 
ATOM     18  C   UNL A   1      33.277  17.423  23.361  1.00  0.00     0.025 A 
BRANCH  17  19
ATOM     19  N   UNL A   1      35.038  17.179  25.001  1.00  0.00    -0.399 N 
ATOM     20  H   UNL A   1      35.443  17.499  25.838  1.00  0.00     0.156 HD
ATOM     21  H   UNL A   1      35.276  16.292  24.646  1.00  0.00     0.156 HD
ENDBRANCH  17  19
ENDBRANCH  11  13
ENDBRANCH   6  11
ENDBRANCH   5   6
ENDBRANCH   3   5
ENDBRANCH   2   3
ENDBRANCH   1   2
BRANCH   1  22
ATOM     22  C   UNL A   1      39.148  23.224  26.308  1.00  0.00     0.275 C 
BRANCH  22  23
ATOM     23  O   UNL A   1      39.567  24.574  25.988  1.00  0.00    -0.458 OA
BRANCH  23  24
ATOM     24  C   UNL A   1      40.673  24.932  26.656  1.00  0.00     0.338 C 
ATOM     25  O   UNL A   1      41.789  24.457  26.456  1.00  0.00    -0.246 OA
BRANCH  24  26
ATOM     26  C   UNL A   1      40.569  26.002  27.631  1.00  0.00     0.060 A 
ATOM     27  C   UNL A   1      41.694  26.818  27.808  1.00  0.00     0.016 A 
ATOM     28  C   UNL A   1      39.545  25.976  28.579  1.00  0.00     0.016 A 
ATOM     29  C   UNL A   1      41.795  27.618  28.938  1.00  0.00     0.010 A 
ATOM     30  C   UNL A   1      39.633  26.804  29.698  1.00  0.00     0.010 A 
ATOM     31  C   UNL A   1      40.757  27.629  29.880  1.00  0.00    -0.014 A 
BRANCH  31  32
ATOM     32  C   UNL A   1      40.757  28.664  30.935  1.00  0.00     0.031 A 
ATOM     33  C   UNL A   1      41.650  28.591  32.134  1.00  0.00     0.074 A 
ATOM     34  C   UNL A   1      39.889  29.679  30.770  1.00  0.00     0.049 A 
ATOM     35  N   UNL A   1      41.707  29.404  33.156  1.00  0.00    -0.248 NA
ATOM     36  C   UNL A   1      42.602  27.473  32.199  1.00  0.00     0.031 C 
ATOM     37  C   UNL A   1      38.984  29.826  29.623  1.00  0.00     0.029 A 
ATOM     38  N   UNL A   1      39.606  30.757  31.560  1.00  0.00    -0.354 N 
ATOM     39  C   UNL A   1      42.696  28.902  33.992  1.00  0.00     0.074 A 
ATOM     40  C   UNL A   1      43.212  27.705  33.357  1.00  0.00     0.031 C 
ATOM     41  C   UNL A   1      38.226  30.916  29.801  1.00  0.00     0.029 A 
ATOM     42  C   UNL A   1      38.569  31.519  31.082  1.00  0.00     0.049 A 
ATOM     43  H   UNL A   1      40.096  30.966  32.388  1.00  0.00     0.167 HD
ATOM     44  C   UNL A   1      43.122  29.402  35.177  1.00  0.00     0.037 A 
ATOM     45  C   UNL A   1      37.935  32.567  31.633  1.00  0.00     0.037 A 
ATOM     46  C   UNL A   1      42.588  30.596  35.786  1.00  0.00     0.049 A 
ATOM     47  C   UNL A   1      38.406  33.078  32.957  1.00  0.00     0.074 A 
ATOM     48  C   UNL A   1      42.982  31.215  36.961  1.00  0.00     0.029 A 
ATOM     49  N   UNL A   1      41.537  31.345  35.277  1.00  0.00    -0.354 N 
ATOM     50  N   UNL A   1      39.367  32.612  33.718  1.00  0.00    -0.248 NA
ATOM     51  C   UNL A   1      37.716  34.254  33.496  1.00  0.00     0.031 C 
ATOM     52  C   UNL A   1      42.148  32.318  37.178  1.00  0.00     0.029 A 
ATOM     53  C   UNL A   1      41.253  32.404  36.124  1.00  0.00     0.049 A 
ATOM     54  H   UNL A   1      41.062  31.152  34.437  1.00  0.00     0.167 HD
ATOM     55  C   UNL A   1      39.403  33.441  34.828  1.00  0.00     0.074 A 
ATOM     56  C   UNL A   1      38.375  34.447  34.631  1.00  0.00     0.031 C 
ATOM     57  C   UNL A   1      40.214  33.379  35.912  1.00  0.00     0.037 A 
BRANCH  44  58
ATOM     58  C   UNL A   1      44.209  28.670  35.912  1.00  0.00     0.058 A 
ATOM     59  C   UNL A   1      43.920  27.604  36.776  1.00  0.00     0.135 A 
ATOM     60  C   UNL A   1      45.559  28.969  35.666  1.00  0.00     0.135 A 
ATOM     61  F   UNL A   1      42.647  27.284  37.052  1.00  0.00    -0.206 F 
ATOM     62  C   UNL A   1      44.934  26.854  37.368  1.00  0.00     0.059 A 
ATOM     63  C   UNL A   1      46.588  28.226  36.237  1.00  0.00     0.059 A 
ATOM     64  F   UNL A   1      45.887  29.982  34.849  1.00  0.00    -0.206 F 
ATOM     65  C   UNL A   1      46.265  27.171  37.090  1.00  0.00     0.060 A 
BRANCH  65  66
ATOM     66  S   UNL A   1      47.572  26.159  37.823  1.00  0.00     0.124 S 
ATOM     67  O   UNL A   1      47.918  26.946  39.003  1.00  0.00    -0.237 OA
ATOM     68  O   UNL A   1      46.886  24.898  38.082  1.00  0.00    -0.237 OA
ATOM     69  O   UNL A   1      48.590  26.112  36.778  1.00  0.00    -0.744 OA
ENDBRANCH  65  66
ENDBRANCH  44  58
BRANCH  45  70
ATOM     70  C   UNL A   1      36.773  33.155  30.929  1.00  0.00     0.058 A 
ATOM     71  C   UNL A   1      35.464  32.900  31.353  1.00  0.00     0.135 A 
ATOM     72  C   UNL A   1      36.962  34.055  29.868  1.00  0.00     0.135 A 
ATOM     73  F   UNL A   1      35.240  32.052  32.368  1.00  0.00    -0.206 F 
ATOM     74  C   UNL A   1      34.375  33.519  30.750  1.00  0.00     0.059 A 
ATOM     75  C   UNL A   1      35.891  34.699  29.261  1.00  0.00     0.059 A 
ATOM     76  F   UNL A   1      38.202  34.349  29.449  1.00  0.00    -0.206 F 
ATOM     77  C   UNL A   1      34.600  34.421  29.706  1.00  0.00     0.060 A 
BRANCH  77  78
ATOM     78  S   UNL A   1      33.195  35.291  28.978  1.00  0.00     0.124 S 
ATOM     79  O   UNL A   1      33.861  36.369  28.258  1.00  0.00    -0.237 OA
ATOM     80  O   UNL A   1      32.578  34.256  28.152  1.00  0.00    -0.237 OA
ATOM     81  O   UNL A   1      32.416  35.692  30.145  1.00  0.00    -0.744 OA
ENDBRANCH  77  78
ENDBRANCH  45  70
BRANCH  57  82
ATOM     82  C   UNL A   1      40.010  34.435  36.954  1.00  0.00     0.058 A 
ATOM     83  C   UNL A   1      39.054  34.277  37.969  1.00  0.00     0.135 A 
ATOM     84  C   UNL A   1      40.772  35.612  36.937  1.00  0.00     0.135 A 
ATOM     85  F   UNL A   1      38.295  33.171  38.016  1.00  0.00    -0.206 F 
ATOM     86  C   UNL A   1      38.840  35.268  38.920  1.00  0.00     0.059 A 
ATOM     87  C   UNL A   1      40.587  36.608  37.888  1.00  0.00     0.059 A 
ATOM     88  F   UNL A   1      41.700  35.802  35.986  1.00  0.00    -0.206 F 
ATOM     89  C   UNL A   1      39.606  36.435  38.866  1.00  0.00     0.060 A 
BRANCH  89  90
ATOM     90  S   UNL A   1      39.326  37.721  40.100  1.00  0.00     0.124 S 
ATOM     91  O   UNL A   1      38.116  38.356  39.589  1.00  0.00    -0.237 OA
ATOM     92  O   UNL A   1      39.166  36.952  41.331  1.00  0.00    -0.237 OA
ATOM     93  O   UNL A   1      40.541  38.527  40.025  1.00  0.00    -0.744 OA
ENDBRANCH  89  90
ENDBRANCH  57  82
ENDBRANCH  31  32
ENDBRANCH  24  26
ENDBRANCH  23  24
ENDBRANCH  22  23
ENDBRANCH   1  22
TORSDOF 21
ENDMDL
MODEL 2
REMARK VINA RESULT:     -10.0      4.938     10.351
REMARK SMILES COCCN(CC(=O)OCCOC(=O)c1ccc(-c2c3nc(c(-c4c(F)cc(S(=O)(=O)[O-])cc4F)c4ccc([nH]4)c(-c4c(F)cc(S(=O)(=O)[O-])cc4F)c4nc(c(-c5c(F)cc(S(=O)(=O)[O-])cc5F)c5ccc2[nH]5)C=C4)C=C3)cc1)C(=O)c1cccc(N)c1
REMARK SMILES IDX 10 1 9 2 7 3 8 4 6 5 5 6 4 7 3 8 2 9 1 10 81 11 82 12 83 13
REMARK SMILES IDX 84 14 89 15 85 16 87 17 86 18 88 19 11 22 12 23 13 24 14 25
REMARK SMILES IDX 15 26 16 27 80 28 17 29 79 30 18 31 19 32 20 33 73 34 21 35
REMARK SMILES IDX 78 36 72 37 74 38 22 39 77 40 71 41 70 42 23 44 57 45 36 46
REMARK SMILES IDX 56 47 37 48 40 49 55 50 75 51 38 52 39 53 54 55 76 56 41 57
REMARK SMILES IDX 24 58 25 59 34 60 26 61 27 62 33 63 35 64 28 65 29 66 30 67
REMARK SMILES IDX 31 68 32 69 58 70 59 71 68 72 60 73 61 74 67 75 69 76 62 77
REMARK SMILES IDX 63 78 64 79 65 80 66 81 42 82 43 83 52 84 44 85 45 86 51 87
REMARK SMILES IDX 53 88 46 89 47 90 48 91 49 92 50 93
REMARK H PARENT 88 20 88 21 74 43 40 54
REMARK Flexibility Score: inf
ROOT
ATOM      1  C   UNL A   1      32.124  28.822  25.761  1.00  0.00     0.274 C 
ENDROOT
BRANCH   1   2
ATOM      2  O   UNL A   1      33.073  29.172  24.721  1.00  0.00    -0.461 OA
BRANCH   2   3
ATOM      3  C   UNL A   1      33.590  28.125  24.021  1.00  0.00     0.325 C 
ATOM      4  O   UNL A   1      33.920  28.196  22.838  1.00  0.00    -0.250 OA
BRANCH   3   5
ATOM      5  C   UNL A   1      33.933  26.883  24.863  1.00  0.00     0.242 C 
BRANCH   5   6
ATOM      6  N   UNL A   1      33.482  25.540  24.466  1.00  0.00    -0.325 N 
BRANCH   6   7
ATOM      7  C   UNL A   1      32.109  25.181  24.845  1.00  0.00     0.149 C 
BRANCH   7   8
ATOM      8  C   UNL A   1      31.937  24.911  26.356  1.00  0.00     0.181 C 
BRANCH   8   9
ATOM      9  O   UNL A   1      30.560  24.891  26.733  1.00  0.00    -0.383 OA
ATOM     10  C   UNL A   1      29.733  25.662  25.874  1.00  0.00     0.194 C 
ENDBRANCH   8   9
ENDBRANCH   7   8
ENDBRANCH   6   7
BRANCH   6  11
ATOM     11  C   UNL A   1      34.223  24.603  23.733  1.00  0.00     0.254 C 
ATOM     12  O   UNL A   1      34.240  24.578  22.502  1.00  0.00    -0.269 OA
BRANCH  11  13
ATOM     13  C   UNL A   1      35.059  23.589  24.413  1.00  0.00     0.042 A 
ATOM     14  C   UNL A   1      36.214  23.957  25.108  1.00  0.00     0.014 A 
ATOM     15  C   UNL A   1      34.719  22.234  24.287  1.00  0.00     0.039 A 
ATOM     16  C   UNL A   1      36.991  22.979  25.728  1.00  0.00     0.003 A 
ATOM     17  C   UNL A   1      35.441  21.260  24.987  1.00  0.00     0.032 A 
ATOM     18  C   UNL A   1      36.602  21.638  25.668  1.00  0.00     0.025 A 
BRANCH  17  19
ATOM     19  N   UNL A   1      35.056  19.925  24.942  1.00  0.00    -0.399 N 
ATOM     20  H   UNL A   1      35.555  19.252  25.457  1.00  0.00     0.156 HD
ATOM     21  H   UNL A   1      34.283  19.654  24.396  1.00  0.00     0.156 HD
ENDBRANCH  17  19
ENDBRANCH  11  13
ENDBRANCH   6  11
ENDBRANCH   5   6
ENDBRANCH   3   5
ENDBRANCH   2   3
ENDBRANCH   1   2
BRANCH   1  22
ATOM     22  C   UNL A   1      32.498  29.376  27.156  1.00  0.00     0.275 C 
BRANCH  22  23
ATOM     23  O   UNL A   1      33.855  29.086  27.575  1.00  0.00    -0.458 OA
BRANCH  23  24
ATOM     24  C   UNL A   1      34.541  30.199  27.873  1.00  0.00     0.338 C 
ATOM     25  O   UNL A   1      34.063  31.331  27.868  1.00  0.00    -0.246 OA
BRANCH  24  26
ATOM     26  C   UNL A   1      35.921  30.060  28.299  1.00  0.00     0.060 A 
ATOM     27  C   UNL A   1      36.907  30.122  27.306  1.00  0.00     0.016 A 
ATOM     28  C   UNL A   1      36.205  29.534  29.560  1.00  0.00     0.016 A 
ATOM     29  C   UNL A   1      38.188  29.660  27.575  1.00  0.00     0.010 A 
ATOM     30  C   UNL A   1      37.501  29.099  29.840  1.00  0.00     0.010 A 
ATOM     31  C   UNL A   1      38.497  29.163  28.849  1.00  0.00    -0.014 A 
BRANCH  31  32
ATOM     32  C   UNL A   1      39.911  28.917  29.200  1.00  0.00     0.031 A 
ATOM     33  C   UNL A   1      40.786  29.971  29.801  1.00  0.00     0.074 A 
ATOM     34  C   UNL A   1      40.383  27.686  28.930  1.00  0.00     0.049 A 
ATOM     35  N   UNL A   1      42.056  29.900  30.102  1.00  0.00    -0.248 NA
ATOM     36  C   UNL A   1      40.166  31.268  30.109  1.00  0.00     0.031 C 
ATOM     37  C   UNL A   1      39.591  26.597  28.346  1.00  0.00     0.029 A 
ATOM     38  N   UNL A   1      41.629  27.148  29.084  1.00  0.00    -0.354 N 
ATOM     39  C   UNL A   1      42.395  31.138  30.634  1.00  0.00     0.074 A 
ATOM     40  C   UNL A   1      41.194  31.947  30.609  1.00  0.00     0.031 C 
ATOM     41  C   UNL A   1      40.381  25.530  28.165  1.00  0.00     0.029 A 
ATOM     42  C   UNL A   1      41.732  25.872  28.587  1.00  0.00     0.049 A 
ATOM     43  H   UNL A   1      42.378  27.626  29.510  1.00  0.00     0.167 HD
ATOM     44  C   UNL A   1      43.603  31.546  31.093  1.00  0.00     0.037 A 
ATOM     45  C   UNL A   1      42.806  25.076  28.450  1.00  0.00     0.037 A 
ATOM     46  C   UNL A   1      44.784  30.719  31.104  1.00  0.00     0.049 A 
ATOM     47  C   UNL A   1      44.131  25.567  28.937  1.00  0.00     0.074 A 
ATOM     48  C   UNL A   1      46.045  31.020  31.591  1.00  0.00     0.029 A 
ATOM     49  N   UNL A   1      44.855  29.430  30.593  1.00  0.00    -0.354 N 
ATOM     50  N   UNL A   1      44.428  26.728  29.469  1.00  0.00    -0.248 NA
ATOM     51  C   UNL A   1      45.265  24.646  28.811  1.00  0.00     0.031 C 
ATOM     52  C   UNL A   1      46.885  29.928  31.345  1.00  0.00     0.029 A 
ATOM     53  C   UNL A   1      46.142  28.934  30.731  1.00  0.00     0.049 A 
ATOM     54  H   UNL A   1      44.102  28.941  30.190  1.00  0.00     0.167 HD
ATOM     55  C   UNL A   1      45.784  26.678  29.749  1.00  0.00     0.074 A 
ATOM     56  C   UNL A   1      46.247  25.364  29.339  1.00  0.00     0.031 C 
ATOM     57  C   UNL A   1      46.577  27.630  30.298  1.00  0.00     0.037 A 
BRANCH  44  58
ATOM     58  C   UNL A   1      43.730  32.949  31.616  1.00  0.00     0.058 A 
ATOM     59  C   UNL A   1      43.560  33.243  32.977  1.00  0.00     0.135 A 
ATOM     60  C   UNL A   1      44.133  33.991  30.765  1.00  0.00     0.135 A 
ATOM     61  F   UNL A   1      43.166  32.285  33.830  1.00  0.00    -0.206 F 
ATOM     62  C   UNL A   1      43.789  34.522  33.478  1.00  0.00     0.059 A 
ATOM     63  C   UNL A   1      44.380  35.274  31.246  1.00  0.00     0.059 A 
ATOM     64  F   UNL A   1      44.308  33.762  29.454  1.00  0.00    -0.206 F 
ATOM     65  C   UNL A   1      44.202  35.531  32.605  1.00  0.00     0.060 A 
BRANCH  65  66
ATOM     66  S   UNL A   1      44.546  37.174  33.274  1.00  0.00     0.124 S 
ATOM     67  O   UNL A   1      44.903  36.856  34.654  1.00  0.00    -0.237 OA
ATOM     68  O   UNL A   1      45.642  37.636  32.427  1.00  0.00    -0.237 OA
ATOM     69  O   UNL A   1      43.283  37.883  33.099  1.00  0.00    -0.744 OA
ENDBRANCH  65  66
ENDBRANCH  44  58
BRANCH  45  70
ATOM     70  C   UNL A   1      42.645  23.760  27.791  1.00  0.00     0.058 A 
ATOM     71  C   UNL A   1      42.751  23.629  26.401  1.00  0.00     0.135 A 
ATOM     72  C   UNL A   1      42.469  22.597  28.555  1.00  0.00     0.135 A 
ATOM     73  F   UNL A   1      42.927  24.716  25.635  1.00  0.00    -0.206 F 
ATOM     74  C   UNL A   1      42.688  22.384  25.786  1.00  0.00     0.059 A 
ATOM     75  C   UNL A   1      42.421  21.340  27.965  1.00  0.00     0.059 A 
ATOM     76  F   UNL A   1      42.391  22.675  29.892  1.00  0.00    -0.206 F 
ATOM     77  C   UNL A   1      42.526  21.244  26.578  1.00  0.00     0.060 A 
BRANCH  77  78
ATOM     78  S   UNL A   1      42.530  19.619  25.791  1.00  0.00     0.124 S 
ATOM     79  O   UNL A   1      42.949  18.762  26.894  1.00  0.00    -0.237 OA
ATOM     80  O   UNL A   1      41.142  19.474  25.361  1.00  0.00    -0.237 OA
ATOM     81  O   UNL A   1      43.497  19.780  24.709  1.00  0.00    -0.744 OA
ENDBRANCH  77  78
ENDBRANCH  45  70
BRANCH  57  82
ATOM     82  C   UNL A   1      48.019  27.270  30.480  1.00  0.00     0.058 A 
ATOM     83  C   UNL A   1      48.462  26.611  31.637  1.00  0.00     0.135 A 
ATOM     84  C   UNL A   1      48.965  27.588  29.494  1.00  0.00     0.135 A 
ATOM     85  F   UNL A   1      47.593  26.298  32.611  1.00  0.00    -0.206 F 
ATOM     86  C   UNL A   1      49.805  26.303  31.824  1.00  0.00     0.059 A 
ATOM     87  C   UNL A   1      50.309  27.274  29.652  1.00  0.00     0.059 A 
ATOM     88  F   UNL A   1      48.584  28.216  28.370  1.00  0.00    -0.206 F 
ATOM     89  C   UNL A   1      50.722  26.647  30.828  1.00  0.00     0.060 A 
BRANCH  89  90
ATOM     90  S   UNL A   1      52.465  26.247  31.073  1.00  0.00     0.124 S 
ATOM     91  O   UNL A   1      52.940  26.163  29.696  1.00  0.00    -0.237 OA
ATOM     92  O   UNL A   1      52.950  27.390  31.841  1.00  0.00    -0.237 OA
ATOM     93  O   UNL A   1      52.419  24.984  31.802  1.00  0.00    -0.744 OA
ENDBRANCH  89  90
ENDBRANCH  57  82
ENDBRANCH  31  32
ENDBRANCH  24  26
ENDBRANCH  23  24
ENDBRANCH  22  23
ENDBRANCH   1  22
TORSDOF 21
ENDMDL
MODEL 3
REMARK VINA RESULT:      -9.9      4.781     10.333
REMARK SMILES COCCN(CC(=O)OCCOC(=O)c1ccc(-c2c3nc(c(-c4c(F)cc(S(=O)(=O)[O-])cc4F)c4ccc([nH]4)c(-c4c(F)cc(S(=O)(=O)[O-])cc4F)c4nc(c(-c5c(F)cc(S(=O)(=O)[O-])cc5F)c5ccc2[nH]5)C=C4)C=C3)cc1)C(=O)c1cccc(N)c1
REMARK SMILES IDX 10 1 9 2 7 3 8 4 6 5 5 6 4 7 3 8 2 9 1 10 81 11 82 12 83 13
REMARK SMILES IDX 84 14 89 15 85 16 87 17 86 18 88 19 11 22 12 23 13 24 14 25
REMARK SMILES IDX 15 26 16 27 80 28 17 29 79 30 18 31 19 32 20 33 73 34 21 35
REMARK SMILES IDX 78 36 72 37 74 38 22 39 77 40 71 41 70 42 23 44 57 45 36 46
REMARK SMILES IDX 56 47 37 48 40 49 55 50 75 51 38 52 39 53 54 55 76 56 41 57
REMARK SMILES IDX 24 58 25 59 34 60 26 61 27 62 33 63 35 64 28 65 29 66 30 67
REMARK SMILES IDX 31 68 32 69 58 70 59 71 68 72 60 73 61 74 67 75 69 76 62 77
REMARK SMILES IDX 63 78 64 79 65 80 66 81 42 82 43 83 52 84 44 85 45 86 51 87
REMARK SMILES IDX 53 88 46 89 47 90 48 91 49 92 50 93
REMARK H PARENT 88 20 88 21 74 43 40 54
REMARK Flexibility Score: inf
ROOT
ATOM      1  C   UNL A   1      33.045  28.384  25.282  1.00  0.00     0.274 C 
ENDROOT
BRANCH   1   2
ATOM      2  O   UNL A   1      31.812  27.640  25.109  1.00  0.00    -0.461 OA
BRANCH   2   3
ATOM      3  C   UNL A   1      31.915  26.291  25.259  1.00  0.00     0.325 C 
ATOM      4  O   UNL A   1      30.957  25.523  25.171  1.00  0.00    -0.250 OA
BRANCH   3   5
ATOM      5  C   UNL A   1      33.353  25.751  25.345  1.00  0.00     0.242 C 
BRANCH   5   6
ATOM      6  N   UNL A   1      33.768  24.552  24.600  1.00  0.00    -0.325 N 
BRANCH   6   7
ATOM      7  C   UNL A   1      33.819  24.685  23.139  1.00  0.00     0.149 C 
BRANCH   7   8
ATOM      8  C   UNL A   1      34.150  26.116  22.661  1.00  0.00     0.181 C 
BRANCH   8   9
ATOM      9  O   UNL A   1      33.598  26.380  21.371  1.00  0.00    -0.383 OA
ATOM     10  C   UNL A   1      32.464  25.580  21.072  1.00  0.00     0.194 C 
ENDBRANCH   8   9
ENDBRANCH   7   8
ENDBRANCH   6   7
BRANCH   6  11
ATOM     11  C   UNL A   1      34.151  23.325  25.158  1.00  0.00     0.254 C 
ATOM     12  O   UNL A   1      33.343  22.460  25.494  1.00  0.00    -0.269 OA
BRANCH  11  13
ATOM     13  C   UNL A   1      35.579  22.987  25.351  1.00  0.00     0.042 A 
ATOM     14  C   UNL A   1      36.478  23.925  25.867  1.00  0.00     0.014 A 
ATOM     15  C   UNL A   1      36.041  21.729  24.936  1.00  0.00     0.039 A 
ATOM     16  C   UNL A   1      37.820  23.583  26.026  1.00  0.00     0.003 A 
ATOM     17  C   UNL A   1      37.366  21.350  25.182  1.00  0.00     0.032 A 
ATOM     18  C   UNL A   1      38.258  22.300  25.687  1.00  0.00     0.025 A 
BRANCH  17  19
ATOM     19  N   UNL A   1      37.809  20.072  24.859  1.00  0.00    -0.399 N 
ATOM     20  H   UNL A   1      37.372  19.286  25.257  1.00  0.00     0.156 HD
ATOM     21  H   UNL A   1      38.558  19.955  24.232  1.00  0.00     0.156 HD
ENDBRANCH  17  19
ENDBRANCH  11  13
ENDBRANCH   6  11
ENDBRANCH   5   6
ENDBRANCH   3   5
ENDBRANCH   2   3
ENDBRANCH   1   2
BRANCH   1  22
ATOM     22  C   UNL A   1      32.961  29.480  26.370  1.00  0.00     0.275 C 
BRANCH  22  23
ATOM     23  O   UNL A   1      33.791  29.240  27.533  1.00  0.00    -0.458 OA
BRANCH  23  24
ATOM     24  C   UNL A   1      34.455  30.340  27.916  1.00  0.00     0.338 C 
ATOM     25  O   UNL A   1      33.956  31.460  27.994  1.00  0.00    -0.246 OA
BRANCH  24  26
ATOM     26  C   UNL A   1      35.836  30.195  28.339  1.00  0.00     0.060 A 
ATOM     27  C   UNL A   1      36.815  30.197  27.337  1.00  0.00     0.016 A 
ATOM     28  C   UNL A   1      36.120  29.717  29.619  1.00  0.00     0.016 A 
ATOM     29  C   UNL A   1      38.090  29.725  27.617  1.00  0.00     0.010 A 
ATOM     30  C   UNL A   1      37.411  29.273  29.908  1.00  0.00     0.010 A 
ATOM     31  C   UNL A   1      38.400  29.277  28.909  1.00  0.00    -0.014 A 
BRANCH  31  32
ATOM     32  C   UNL A   1      39.812  29.021  29.259  1.00  0.00     0.031 A 
ATOM     33  C   UNL A   1      40.697  30.071  29.854  1.00  0.00     0.074 A 
ATOM     34  C   UNL A   1      40.274  27.784  28.997  1.00  0.00     0.049 A 
ATOM     35  N   UNL A   1      41.967  29.991  30.154  1.00  0.00    -0.248 NA
ATOM     36  C   UNL A   1      40.088  31.375  30.155  1.00  0.00     0.031 C 
ATOM     37  C   UNL A   1      39.472  26.698  28.420  1.00  0.00     0.029 A 
ATOM     38  N   UNL A   1      41.515  27.236  29.153  1.00  0.00    -0.354 N 
ATOM     39  C   UNL A   1      42.317  31.229  30.678  1.00  0.00     0.074 A 
ATOM     40  C   UNL A   1      41.122  32.049  30.650  1.00  0.00     0.031 C 
ATOM     41  C   UNL A   1      40.252  25.624  28.245  1.00  0.00     0.029 A 
ATOM     42  C   UNL A   1      41.607  25.957  28.664  1.00  0.00     0.049 A 
ATOM     43  H   UNL A   1      42.269  27.711  29.575  1.00  0.00     0.167 HD
ATOM     44  C   UNL A   1      43.528  31.630  31.134  1.00  0.00     0.037 A 
ATOM     45  C   UNL A   1      42.674  25.151  28.530  1.00  0.00     0.037 A 
ATOM     46  C   UNL A   1      44.702  30.792  31.149  1.00  0.00     0.049 A 
ATOM     47  C   UNL A   1      44.004  25.634  29.013  1.00  0.00     0.074 A 
ATOM     48  C   UNL A   1      45.966  31.086  31.633  1.00  0.00     0.029 A 
ATOM     49  N   UNL A   1      44.762  29.501  30.645  1.00  0.00    -0.354 N 
ATOM     50  N   UNL A   1      44.310  26.795  29.538  1.00  0.00    -0.248 NA
ATOM     51  C   UNL A   1      45.129  24.702  28.892  1.00  0.00     0.031 C 
ATOM     52  C   UNL A   1      46.796  29.985  31.393  1.00  0.00     0.029 A 
ATOM     53  C   UNL A   1      46.044  28.994  30.785  1.00  0.00     0.049 A 
ATOM     54  H   UNL A   1      44.004  29.015  30.246  1.00  0.00     0.167 HD
ATOM     55  C   UNL A   1      45.667  26.736  29.818  1.00  0.00     0.074 A 
ATOM     56  C   UNL A   1      46.118  25.416  29.415  1.00  0.00     0.031 C 
ATOM     57  C   UNL A   1      46.468  27.684  30.360  1.00  0.00     0.037 A 
BRANCH  44  58
ATOM     58  C   UNL A   1      43.667  33.035  31.649  1.00  0.00     0.058 A 
ATOM     59  C   UNL A   1      43.895  34.114  30.782  1.00  0.00     0.135 A 
ATOM     60  C   UNL A   1      43.463  33.317  33.009  1.00  0.00     0.135 A 
ATOM     61  F   UNL A   1      44.107  33.897  29.475  1.00  0.00    -0.206 F 
ATOM     62  C   UNL A   1      43.911  35.427  31.246  1.00  0.00     0.059 A 
ATOM     63  C   UNL A   1      43.463  34.623  33.493  1.00  0.00     0.059 A 
ATOM     64  F   UNL A   1      43.243  32.319  33.879  1.00  0.00    -0.206 F 
ATOM     65  C   UNL A   1      43.691  35.672  32.603  1.00  0.00     0.060 A 
BRANCH  65  66
ATOM     66  S   UNL A   1      43.663  37.383  33.186  1.00  0.00     0.124 S 
ATOM     67  O   UNL A   1      44.917  37.455  33.929  1.00  0.00    -0.237 OA
ATOM     68  O   UNL A   1      43.621  38.140  31.939  1.00  0.00    -0.237 OA
ATOM     69  O   UNL A   1      42.449  37.446  33.994  1.00  0.00    -0.744 OA
ENDBRANCH  65  66
ENDBRANCH  44  58
BRANCH  45  70
ATOM     70  C   UNL A   1      42.501  23.833  27.879  1.00  0.00     0.058 A 
ATOM     71  C   UNL A   1      42.495  23.710  26.485  1.00  0.00     0.135 A 
ATOM     72  C   UNL A   1      42.427  22.662  28.649  1.00  0.00     0.135 A 
ATOM     73  F   UNL A   1      42.572  24.804  25.713  1.00  0.00    -0.206 F 
ATOM     74  C   UNL A   1      42.422  22.465  25.870  1.00  0.00     0.059 A 
ATOM     75  C   UNL A   1      42.370  21.406  28.058  1.00  0.00     0.059 A 
ATOM     76  F   UNL A   1      42.458  22.733  29.988  1.00  0.00    -0.206 F 
ATOM     77  C   UNL A   1      42.363  21.318  26.666  1.00  0.00     0.060 A 
BRANCH  77  78
ATOM     78  S   UNL A   1      42.354  19.696  25.872  1.00  0.00     0.124 S 
ATOM     79  O   UNL A   1      40.985  19.622  25.377  1.00  0.00    -0.237 OA
ATOM     80  O   UNL A   1      43.393  19.838  24.856  1.00  0.00    -0.237 OA
ATOM     81  O   UNL A   1      42.684  18.791  26.968  1.00  0.00    -0.744 OA
ENDBRANCH  77  78
ENDBRANCH  45  70
BRANCH  57  82
ATOM     82  C   UNL A   1      47.907  27.313  30.543  1.00  0.00     0.058 A 
ATOM     83  C   UNL A   1      48.860  27.588  29.551  1.00  0.00     0.135 A 
ATOM     84  C   UNL A   1      48.336  26.674  31.716  1.00  0.00     0.135 A 
ATOM     85  F   UNL A   1      48.491  28.187  28.408  1.00  0.00    -0.206 F 
ATOM     86  C   UNL A   1      50.190  27.216  29.704  1.00  0.00     0.059 A 
ATOM     87  C   UNL A   1      49.664  26.308  31.898  1.00  0.00     0.059 A 
ATOM     88  F   UNL A   1      47.458  26.394  32.693  1.00  0.00    -0.206 F 
ATOM     89  C   UNL A   1      50.581  26.569  30.878  1.00  0.00     0.060 A 
BRANCH  89  90
ATOM     90  S   UNL A   1      52.309  26.085  31.075  1.00  0.00     0.124 S 
ATOM     91  O   UNL A   1      52.825  27.177  31.894  1.00  0.00    -0.237 OA
ATOM     92  O   UNL A   1      52.204  24.790  31.740  1.00  0.00    -0.237 OA
ATOM     93  O   UNL A   1      52.802  26.041  29.702  1.00  0.00    -0.744 OA
ENDBRANCH  89  90
ENDBRANCH  57  82
ENDBRANCH  31  32
ENDBRANCH  24  26
ENDBRANCH  23  24
ENDBRANCH  22  23
ENDBRANCH   1  22
TORSDOF 21
ENDMDL
