MODEL 1
REMARK VINA RESULT:     -11.2      0.000      0.000
REMARK SMILES O=C(OCCOC(=O)c1cc(Br)ccc1OC(=O)c1ccc(F)cc1)c1ccc(-c2c3nc(c(-c4c(F)cc(S(=O)(=O)[O-])cc4F)c4ccc([nH]4)c(-c4c(F)cc(S(=O)(=O)[O-])cc4F)c4nc(c(-c5c(F)cc(S(=O)(=O)[O-])cc5F)c5ccc2[nH]5)C=C4)C=C3)cc1
REMARK SMILES IDX 4 1 3 2 2 3 1 4 26 5 27 6 91 7 28 8 90 9 29 10 30 11 31 12
REMARK SMILES IDX 84 13 32 14 89 15 83 16 85 17 33 18 88 19 82 20 81 21 34 23
REMARK SMILES IDX 68 24 47 25 67 26 48 27 51 28 66 29 86 30 49 31 50 32 65 34
REMARK SMILES IDX 87 35 52 36 35 37 36 38 45 39 37 40 38 41 44 42 46 43 39 44
REMARK SMILES IDX 40 45 41 46 42 47 43 48 69 49 70 50 79 51 71 52 72 53 78 54
REMARK SMILES IDX 80 55 73 56 74 57 75 58 76 59 77 60 53 61 54 62 63 63 55 64
REMARK SMILES IDX 56 65 62 66 64 67 57 68 58 69 59 70 60 71 61 72 5 73 6 74
REMARK SMILES IDX 7 75 8 76 9 77 10 78 15 79 11 80 14 81 12 82 13 83 16 84
REMARK SMILES IDX 17 85 18 86 19 87 20 88 25 89 21 90 24 91 22 92 23 93
REMARK H PARENT 85 22 51 33
REMARK Flexibility Score: inf
ROOT
ATOM      1  C   UNL A   1      32.594  28.655  27.169  1.00  0.00     0.275 C 
ENDROOT
BRANCH   1   2
ATOM      2  O   UNL A   1      33.993  28.992  27.060  1.00  0.00    -0.458 OA
BRANCH   2   3
ATOM      3  C   UNL A   1      34.447  30.019  27.804  1.00  0.00     0.338 C 
ATOM      4  O   UNL A   1      33.761  30.995  28.076  1.00  0.00    -0.246 OA
BRANCH   3   5
ATOM      5  C   UNL A   1      35.861  29.840  28.225  1.00  0.00     0.060 A 
ATOM      6  C   UNL A   1      36.184  29.404  29.512  1.00  0.00     0.016 A 
ATOM      7  C   UNL A   1      36.879  29.999  27.278  1.00  0.00     0.016 A 
ATOM      8  C   UNL A   1      37.498  29.084  29.825  1.00  0.00     0.010 A 
ATOM      9  C   UNL A   1      38.187  29.621  27.569  1.00  0.00     0.010 A 
ATOM     10  C   UNL A   1      38.502  29.181  28.854  1.00  0.00    -0.014 A 
BRANCH  10  11
ATOM     11  C   UNL A   1      39.894  28.971  29.288  1.00  0.00     0.031 A 
ATOM     12  C   UNL A   1      40.506  27.631  29.038  1.00  0.00     0.074 A 
ATOM     13  C   UNL A   1      40.628  30.020  29.703  1.00  0.00     0.049 A 
ATOM     14  N   UNL A   1      41.768  27.318  28.937  1.00  0.00    -0.248 NA
ATOM     15  C   UNL A   1      39.582  26.503  28.825  1.00  0.00     0.031 C 
ATOM     16  C   UNL A   1      40.104  31.360  29.971  1.00  0.00     0.029 A 
ATOM     17  N   UNL A   1      41.974  30.135  29.919  1.00  0.00    -0.354 N 
ATOM     18  C   UNL A   1      41.783  25.985  28.556  1.00  0.00     0.074 A 
ATOM     19  C   UNL A   1      40.418  25.516  28.551  1.00  0.00     0.031 C 
ATOM     20  C   UNL A   1      41.126  32.173  30.289  1.00  0.00     0.029 A 
ATOM     21  C   UNL A   1      42.372  31.415  30.225  1.00  0.00     0.049 A 
ATOM     22  H   UNL A   1      42.598  29.375  29.861  1.00  0.00     0.167 HD
ATOM     23  C   UNL A   1      42.845  25.237  28.185  1.00  0.00     0.037 A 
ATOM     24  C   UNL A   1      43.609  31.923  30.387  1.00  0.00     0.037 A 
ATOM     25  C   UNL A   1      44.197  25.706  28.257  1.00  0.00     0.049 A 
ATOM     26  C   UNL A   1      44.787  31.033  30.092  1.00  0.00     0.074 A 
ATOM     27  C   UNL A   1      45.364  25.025  27.970  1.00  0.00     0.029 A 
ATOM     28  N   UNL A   1      44.560  26.981  28.673  1.00  0.00    -0.354 N 
ATOM     29  N   UNL A   1      44.792  29.791  29.666  1.00  0.00    -0.248 NA
ATOM     30  C   UNL A   1      46.123  31.617  30.262  1.00  0.00     0.031 C 
ATOM     31  C   UNL A   1      46.437  25.877  28.255  1.00  0.00     0.029 A 
ATOM     32  C   UNL A   1      45.935  27.103  28.672  1.00  0.00     0.049 A 
ATOM     33  H   UNL A   1      43.930  27.692  28.931  1.00  0.00     0.167 HD
ATOM     34  C   UNL A   1      46.127  29.456  29.479  1.00  0.00     0.074 A 
ATOM     35  C   UNL A   1      46.901  30.627  29.843  1.00  0.00     0.031 C 
ATOM     36  C   UNL A   1      46.667  28.293  29.036  1.00  0.00     0.037 A 
BRANCH  23  37
ATOM     37  C   UNL A   1      42.550  23.857  27.677  1.00  0.00     0.058 A 
ATOM     38  C   UNL A   1      42.398  23.611  26.307  1.00  0.00     0.135 A 
ATOM     39  C   UNL A   1      42.471  22.764  28.558  1.00  0.00     0.135 A 
ATOM     40  F   UNL A   1      42.490  24.617  25.424  1.00  0.00    -0.206 F 
ATOM     41  C   UNL A   1      42.181  22.325  25.824  1.00  0.00     0.059 A 
ATOM     42  C   UNL A   1      42.275  21.468  28.096  1.00  0.00     0.059 A 
ATOM     43  F   UNL A   1      42.651  22.945  29.877  1.00  0.00    -0.206 F 
ATOM     44  C   UNL A   1      42.128  21.259  26.726  1.00  0.00     0.060 A 
BRANCH  44  45
ATOM     45  S   UNL A   1      41.931  19.586  26.073  1.00  0.00     0.124 S 
ATOM     46  O   UNL A   1      40.511  19.560  25.744  1.00  0.00    -0.237 OA
ATOM     47  O   UNL A   1      42.849  19.591  24.939  1.00  0.00    -0.237 OA
ATOM     48  O   UNL A   1      42.337  18.739  27.191  1.00  0.00    -0.744 OA
ENDBRANCH  44  45
ENDBRANCH  23  37
BRANCH  24  49
ATOM     49  C   UNL A   1      43.779  33.346  30.785  1.00  0.00     0.058 A 
ATOM     50  C   UNL A   1      43.854  34.355  29.811  1.00  0.00     0.135 A 
ATOM     51  C   UNL A   1      43.908  33.728  32.128  1.00  0.00     0.135 A 
ATOM     52  F   UNL A   1      43.746  34.043  28.510  1.00  0.00    -0.206 F 
ATOM     53  C   UNL A   1      44.067  35.686  30.152  1.00  0.00     0.059 A 
ATOM     54  C   UNL A   1      44.100  35.058  32.496  1.00  0.00     0.059 A 
ATOM     55  F   UNL A   1      43.840  32.802  33.098  1.00  0.00    -0.206 F 
ATOM     56  C   UNL A   1      44.192  36.029  31.499  1.00  0.00     0.060 A 
BRANCH  56  57
ATOM     57  S   UNL A   1      44.474  37.763  31.919  1.00  0.00     0.124 S 
ATOM     58  O   UNL A   1      44.059  38.432  30.689  1.00  0.00    -0.237 OA
ATOM     59  O   UNL A   1      43.596  37.946  33.069  1.00  0.00    -0.237 OA
ATOM     60  O   UNL A   1      45.904  37.813  32.208  1.00  0.00    -0.744 OA
ENDBRANCH  56  57
ENDBRANCH  24  49
BRANCH  36  61
ATOM     61  C   UNL A   1      48.160  28.232  28.892  1.00  0.00     0.058 A 
ATOM     62  C   UNL A   1      48.761  28.527  27.658  1.00  0.00     0.135 A 
ATOM     63  C   UNL A   1      48.979  27.785  29.939  1.00  0.00     0.135 A 
ATOM     64  F   UNL A   1      48.016  28.949  26.625  1.00  0.00    -0.206 F 
ATOM     65  C   UNL A   1      50.124  28.356  27.460  1.00  0.00     0.059 A 
ATOM     66  C   UNL A   1      50.351  27.633  29.770  1.00  0.00     0.059 A 
ATOM     67  F   UNL A   1      48.448  27.500  31.138  1.00  0.00    -0.206 F 
ATOM     68  C   UNL A   1      50.911  27.903  28.520  1.00  0.00     0.060 A 
BRANCH  68  69
ATOM     69  S   UNL A   1      52.681  27.686  28.246  1.00  0.00     0.124 S 
ATOM     70  O   UNL A   1      52.708  26.496  27.403  1.00  0.00    -0.237 OA
ATOM     71  O   UNL A   1      53.049  28.938  27.591  1.00  0.00    -0.237 OA
ATOM     72  O   UNL A   1      53.212  27.514  29.596  1.00  0.00    -0.744 OA
ENDBRANCH  68  69
ENDBRANCH  36  61
ENDBRANCH  10  11
ENDBRANCH   3   5
ENDBRANCH   2   3
ENDBRANCH   1   2
BRANCH   1  73
ATOM     73  C   UNL A   1      32.122  27.282  26.669  1.00  0.00     0.275 C 
BRANCH  73  74
ATOM     74  O   UNL A   1      33.098  26.612  25.851  1.00  0.00    -0.458 OA
BRANCH  74  75
ATOM     75  C   UNL A   1      32.912  25.267  25.803  1.00  0.00     0.342 C 
ATOM     76  O   UNL A   1      31.984  24.645  26.298  1.00  0.00    -0.246 OA
BRANCH  75  77
ATOM     77  C   UNL A   1      33.998  24.613  25.064  1.00  0.00     0.103 A 
ATOM     78  C   UNL A   1      35.220  24.401  25.712  1.00  0.00     0.035 A 
ATOM     79  C   UNL A   1      33.792  24.105  23.776  1.00  0.00     0.145 A 
ATOM     80  C   UNL A   1      36.227  23.693  25.055  1.00  0.00     0.019 A 
ATOM     81  C   UNL A   1      34.817  23.426  23.108  1.00  0.00     0.049 A 
ATOM     82  Br  UNL A   1      37.862  23.351  25.942  1.00  0.00    -0.051 Br
ATOM     83  C   UNL A   1      36.037  23.214  23.757  1.00  0.00     0.019 A 
BRANCH  79  84
ATOM     84  O   UNL A   1      32.621  24.409  23.057  1.00  0.00    -0.422 OA
BRANCH  84  85
ATOM     85  C   UNL A   1      32.728  25.418  22.120  1.00  0.00     0.343 C 
ATOM     86  O   UNL A   1      33.301  25.346  21.045  1.00  0.00    -0.246 OA
BRANCH  85  87
ATOM     87  C   UNL A   1      32.058  26.666  22.608  1.00  0.00     0.060 A 
ATOM     88  C   UNL A   1      30.736  26.566  23.063  1.00  0.00     0.019 A 
ATOM     89  C   UNL A   1      32.679  27.924  22.637  1.00  0.00     0.019 A 
ATOM     90  C   UNL A   1      30.070  27.687  23.569  1.00  0.00     0.040 A 
ATOM     91  C   UNL A   1      32.025  29.041  23.168  1.00  0.00     0.040 A 
ATOM     92  C   UNL A   1      30.726  28.911  23.633  1.00  0.00     0.123 A 
ATOM     93  F   UNL A   1      30.096  29.975  24.148  1.00  0.00    -0.207 F 
ENDBRANCH  85  87
ENDBRANCH  84  85
ENDBRANCH  79  84
ENDBRANCH  75  77
ENDBRANCH  74  75
ENDBRANCH  73  74
ENDBRANCH   1  73
TORSDOF 17
ENDMDL
MODEL 2
REMARK VINA RESULT:     -11.0      4.147      9.576
REMARK SMILES O=C(OCCOC(=O)c1cc(Br)ccc1OC(=O)c1ccc(F)cc1)c1ccc(-c2c3nc(c(-c4c(F)cc(S(=O)(=O)[O-])cc4F)c4ccc([nH]4)c(-c4c(F)cc(S(=O)(=O)[O-])cc4F)c4nc(c(-c5c(F)cc(S(=O)(=O)[O-])cc5F)c5ccc2[nH]5)C=C4)C=C3)cc1
REMARK SMILES IDX 4 1 3 2 2 3 1 4 26 5 27 6 91 7 28 8 90 9 29 10 30 11 31 12
REMARK SMILES IDX 84 13 32 14 89 15 83 16 85 17 33 18 88 19 82 20 81 21 34 23
REMARK SMILES IDX 68 24 47 25 67 26 48 27 51 28 66 29 86 30 49 31 50 32 65 34
REMARK SMILES IDX 87 35 52 36 35 37 36 38 45 39 37 40 38 41 44 42 46 43 39 44
REMARK SMILES IDX 40 45 41 46 42 47 43 48 69 49 70 50 79 51 71 52 72 53 78 54
REMARK SMILES IDX 80 55 73 56 74 57 75 58 76 59 77 60 53 61 54 62 63 63 55 64
REMARK SMILES IDX 56 65 62 66 64 67 57 68 58 69 59 70 60 71 61 72 5 73 6 74
REMARK SMILES IDX 7 75 8 76 9 77 10 78 15 79 11 80 14 81 12 82 13 83 16 84
REMARK SMILES IDX 17 85 18 86 19 87 20 88 25 89 21 90 24 91 22 92 23 93
REMARK H PARENT 85 22 51 33
REMARK Flexibility Score: inf
ROOT
ATOM      1  C   UNL A   1      36.754  23.198  24.478  1.00  0.00     0.275 C 
ENDROOT
BRANCH   1   2
ATOM      2  O   UNL A   1      37.167  23.531  25.820  1.00  0.00    -0.458 OA
BRANCH   2   3
ATOM      3  C   UNL A   1      38.470  23.383  26.126  1.00  0.00     0.338 C 
ATOM      4  O   UNL A   1      39.110  22.381  25.840  1.00  0.00    -0.246 OA
BRANCH   3   5
ATOM      5  C   UNL A   1      39.021  24.552  26.863  1.00  0.00     0.060 A 
ATOM      6  C   UNL A   1      38.633  24.829  28.176  1.00  0.00     0.016 A 
ATOM      7  C   UNL A   1      40.033  25.315  26.270  1.00  0.00     0.016 A 
ATOM      8  C   UNL A   1      39.286  25.820  28.895  1.00  0.00     0.010 A 
ATOM      9  C   UNL A   1      40.731  26.268  27.007  1.00  0.00     0.010 A 
ATOM     10  C   UNL A   1      40.343  26.536  28.318  1.00  0.00    -0.014 A 
BRANCH  10  11
ATOM     11  C   UNL A   1      40.893  27.672  29.079  1.00  0.00     0.031 A 
ATOM     12  C   UNL A   1      40.066  28.914  29.167  1.00  0.00     0.074 A 
ATOM     13  C   UNL A   1      41.999  27.501  29.824  1.00  0.00     0.049 A 
ATOM     14  N   UNL A   1      40.109  29.858  30.067  1.00  0.00    -0.248 NA
ATOM     15  C   UNL A   1      39.026  29.100  28.141  1.00  0.00     0.031 C 
ATOM     16  C   UNL A   1      42.859  26.317  29.795  1.00  0.00     0.029 A 
ATOM     17  N   UNL A   1      42.557  28.298  30.787  1.00  0.00    -0.354 N 
ATOM     18  C   UNL A   1      39.042  30.692  29.769  1.00  0.00     0.074 A 
ATOM     19  C   UNL A   1      38.440  30.213  28.548  1.00  0.00     0.031 C 
ATOM     20  C   UNL A   1      43.824  26.453  30.721  1.00  0.00     0.029 A 
ATOM     21  C   UNL A   1      43.633  27.721  31.420  1.00  0.00     0.049 A 
ATOM     22  H   UNL A   1      42.220  29.197  31.006  1.00  0.00     0.167 HD
ATOM     23  C   UNL A   1      38.574  31.734  30.490  1.00  0.00     0.037 A 
ATOM     24  C   UNL A   1      44.350  28.151  32.476  1.00  0.00     0.037 A 
ATOM     25  C   UNL A   1      39.227  32.230  31.666  1.00  0.00     0.049 A 
ATOM     26  C   UNL A   1      43.886  29.391  33.192  1.00  0.00     0.074 A 
ATOM     27  C   UNL A   1      38.888  33.315  32.449  1.00  0.00     0.029 A 
ATOM     28  N   UNL A   1      40.376  31.674  32.213  1.00  0.00    -0.354 N 
ATOM     29  N   UNL A   1      42.835  30.139  32.944  1.00  0.00    -0.248 NA
ATOM     30  C   UNL A   1      44.677  29.828  34.349  1.00  0.00     0.031 C 
ATOM     31  C   UNL A   1      39.860  33.442  33.448  1.00  0.00     0.029 A 
ATOM     32  C   UNL A   1      40.776  32.407  33.313  1.00  0.00     0.049 A 
ATOM     33  H   UNL A   1      40.838  30.877  31.868  1.00  0.00     0.167 HD
ATOM     34  C   UNL A   1      42.815  31.111  33.937  1.00  0.00     0.074 A 
ATOM     35  C   UNL A   1      43.963  30.858  34.786  1.00  0.00     0.031 C 
ATOM     36  C   UNL A   1      41.924  32.115  34.137  1.00  0.00     0.037 A 
BRANCH  23  37
ATOM     37  C   UNL A   1      37.309  32.373  30.003  1.00  0.00     0.058 A 
ATOM     38  C   UNL A   1      36.058  31.908  30.427  1.00  0.00     0.135 A 
ATOM     39  C   UNL A   1      37.344  33.490  29.149  1.00  0.00     0.135 A 
ATOM     40  F   UNL A   1      35.972  30.862  31.262  1.00  0.00    -0.206 F 
ATOM     41  C   UNL A   1      34.881  32.531  30.024  1.00  0.00     0.059 A 
ATOM     42  C   UNL A   1      36.182  34.140  28.751  1.00  0.00     0.059 A 
ATOM     43  F   UNL A   1      38.522  33.997  28.748  1.00  0.00    -0.206 F 
ATOM     44  C   UNL A   1      34.954  33.650  29.191  1.00  0.00     0.060 A 
BRANCH  44  45
ATOM     45  S   UNL A   1      33.421  34.497  28.749  1.00  0.00     0.124 S 
ATOM     46  O   UNL A   1      32.759  34.613  30.043  1.00  0.00    -0.237 OA
ATOM     47  O   UNL A   1      33.916  35.743  28.171  1.00  0.00    -0.237 OA
ATOM     48  O   UNL A   1      32.795  33.584  27.797  1.00  0.00    -0.744 OA
ENDBRANCH  44  45
ENDBRANCH  23  37
BRANCH  24  49
ATOM     49  C   UNL A   1      45.525  27.368  32.941  1.00  0.00     0.058 A 
ATOM     50  C   UNL A   1      46.798  27.598  32.396  1.00  0.00     0.135 A 
ATOM     51  C   UNL A   1      45.403  26.354  33.903  1.00  0.00     0.135 A 
ATOM     52  F   UNL A   1      46.968  28.550  31.465  1.00  0.00    -0.206 F 
ATOM     53  C   UNL A   1      47.904  26.844  32.774  1.00  0.00     0.059 A 
ATOM     54  C   UNL A   1      46.501  25.599  34.314  1.00  0.00     0.059 A 
ATOM     55  F   UNL A   1      44.209  26.096  34.458  1.00  0.00    -0.206 F 
ATOM     56  C   UNL A   1      47.744  25.843  33.733  1.00  0.00     0.060 A 
BRANCH  56  57
ATOM     57  S   UNL A   1      49.192  24.871  34.204  1.00  0.00     0.124 S 
ATOM     58  O   UNL A   1      49.736  24.506  32.899  1.00  0.00    -0.237 OA
ATOM     59  O   UNL A   1      49.973  25.836  34.970  1.00  0.00    -0.237 OA
ATOM     60  O   UNL A   1      48.625  23.770  34.976  1.00  0.00    -0.744 OA
ENDBRANCH  56  57
ENDBRANCH  24  49
BRANCH  36  61
ATOM     61  C   UNL A   1      42.135  33.000  35.332  1.00  0.00     0.058 A 
ATOM     62  C   UNL A   1      41.482  32.716  36.542  1.00  0.00     0.135 A 
ATOM     63  C   UNL A   1      42.894  34.176  35.248  1.00  0.00     0.135 A 
ATOM     64  F   UNL A   1      40.737  31.607  36.666  1.00  0.00    -0.206 F 
ATOM     65  C   UNL A   1      41.555  33.584  37.623  1.00  0.00     0.059 A 
ATOM     66  C   UNL A   1      43.003  35.045  36.327  1.00  0.00     0.059 A 
ATOM     67  F   UNL A   1      43.542  34.482  34.113  1.00  0.00    -0.206 F 
ATOM     68  C   UNL A   1      42.314  34.749  37.505  1.00  0.00     0.060 A 
BRANCH  68  69
ATOM     69  S   UNL A   1      42.399  35.866  38.919  1.00  0.00     0.124 S 
ATOM     70  O   UNL A   1      42.754  34.952  39.998  1.00  0.00    -0.237 OA
ATOM     71  O   UNL A   1      43.441  36.804  38.511  1.00  0.00    -0.237 OA
ATOM     72  O   UNL A   1      41.053  36.428  38.986  1.00  0.00    -0.744 OA
ENDBRANCH  68  69
ENDBRANCH  36  61
ENDBRANCH  10  11
ENDBRANCH   3   5
ENDBRANCH   2   3
ENDBRANCH   1   2
BRANCH   1  73
ATOM     73  C   UNL A   1      35.461  23.814  23.925  1.00  0.00     0.275 C 
BRANCH  73  74
ATOM     74  O   UNL A   1      34.809  24.692  24.861  1.00  0.00    -0.458 OA
BRANCH  74  75
ATOM     75  C   UNL A   1      33.776  25.380  24.307  1.00  0.00     0.342 C 
ATOM     76  O   UNL A   1      33.413  25.330  23.142  1.00  0.00    -0.246 OA
BRANCH  75  77
ATOM     77  C   UNL A   1      33.117  26.230  25.306  1.00  0.00     0.103 A 
ATOM     78  C   UNL A   1      33.798  27.355  25.784  1.00  0.00     0.035 A 
ATOM     79  C   UNL A   1      31.793  25.997  25.693  1.00  0.00     0.145 A 
ATOM     80  C   UNL A   1      33.146  28.227  26.658  1.00  0.00     0.019 A 
ATOM     81  C   UNL A   1      31.156  26.854  26.596  1.00  0.00     0.049 A 
ATOM     82  Br  UNL A   1      34.036  29.781  27.266  1.00  0.00    -0.051 Br
ATOM     83  C   UNL A   1      31.836  27.979  27.072  1.00  0.00     0.019 A 
BRANCH  79  84
ATOM     84  O   UNL A   1      31.129  24.812  25.325  1.00  0.00    -0.422 OA
BRANCH  84  85
ATOM     85  C   UNL A   1      31.075  23.822  26.286  1.00  0.00     0.343 C 
ATOM     86  O   UNL A   1      30.329  23.794  27.251  1.00  0.00    -0.246 OA
BRANCH  85  87
ATOM     87  C   UNL A   1      32.096  22.761  26.012  1.00  0.00     0.060 A 
ATOM     88  C   UNL A   1      32.019  22.076  24.790  1.00  0.00     0.019 A 
ATOM     89  C   UNL A   1      33.123  22.417  26.904  1.00  0.00     0.019 A 
ATOM     90  C   UNL A   1      32.967  21.103  24.458  1.00  0.00     0.040 A 
ATOM     91  C   UNL A   1      34.089  21.464  26.563  1.00  0.00     0.040 A 
ATOM     92  C   UNL A   1      34.003  20.818  25.340  1.00  0.00     0.123 A 
ATOM     93  F   UNL A   1      34.929  19.909  25.004  1.00  0.00    -0.207 F 
ENDBRANCH  85  87
ENDBRANCH  84  85
ENDBRANCH  79  84
ENDBRANCH  75  77
ENDBRANCH  74  75
ENDBRANCH  73  74
ENDBRANCH   1  73
TORSDOF 17
ENDMDL
MODEL 3
REMARK VINA RESULT:     -10.9      3.783      8.725
REMARK SMILES O=C(OCCOC(=O)c1cc(Br)ccc1OC(=O)c1ccc(F)cc1)c1ccc(-c2c3nc(c(-c4c(F)cc(S(=O)(=O)[O-])cc4F)c4ccc([nH]4)c(-c4c(F)cc(S(=O)(=O)[O-])cc4F)c4nc(c(-c5c(F)cc(S(=O)(=O)[O-])cc5F)c5ccc2[nH]5)C=C4)C=C3)cc1
REMARK SMILES IDX 4 1 3 2 2 3 1 4 26 5 27 6 91 7 28 8 90 9 29 10 30 11 31 12
REMARK SMILES IDX 84 13 32 14 89 15 83 16 85 17 33 18 88 19 82 20 81 21 34 23
REMARK SMILES IDX 68 24 47 25 67 26 48 27 51 28 66 29 86 30 49 31 50 32 65 34
REMARK SMILES IDX 87 35 52 36 35 37 36 38 45 39 37 40 38 41 44 42 46 43 39 44
REMARK SMILES IDX 40 45 41 46 42 47 43 48 69 49 70 50 79 51 71 52 72 53 78 54
REMARK SMILES IDX 80 55 73 56 74 57 75 58 76 59 77 60 53 61 54 62 63 63 55 64
REMARK SMILES IDX 56 65 62 66 64 67 57 68 58 69 59 70 60 71 61 72 5 73 6 74
REMARK SMILES IDX 7 75 8 76 9 77 10 78 15 79 11 80 14 81 12 82 13 83 16 84
REMARK SMILES IDX 17 85 18 86 19 87 20 88 25 89 21 90 24 91 22 92 23 93
REMARK H PARENT 85 22 51 33
REMARK Flexibility Score: inf
ROOT
ATOM      1  C   UNL A   1      32.719  28.455  27.257  1.00  0.00     0.275 C 
ENDROOT
BRANCH   1   2
ATOM      2  O   UNL A   1      34.017  28.972  26.894  1.00  0.00    -0.458 OA
BRANCH   2   3
ATOM      3  C   UNL A   1      34.470  30.046  27.567  1.00  0.00     0.338 C 
ATOM      4  O   UNL A   1      33.813  31.070  27.703  1.00  0.00    -0.246 OA
BRANCH   3   5
ATOM      5  C   UNL A   1      35.848  29.854  28.092  1.00  0.00     0.060 A 
ATOM      6  C   UNL A   1      36.070  29.325  29.365  1.00  0.00     0.016 A 
ATOM      7  C   UNL A   1      36.938  30.098  27.249  1.00  0.00     0.016 A 
ATOM      8  C   UNL A   1      37.359  29.000  29.763  1.00  0.00     0.010 A 
ATOM      9  C   UNL A   1      38.224  29.716  27.621  1.00  0.00     0.010 A 
ATOM     10  C   UNL A   1      38.439  29.183  28.891  1.00  0.00    -0.014 A 
BRANCH  10  11
ATOM     11  C   UNL A   1      39.794  28.959  29.425  1.00  0.00     0.031 A 
ATOM     12  C   UNL A   1      40.181  29.695  30.667  1.00  0.00     0.074 A 
ATOM     13  C   UNL A   1      40.555  27.975  28.916  1.00  0.00     0.049 A 
ATOM     14  N   UNL A   1      41.099  29.389  31.542  1.00  0.00    -0.248 NA
ATOM     15  C   UNL A   1      39.409  30.906  30.996  1.00  0.00     0.031 C 
ATOM     16  C   UNL A   1      40.246  27.209  27.708  1.00  0.00     0.029 A 
ATOM     17  N   UNL A   1      41.715  27.414  29.381  1.00  0.00    -0.354 N 
ATOM     18  C   UNL A   1      40.947  30.311  32.566  1.00  0.00     0.074 A 
ATOM     19  C   UNL A   1      39.931  31.252  32.160  1.00  0.00     0.031 C 
ATOM     20  C   UNL A   1      41.179  26.257  27.541  1.00  0.00     0.029 A 
ATOM     21  C   UNL A   1      42.136  26.335  28.641  1.00  0.00     0.049 A 
ATOM     22  H   UNL A   1      42.200  27.752  30.169  1.00  0.00     0.167 HD
ATOM     23  C   UNL A   1      41.565  30.329  33.768  1.00  0.00     0.037 A 
ATOM     24  C   UNL A   1      43.153  25.479  28.859  1.00  0.00     0.037 A 
ATOM     25  C   UNL A   1      42.615  29.420  34.123  1.00  0.00     0.049 A 
ATOM     26  C   UNL A   1      43.917  25.596  30.151  1.00  0.00     0.074 A 
ATOM     27  C   UNL A   1      43.362  29.376  35.283  1.00  0.00     0.029 A 
ATOM     28  N   UNL A   1      43.080  28.404  33.298  1.00  0.00    -0.354 N 
ATOM     29  N   UNL A   1      43.723  26.430  31.147  1.00  0.00    -0.248 NA
ATOM     30  C   UNL A   1      45.009  24.641  30.370  1.00  0.00     0.031 C 
ATOM     31  C   UNL A   1      44.311  28.357  35.142  1.00  0.00     0.029 A 
ATOM     32  C   UNL A   1      44.122  27.738  33.913  1.00  0.00     0.049 A 
ATOM     33  H   UNL A   1      42.722  28.191  32.407  1.00  0.00     0.167 HD
ATOM     34  C   UNL A   1      44.642  26.076  32.127  1.00  0.00     0.074 A 
ATOM     35  C   UNL A   1      45.395  24.954  31.600  1.00  0.00     0.031 C 
ATOM     36  C   UNL A   1      44.840  26.618  33.355  1.00  0.00     0.037 A 
BRANCH  23  37
ATOM     37  C   UNL A   1      41.099  31.365  34.746  1.00  0.00     0.058 A 
ATOM     38  C   UNL A   1      41.651  32.651  34.751  1.00  0.00     0.135 A 
ATOM     39  C   UNL A   1      40.058  31.088  35.650  1.00  0.00     0.135 A 
ATOM     40  F   UNL A   1      42.628  32.972  33.890  1.00  0.00    -0.206 F 
ATOM     41  C   UNL A   1      41.184  33.634  35.618  1.00  0.00     0.059 A 
ATOM     42  C   UNL A   1      39.562  32.061  36.511  1.00  0.00     0.059 A 
ATOM     43  F   UNL A   1      39.470  29.880  35.655  1.00  0.00    -0.206 F 
ATOM     44  C   UNL A   1      40.135  33.332  36.489  1.00  0.00     0.060 A 
BRANCH  44  45
ATOM     45  S   UNL A   1      39.486  34.644  37.547  1.00  0.00     0.124 S 
ATOM     46  O   UNL A   1      38.111  34.206  37.756  1.00  0.00    -0.237 OA
ATOM     47  O   UNL A   1      40.365  34.563  38.709  1.00  0.00    -0.237 OA
ATOM     48  O   UNL A   1      39.650  35.845  36.732  1.00  0.00    -0.744 OA
ENDBRANCH  44  45
ENDBRANCH  23  37
BRANCH  24  49
ATOM     49  C   UNL A   1      43.451  24.414  27.864  1.00  0.00     0.058 A 
ATOM     50  C   UNL A   1      42.814  23.166  27.944  1.00  0.00     0.135 A 
ATOM     51  C   UNL A   1      44.396  24.599  26.845  1.00  0.00     0.135 A 
ATOM     52  F   UNL A   1      41.908  22.933  28.906  1.00  0.00    -0.206 F 
ATOM     53  C   UNL A   1      43.113  22.134  27.059  1.00  0.00     0.059 A 
ATOM     54  C   UNL A   1      44.697  23.588  25.933  1.00  0.00     0.059 A 
ATOM     55  F   UNL A   1      45.030  25.776  26.724  1.00  0.00    -0.206 F 
ATOM     56  C   UNL A   1      44.059  22.355  26.058  1.00  0.00     0.060 A 
BRANCH  56  57
ATOM     57  S   UNL A   1      44.437  20.999  24.925  1.00  0.00     0.124 S 
ATOM     58  O   UNL A   1      44.398  21.679  23.633  1.00  0.00    -0.237 OA
ATOM     59  O   UNL A   1      45.758  20.579  25.381  1.00  0.00    -0.237 OA
ATOM     60  O   UNL A   1      43.359  20.046  25.165  1.00  0.00    -0.744 OA
ENDBRANCH  56  57
ENDBRANCH  24  49
BRANCH  36  61
ATOM     61  C   UNL A   1      45.891  25.994  34.227  1.00  0.00     0.058 A 
ATOM     62  C   UNL A   1      47.225  26.421  34.138  1.00  0.00     0.135 A 
ATOM     63  C   UNL A   1      45.596  24.910  35.067  1.00  0.00     0.135 A 
ATOM     64  F   UNL A   1      47.555  27.448  33.340  1.00  0.00    -0.206 F 
ATOM     65  C   UNL A   1      48.238  25.778  34.836  1.00  0.00     0.059 A 
ATOM     66  C   UNL A   1      46.591  24.269  35.796  1.00  0.00     0.059 A 
ATOM     67  F   UNL A   1      44.333  24.473  35.188  1.00  0.00    -0.206 F 
ATOM     68  C   UNL A   1      47.912  24.698  35.659  1.00  0.00     0.060 A 
BRANCH  68  69
ATOM     69  S   UNL A   1      49.240  23.873  36.559  1.00  0.00     0.124 S 
ATOM     70  O   UNL A   1      48.791  22.485  36.545  1.00  0.00    -0.237 OA
ATOM     71  O   UNL A   1      50.406  24.172  35.735  1.00  0.00    -0.237 OA
ATOM     72  O   UNL A   1      49.219  24.528  37.864  1.00  0.00    -0.744 OA
ENDBRANCH  68  69
ENDBRANCH  36  61
ENDBRANCH  10  11
ENDBRANCH   3   5
ENDBRANCH   2   3
ENDBRANCH   1   2
BRANCH   1  73
ATOM     73  C   UNL A   1      32.253  27.126  26.645  1.00  0.00     0.275 C 
BRANCH  73  74
ATOM     74  O   UNL A   1      33.300  26.427  25.947  1.00  0.00    -0.458 OA
BRANCH  74  75
ATOM     75  C   UNL A   1      33.004  25.119  25.725  1.00  0.00     0.342 C 
ATOM     76  O   UNL A   1      32.004  24.528  26.101  1.00  0.00    -0.246 OA
BRANCH  75  77
ATOM     77  C   UNL A   1      34.069  24.465  24.955  1.00  0.00     0.103 A 
ATOM     78  C   UNL A   1      35.294  24.212  25.582  1.00  0.00     0.035 A 
ATOM     79  C   UNL A   1      33.837  23.995  23.657  1.00  0.00     0.145 A 
ATOM     80  C   UNL A   1      36.279  23.501  24.894  1.00  0.00     0.019 A 
ATOM     81  C   UNL A   1      34.840  23.315  22.959  1.00  0.00     0.049 A 
ATOM     82  Br  UNL A   1      37.917  23.105  25.752  1.00  0.00    -0.051 Br
ATOM     83  C   UNL A   1      36.064  23.061  23.587  1.00  0.00     0.019 A 
BRANCH  79  84
ATOM     84  O   UNL A   1      32.665  24.341  22.961  1.00  0.00    -0.422 OA
BRANCH  84  85
ATOM     85  C   UNL A   1      32.784  25.359  22.035  1.00  0.00     0.343 C 
ATOM     86  O   UNL A   1      33.277  25.266  20.922  1.00  0.00    -0.246 OA
BRANCH  85  87
ATOM     87  C   UNL A   1      32.245  26.643  22.587  1.00  0.00     0.060 A 
ATOM     88  C   UNL A   1      30.896  26.678  22.967  1.00  0.00     0.019 A 
ATOM     89  C   UNL A   1      33.013  27.807  22.745  1.00  0.00     0.019 A 
ATOM     90  C   UNL A   1      30.344  27.835  23.527  1.00  0.00     0.040 A 
ATOM     91  C   UNL A   1      32.471  28.956  23.330  1.00  0.00     0.040 A 
ATOM     92  C   UNL A   1      31.141  28.958  23.719  1.00  0.00     0.123 A 
ATOM     93  F   UNL A   1      30.617  30.054  24.285  1.00  0.00    -0.207 F 
ENDBRANCH  85  87
ENDBRANCH  84  85
ENDBRANCH  79  84
ENDBRANCH  75  77
ENDBRANCH  74  75
ENDBRANCH  73  74
ENDBRANCH   1  73
TORSDOF 17
ENDMDL
