MODEL 1
REMARK VINA RESULT:     -10.6      0.000      0.000
REMARK SMILES C#Cc1cccc(N(C)S(=O)(=O)c2cc(F)c(F)c(C(=O)OCCOC(=O)c3ccc(-c4c5nc(c(-c6c(F)cc(S(=O)(=O)[O-])cc6F)c6ccc([nH]6)c(-c6c(F)cc(S(=O)(=O)[O-])cc6F)c6nc(c(-c7c(F)cc(S(=O)(=O)[O-])cc7F)c7ccc4[nH]7)C=C6)C=C5)cc3)c2)c1
REMARK SMILES IDX 23 1 22 2 20 3 21 4 19 5 13 6 14 7 94 8 15 9 16 10 17 11
REMARK SMILES IDX 18 12 10 13 11 14 12 15 8 16 9 17 7 18 3 19 4 20 95 21 5 22
REMARK SMILES IDX 6 23 2 24 1 25 24 26 25 27 26 28 27 29 28 30 29 31 93 32
REMARK SMILES IDX 30 33 92 34 31 35 32 36 33 37 86 38 34 39 91 40 85 41 87 42
REMARK SMILES IDX 35 43 90 44 84 45 83 46 36 48 70 49 49 50 69 51 50 52 53 53
REMARK SMILES IDX 68 54 88 55 51 56 52 57 67 59 89 60 54 61 37 62 38 63 47 64
REMARK SMILES IDX 39 65 40 66 46 67 48 68 41 69 42 70 43 71 44 72 45 73 71 74
REMARK SMILES IDX 72 75 81 76 73 77 74 78 80 79 82 80 75 81 76 82 77 83 78 84
REMARK SMILES IDX 79 85 55 86 56 87 65 88 57 89 58 90 64 91 66 92 59 93 60 94
REMARK SMILES IDX 61 95 62 96 63 97
REMARK H PARENT 87 47 53 58
REMARK Flexibility Score: inf
ROOT
ATOM      1  C   UNL A   1      33.683  33.774  28.505  1.00  0.00     0.275 C 
ENDROOT
BRANCH   1   2
ATOM      2  O   UNL A   1      34.038  35.123  28.881  1.00  0.00    -0.458 OA
BRANCH   2   3
ATOM      3  C   UNL A   1      33.176  35.814  29.681  1.00  0.00     0.341 C 
ATOM      4  O   UNL A   1      32.137  36.343  29.343  1.00  0.00    -0.246 OA
BRANCH   3   5
ATOM      5  C   UNL A   1      33.712  35.778  31.063  1.00  0.00     0.100 A 
ATOM      6  C   UNL A   1      34.789  34.451  32.784  1.00  0.00     0.091 A 
ATOM      7  C   UNL A   1      34.555  35.477  33.711  1.00  0.00     0.064 A 
ATOM      8  C   UNL A   1      34.382  34.623  31.466  1.00  0.00     0.041 A 
ATOM      9  C   UNL A   1      33.992  36.672  33.278  1.00  0.00     0.161 A 
ATOM     10  F   UNL A   1      33.861  37.684  34.147  1.00  0.00    -0.204 F 
ATOM     11  C   UNL A   1      33.605  36.840  31.953  1.00  0.00     0.173 A 
ATOM     12  F   UNL A   1      33.175  38.044  31.559  1.00  0.00    -0.203 F 
BRANCH   6  13
ATOM     13  S   UNL A   1      35.830  33.111  33.309  1.00  0.00     0.264 S 
ATOM     14  O   UNL A   1      35.264  31.926  32.689  1.00  0.00    -0.201 OA
ATOM     15  O   UNL A   1      35.855  33.243  34.753  1.00  0.00    -0.201 OA
BRANCH  13  16
ATOM     16  N   UNL A   1      37.451  33.213  32.750  1.00  0.00    -0.269 N 
ATOM     17  C   UNL A   1      38.023  34.476  32.278  1.00  0.00     0.164 C 
BRANCH  16  18
ATOM     18  C   UNL A   1      38.371  32.161  33.211  1.00  0.00     0.053 A 
ATOM     19  C   UNL A   1      39.214  29.865  33.116  1.00  0.00     0.026 A 
ATOM     20  C   UNL A   1      40.285  30.198  33.939  1.00  0.00     0.017 A 
ATOM     21  C   UNL A   1      38.278  30.840  32.748  1.00  0.00     0.044 A 
ATOM     22  C   UNL A   1      40.405  31.500  34.410  1.00  0.00     0.003 A 
ATOM     23  C   UNL A   1      39.455  32.463  34.055  1.00  0.00     0.027 A 
BRANCH  19  24
ATOM     24  C   UNL A   1      39.074  28.529  32.629  1.00  0.00    -0.070 C 
ATOM     25  C   UNL A   1      38.946  27.401  32.232  1.00  0.00     0.010 C 
ENDBRANCH  19  24
ENDBRANCH  16  18
ENDBRANCH  13  16
ENDBRANCH   6  13
ENDBRANCH   3   5
ENDBRANCH   2   3
ENDBRANCH   1   2
BRANCH   1  26
ATOM     26  C   UNL A   1      34.924  32.909  28.257  1.00  0.00     0.275 C 
BRANCH  26  27
ATOM     27  O   UNL A   1      34.656  31.903  27.268  1.00  0.00    -0.458 OA
BRANCH  27  28
ATOM     28  C   UNL A   1      34.539  30.650  27.763  1.00  0.00     0.338 C 
ATOM     29  O   UNL A   1      33.511  30.013  27.923  1.00  0.00    -0.246 OA
BRANCH  28  30
ATOM     30  C   UNL A   1      35.869  30.042  27.889  1.00  0.00     0.060 A 
ATOM     31  C   UNL A   1      36.193  29.552  29.143  1.00  0.00     0.016 A 
ATOM     32  C   UNL A   1      36.837  30.103  26.896  1.00  0.00     0.016 A 
ATOM     33  C   UNL A   1      37.501  29.244  29.473  1.00  0.00     0.010 A 
ATOM     34  C   UNL A   1      38.137  29.662  27.191  1.00  0.00     0.010 A 
ATOM     35  C   UNL A   1      38.493  29.263  28.495  1.00  0.00    -0.014 A 
BRANCH  35  36
ATOM     36  C   UNL A   1      39.887  28.899  28.872  1.00  0.00     0.031 A 
ATOM     37  C   UNL A   1      40.760  29.902  29.578  1.00  0.00     0.074 A 
ATOM     38  C   UNL A   1      40.356  27.655  28.632  1.00  0.00     0.049 A 
ATOM     39  N   UNL A   1      42.039  29.844  29.843  1.00  0.00    -0.248 NA
ATOM     40  C   UNL A   1      40.112  31.144  30.033  1.00  0.00     0.031 C 
ATOM     41  C   UNL A   1      39.589  26.558  28.030  1.00  0.00     0.029 A 
ATOM     42  N   UNL A   1      41.587  27.094  28.870  1.00  0.00    -0.354 N 
ATOM     43  C   UNL A   1      42.360  31.055  30.443  1.00  0.00     0.074 A 
ATOM     44  C   UNL A   1      41.145  31.838  30.488  1.00  0.00     0.031 C 
ATOM     45  C   UNL A   1      40.351  25.456  27.983  1.00  0.00     0.029 A 
ATOM     46  C   UNL A   1      41.692  25.792  28.438  1.00  0.00     0.049 A 
ATOM     47  H   UNL A   1      42.324  27.579  29.309  1.00  0.00     0.167 HD
ATOM     48  C   UNL A   1      43.561  31.471  30.912  1.00  0.00     0.037 A 
ATOM     49  C   UNL A   1      42.757  24.972  28.357  1.00  0.00     0.037 A 
ATOM     50  C   UNL A   1      44.751  30.659  30.896  1.00  0.00     0.049 A 
ATOM     51  C   UNL A   1      44.096  25.487  28.806  1.00  0.00     0.074 A 
ATOM     52  C   UNL A   1      46.017  30.981  31.354  1.00  0.00     0.029 A 
ATOM     53  N   UNL A   1      44.825  29.365  30.399  1.00  0.00    -0.354 N 
ATOM     54  N   UNL A   1      44.397  26.651  29.331  1.00  0.00    -0.248 NA
ATOM     55  C   UNL A   1      45.242  24.585  28.640  1.00  0.00     0.031 C 
ATOM     56  C   UNL A   1      46.869  29.909  31.072  1.00  0.00     0.029 A 
ATOM     57  C   UNL A   1      46.122  28.888  30.507  1.00  0.00     0.049 A 
ATOM     58  H   UNL A   1      44.067  28.860  30.025  1.00  0.00     0.167 HD
ATOM     59  C   UNL A   1      45.764  26.613  29.579  1.00  0.00     0.074 A 
ATOM     60  C   UNL A   1      46.225  25.303  29.166  1.00  0.00     0.031 C 
ATOM     61  C   UNL A   1      46.565  27.578  30.097  1.00  0.00     0.037 A 
BRANCH  48  62
ATOM     62  C   UNL A   1      43.663  32.880  31.435  1.00  0.00     0.058 A 
ATOM     63  C   UNL A   1      43.800  33.991  30.589  1.00  0.00     0.135 A 
ATOM     64  C   UNL A   1      43.586  33.123  32.818  1.00  0.00     0.135 A 
ATOM     65  F   UNL A   1      43.898  33.823  29.260  1.00  0.00    -0.206 F 
ATOM     66  C   UNL A   1      43.889  35.286  31.093  1.00  0.00     0.059 A 
ATOM     67  C   UNL A   1      43.635  34.410  33.343  1.00  0.00     0.059 A 
ATOM     68  F   UNL A   1      43.457  32.099  33.678  1.00  0.00    -0.206 F 
ATOM     69  C   UNL A   1      43.801  35.485  32.473  1.00  0.00     0.060 A 
BRANCH  69  70
ATOM     70  S   UNL A   1      43.908  37.171  33.110  1.00  0.00     0.124 S 
ATOM     71  O   UNL A   1      43.917  37.950  31.876  1.00  0.00    -0.237 OA
ATOM     72  O   UNL A   1      42.695  37.275  33.916  1.00  0.00    -0.237 OA
ATOM     73  O   UNL A   1      45.159  37.174  33.862  1.00  0.00    -0.744 OA
ENDBRANCH  69  70
ENDBRANCH  48  62
BRANCH  49  74
ATOM     74  C   UNL A   1      42.611  23.610  27.772  1.00  0.00     0.058 A 
ATOM     75  C   UNL A   1      42.667  23.403  26.386  1.00  0.00     0.135 A 
ATOM     76  C   UNL A   1      42.418  22.482  28.589  1.00  0.00     0.135 A 
ATOM     77  F   UNL A   1      42.835  24.446  25.558  1.00  0.00    -0.206 F 
ATOM     78  C   UNL A   1      42.522  22.135  25.830  1.00  0.00     0.059 A 
ATOM     79  C   UNL A   1      42.309  21.201  28.061  1.00  0.00     0.059 A 
ATOM     80  F   UNL A   1      42.364  22.619  29.923  1.00  0.00    -0.206 F 
ATOM     81  C   UNL A   1      42.350  21.038  26.678  1.00  0.00     0.060 A 
BRANCH  81  82
ATOM     82  S   UNL A   1      42.207  19.393  25.948  1.00  0.00     0.124 S 
ATOM     83  O   UNL A   1      43.006  19.538  24.736  1.00  0.00    -0.237 OA
ATOM     84  O   UNL A   1      42.776  18.545  26.991  1.00  0.00    -0.237 OA
ATOM     85  O   UNL A   1      40.770  19.241  25.741  1.00  0.00    -0.744 OA
ENDBRANCH  81  82
ENDBRANCH  49  74
BRANCH  61  86
ATOM     86  C   UNL A   1      48.018  27.238  30.285  1.00  0.00     0.058 A 
ATOM     87  C   UNL A   1      48.991  27.582  29.333  1.00  0.00     0.135 A 
ATOM     88  C   UNL A   1      48.449  26.600  31.460  1.00  0.00     0.135 A 
ATOM     89  F   UNL A   1      48.633  28.185  28.188  1.00  0.00    -0.206 F 
ATOM     90  C   UNL A   1      50.334  27.282  29.527  1.00  0.00     0.059 A 
ATOM     91  C   UNL A   1      49.792  26.324  31.692  1.00  0.00     0.059 A 
ATOM     92  F   UNL A   1      47.563  26.255  32.408  1.00  0.00    -0.206 F 
ATOM     93  C   UNL A   1      50.727  26.659  30.714  1.00  0.00     0.060 A 
BRANCH  93  94
ATOM     94  S   UNL A   1      52.479  26.313  30.966  1.00  0.00     0.124 S 
ATOM     95  O   UNL A   1      52.428  25.088  31.758  1.00  0.00    -0.237 OA
ATOM     96  O   UNL A   1      52.966  26.164  29.599  1.00  0.00    -0.237 OA
ATOM     97  O   UNL A   1      52.962  27.496  31.672  1.00  0.00    -0.744 OA
ENDBRANCH  93  94
ENDBRANCH  61  86
ENDBRANCH  35  36
ENDBRANCH  28  30
ENDBRANCH  27  28
ENDBRANCH  26  27
ENDBRANCH   1  26
TORSDOF 18
ENDMDL
MODEL 2
REMARK VINA RESULT:     -10.4      5.129     12.229
REMARK SMILES C#Cc1cccc(N(C)S(=O)(=O)c2cc(F)c(F)c(C(=O)OCCOC(=O)c3ccc(-c4c5nc(c(-c6c(F)cc(S(=O)(=O)[O-])cc6F)c6ccc([nH]6)c(-c6c(F)cc(S(=O)(=O)[O-])cc6F)c6nc(c(-c7c(F)cc(S(=O)(=O)[O-])cc7F)c7ccc4[nH]7)C=C6)C=C5)cc3)c2)c1
REMARK SMILES IDX 23 1 22 2 20 3 21 4 19 5 13 6 14 7 94 8 15 9 16 10 17 11
REMARK SMILES IDX 18 12 10 13 11 14 12 15 8 16 9 17 7 18 3 19 4 20 95 21 5 22
REMARK SMILES IDX 6 23 2 24 1 25 24 26 25 27 26 28 27 29 28 30 29 31 93 32
REMARK SMILES IDX 30 33 92 34 31 35 32 36 33 37 86 38 34 39 91 40 85 41 87 42
REMARK SMILES IDX 35 43 90 44 84 45 83 46 36 48 70 49 49 50 69 51 50 52 53 53
REMARK SMILES IDX 68 54 88 55 51 56 52 57 67 59 89 60 54 61 37 62 38 63 47 64
REMARK SMILES IDX 39 65 40 66 46 67 48 68 41 69 42 70 43 71 44 72 45 73 71 74
REMARK SMILES IDX 72 75 81 76 73 77 74 78 80 79 82 80 75 81 76 82 77 83 78 84
REMARK SMILES IDX 79 85 55 86 56 87 65 88 57 89 58 90 64 91 66 92 59 93 60 94
REMARK SMILES IDX 61 95 62 96 63 97
REMARK H PARENT 87 47 53 58
REMARK Flexibility Score: inf
ROOT
ATOM      1  C   UNL A   1      38.506  21.553  25.429  1.00  0.00     0.275 C 
ENDROOT
BRANCH   1   2
ATOM      2  O   UNL A   1      37.152  22.049  25.522  1.00  0.00    -0.458 OA
BRANCH   2   3
ATOM      3  C   UNL A   1      36.472  22.278  24.362  1.00  0.00     0.341 C 
ATOM      4  O   UNL A   1      36.950  22.593  23.290  1.00  0.00    -0.246 OA
BRANCH   3   5
ATOM      5  C   UNL A   1      35.033  22.037  24.624  1.00  0.00     0.100 A 
ATOM      6  C   UNL A   1      32.820  23.009  24.823  1.00  0.00     0.091 A 
ATOM      7  C   UNL A   1      32.338  21.790  25.320  1.00  0.00     0.064 A 
ATOM      8  C   UNL A   1      34.158  23.112  24.463  1.00  0.00     0.041 A 
ATOM      9  C   UNL A   1      33.186  20.689  25.368  1.00  0.00     0.161 A 
ATOM     10  F   UNL A   1      32.694  19.502  25.749  1.00  0.00    -0.204 F 
ATOM     11  C   UNL A   1      34.519  20.798  24.988  1.00  0.00     0.173 A 
ATOM     12  F   UNL A   1      35.265  19.689  24.942  1.00  0.00    -0.203 F 
BRANCH   6  13
ATOM     13  S   UNL A   1      31.616  24.259  24.444  1.00  0.00     0.264 S 
ATOM     14  O   UNL A   1      31.171  24.758  25.733  1.00  0.00    -0.201 OA
ATOM     15  O   UNL A   1      30.688  23.583  23.559  1.00  0.00    -0.201 OA
BRANCH  13  16
ATOM     16  N   UNL A   1      32.246  25.615  23.599  1.00  0.00    -0.269 N 
ATOM     17  C   UNL A   1      32.373  25.620  22.140  1.00  0.00     0.164 C 
BRANCH  16  18
ATOM     18  C   UNL A   1      32.185  26.909  24.297  1.00  0.00     0.053 A 
ATOM     19  C   UNL A   1      33.198  28.615  25.730  1.00  0.00     0.026 A 
ATOM     20  C   UNL A   1      32.156  29.495  25.461  1.00  0.00     0.017 A 
ATOM     21  C   UNL A   1      33.217  27.344  25.144  1.00  0.00     0.044 A 
ATOM     22  C   UNL A   1      31.123  29.094  24.623  1.00  0.00     0.003 A 
ATOM     23  C   UNL A   1      31.137  27.815  24.057  1.00  0.00     0.027 A 
BRANCH  19  24
ATOM     24  C   UNL A   1      34.265  29.011  26.595  1.00  0.00    -0.070 C 
ATOM     25  C   UNL A   1      35.165  29.329  27.327  1.00  0.00     0.010 C 
ENDBRANCH  19  24
ENDBRANCH  16  18
ENDBRANCH  13  16
ENDBRANCH   6  13
ENDBRANCH   3   5
ENDBRANCH   2   3
ENDBRANCH   1   2
BRANCH   1  26
ATOM     26  C   UNL A   1      39.407  22.159  26.511  1.00  0.00     0.275 C 
BRANCH  26  27
ATOM     27  O   UNL A   1      39.278  23.589  26.542  1.00  0.00    -0.458 OA
BRANCH  27  28
ATOM     28  C   UNL A   1      40.428  24.247  26.809  1.00  0.00     0.338 C 
ATOM     29  O   UNL A   1      41.517  24.074  26.286  1.00  0.00    -0.246 OA
BRANCH  28  30
ATOM     30  C   UNL A   1      40.151  25.389  27.688  1.00  0.00     0.060 A 
ATOM     31  C   UNL A   1      41.005  26.472  27.561  1.00  0.00     0.016 A 
ATOM     32  C   UNL A   1      39.223  25.354  28.721  1.00  0.00     0.016 A 
ATOM     33  C   UNL A   1      41.048  27.465  28.524  1.00  0.00     0.010 A 
ATOM     34  C   UNL A   1      39.174  26.429  29.622  1.00  0.00     0.010 A 
ATOM     35  C   UNL A   1      40.112  27.480  29.556  1.00  0.00    -0.014 A 
BRANCH  35  36
ATOM     36  C   UNL A   1      40.164  28.576  30.563  1.00  0.00     0.031 A 
ATOM     37  C   UNL A   1      41.187  28.535  31.666  1.00  0.00     0.074 A 
ATOM     38  C   UNL A   1      39.331  29.635  30.460  1.00  0.00     0.049 A 
ATOM     39  N   UNL A   1      41.292  29.295  32.725  1.00  0.00    -0.248 NA
ATOM     40  C   UNL A   1      42.221  27.491  31.575  1.00  0.00     0.031 C 
ATOM     41  C   UNL A   1      38.347  29.845  29.392  1.00  0.00     0.029 A 
ATOM     42  N   UNL A   1      39.181  30.744  31.257  1.00  0.00    -0.354 N 
ATOM     43  C   UNL A   1      42.363  28.790  33.452  1.00  0.00     0.074 A 
ATOM     44  C   UNL A   1      42.866  27.647  32.722  1.00  0.00     0.031 C 
ATOM     45  C   UNL A   1      37.728  31.018  29.580  1.00  0.00     0.029 A 
ATOM     46  C   UNL A   1      38.182  31.592  30.838  1.00  0.00     0.049 A 
ATOM     47  H   UNL A   1      39.737  30.915  32.052  1.00  0.00     0.167 HD
ATOM     48  C   UNL A   1      42.877  29.244  34.620  1.00  0.00     0.037 A 
ATOM     49  C   UNL A   1      37.641  32.678  31.425  1.00  0.00     0.037 A 
ATOM     50  C   UNL A   1      42.388  30.411  35.311  1.00  0.00     0.049 A 
ATOM     51  C   UNL A   1      38.173  33.111  32.762  1.00  0.00     0.074 A 
ATOM     52  C   UNL A   1      42.843  30.961  36.496  1.00  0.00     0.029 A 
ATOM     53  N   UNL A   1      41.338  31.209  34.878  1.00  0.00    -0.354 N 
ATOM     54  N   UNL A   1      39.157  32.599  33.463  1.00  0.00    -0.248 NA
ATOM     55  C   UNL A   1      37.513  34.258  33.397  1.00  0.00     0.031 C 
ATOM     56  C   UNL A   1      42.024  32.049  36.814  1.00  0.00     0.029 A 
ATOM     57  C   UNL A   1      41.107  32.225  35.791  1.00  0.00     0.049 A 
ATOM     58  H   UNL A   1      40.831  31.072  34.044  1.00  0.00     0.167 HD
ATOM     59  C   UNL A   1      39.250  33.376  34.611  1.00  0.00     0.074 A 
ATOM     60  C   UNL A   1      38.236  34.405  34.499  1.00  0.00     0.031 C 
ATOM     61  C   UNL A   1      40.096  33.247  35.663  1.00  0.00     0.037 A 
BRANCH  48  62
ATOM     62  C   UNL A   1      43.990  28.451  35.254  1.00  0.00     0.058 A 
ATOM     63  C   UNL A   1      45.345  28.717  35.001  1.00  0.00     0.135 A 
ATOM     64  C   UNL A   1      43.689  27.422  36.164  1.00  0.00     0.135 A 
ATOM     65  F   UNL A   1      45.696  29.674  34.128  1.00  0.00    -0.206 F 
ATOM     66  C   UNL A   1      46.359  27.974  35.601  1.00  0.00     0.059 A 
ATOM     67  C   UNL A   1      44.685  26.691  36.804  1.00  0.00     0.059 A 
ATOM     68  F   UNL A   1      42.411  27.119  36.443  1.00  0.00    -0.206 F 
ATOM     69  C   UNL A   1      46.017  26.964  36.505  1.00  0.00     0.060 A 
BRANCH  69  70
ATOM     70  S   UNL A   1      47.344  26.017  37.281  1.00  0.00     0.124 S 
ATOM     71  O   UNL A   1      47.495  26.716  38.554  1.00  0.00    -0.237 OA
ATOM     72  O   UNL A   1      46.766  24.679  37.357  1.00  0.00    -0.237 OA
ATOM     73  O   UNL A   1      48.459  26.165  36.351  1.00  0.00    -0.744 OA
ENDBRANCH  69  70
ENDBRANCH  48  62
BRANCH  49  74
ATOM     74  C   UNL A   1      36.498  33.386  30.783  1.00  0.00     0.058 A 
ATOM     75  C   UNL A   1      35.193  33.258  31.278  1.00  0.00     0.135 A 
ATOM     76  C   UNL A   1      36.690  34.211  29.661  1.00  0.00     0.135 A 
ATOM     77  F   UNL A   1      34.950  32.472  32.338  1.00  0.00    -0.206 F 
ATOM     78  C   UNL A   1      34.118  33.909  30.678  1.00  0.00     0.059 A 
ATOM     79  C   UNL A   1      35.639  34.902  29.068  1.00  0.00     0.059 A 
ATOM     80  F   UNL A   1      37.919  34.376  29.148  1.00  0.00    -0.206 F 
ATOM     81  C   UNL A   1      34.354  34.735  29.577  1.00  0.00     0.060 A 
BRANCH  81  82
ATOM     82  S   UNL A   1      32.958  35.607  28.834  1.00  0.00     0.124 S 
ATOM     83  O   UNL A   1      33.630  36.688  28.123  1.00  0.00    -0.237 OA
ATOM     84  O   UNL A   1      32.359  34.570  28.000  1.00  0.00    -0.237 OA
ATOM     85  O   UNL A   1      32.161  36.011  29.989  1.00  0.00    -0.744 OA
ENDBRANCH  81  82
ENDBRANCH  49  74
BRANCH  61  86
ATOM     86  C   UNL A   1      39.989  34.268  36.763  1.00  0.00     0.058 A 
ATOM     87  C   UNL A   1      40.740  35.454  36.752  1.00  0.00     0.135 A 
ATOM     88  C   UNL A   1      39.084  34.076  37.821  1.00  0.00     0.135 A 
ATOM     89  F   UNL A   1      41.626  35.684  35.770  1.00  0.00    -0.206 F 
ATOM     90  C   UNL A   1      40.617  36.400  37.763  1.00  0.00     0.059 A 
ATOM     91  C   UNL A   1      38.918  35.026  38.823  1.00  0.00     0.059 A 
ATOM     92  F   UNL A   1      38.335  32.964  37.878  1.00  0.00    -0.206 F 
ATOM     93  C   UNL A   1      39.698  36.181  38.791  1.00  0.00     0.060 A 
BRANCH  93  94
ATOM     94  S   UNL A   1      39.523  37.438  40.073  1.00  0.00     0.124 S 
ATOM     95  O   UNL A   1      40.801  38.137  39.979  1.00  0.00    -0.237 OA
ATOM     96  O   UNL A   1      38.356  38.185  39.616  1.00  0.00    -0.237 OA
ATOM     97  O   UNL A   1      39.324  36.658  41.291  1.00  0.00    -0.744 OA
ENDBRANCH  93  94
ENDBRANCH  61  86
ENDBRANCH  35  36
ENDBRANCH  28  30
ENDBRANCH  27  28
ENDBRANCH  26  27
ENDBRANCH   1  26
TORSDOF 18
ENDMDL
MODEL 3
REMARK VINA RESULT:     -10.2      3.179      9.125
REMARK SMILES C#Cc1cccc(N(C)S(=O)(=O)c2cc(F)c(F)c(C(=O)OCCOC(=O)c3ccc(-c4c5nc(c(-c6c(F)cc(S(=O)(=O)[O-])cc6F)c6ccc([nH]6)c(-c6c(F)cc(S(=O)(=O)[O-])cc6F)c6nc(c(-c7c(F)cc(S(=O)(=O)[O-])cc7F)c7ccc4[nH]7)C=C6)C=C5)cc3)c2)c1
REMARK SMILES IDX 23 1 22 2 20 3 21 4 19 5 13 6 14 7 94 8 15 9 16 10 17 11
REMARK SMILES IDX 18 12 10 13 11 14 12 15 8 16 9 17 7 18 3 19 4 20 95 21 5 22
REMARK SMILES IDX 6 23 2 24 1 25 24 26 25 27 26 28 27 29 28 30 29 31 93 32
REMARK SMILES IDX 30 33 92 34 31 35 32 36 33 37 86 38 34 39 91 40 85 41 87 42
REMARK SMILES IDX 35 43 90 44 84 45 83 46 36 48 70 49 49 50 69 51 50 52 53 53
REMARK SMILES IDX 68 54 88 55 51 56 52 57 67 59 89 60 54 61 37 62 38 63 47 64
REMARK SMILES IDX 39 65 40 66 46 67 48 68 41 69 42 70 43 71 44 72 45 73 71 74
REMARK SMILES IDX 72 75 81 76 73 77 74 78 80 79 82 80 75 81 76 82 77 83 78 84
REMARK SMILES IDX 79 85 55 86 56 87 65 88 57 89 58 90 64 91 66 92 59 93 60 94
REMARK SMILES IDX 61 95 62 96 63 97
REMARK H PARENT 87 47 53 58
REMARK Flexibility Score: inf
ROOT
ATOM      1  C   UNL A   1      36.123  33.203  34.249  1.00  0.00     0.275 C 
ENDROOT
BRANCH   1   2
ATOM      2  O   UNL A   1      34.843  33.571  33.690  1.00  0.00    -0.458 OA
BRANCH   2   3
ATOM      3  C   UNL A   1      34.667  34.861  33.283  1.00  0.00     0.341 C 
ATOM      4  O   UNL A   1      34.740  35.857  33.974  1.00  0.00    -0.246 OA
BRANCH   3   5
ATOM      5  C   UNL A   1      34.405  34.845  31.823  1.00  0.00     0.100 A 
ATOM      6  C   UNL A   1      35.172  34.132  29.636  1.00  0.00     0.091 A 
ATOM      7  C   UNL A   1      34.179  34.921  29.039  1.00  0.00     0.064 A 
ATOM      8  C   UNL A   1      35.260  34.088  31.022  1.00  0.00     0.041 A 
ATOM      9  C   UNL A   1      33.256  35.581  29.843  1.00  0.00     0.161 A 
ATOM     10  F   UNL A   1      32.250  36.253  29.266  1.00  0.00    -0.204 F 
ATOM     11  C   UNL A   1      33.343  35.516  31.229  1.00  0.00     0.173 A 
ATOM     12  F   UNL A   1      32.368  36.070  31.959  1.00  0.00    -0.203 F 
BRANCH   6  13
ATOM     13  S   UNL A   1      36.079  33.035  28.572  1.00  0.00     0.264 S 
ATOM     14  O   UNL A   1      37.419  32.991  29.129  1.00  0.00    -0.201 OA
ATOM     15  O   UNL A   1      35.853  33.579  27.247  1.00  0.00    -0.201 OA
BRANCH  13  16
ATOM     16  N   UNL A   1      35.509  31.415  28.574  1.00  0.00    -0.269 N 
ATOM     17  C   UNL A   1      34.255  31.041  27.916  1.00  0.00     0.164 C 
BRANCH  16  18
ATOM     18  C   UNL A   1      36.515  30.366  28.804  1.00  0.00     0.053 A 
ATOM     19  C   UNL A   1      38.574  29.203  28.173  1.00  0.00     0.026 A 
ATOM     20  C   UNL A   1      38.567  28.492  29.368  1.00  0.00     0.017 A 
ATOM     21  C   UNL A   1      37.566  30.137  27.903  1.00  0.00     0.044 A 
ATOM     22  C   UNL A   1      37.541  28.701  30.281  1.00  0.00     0.003 A 
ATOM     23  C   UNL A   1      36.526  29.620  29.996  1.00  0.00     0.027 A 
BRANCH  19  24
ATOM     24  C   UNL A   1      39.619  28.995  27.221  1.00  0.00    -0.070 C 
ATOM     25  C   UNL A   1      40.509  28.814  26.432  1.00  0.00     0.010 C 
ENDBRANCH  19  24
ENDBRANCH  16  18
ENDBRANCH  13  16
ENDBRANCH   6  13
ENDBRANCH   3   5
ENDBRANCH   2   3
ENDBRANCH   1   2
BRANCH   1  26
ATOM     26  C   UNL A   1      36.696  31.950  33.578  1.00  0.00     0.275 C 
BRANCH  26  27
ATOM     27  O   UNL A   1      38.130  32.010  33.522  1.00  0.00    -0.458 OA
BRANCH  27  28
ATOM     28  C   UNL A   1      38.750  30.848  33.828  1.00  0.00     0.338 C 
ATOM     29  O   UNL A   1      38.506  30.106  34.766  1.00  0.00    -0.246 OA
BRANCH  28  30
ATOM     30  C   UNL A   1      39.643  30.461  32.730  1.00  0.00     0.060 A 
ATOM     31  C   UNL A   1      40.500  29.404  32.990  1.00  0.00     0.016 A 
ATOM     32  C   UNL A   1      39.783  31.196  31.560  1.00  0.00     0.016 A 
ATOM     33  C   UNL A   1      41.584  29.145  32.172  1.00  0.00     0.010 A 
ATOM     34  C   UNL A   1      40.804  30.848  30.661  1.00  0.00     0.010 A 
ATOM     35  C   UNL A   1      41.740  29.841  30.975  1.00  0.00    -0.014 A 
BRANCH  35  36
ATOM     36  C   UNL A   1      42.902  29.523  30.100  1.00  0.00     0.031 A 
ATOM     37  C   UNL A   1      42.951  28.212  29.363  1.00  0.00     0.074 A 
ATOM     38  C   UNL A   1      43.890  30.428  29.922  1.00  0.00     0.049 A 
ATOM     39  N   UNL A   1      43.936  27.678  28.689  1.00  0.00    -0.248 NA
ATOM     40  C   UNL A   1      41.734  27.383  29.400  1.00  0.00     0.031 C 
ATOM     41  C   UNL A   1      43.928  31.772  30.510  1.00  0.00     0.029 A 
ATOM     42  N   UNL A   1      45.049  30.364  29.189  1.00  0.00    -0.354 N 
ATOM     43  C   UNL A   1      43.481  26.433  28.271  1.00  0.00     0.074 A 
ATOM     44  C   UNL A   1      42.136  26.283  28.781  1.00  0.00     0.031 C 
ATOM     45  C   UNL A   1      45.027  32.412  30.086  1.00  0.00     0.029 A 
ATOM     46  C   UNL A   1      45.831  31.492  29.295  1.00  0.00     0.049 A 
ATOM     47  H   UNL A   1      45.297  29.585  28.639  1.00  0.00     0.167 HD
ATOM     48  C   UNL A   1      44.130  25.504  27.528  1.00  0.00     0.037 A 
ATOM     49  C   UNL A   1      47.080  31.744  28.859  1.00  0.00     0.037 A 
ATOM     50  C   UNL A   1      45.455  25.691  26.994  1.00  0.00     0.049 A 
ATOM     51  C   UNL A   1      47.812  30.666  28.110  1.00  0.00     0.074 A 
ATOM     52  C   UNL A   1      46.201  24.817  26.222  1.00  0.00     0.029 A 
ATOM     53  N   UNL A   1      46.232  26.828  27.171  1.00  0.00    -0.354 N 
ATOM     54  N   UNL A   1      47.389  29.475  27.759  1.00  0.00    -0.248 NA
ATOM     55  C   UNL A   1      49.194  30.958  27.711  1.00  0.00     0.031 C 
ATOM     56  C   UNL A   1      47.452  25.397  25.992  1.00  0.00     0.029 A 
ATOM     57  C   UNL A   1      47.462  26.663  26.554  1.00  0.00     0.049 A 
ATOM     58  H   UNL A   1      45.951  27.633  27.664  1.00  0.00     0.167 HD
ATOM     59  C   UNL A   1      48.444  28.883  27.077  1.00  0.00     0.074 A 
ATOM     60  C   UNL A   1      49.517  29.857  27.047  1.00  0.00     0.031 C 
ATOM     61  C   UNL A   1      48.520  27.645  26.528  1.00  0.00     0.037 A 
BRANCH  48  62
ATOM     62  C   UNL A   1      43.442  24.185  27.293  1.00  0.00     0.058 A 
ATOM     63  C   UNL A   1      43.386  23.178  28.268  1.00  0.00     0.135 A 
ATOM     64  C   UNL A   1      42.795  23.940  26.068  1.00  0.00     0.135 A 
ATOM     65  F   UNL A   1      44.001  23.344  29.450  1.00  0.00    -0.206 F 
ATOM     66  C   UNL A   1      42.741  21.967  28.030  1.00  0.00     0.059 A 
ATOM     67  C   UNL A   1      42.113  22.753  25.821  1.00  0.00     0.059 A 
ATOM     68  F   UNL A   1      42.817  24.865  25.095  1.00  0.00    -0.206 F 
ATOM     69  C   UNL A   1      42.104  21.766  26.803  1.00  0.00     0.060 A 
BRANCH  69  70
ATOM     70  S   UNL A   1      41.265  20.194  26.514  1.00  0.00     0.124 S 
ATOM     71  O   UNL A   1      41.404  19.545  27.814  1.00  0.00    -0.237 OA
ATOM     72  O   UNL A   1      39.915  20.624  26.161  1.00  0.00    -0.237 OA
ATOM     73  O   UNL A   1      42.032  19.591  25.429  1.00  0.00    -0.744 OA
ENDBRANCH  69  70
ENDBRANCH  48  62
BRANCH  49  74
ATOM     74  C   UNL A   1      47.736  33.044  29.177  1.00  0.00     0.058 A 
ATOM     75  C   UNL A   1      47.623  34.145  28.316  1.00  0.00     0.135 A 
ATOM     76  C   UNL A   1      48.485  33.214  30.354  1.00  0.00     0.135 A 
ATOM     77  F   UNL A   1      46.932  34.035  27.172  1.00  0.00    -0.206 F 
ATOM     78  C   UNL A   1      48.241  35.361  28.601  1.00  0.00     0.059 A 
ATOM     79  C   UNL A   1      49.078  34.429  30.680  1.00  0.00     0.059 A 
ATOM     80  F   UNL A   1      48.621  32.197  31.219  1.00  0.00    -0.206 F 
ATOM     81  C   UNL A   1      48.960  35.494  29.790  1.00  0.00     0.060 A 
BRANCH  81  82
ATOM     82  S   UNL A   1      49.720  37.087  30.168  1.00  0.00     0.124 S 
ATOM     83  O   UNL A   1      50.358  36.813  31.451  1.00  0.00    -0.237 OA
ATOM     84  O   UNL A   1      50.620  37.274  29.034  1.00  0.00    -0.237 OA
ATOM     85  O   UNL A   1      48.582  38.001  30.213  1.00  0.00    -0.744 OA
ENDBRANCH  81  82
ENDBRANCH  49  74
BRANCH  61  86
ATOM     86  C   UNL A   1      49.793  27.285  25.813  1.00  0.00     0.058 A 
ATOM     87  C   UNL A   1      49.930  27.429  24.423  1.00  0.00     0.135 A 
ATOM     88  C   UNL A   1      50.908  26.831  26.537  1.00  0.00     0.135 A 
ATOM     89  F   UNL A   1      48.894  27.849  23.680  1.00  0.00    -0.206 F 
ATOM     90  C   UNL A   1      51.119  27.112  23.775  1.00  0.00     0.059 A 
ATOM     91  C   UNL A   1      52.118  26.545  25.914  1.00  0.00     0.059 A 
ATOM     92  F   UNL A   1      50.835  26.682  27.870  1.00  0.00    -0.206 F 
ATOM     93  C   UNL A   1      52.210  26.677  24.530  1.00  0.00     0.060 A 
BRANCH  93  94
ATOM     94  S   UNL A   1      53.756  26.309  23.677  1.00  0.00     0.124 S 
ATOM     95  O   UNL A   1      54.483  27.566  23.827  1.00  0.00    -0.237 OA
ATOM     96  O   UNL A   1      54.273  25.182  24.446  1.00  0.00    -0.237 OA
ATOM     97  O   UNL A   1      53.329  25.990  22.318  1.00  0.00    -0.744 OA
ENDBRANCH  93  94
ENDBRANCH  61  86
ENDBRANCH  35  36
ENDBRANCH  28  30
ENDBRANCH  27  28
ENDBRANCH  26  27
ENDBRANCH   1  26
TORSDOF 18
ENDMDL
