MODEL 1
REMARK VINA RESULT:     -11.4      0.000      0.000
REMARK SMILES COc1cccc(C(=O)N[C@H]2C=C[C@@H](C(=O)OCCOC(=O)c3ccc(-c4c5nc(c(-c6c(F)cc(S(=O)(=O)[O-])cc6F)c6ccc([nH]6)c(-c6c(F)cc(S(=O)(=O)[O-])cc6F)c6nc(c(-c7c(F)cc(S(=O)(=O)[O-])cc7F)c7ccc4[nH]7)C=C6)C=C5)cc3)C2)c1
REMARK SMILES IDX 18 1 17 2 15 3 16 4 14 5 11 6 12 7 89 8 13 9 10 10 8 11 9 12
REMARK SMILES IDX 7 14 3 15 4 16 90 17 5 18 6 19 2 20 1 21 19 22 20 23 21 24
REMARK SMILES IDX 22 25 23 26 24 27 88 28 25 29 87 30 26 31 27 32 28 33 81 34
REMARK SMILES IDX 29 35 86 36 80 37 82 38 30 39 85 40 79 41 78 42 31 44 65 45
REMARK SMILES IDX 44 46 64 47 45 48 48 49 63 50 83 51 46 52 47 53 62 55 84 56
REMARK SMILES IDX 49 57 32 58 33 59 42 60 34 61 35 62 41 63 43 64 36 65 37 66
REMARK SMILES IDX 38 67 39 68 40 69 66 70 67 71 76 72 68 73 69 74 75 75 77 76
REMARK SMILES IDX 70 77 71 78 72 79 73 80 74 81 50 82 51 83 60 84 52 85 53 86
REMARK SMILES IDX 59 87 61 88 54 89 55 90 56 91 57 92 58 93
REMARK H PARENT 10 13 82 43 48 54
REMARK Flexibility Score: inf
ROOT
ATOM      1  C   UNL A   1      34.135  29.492  26.145  1.00  0.00     0.274 C 
ENDROOT
BRANCH   1   2
ATOM      2  O   UNL A   1      32.865  28.864  25.901  1.00  0.00    -0.462 OA
BRANCH   2   3
ATOM      3  C   UNL A   1      32.680  28.441  24.628  1.00  0.00     0.312 C 
ATOM      4  O   UNL A   1      33.036  29.060  23.628  1.00  0.00    -0.252 OA
BRANCH   3   5
ATOM      5  C   UNL A   1      31.995  27.100  24.521  1.00  0.00     0.124 C 
ATOM      6  C   UNL A   1      30.648  25.300  25.251  1.00  0.00     0.106 C 
ATOM      7  C   UNL A   1      29.825  26.274  24.464  1.00  0.00    -0.006 C 
ATOM      8  C   UNL A   1      31.760  26.225  25.760  1.00  0.00     0.048 C 
ATOM      9  C   UNL A   1      30.594  27.268  24.010  1.00  0.00    -0.014 C 
BRANCH   6  10
ATOM     10  N   UNL A   1      29.871  24.579  26.224  1.00  0.00    -0.346 N 
ATOM     11  C   UNL A   1      30.268  23.458  26.935  1.00  0.00     0.251 C 
ATOM     12  O   UNL A   1      29.550  22.977  27.806  1.00  0.00    -0.269 OA
ATOM     13  H   UNL A   1      28.964  24.919  26.404  1.00  0.00     0.164 HD
BRANCH  11  14
ATOM     14  C   UNL A   1      31.521  22.763  26.543  1.00  0.00     0.043 A 
ATOM     15  C   UNL A   1      32.626  21.046  25.256  1.00  0.00     0.119 A 
ATOM     16  C   UNL A   1      33.668  21.034  26.185  1.00  0.00     0.046 A 
ATOM     17  C   UNL A   1      31.589  21.967  25.392  1.00  0.00     0.060 A 
ATOM     18  C   UNL A   1      33.659  21.910  27.273  1.00  0.00     0.005 A 
ATOM     19  C   UNL A   1      32.577  22.770  27.461  1.00  0.00     0.014 A 
BRANCH  15  20
ATOM     20  O   UNL A   1      32.701  20.100  24.269  1.00  0.00    -0.497 OA
ATOM     21  C   UNL A   1      33.294  18.861  24.654  1.00  0.00     0.278 C 
ENDBRANCH  15  20
ENDBRANCH  11  14
ENDBRANCH   6  10
ENDBRANCH   3   5
ENDBRANCH   2   3
ENDBRANCH   1   2
BRANCH   1  22
ATOM     22  C   UNL A   1      34.225  30.032  27.577  1.00  0.00     0.275 C 
BRANCH  22  23
ATOM     23  O   UNL A   1      35.305  29.451  28.335  1.00  0.00    -0.458 OA
BRANCH  23  24
ATOM     24  C   UNL A   1      36.071  30.327  29.029  1.00  0.00     0.338 C 
ATOM     25  O   UNL A   1      35.682  31.235  29.746  1.00  0.00    -0.246 OA
BRANCH  24  26
ATOM     26  C   UNL A   1      37.493  29.961  28.914  1.00  0.00     0.060 A 
ATOM     27  C   UNL A   1      38.009  29.739  27.634  1.00  0.00     0.016 A 
ATOM     28  C   UNL A   1      38.294  29.768  30.040  1.00  0.00     0.016 A 
ATOM     29  C   UNL A   1      39.329  29.331  27.470  1.00  0.00     0.010 A 
ATOM     30  C   UNL A   1      39.624  29.363  29.874  1.00  0.00     0.010 A 
ATOM     31  C   UNL A   1      40.150  29.144  28.588  1.00  0.00    -0.014 A 
BRANCH  31  32
ATOM     32  C   UNL A   1      41.563  28.735  28.403  1.00  0.00     0.031 A 
ATOM     33  C   UNL A   1      42.665  29.750  28.502  1.00  0.00     0.074 A 
ATOM     34  C   UNL A   1      41.849  27.442  28.157  1.00  0.00     0.049 A 
ATOM     35  N   UNL A   1      43.942  29.603  28.268  1.00  0.00    -0.248 NA
ATOM     36  C   UNL A   1      42.279  31.106  28.921  1.00  0.00     0.031 C 
ATOM     37  C   UNL A   1      40.864  26.361  28.085  1.00  0.00     0.029 A 
ATOM     38  N   UNL A   1      43.046  26.819  27.915  1.00  0.00    -0.354 N 
ATOM     39  C   UNL A   1      44.514  30.850  28.489  1.00  0.00     0.074 A 
ATOM     40  C   UNL A   1      43.441  31.745  28.868  1.00  0.00     0.031 C 
ATOM     41  C   UNL A   1      41.497  25.208  27.816  1.00  0.00     0.029 A 
ATOM     42  C   UNL A   1      42.920  25.478  27.640  1.00  0.00     0.049 A 
ATOM     43  H   UNL A   1      43.912  27.286  27.936  1.00  0.00     0.167 HD
ATOM     44  C   UNL A   1      45.816  31.211  28.381  1.00  0.00     0.037 A 
ATOM     45  C   UNL A   1      43.841  24.576  27.250  1.00  0.00     0.037 A 
ATOM     46  C   UNL A   1      46.877  30.309  28.014  1.00  0.00     0.049 A 
ATOM     47  C   UNL A   1      45.267  25.017  27.068  1.00  0.00     0.074 A 
ATOM     48  C   UNL A   1      48.230  30.573  27.897  1.00  0.00     0.029 A 
ATOM     49  N   UNL A   1      46.705  28.968  27.700  1.00  0.00    -0.354 N 
ATOM     50  N   UNL A   1      45.792  26.203  27.269  1.00  0.00    -0.248 NA
ATOM     51  C   UNL A   1      46.220  24.008  26.590  1.00  0.00     0.031 C 
ATOM     52  C   UNL A   1      48.871  29.402  27.471  1.00  0.00     0.029 A 
ATOM     53  C   UNL A   1      47.922  28.399  27.362  1.00  0.00     0.049 A 
ATOM     54  H   UNL A   1      45.843  28.492  27.715  1.00  0.00     0.167 HD
ATOM     55  C   UNL A   1      47.138  26.080  26.948  1.00  0.00     0.074 A 
ATOM     56  C   UNL A   1      47.351  24.700  26.560  1.00  0.00     0.031 C 
ATOM     57  C   UNL A   1      48.110  27.024  26.968  1.00  0.00     0.037 A 
BRANCH  44  58
ATOM     58  C   UNL A   1      46.162  32.652  28.633  1.00  0.00     0.058 A 
ATOM     59  C   UNL A   1      46.528  33.113  29.906  1.00  0.00     0.135 A 
ATOM     60  C   UNL A   1      46.164  33.575  27.575  1.00  0.00     0.135 A 
ATOM     61  F   UNL A   1      46.528  32.275  30.955  1.00  0.00    -0.206 F 
ATOM     62  C   UNL A   1      46.862  34.446  30.128  1.00  0.00     0.059 A 
ATOM     63  C   UNL A   1      46.514  34.908  27.770  1.00  0.00     0.059 A 
ATOM     64  F   UNL A   1      45.820  33.185  26.338  1.00  0.00    -0.206 F 
ATOM     65  C   UNL A   1      46.848  35.338  29.052  1.00  0.00     0.060 A 
BRANCH  65  66
ATOM     66  S   UNL A   1      47.280  37.064  29.355  1.00  0.00     0.124 S 
ATOM     67  O   UNL A   1      48.584  36.929  29.997  1.00  0.00    -0.237 OA
ATOM     68  O   UNL A   1      47.292  37.626  28.008  1.00  0.00    -0.237 OA
ATOM     69  O   UNL A   1      46.202  37.537  30.218  1.00  0.00    -0.744 OA
ENDBRANCH  65  66
ENDBRANCH  44  58
BRANCH  45  70
ATOM     70  C   UNL A   1      43.429  23.178  26.960  1.00  0.00     0.058 A 
ATOM     71  C   UNL A   1      43.384  22.694  25.645  1.00  0.00     0.135 A 
ATOM     72  C   UNL A   1      43.092  22.292  27.995  1.00  0.00     0.135 A 
ATOM     73  F   UNL A   1      43.687  23.506  24.621  1.00  0.00    -0.206 F 
ATOM     74  C   UNL A   1      43.013  21.383  25.365  1.00  0.00     0.059 A 
ATOM     75  C   UNL A   1      42.742  20.970  27.743  1.00  0.00     0.059 A 
ATOM     76  F   UNL A   1      43.129  22.705  29.272  1.00  0.00    -0.206 F 
ATOM     77  C   UNL A   1      42.697  20.527  26.422  1.00  0.00     0.060 A 
BRANCH  77  78
ATOM     78  S   UNL A   1      42.274  18.809  26.056  1.00  0.00     0.124 S 
ATOM     79  O   UNL A   1      40.869  18.926  25.689  1.00  0.00    -0.237 OA
ATOM     80  O   UNL A   1      43.196  18.490  24.969  1.00  0.00    -0.237 OA
ATOM     81  O   UNL A   1      42.545  18.123  27.316  1.00  0.00    -0.744 OA
ENDBRANCH  77  78
ENDBRANCH  45  70
BRANCH  57  82
ATOM     82  C   UNL A   1      49.492  26.596  26.563  1.00  0.00     0.058 A 
ATOM     83  C   UNL A   1      50.357  25.970  27.473  1.00  0.00     0.135 A 
ATOM     84  C   UNL A   1      49.938  26.771  25.244  1.00  0.00     0.135 A 
ATOM     85  F   UNL A   1      49.981  25.789  28.749  1.00  0.00    -0.206 F 
ATOM     86  C   UNL A   1      51.626  25.546  27.093  1.00  0.00     0.059 A 
ATOM     87  C   UNL A   1      51.194  26.336  24.836  1.00  0.00     0.059 A 
ATOM     88  F   UNL A   1      49.145  27.360  24.335  1.00  0.00    -0.206 F 
ATOM     89  C   UNL A   1      52.036  25.733  25.770  1.00  0.00     0.060 A 
BRANCH  89  90
ATOM     90  S   UNL A   1      53.670  25.143  25.278  1.00  0.00     0.124 S 
ATOM     91  O   UNL A   1      54.529  25.819  26.245  1.00  0.00    -0.237 OA
ATOM     92  O   UNL A   1      53.546  23.698  25.442  1.00  0.00    -0.237 OA
ATOM     93  O   UNL A   1      53.794  25.603  23.898  1.00  0.00    -0.744 OA
ENDBRANCH  89  90
ENDBRANCH  57  82
ENDBRANCH  31  32
ENDBRANCH  24  26
ENDBRANCH  23  24
ENDBRANCH  22  23
ENDBRANCH   1  22
TORSDOF 17
ENDMDL
MODEL 2
REMARK VINA RESULT:     -11.4      2.445      3.834
REMARK SMILES COc1cccc(C(=O)N[C@H]2C=C[C@@H](C(=O)OCCOC(=O)c3ccc(-c4c5nc(c(-c6c(F)cc(S(=O)(=O)[O-])cc6F)c6ccc([nH]6)c(-c6c(F)cc(S(=O)(=O)[O-])cc6F)c6nc(c(-c7c(F)cc(S(=O)(=O)[O-])cc7F)c7ccc4[nH]7)C=C6)C=C5)cc3)C2)c1
REMARK SMILES IDX 18 1 17 2 15 3 16 4 14 5 11 6 12 7 89 8 13 9 10 10 8 11 9 12
REMARK SMILES IDX 7 14 3 15 4 16 90 17 5 18 6 19 2 20 1 21 19 22 20 23 21 24
REMARK SMILES IDX 22 25 23 26 24 27 88 28 25 29 87 30 26 31 27 32 28 33 81 34
REMARK SMILES IDX 29 35 86 36 80 37 82 38 30 39 85 40 79 41 78 42 31 44 65 45
REMARK SMILES IDX 44 46 64 47 45 48 48 49 63 50 83 51 46 52 47 53 62 55 84 56
REMARK SMILES IDX 49 57 32 58 33 59 42 60 34 61 35 62 41 63 43 64 36 65 37 66
REMARK SMILES IDX 38 67 39 68 40 69 66 70 67 71 76 72 68 73 69 74 75 75 77 76
REMARK SMILES IDX 70 77 71 78 72 79 73 80 74 81 50 82 51 83 60 84 52 85 53 86
REMARK SMILES IDX 59 87 61 88 54 89 55 90 56 91 57 92 58 93
REMARK H PARENT 10 13 82 43 48 54
REMARK Flexibility Score: inf
ROOT
ATOM      1  C   UNL A   1      33.858  32.651  28.041  1.00  0.00     0.274 C 
ENDROOT
BRANCH   1   2
ATOM      2  O   UNL A   1      33.299  31.420  27.550  1.00  0.00    -0.462 OA
BRANCH   2   3
ATOM      3  C   UNL A   1      32.064  31.536  27.009  1.00  0.00     0.312 C 
ATOM      4  O   UNL A   1      31.466  32.599  26.858  1.00  0.00    -0.252 OA
BRANCH   3   5
ATOM      5  C   UNL A   1      31.458  30.224  26.577  1.00  0.00     0.124 C 
ATOM      6  C   UNL A   1      31.246  28.274  25.257  1.00  0.00     0.106 C 
ATOM      7  C   UNL A   1      32.082  27.990  26.468  1.00  0.00    -0.006 C 
ATOM      8  C   UNL A   1      31.481  29.783  25.107  1.00  0.00     0.048 C 
ATOM      9  C   UNL A   1      32.164  29.077  27.239  1.00  0.00    -0.014 C 
BRANCH   6  10
ATOM     10  N   UNL A   1      31.579  27.425  24.144  1.00  0.00    -0.346 N 
ATOM     11  C   UNL A   1      31.058  27.499  22.862  1.00  0.00     0.251 C 
ATOM     12  O   UNL A   1      31.481  26.775  21.967  1.00  0.00    -0.269 OA
ATOM     13  H   UNL A   1      32.245  26.720  24.310  1.00  0.00     0.164 HD
BRANCH  11  14
ATOM     14  C   UNL A   1      29.887  28.379  22.609  1.00  0.00     0.043 A 
ATOM     15  C   UNL A   1      29.002  30.583  22.181  1.00  0.00     0.119 A 
ATOM     16  C   UNL A   1      27.775  30.183  22.715  1.00  0.00     0.046 A 
ATOM     17  C   UNL A   1      30.036  29.657  22.055  1.00  0.00     0.060 A 
ATOM     18  C   UNL A   1      27.589  28.873  23.162  1.00  0.00     0.005 A 
ATOM     19  C   UNL A   1      28.650  27.970  23.121  1.00  0.00     0.014 A 
BRANCH  15  20
ATOM     20  O   UNL A   1      29.096  31.904  21.837  1.00  0.00    -0.497 OA
ATOM     21  C   UNL A   1      28.403  32.810  22.695  1.00  0.00     0.278 C 
ENDBRANCH  15  20
ENDBRANCH  11  14
ENDBRANCH   6  10
ENDBRANCH   3   5
ENDBRANCH   2   3
ENDBRANCH   1   2
BRANCH   1  22
ATOM     22  C   UNL A   1      35.258  32.436  28.625  1.00  0.00     0.275 C 
BRANCH  22  23
ATOM     23  O   UNL A   1      35.565  31.048  28.866  1.00  0.00    -0.458 OA
BRANCH  23  24
ATOM     24  C   UNL A   1      36.293  30.794  29.980  1.00  0.00     0.338 C 
ATOM     25  O   UNL A   1      35.906  30.836  31.136  1.00  0.00    -0.246 OA
BRANCH  24  26
ATOM     26  C   UNL A   1      37.637  30.316  29.611  1.00  0.00     0.060 A 
ATOM     27  C   UNL A   1      38.578  30.159  30.632  1.00  0.00     0.016 A 
ATOM     28  C   UNL A   1      37.996  30.092  28.281  1.00  0.00     0.016 A 
ATOM     29  C   UNL A   1      39.880  29.769  30.333  1.00  0.00     0.010 A 
ATOM     30  C   UNL A   1      39.305  29.695  27.982  1.00  0.00     0.010 A 
ATOM     31  C   UNL A   1      40.254  29.529  29.006  1.00  0.00    -0.014 A 
BRANCH  31  32
ATOM     32  C   UNL A   1      41.636  29.089  28.700  1.00  0.00     0.031 A 
ATOM     33  C   UNL A   1      42.767  30.076  28.713  1.00  0.00     0.074 A 
ATOM     34  C   UNL A   1      41.869  27.792  28.421  1.00  0.00     0.049 A 
ATOM     35  N   UNL A   1      44.016  29.902  28.371  1.00  0.00    -0.248 NA
ATOM     36  C   UNL A   1      42.450  31.437  29.173  1.00  0.00     0.031 C 
ATOM     37  C   UNL A   1      40.855  26.734  28.425  1.00  0.00     0.029 A 
ATOM     38  N   UNL A   1      43.025  27.142  28.075  1.00  0.00    -0.354 N 
ATOM     39  C   UNL A   1      44.635  31.132  28.552  1.00  0.00     0.074 A 
ATOM     40  C   UNL A   1      43.619  32.048  29.027  1.00  0.00     0.031 C 
ATOM     41  C   UNL A   1      41.434  25.570  28.094  1.00  0.00     0.029 A 
ATOM     42  C   UNL A   1      42.844  25.807  27.801  1.00  0.00     0.049 A 
ATOM     43  H   UNL A   1      43.901  27.589  28.025  1.00  0.00     0.167 HD
ATOM     44  C   UNL A   1      45.931  31.463  28.338  1.00  0.00     0.037 A 
ATOM     45  C   UNL A   1      43.707  24.887  27.328  1.00  0.00     0.037 A 
ATOM     46  C   UNL A   1      46.935  30.540  27.875  1.00  0.00     0.049 A 
ATOM     47  C   UNL A   1      45.122  25.297  27.030  1.00  0.00     0.074 A 
ATOM     48  C   UNL A   1      48.279  30.773  27.646  1.00  0.00     0.029 A 
ATOM     49  N   UNL A   1      46.704  29.206  27.567  1.00  0.00    -0.354 N 
ATOM     50  N   UNL A   1      45.692  26.468  27.194  1.00  0.00    -0.248 NA
ATOM     51  C   UNL A   1      46.007  24.269  26.466  1.00  0.00     0.031 C 
ATOM     52  C   UNL A   1      48.853  29.591  27.160  1.00  0.00     0.029 A 
ATOM     53  C   UNL A   1      47.874  28.612  27.123  1.00  0.00     0.049 A 
ATOM     54  H   UNL A   1      45.836  28.750  27.651  1.00  0.00     0.167 HD
ATOM     55  C   UNL A   1      47.002  26.316  26.759  1.00  0.00     0.074 A 
ATOM     56  C   UNL A   1      47.148  24.935  26.345  1.00  0.00     0.031 C 
ATOM     57  C   UNL A   1      47.996  27.237  26.704  1.00  0.00     0.037 A 
BRANCH  44  58
ATOM     58  C   UNL A   1      46.332  32.893  28.569  1.00  0.00     0.058 A 
ATOM     59  C   UNL A   1      46.814  33.334  29.811  1.00  0.00     0.135 A 
ATOM     60  C   UNL A   1      46.268  33.826  27.522  1.00  0.00     0.135 A 
ATOM     61  F   UNL A   1      46.881  32.486  30.850  1.00  0.00    -0.206 F 
ATOM     62  C   UNL A   1      47.197  34.656  30.014  1.00  0.00     0.059 A 
ATOM     63  C   UNL A   1      46.665  35.148  27.696  1.00  0.00     0.059 A 
ATOM     64  F   UNL A   1      45.813  33.456  26.315  1.00  0.00    -0.206 F 
ATOM     65  C   UNL A   1      47.116  35.558  28.949  1.00  0.00     0.060 A 
BRANCH  65  66
ATOM     66  S   UNL A   1      47.614  37.271  29.227  1.00  0.00     0.124 S 
ATOM     67  O   UNL A   1      46.326  37.910  29.476  1.00  0.00    -0.237 OA
ATOM     68  O   UNL A   1      48.500  37.158  30.380  1.00  0.00    -0.237 OA
ATOM     69  O   UNL A   1      48.266  37.642  27.974  1.00  0.00    -0.744 OA
ENDBRANCH  65  66
ENDBRANCH  44  58
BRANCH  45  70
ATOM     70  C   UNL A   1      43.238  23.502  27.063  1.00  0.00     0.058 A 
ATOM     71  C   UNL A   1      43.011  23.052  25.755  1.00  0.00     0.135 A 
ATOM     72  C   UNL A   1      43.027  22.595  28.114  1.00  0.00     0.135 A 
ATOM     73  F   UNL A   1      43.188  23.885  24.719  1.00  0.00    -0.206 F 
ATOM     74  C   UNL A   1      42.586  21.753  25.497  1.00  0.00     0.059 A 
ATOM     75  C   UNL A   1      42.626  21.285  27.880  1.00  0.00     0.059 A 
ATOM     76  F   UNL A   1      43.241  22.976  29.384  1.00  0.00    -0.206 F 
ATOM     77  C   UNL A   1      42.399  20.875  26.568  1.00  0.00     0.060 A 
BRANCH  77  78
ATOM     78  S   UNL A   1      41.904  19.173  26.222  1.00  0.00     0.124 S 
ATOM     79  O   UNL A   1      42.694  18.874  25.034  1.00  0.00    -0.237 OA
ATOM     80  O   UNL A   1      42.301  18.481  27.445  1.00  0.00    -0.237 OA
ATOM     81  O   UNL A   1      40.463  19.280  26.014  1.00  0.00    -0.744 OA
ENDBRANCH  77  78
ENDBRANCH  45  70
BRANCH  57  82
ATOM     82  C   UNL A   1      49.327  26.780  26.181  1.00  0.00     0.058 A 
ATOM     83  C   UNL A   1      49.733  27.067  24.869  1.00  0.00     0.135 A 
ATOM     84  C   UNL A   1      50.224  26.091  27.011  1.00  0.00     0.135 A 
ATOM     85  F   UNL A   1      48.906  27.716  24.033  1.00  0.00    -0.206 F 
ATOM     86  C   UNL A   1      50.977  26.671  24.391  1.00  0.00     0.059 A 
ATOM     87  C   UNL A   1      51.483  25.704  26.562  1.00  0.00     0.059 A 
ATOM     88  F   UNL A   1      49.886  25.798  28.277  1.00  0.00    -0.206 F 
ATOM     89  C   UNL A   1      51.847  25.991  25.247  1.00  0.00     0.060 A 
BRANCH  89  90
ATOM     90  S   UNL A   1      53.475  25.516  24.629  1.00  0.00     0.124 S 
ATOM     91  O   UNL A   1      53.281  25.614  23.185  1.00  0.00    -0.237 OA
ATOM     92  O   UNL A   1      54.345  26.527  25.221  1.00  0.00    -0.237 OA
ATOM     93  O   UNL A   1      53.653  24.163  25.148  1.00  0.00    -0.744 OA
ENDBRANCH  89  90
ENDBRANCH  57  82
ENDBRANCH  31  32
ENDBRANCH  24  26
ENDBRANCH  23  24
ENDBRANCH  22  23
ENDBRANCH   1  22
TORSDOF 17
ENDMDL
MODEL 3
REMARK VINA RESULT:     -11.3      6.778     12.191
REMARK SMILES COc1cccc(C(=O)N[C@H]2C=C[C@@H](C(=O)OCCOC(=O)c3ccc(-c4c5nc(c(-c6c(F)cc(S(=O)(=O)[O-])cc6F)c6ccc([nH]6)c(-c6c(F)cc(S(=O)(=O)[O-])cc6F)c6nc(c(-c7c(F)cc(S(=O)(=O)[O-])cc7F)c7ccc4[nH]7)C=C6)C=C5)cc3)C2)c1
REMARK SMILES IDX 18 1 17 2 15 3 16 4 14 5 11 6 12 7 89 8 13 9 10 10 8 11 9 12
REMARK SMILES IDX 7 14 3 15 4 16 90 17 5 18 6 19 2 20 1 21 19 22 20 23 21 24
REMARK SMILES IDX 22 25 23 26 24 27 88 28 25 29 87 30 26 31 27 32 28 33 81 34
REMARK SMILES IDX 29 35 86 36 80 37 82 38 30 39 85 40 79 41 78 42 31 44 65 45
REMARK SMILES IDX 44 46 64 47 45 48 48 49 63 50 83 51 46 52 47 53 62 55 84 56
REMARK SMILES IDX 49 57 32 58 33 59 42 60 34 61 35 62 41 63 43 64 36 65 37 66
REMARK SMILES IDX 38 67 39 68 40 69 66 70 67 71 76 72 68 73 69 74 75 75 77 76
REMARK SMILES IDX 70 77 71 78 72 79 73 80 74 81 50 82 51 83 60 84 52 85 53 86
REMARK SMILES IDX 59 87 61 88 54 89 55 90 56 91 57 92 58 93
REMARK H PARENT 10 13 82 43 48 54
REMARK Flexibility Score: inf
ROOT
ATOM      1  C   UNL A   1      37.174  23.113  25.478  1.00  0.00     0.274 C 
ENDROOT
BRANCH   1   2
ATOM      2  O   UNL A   1      36.114  22.352  26.082  1.00  0.00    -0.462 OA
BRANCH   2   3
ATOM      3  C   UNL A   1      35.331  21.681  25.205  1.00  0.00     0.312 C 
ATOM      4  O   UNL A   1      35.427  20.481  24.960  1.00  0.00    -0.252 OA
BRANCH   3   5
ATOM      5  C   UNL A   1      34.285  22.539  24.536  1.00  0.00     0.124 C 
ATOM      6  C   UNL A   1      33.184  23.581  22.722  1.00  0.00     0.106 C 
ATOM      7  C   UNL A   1      32.535  22.267  23.034  1.00  0.00    -0.006 C 
ATOM      8  C   UNL A   1      34.600  23.324  23.255  1.00  0.00     0.048 C 
ATOM      9  C   UNL A   1      33.125  21.698  24.089  1.00  0.00    -0.014 C 
BRANCH   6  10
ATOM     10  N   UNL A   1      33.041  23.954  21.340  1.00  0.00    -0.346 N 
ATOM     11  C   UNL A   1      32.877  25.236  20.841  1.00  0.00     0.251 C 
ATOM     12  O   UNL A   1      32.852  25.444  19.632  1.00  0.00    -0.269 OA
ATOM     13  H   UNL A   1      33.063  23.223  20.681  1.00  0.00     0.164 HD
BRANCH  11  14
ATOM     14  C   UNL A   1      32.602  26.348  21.788  1.00  0.00     0.043 A 
ATOM     15  C   UNL A   1      31.090  28.030  22.629  1.00  0.00     0.119 A 
ATOM     16  C   UNL A   1      32.183  28.776  23.075  1.00  0.00     0.046 A 
ATOM     17  C   UNL A   1      31.296  26.777  22.055  1.00  0.00     0.060 A 
ATOM     18  C   UNL A   1      33.484  28.294  22.914  1.00  0.00     0.005 A 
ATOM     19  C   UNL A   1      33.697  27.082  22.257  1.00  0.00     0.014 A 
BRANCH  15  20
ATOM     20  O   UNL A   1      29.867  28.627  22.776  1.00  0.00    -0.497 OA
ATOM     21  C   UNL A   1      29.857  29.813  23.569  1.00  0.00     0.278 C 
ENDBRANCH  15  20
ENDBRANCH  11  14
ENDBRANCH   6  10
ENDBRANCH   3   5
ENDBRANCH   2   3
ENDBRANCH   1   2
BRANCH   1  22
ATOM     22  C   UNL A   1      38.294  23.406  26.484  1.00  0.00     0.275 C 
BRANCH  22  23
ATOM     23  O   UNL A   1      39.195  24.441  26.043  1.00  0.00    -0.458 OA
BRANCH  23  24
ATOM     24  C   UNL A   1      40.370  24.519  26.713  1.00  0.00     0.338 C 
ATOM     25  O   UNL A   1      41.391  23.894  26.479  1.00  0.00    -0.246 OA
BRANCH  24  26
ATOM     26  C   UNL A   1      40.309  25.587  27.725  1.00  0.00     0.060 A 
ATOM     27  C   UNL A   1      41.336  26.535  27.738  1.00  0.00     0.016 A 
ATOM     28  C   UNL A   1      39.306  25.623  28.693  1.00  0.00     0.016 A 
ATOM     29  C   UNL A   1      41.362  27.529  28.710  1.00  0.00     0.010 A 
ATOM     30  C   UNL A   1      39.329  26.627  29.669  1.00  0.00     0.010 A 
ATOM     31  C   UNL A   1      40.357  27.588  29.681  1.00  0.00    -0.014 A 
BRANCH  31  32
ATOM     32  C   UNL A   1      40.378  28.667  30.698  1.00  0.00     0.031 A 
ATOM     33  C   UNL A   1      41.358  28.619  31.834  1.00  0.00     0.074 A 
ATOM     34  C   UNL A   1      39.517  29.696  30.586  1.00  0.00     0.049 A 
ATOM     35  N   UNL A   1      41.457  29.410  32.870  1.00  0.00    -0.248 NA
ATOM     36  C   UNL A   1      42.360  27.543  31.798  1.00  0.00     0.031 C 
ATOM     37  C   UNL A   1      38.551  29.872  29.498  1.00  0.00     0.029 A 
ATOM     38  N   UNL A   1      39.308  30.784  31.394  1.00  0.00    -0.354 N 
ATOM     39  C   UNL A   1      42.515  28.918  33.624  1.00  0.00     0.074 A 
ATOM     40  C   UNL A   1      43.022  27.753  32.928  1.00  0.00     0.031 C 
ATOM     41  C   UNL A   1      37.852  30.998  29.709  1.00  0.00     0.029 A 
ATOM     42  C   UNL A   1      38.280  31.592  30.972  1.00  0.00     0.049 A 
ATOM     43  H   UNL A   1      39.842  30.967  32.201  1.00  0.00     0.167 HD
ATOM     44  C   UNL A   1      43.013  29.396  34.790  1.00  0.00     0.037 A 
ATOM     45  C   UNL A   1      37.717  32.668  31.556  1.00  0.00     0.037 A 
ATOM     46  C   UNL A   1      42.507  30.562  35.467  1.00  0.00     0.049 A 
ATOM     47  C   UNL A   1      38.241  33.136  32.886  1.00  0.00     0.074 A 
ATOM     48  C   UNL A   1      42.956  31.138  36.642  1.00  0.00     0.029 A 
ATOM     49  N   UNL A   1      41.437  31.330  35.031  1.00  0.00    -0.354 N 
ATOM     50  N   UNL A   1      39.235  32.654  33.594  1.00  0.00    -0.248 NA
ATOM     51  C   UNL A   1      37.558  34.279  33.504  1.00  0.00     0.031 C 
ATOM     52  C   UNL A   1      42.130  32.230  36.939  1.00  0.00     0.029 A 
ATOM     53  C   UNL A   1      41.192  32.357  35.928  1.00  0.00     0.049 A 
ATOM     54  H   UNL A   1      40.925  31.168  34.205  1.00  0.00     0.167 HD
ATOM     55  C   UNL A   1      39.300  33.439  34.738  1.00  0.00     0.074 A 
ATOM     56  C   UNL A   1      38.260  34.440  34.619  1.00  0.00     0.031 C 
ATOM     57  C   UNL A   1      40.143  33.338  35.795  1.00  0.00     0.037 A 
BRANCH  44  58
ATOM     58  C   UNL A   1      44.144  28.638  35.426  1.00  0.00     0.058 A 
ATOM     59  C   UNL A   1      43.916  27.548  36.279  1.00  0.00     0.135 A 
ATOM     60  C   UNL A   1      45.476  28.986  35.148  1.00  0.00     0.135 A 
ATOM     61  F   UNL A   1      42.662  27.184  36.591  1.00  0.00    -0.206 F 
ATOM     62  C   UNL A   1      44.969  26.842  36.854  1.00  0.00     0.059 A 
ATOM     63  C   UNL A   1      46.544  28.281  35.694  1.00  0.00     0.059 A 
ATOM     64  F   UNL A   1      45.749  30.022  34.340  1.00  0.00    -0.206 F 
ATOM     65  C   UNL A   1      46.281  27.219  36.557  1.00  0.00     0.060 A 
BRANCH  65  66
ATOM     66  S   UNL A   1      47.637  26.296  37.311  1.00  0.00     0.124 S 
ATOM     67  O   UNL A   1      47.173  24.921  37.158  1.00  0.00    -0.237 OA
ATOM     68  O   UNL A   1      48.776  26.676  36.482  1.00  0.00    -0.237 OA
ATOM     69  O   UNL A   1      47.669  26.798  38.682  1.00  0.00    -0.744 OA
ENDBRANCH  65  66
ENDBRANCH  44  58
BRANCH  45  70
ATOM     70  C   UNL A   1      36.563  33.342  30.907  1.00  0.00     0.058 A 
ATOM     71  C   UNL A   1      35.264  33.202  31.414  1.00  0.00     0.135 A 
ATOM     72  C   UNL A   1      36.741  34.157  29.778  1.00  0.00     0.135 A 
ATOM     73  F   UNL A   1      35.041  32.424  32.484  1.00  0.00    -0.206 F 
ATOM     74  C   UNL A   1      34.179  33.841  30.821  1.00  0.00     0.059 A 
ATOM     75  C   UNL A   1      35.678  34.825  29.182  1.00  0.00     0.059 A 
ATOM     76  F   UNL A   1      37.968  34.331  29.261  1.00  0.00    -0.206 F 
ATOM     77  C   UNL A   1      34.398  34.654  29.706  1.00  0.00     0.060 A 
BRANCH  77  78
ATOM     78  S   UNL A   1      32.995  35.528  28.977  1.00  0.00     0.124 S 
ATOM     79  O   UNL A   1      33.661  36.612  28.267  1.00  0.00    -0.237 OA
ATOM     80  O   UNL A   1      32.387  34.494  28.144  1.00  0.00    -0.237 OA
ATOM     81  O   UNL A   1      32.207  35.923  30.141  1.00  0.00    -0.744 OA
ENDBRANCH  77  78
ENDBRANCH  45  70
BRANCH  57  82
ATOM     82  C   UNL A   1      39.977  34.338  36.904  1.00  0.00     0.058 A 
ATOM     83  C   UNL A   1      40.567  35.609  36.833  1.00  0.00     0.135 A 
ATOM     84  C   UNL A   1      39.184  34.041  38.023  1.00  0.00     0.135 A 
ATOM     85  F   UNL A   1      41.342  35.938  35.788  1.00  0.00    -0.206 F 
ATOM     86  C   UNL A   1      40.390  36.548  37.844  1.00  0.00     0.059 A 
ATOM     87  C   UNL A   1      38.975  34.972  39.035  1.00  0.00     0.059 A 
ATOM     88  F   UNL A   1      38.593  32.841  38.133  1.00  0.00    -0.206 F 
ATOM     89  C   UNL A   1      39.591  36.219  38.942  1.00  0.00     0.060 A 
BRANCH  89  90
ATOM     90  S   UNL A   1      39.337  37.459  40.230  1.00  0.00     0.124 S 
ATOM     91  O   UNL A   1      38.447  38.401  39.559  1.00  0.00    -0.237 OA
ATOM     92  O   UNL A   1      38.736  36.677  41.306  1.00  0.00    -0.237 OA
ATOM     93  O   UNL A   1      40.685  37.950  40.498  1.00  0.00    -0.744 OA
ENDBRANCH  89  90
ENDBRANCH  57  82
ENDBRANCH  31  32
ENDBRANCH  24  26
ENDBRANCH  23  24
ENDBRANCH  22  23
ENDBRANCH   1  22
TORSDOF 17
ENDMDL
