MODEL 1
REMARK VINA RESULT:     -12.4      0.000      0.000
REMARK SMILES CC(C)[C@H](C)CNC(=O)N1CC(n2cc(C(=O)OCCOC(=O)c3ccc(-c4c5nc(c(-c6c(F)cc(S(=O)(=O)[O-])cc6F)c6ccc([nH]6)c(-c6c(F)cc(S(=O)(=O)[O-])cc6F)c6nc(c(-c7c(F)cc(S(=O)(=O)[O-])cc7F)c7ccc4[nH]7)C=C6)C=C5)cc3)nn2)C1
REMARK SMILES IDX 19 1 18 2 16 3 17 4 15 5 13 6 14 7 91 8 90 9 12 10 7 11 8 12
REMARK SMILES IDX 9 14 10 15 11 16 92 17 6 18 4 19 5 20 2 21 1 22 3 23 20 24
REMARK SMILES IDX 21 25 22 26 23 27 24 28 25 29 89 30 26 31 88 32 27 33 28 34
REMARK SMILES IDX 29 35 82 36 30 37 87 38 81 39 83 40 31 41 86 42 80 43 79 44
REMARK SMILES IDX 32 46 66 47 45 48 65 49 46 50 49 51 64 52 84 53 47 54 48 55
REMARK SMILES IDX 63 57 85 58 50 59 33 60 34 61 43 62 35 63 36 64 42 65 44 66
REMARK SMILES IDX 37 67 38 68 39 69 40 70 41 71 67 72 68 73 77 74 69 75 70 76
REMARK SMILES IDX 76 77 78 78 71 79 72 80 73 81 74 82 75 83 51 84 52 85 61 86
REMARK SMILES IDX 53 87 54 88 60 89 62 90 55 91 56 92 57 93 58 94 59 95
REMARK H PARENT 7 13 83 45 49 56
REMARK Flexibility Score: inf
ROOT
ATOM      1  C   UNL A   1      31.834  29.982  25.659  1.00  0.00     0.275 C 
ENDROOT
BRANCH   1   2
ATOM      2  O   UNL A   1      31.424  28.698  26.155  1.00  0.00    -0.457 OA
BRANCH   2   3
ATOM      3  C   UNL A   1      31.225  27.738  25.199  1.00  0.00     0.360 C 
ATOM      4  O   UNL A   1      30.821  27.980  24.062  1.00  0.00    -0.244 OA
BRANCH   3   5
ATOM      5  C   UNL A   1      31.543  26.402  25.667  1.00  0.00     0.190 A 
ATOM      6  N   UNL A   1      32.452  24.486  26.108  1.00  0.00    -0.245 N 
ATOM      7  C   UNL A   1      32.641  25.617  25.365  1.00  0.00     0.147 A 
ATOM      8  N   UNL A   1      31.315  24.550  26.816  1.00  0.00    -0.066 NA
ATOM      9  N   UNL A   1      30.736  25.709  26.539  1.00  0.00    -0.123 NA
BRANCH   6  10
ATOM     10  C   UNL A   1      33.448  23.471  26.269  1.00  0.00     0.148 C 
ATOM     11  N   UNL A   1      34.159  19.440  25.272  1.00  0.00    -0.338 N 
ATOM     12  C   UNL A   1      34.722  20.667  25.127  1.00  0.00     0.317 C 
ATOM     13  H   UNL A   1      34.779  18.730  25.556  1.00  0.00     0.165 HD
ATOM     14  O   UNL A   1      35.933  20.727  24.918  1.00  0.00    -0.249 OA
ATOM     15  N   UNL A   1      33.944  21.770  25.222  1.00  0.00    -0.320 N 
ATOM     16  C   UNL A   1      34.324  23.172  25.045  1.00  0.00     0.150 C 
ATOM     17  C   UNL A   1      32.809  22.081  26.066  1.00  0.00     0.150 C 
BRANCH  11  18
ATOM     18  C   UNL A   1      32.780  19.009  25.075  1.00  0.00     0.121 C 
BRANCH  18  19
ATOM     19  C   UNL A   1      32.709  17.580  24.488  1.00  0.00     0.008 C 
ATOM     20  C   UNL A   1      33.234  17.544  23.041  1.00  0.00     0.010 C 
BRANCH  19  21
ATOM     21  C   UNL A   1      33.409  16.555  25.431  1.00  0.00    -0.013 C 
ATOM     22  C   UNL A   1      32.510  15.345  25.706  1.00  0.00     0.008 C 
ATOM     23  C   UNL A   1      34.780  16.075  24.944  1.00  0.00     0.008 C 
ENDBRANCH  19  21
ENDBRANCH  18  19
ENDBRANCH  11  18
ENDBRANCH   6  10
ENDBRANCH   3   5
ENDBRANCH   2   3
ENDBRANCH   1   2
BRANCH   1  24
ATOM     24  C   UNL A   1      32.342  30.871  26.786  1.00  0.00     0.275 C 
BRANCH  24  25
ATOM     25  O   UNL A   1      33.657  30.521  27.227  1.00  0.00    -0.458 OA
BRANCH  25  26
ATOM     26  C   UNL A   1      34.321  31.514  27.867  1.00  0.00     0.338 C 
ATOM     27  O   UNL A   1      34.007  32.693  27.904  1.00  0.00    -0.246 OA
BRANCH  26  28
ATOM     28  C   UNL A   1      35.627  31.021  28.325  1.00  0.00     0.060 A 
ATOM     29  C   UNL A   1      36.614  31.954  28.656  1.00  0.00     0.016 A 
ATOM     30  C   UNL A   1      35.926  29.657  28.201  1.00  0.00     0.016 A 
ATOM     31  C   UNL A   1      37.925  31.523  28.783  1.00  0.00     0.010 A 
ATOM     32  C   UNL A   1      37.236  29.235  28.302  1.00  0.00     0.010 A 
ATOM     33  C   UNL A   1      38.234  30.174  28.557  1.00  0.00    -0.014 A 
BRANCH  33  34
ATOM     34  C   UNL A   1      39.587  29.707  28.834  1.00  0.00     0.031 A 
ATOM     35  C   UNL A   1      39.874  29.692  30.295  1.00  0.00     0.074 A 
ATOM     36  C   UNL A   1      40.409  29.188  27.896  1.00  0.00     0.049 A 
ATOM     37  N   UNL A   1      40.725  30.416  30.940  1.00  0.00    -0.248 NA
ATOM     38  C   UNL A   1      38.963  28.930  31.173  1.00  0.00     0.031 C 
ATOM     39  C   UNL A   1      40.091  28.910  26.493  1.00  0.00     0.029 A 
ATOM     40  N   UNL A   1      41.678  28.699  28.015  1.00  0.00    -0.354 N 
ATOM     41  C   UNL A   1      40.637  30.003  32.268  1.00  0.00     0.074 A 
ATOM     42  C   UNL A   1      39.403  29.280  32.382  1.00  0.00     0.031 C 
ATOM     43  C   UNL A   1      41.044  28.105  25.965  1.00  0.00     0.029 A 
ATOM     44  C   UNL A   1      42.098  27.904  26.945  1.00  0.00     0.049 A 
ATOM     45  H   UNL A   1      42.252  28.891  28.791  1.00  0.00     0.167 HD
ATOM     46  C   UNL A   1      41.732  30.032  33.076  1.00  0.00     0.037 A 
ATOM     47  C   UNL A   1      43.201  27.106  26.894  1.00  0.00     0.037 A 
ATOM     48  C   UNL A   1      42.731  30.920  32.533  1.00  0.00     0.049 A 
ATOM     49  C   UNL A   1      44.120  27.569  27.964  1.00  0.00     0.074 A 
ATOM     50  C   UNL A   1      42.778  32.264  32.217  1.00  0.00     0.029 A 
ATOM     51  N   UNL A   1      43.781  30.332  31.875  1.00  0.00    -0.354 N 
ATOM     52  N   UNL A   1      44.729  28.723  27.952  1.00  0.00    -0.248 NA
ATOM     53  C   UNL A   1      44.014  26.933  29.266  1.00  0.00     0.031 C 
ATOM     54  C   UNL A   1      43.585  32.342  31.045  1.00  0.00     0.029 A 
ATOM     55  C   UNL A   1      44.058  31.062  30.752  1.00  0.00     0.049 A 
ATOM     56  H   UNL A   1      44.257  29.520  32.163  1.00  0.00     0.167 HD
ATOM     57  C   UNL A   1      44.671  29.160  29.266  1.00  0.00     0.074 A 
ATOM     58  C   UNL A   1      44.312  27.976  30.044  1.00  0.00     0.031 C 
ATOM     59  C   UNL A   1      44.634  30.494  29.554  1.00  0.00     0.037 A 
BRANCH  46  60
ATOM     60  C   UNL A   1      42.087  28.937  34.069  1.00  0.00     0.058 A 
ATOM     61  C   UNL A   1      42.309  27.630  33.581  1.00  0.00     0.135 A 
ATOM     62  C   UNL A   1      41.924  29.032  35.470  1.00  0.00     0.135 A 
ATOM     63  F   UNL A   1      42.485  27.409  32.268  1.00  0.00    -0.206 F 
ATOM     64  C   UNL A   1      42.270  26.502  34.401  1.00  0.00     0.059 A 
ATOM     65  C   UNL A   1      41.931  27.926  36.312  1.00  0.00     0.059 A 
ATOM     66  F   UNL A   1      41.662  30.183  36.097  1.00  0.00    -0.206 F 
ATOM     67  C   UNL A   1      42.065  26.662  35.767  1.00  0.00     0.060 A 
BRANCH  67  68
ATOM     68  S   UNL A   1      41.943  25.209  36.821  1.00  0.00     0.124 S 
ATOM     69  O   UNL A   1      41.841  24.140  35.834  1.00  0.00    -0.237 OA
ATOM     70  O   UNL A   1      43.194  25.275  37.568  1.00  0.00    -0.237 OA
ATOM     71  O   UNL A   1      40.737  25.464  37.605  1.00  0.00    -0.744 OA
ENDBRANCH  67  68
ENDBRANCH  46  60
BRANCH  47  72
ATOM     72  C   UNL A   1      43.395  25.783  26.224  1.00  0.00     0.058 A 
ATOM     73  C   UNL A   1      44.506  25.537  25.389  1.00  0.00     0.135 A 
ATOM     74  C   UNL A   1      42.670  24.645  26.624  1.00  0.00     0.135 A 
ATOM     75  F   UNL A   1      45.271  26.556  24.965  1.00  0.00    -0.206 F 
ATOM     76  C   UNL A   1      44.908  24.243  25.028  1.00  0.00     0.059 A 
ATOM     77  C   UNL A   1      43.046  23.346  26.269  1.00  0.00     0.059 A 
ATOM     78  F   UNL A   1      41.625  24.748  27.456  1.00  0.00    -0.206 F 
ATOM     79  C   UNL A   1      44.182  23.149  25.495  1.00  0.00     0.060 A 
BRANCH  79  80
ATOM     80  S   UNL A   1      44.795  21.471  25.195  1.00  0.00     0.124 S 
ATOM     81  O   UNL A   1      43.844  20.661  25.949  1.00  0.00    -0.237 OA
ATOM     82  O   UNL A   1      44.712  21.365  23.742  1.00  0.00    -0.237 OA
ATOM     83  O   UNL A   1      46.151  21.505  25.737  1.00  0.00    -0.744 OA
ENDBRANCH  79  80
ENDBRANCH  47  72
BRANCH  59  84
ATOM     84  C   UNL A   1      45.058  31.469  28.487  1.00  0.00     0.058 A 
ATOM     85  C   UNL A   1      44.256  31.915  27.422  1.00  0.00     0.135 A 
ATOM     86  C   UNL A   1      46.305  32.091  28.657  1.00  0.00     0.135 A 
ATOM     87  F   UNL A   1      43.014  31.441  27.244  1.00  0.00    -0.206 F 
ATOM     88  C   UNL A   1      44.695  32.911  26.545  1.00  0.00     0.059 A 
ATOM     89  C   UNL A   1      46.745  33.109  27.821  1.00  0.00     0.059 A 
ATOM     90  F   UNL A   1      47.095  31.745  29.688  1.00  0.00    -0.206 F 
ATOM     91  C   UNL A   1      45.940  33.506  26.757  1.00  0.00     0.060 A 
BRANCH  91  92
ATOM     92  S   UNL A   1      46.482  34.845  25.674  1.00  0.00     0.124 S 
ATOM     93  O   UNL A   1      47.935  34.705  25.718  1.00  0.00    -0.237 OA
ATOM     94  O   UNL A   1      45.850  34.501  24.403  1.00  0.00    -0.237 OA
ATOM     95  O   UNL A   1      45.953  36.044  26.319  1.00  0.00    -0.744 OA
ENDBRANCH  91  92
ENDBRANCH  59  84
ENDBRANCH  33  34
ENDBRANCH  26  28
ENDBRANCH  25  26
ENDBRANCH  24  25
ENDBRANCH   1  24
TORSDOF 18
ENDMDL
MODEL 2
REMARK VINA RESULT:     -12.4      2.673      9.422
REMARK SMILES CC(C)[C@H](C)CNC(=O)N1CC(n2cc(C(=O)OCCOC(=O)c3ccc(-c4c5nc(c(-c6c(F)cc(S(=O)(=O)[O-])cc6F)c6ccc([nH]6)c(-c6c(F)cc(S(=O)(=O)[O-])cc6F)c6nc(c(-c7c(F)cc(S(=O)(=O)[O-])cc7F)c7ccc4[nH]7)C=C6)C=C5)cc3)nn2)C1
REMARK SMILES IDX 19 1 18 2 16 3 17 4 15 5 13 6 14 7 91 8 90 9 12 10 7 11 8 12
REMARK SMILES IDX 9 14 10 15 11 16 92 17 6 18 4 19 5 20 2 21 1 22 3 23 20 24
REMARK SMILES IDX 21 25 22 26 23 27 24 28 25 29 89 30 26 31 88 32 27 33 28 34
REMARK SMILES IDX 29 35 82 36 30 37 87 38 81 39 83 40 31 41 86 42 80 43 79 44
REMARK SMILES IDX 32 46 66 47 45 48 65 49 46 50 49 51 64 52 84 53 47 54 48 55
REMARK SMILES IDX 63 57 85 58 50 59 33 60 34 61 43 62 35 63 36 64 42 65 44 66
REMARK SMILES IDX 37 67 38 68 39 69 40 70 41 71 67 72 68 73 77 74 69 75 70 76
REMARK SMILES IDX 76 77 78 78 71 79 72 80 73 81 74 82 75 83 51 84 52 85 61 86
REMARK SMILES IDX 53 87 54 88 60 89 62 90 55 91 56 92 57 93 58 94 59 95
REMARK H PARENT 7 13 83 45 49 56
REMARK Flexibility Score: inf
ROOT
ATOM      1  C   UNL A   1      41.649  19.210  26.618  1.00  0.00     0.275 C 
ENDROOT
BRANCH   1   2
ATOM      2  O   UNL A   1      40.698  20.122  26.049  1.00  0.00    -0.457 OA
BRANCH   2   3
ATOM      3  C   UNL A   1      40.482  21.266  26.769  1.00  0.00     0.360 C 
ATOM      4  O   UNL A   1      41.207  21.640  27.691  1.00  0.00    -0.244 OA
BRANCH   3   5
ATOM      5  C   UNL A   1      39.307  21.996  26.330  1.00  0.00     0.190 A 
ATOM      6  N   UNL A   1      37.387  22.619  25.543  1.00  0.00    -0.245 N 
ATOM      7  C   UNL A   1      38.190  21.520  25.668  1.00  0.00     0.147 A 
ATOM      8  N   UNL A   1      37.962  23.707  26.077  1.00  0.00    -0.066 NA
ATOM      9  N   UNL A   1      39.149  23.345  26.543  1.00  0.00    -0.123 NA
BRANCH   6  10
ATOM     10  C   UNL A   1      36.029  22.559  25.098  1.00  0.00     0.148 C 
ATOM     11  N   UNL A   1      32.822  19.839  24.835  1.00  0.00    -0.338 N 
ATOM     12  C   UNL A   1      33.119  21.057  25.356  1.00  0.00     0.317 C 
ATOM     13  H   UNL A   1      31.962  19.789  24.359  1.00  0.00     0.165 HD
ATOM     14  O   UNL A   1      32.188  21.827  25.592  1.00  0.00    -0.249 OA
ATOM     15  N   UNL A   1      34.411  21.385  25.587  1.00  0.00    -0.320 N 
ATOM     16  C   UNL A   1      34.949  22.605  26.187  1.00  0.00     0.150 C 
ATOM     17  C   UNL A   1      35.628  21.088  24.859  1.00  0.00     0.150 C 
BRANCH  11  18
ATOM     18  C   UNL A   1      33.579  18.593  24.869  1.00  0.00     0.121 C 
BRANCH  18  19
ATOM     19  C   UNL A   1      32.843  17.459  24.118  1.00  0.00     0.008 C 
ATOM     20  C   UNL A   1      32.816  17.719  22.601  1.00  0.00     0.010 C 
BRANCH  19  21
ATOM     21  C   UNL A   1      33.429  16.066  24.502  1.00  0.00    -0.013 C 
ATOM     22  C   UNL A   1      34.879  16.183  24.981  1.00  0.00     0.008 C 
ATOM     23  C   UNL A   1      32.606  15.293  25.538  1.00  0.00     0.008 C 
ENDBRANCH  19  21
ENDBRANCH  18  19
ENDBRANCH  11  18
ENDBRANCH   6  10
ENDBRANCH   3   5
ENDBRANCH   2   3
ENDBRANCH   1   2
BRANCH   1  24
ATOM     24  C   UNL A   1      42.877  19.067  25.726  1.00  0.00     0.275 C 
BRANCH  24  25
ATOM     25  O   UNL A   1      43.897  20.025  26.020  1.00  0.00    -0.458 OA
BRANCH  25  26
ATOM     26  C   UNL A   1      44.137  20.915  25.028  1.00  0.00     0.338 C 
ATOM     27  O   UNL A   1      44.543  20.662  23.906  1.00  0.00    -0.246 OA
BRANCH  26  28
ATOM     28  C   UNL A   1      44.068  22.282  25.562  1.00  0.00     0.060 A 
ATOM     29  C   UNL A   1      44.815  22.592  26.704  1.00  0.00     0.016 A 
ATOM     30  C   UNL A   1      43.097  23.164  25.067  1.00  0.00     0.016 A 
ATOM     31  C   UNL A   1      44.526  23.756  27.396  1.00  0.00     0.010 A 
ATOM     32  C   UNL A   1      42.793  24.310  25.774  1.00  0.00     0.010 A 
ATOM     33  C   UNL A   1      43.484  24.583  26.953  1.00  0.00    -0.014 A 
BRANCH  33  34
ATOM     34  C   UNL A   1      43.286  25.873  27.603  1.00  0.00     0.031 A 
ATOM     35  C   UNL A   1      44.383  26.826  27.277  1.00  0.00     0.074 A 
ATOM     36  C   UNL A   1      42.161  26.213  28.269  1.00  0.00     0.049 A 
ATOM     37  N   UNL A   1      45.260  27.325  28.082  1.00  0.00    -0.248 NA
ATOM     38  C   UNL A   1      44.667  27.096  25.854  1.00  0.00     0.031 C 
ATOM     39  C   UNL A   1      40.928  25.430  28.388  1.00  0.00     0.029 A 
ATOM     40  N   UNL A   1      41.834  27.378  28.902  1.00  0.00    -0.354 N 
ATOM     41  C   UNL A   1      46.038  28.179  27.303  1.00  0.00     0.074 A 
ATOM     42  C   UNL A   1      45.783  27.820  25.938  1.00  0.00     0.031 C 
ATOM     43  C   UNL A   1      39.931  26.224  28.844  1.00  0.00     0.029 A 
ATOM     44  C   UNL A   1      40.470  27.536  29.163  1.00  0.00     0.049 A 
ATOM     45  H   UNL A   1      42.505  28.052  29.155  1.00  0.00     0.167 HD
ATOM     46  C   UNL A   1      46.585  29.303  27.843  1.00  0.00     0.037 A 
ATOM     47  C   UNL A   1      39.833  28.672  29.562  1.00  0.00     0.037 A 
ATOM     48  C   UNL A   1      46.631  29.195  29.281  1.00  0.00     0.049 A 
ATOM     49  C   UNL A   1      40.870  29.578  30.116  1.00  0.00     0.074 A 
ATOM     50  C   UNL A   1      47.223  28.328  30.179  1.00  0.00     0.029 A 
ATOM     51  N   UNL A   1      45.660  29.867  29.978  1.00  0.00    -0.354 N 
ATOM     52  N   UNL A   1      41.529  29.342  31.217  1.00  0.00    -0.248 NA
ATOM     53  C   UNL A   1      41.490  30.529  29.209  1.00  0.00     0.031 C 
ATOM     54  C   UNL A   1      46.293  28.211  31.251  1.00  0.00     0.029 A 
ATOM     55  C   UNL A   1      45.223  29.070  30.999  1.00  0.00     0.049 A 
ATOM     56  H   UNL A   1      45.332  30.773  29.777  1.00  0.00     0.167 HD
ATOM     57  C   UNL A   1      42.826  29.745  30.940  1.00  0.00     0.074 A 
ATOM     58  C   UNL A   1      42.720  30.558  29.729  1.00  0.00     0.031 C 
ATOM     59  C   UNL A   1      43.887  29.140  31.549  1.00  0.00     0.037 A 
BRANCH  46  60
ATOM     60  C   UNL A   1      46.637  30.648  27.137  1.00  0.00     0.058 A 
ATOM     61  C   UNL A   1      47.871  31.334  27.083  1.00  0.00     0.135 A 
ATOM     62  C   UNL A   1      45.508  31.422  26.787  1.00  0.00     0.135 A 
ATOM     63  F   UNL A   1      49.019  30.706  27.387  1.00  0.00    -0.206 F 
ATOM     64  C   UNL A   1      47.963  32.698  26.805  1.00  0.00     0.059 A 
ATOM     65  C   UNL A   1      45.583  32.771  26.458  1.00  0.00     0.059 A 
ATOM     66  F   UNL A   1      44.258  30.947  26.825  1.00  0.00    -0.206 F 
ATOM     67  C   UNL A   1      46.808  33.411  26.508  1.00  0.00     0.060 A 
BRANCH  67  68
ATOM     68  S   UNL A   1      46.909  35.184  26.218  1.00  0.00     0.124 S 
ATOM     69  O   UNL A   1      47.999  35.259  25.252  1.00  0.00    -0.237 OA
ATOM     70  O   UNL A   1      45.575  35.479  25.706  1.00  0.00    -0.237 OA
ATOM     71  O   UNL A   1      47.199  35.724  27.543  1.00  0.00    -0.744 OA
ENDBRANCH  67  68
ENDBRANCH  46  60
BRANCH  47  72
ATOM     72  C   UNL A   1      38.469  29.176  29.214  1.00  0.00     0.058 A 
ATOM     73  C   UNL A   1      37.510  29.452  30.212  1.00  0.00     0.135 A 
ATOM     74  C   UNL A   1      38.178  29.685  27.934  1.00  0.00     0.135 A 
ATOM     75  F   UNL A   1      37.702  29.023  31.470  1.00  0.00    -0.206 F 
ATOM     76  C   UNL A   1      36.371  30.234  29.971  1.00  0.00     0.059 A 
ATOM     77  C   UNL A   1      37.045  30.458  27.667  1.00  0.00     0.059 A 
ATOM     78  F   UNL A   1      39.037  29.528  26.917  1.00  0.00    -0.206 F 
ATOM     79  C   UNL A   1      36.160  30.754  28.696  1.00  0.00     0.060 A 
BRANCH  79  80
ATOM     80  S   UNL A   1      34.800  31.917  28.414  1.00  0.00     0.124 S 
ATOM     81  O   UNL A   1      33.823  31.081  27.726  1.00  0.00    -0.237 OA
ATOM     82  O   UNL A   1      34.450  32.322  29.771  1.00  0.00    -0.237 OA
ATOM     83  O   UNL A   1      35.412  32.961  27.595  1.00  0.00    -0.744 OA
ENDBRANCH  79  80
ENDBRANCH  47  72
BRANCH  59  84
ATOM     84  C   UNL A   1      43.634  28.336  32.797  1.00  0.00     0.058 A 
ATOM     85  C   UNL A   1      43.450  28.864  34.087  1.00  0.00     0.135 A 
ATOM     86  C   UNL A   1      43.423  26.958  32.631  1.00  0.00     0.135 A 
ATOM     87  F   UNL A   1      43.540  30.183  34.314  1.00  0.00    -0.206 F 
ATOM     88  C   UNL A   1      43.104  28.048  35.167  1.00  0.00     0.059 A 
ATOM     89  C   UNL A   1      43.042  26.135  33.683  1.00  0.00     0.059 A 
ATOM     90  F   UNL A   1      43.533  26.402  31.412  1.00  0.00    -0.206 F 
ATOM     91  C   UNL A   1      42.897  26.684  34.953  1.00  0.00     0.060 A 
BRANCH  91  92
ATOM     92  S   UNL A   1      42.380  25.636  36.329  1.00  0.00     0.124 S 
ATOM     93  O   UNL A   1      43.316  24.520  36.233  1.00  0.00    -0.237 OA
ATOM     94  O   UNL A   1      42.555  26.515  37.482  1.00  0.00    -0.237 OA
ATOM     95  O   UNL A   1      40.991  25.312  36.010  1.00  0.00    -0.744 OA
ENDBRANCH  91  92
ENDBRANCH  59  84
ENDBRANCH  33  34
ENDBRANCH  26  28
ENDBRANCH  25  26
ENDBRANCH  24  25
ENDBRANCH   1  24
TORSDOF 18
ENDMDL
MODEL 3
REMARK VINA RESULT:     -12.2      3.005      9.854
REMARK SMILES CC(C)[C@H](C)CNC(=O)N1CC(n2cc(C(=O)OCCOC(=O)c3ccc(-c4c5nc(c(-c6c(F)cc(S(=O)(=O)[O-])cc6F)c6ccc([nH]6)c(-c6c(F)cc(S(=O)(=O)[O-])cc6F)c6nc(c(-c7c(F)cc(S(=O)(=O)[O-])cc7F)c7ccc4[nH]7)C=C6)C=C5)cc3)nn2)C1
REMARK SMILES IDX 19 1 18 2 16 3 17 4 15 5 13 6 14 7 91 8 90 9 12 10 7 11 8 12
REMARK SMILES IDX 9 14 10 15 11 16 92 17 6 18 4 19 5 20 2 21 1 22 3 23 20 24
REMARK SMILES IDX 21 25 22 26 23 27 24 28 25 29 89 30 26 31 88 32 27 33 28 34
REMARK SMILES IDX 29 35 82 36 30 37 87 38 81 39 83 40 31 41 86 42 80 43 79 44
REMARK SMILES IDX 32 46 66 47 45 48 65 49 46 50 49 51 64 52 84 53 47 54 48 55
REMARK SMILES IDX 63 57 85 58 50 59 33 60 34 61 43 62 35 63 36 64 42 65 44 66
REMARK SMILES IDX 37 67 38 68 39 69 40 70 41 71 67 72 68 73 77 74 69 75 70 76
REMARK SMILES IDX 76 77 78 78 71 79 72 80 73 81 74 82 75 83 51 84 52 85 61 86
REMARK SMILES IDX 53 87 54 88 60 89 62 90 55 91 56 92 57 93 58 94 59 95
REMARK H PARENT 7 13 83 45 49 56
REMARK Flexibility Score: inf
ROOT
ATOM      1  C   UNL A   1      41.524  19.429  26.660  1.00  0.00     0.275 C 
ENDROOT
BRANCH   1   2
ATOM      2  O   UNL A   1      40.744  20.462  26.039  1.00  0.00    -0.457 OA
BRANCH   2   3
ATOM      3  C   UNL A   1      40.378  21.493  26.862  1.00  0.00     0.360 C 
ATOM      4  O   UNL A   1      40.968  21.778  27.903  1.00  0.00    -0.244 OA
BRANCH   3   5
ATOM      5  C   UNL A   1      39.218  22.218  26.375  1.00  0.00     0.190 A 
ATOM      6  N   UNL A   1      37.362  22.845  25.451  1.00  0.00    -0.245 N 
ATOM      7  C   UNL A   1      38.205  21.774  25.545  1.00  0.00     0.147 A 
ATOM      8  N   UNL A   1      37.818  23.888  26.159  1.00  0.00    -0.066 NA
ATOM      9  N   UNL A   1      38.966  23.526  26.713  1.00  0.00    -0.123 NA
BRANCH   6  10
ATOM     10  C   UNL A   1      36.064  22.779  24.853  1.00  0.00     0.148 C 
ATOM     11  N   UNL A   1      33.176  25.289  23.090  1.00  0.00    -0.338 N 
ATOM     12  C   UNL A   1      33.907  24.179  22.810  1.00  0.00     0.317 C 
ATOM     13  H   UNL A   1      32.222  25.228  22.853  1.00  0.00     0.165 HD
ATOM     14  O   UNL A   1      33.491  23.418  21.938  1.00  0.00    -0.249 OA
ATOM     15  N   UNL A   1      35.050  23.946  23.495  1.00  0.00    -0.320 N 
ATOM     16  C   UNL A   1      36.011  22.857  23.322  1.00  0.00     0.150 C 
ATOM     17  C   UNL A   1      35.410  24.177  24.879  1.00  0.00     0.150 C 
BRANCH  11  18
ATOM     18  C   UNL A   1      33.582  26.556  23.688  1.00  0.00     0.121 C 
BRANCH  18  19
ATOM     19  C   UNL A   1      32.666  26.945  24.872  1.00  0.00     0.008 C 
ATOM     20  C   UNL A   1      33.489  27.260  26.134  1.00  0.00     0.010 C 
BRANCH  19  21
ATOM     21  C   UNL A   1      31.687  28.088  24.466  1.00  0.00    -0.013 C 
ATOM     22  C   UNL A   1      31.670  29.207  25.512  1.00  0.00     0.008 C 
ATOM     23  C   UNL A   1      31.947  28.686  23.079  1.00  0.00     0.008 C 
ENDBRANCH  19  21
ENDBRANCH  18  19
ENDBRANCH  11  18
ENDBRANCH   6  10
ENDBRANCH   3   5
ENDBRANCH   2   3
ENDBRANCH   1   2
BRANCH   1  24
ATOM     24  C   UNL A   1      42.892  19.300  26.002  1.00  0.00     0.275 C 
BRANCH  24  25
ATOM     25  O   UNL A   1      43.160  20.340  25.058  1.00  0.00    -0.458 OA
BRANCH  25  26
ATOM     26  C   UNL A   1      44.398  20.882  25.154  1.00  0.00     0.338 C 
ATOM     27  O   UNL A   1      45.461  20.295  25.032  1.00  0.00    -0.246 OA
BRANCH  26  28
ATOM     28  C   UNL A   1      44.298  22.255  25.668  1.00  0.00     0.060 A 
ATOM     29  C   UNL A   1      45.077  22.612  26.774  1.00  0.00     0.016 A 
ATOM     30  C   UNL A   1      43.276  23.091  25.198  1.00  0.00     0.016 A 
ATOM     31  C   UNL A   1      44.771  23.777  27.458  1.00  0.00     0.010 A 
ATOM     32  C   UNL A   1      42.957  24.237  25.897  1.00  0.00     0.010 A 
ATOM     33  C   UNL A   1      43.681  24.557  27.043  1.00  0.00    -0.014 A 
BRANCH  33  34
ATOM     34  C   UNL A   1      43.460  25.850  27.679  1.00  0.00     0.031 A 
ATOM     35  C   UNL A   1      44.550  26.813  27.359  1.00  0.00     0.074 A 
ATOM     36  C   UNL A   1      42.323  26.183  28.328  1.00  0.00     0.049 A 
ATOM     37  N   UNL A   1      45.411  27.330  28.170  1.00  0.00    -0.248 NA
ATOM     38  C   UNL A   1      44.849  27.075  25.937  1.00  0.00     0.031 C 
ATOM     39  C   UNL A   1      41.098  25.385  28.438  1.00  0.00     0.029 A 
ATOM     40  N   UNL A   1      41.974  27.349  28.947  1.00  0.00    -0.354 N 
ATOM     41  C   UNL A   1      46.189  28.186  27.394  1.00  0.00     0.074 A 
ATOM     42  C   UNL A   1      45.955  27.812  26.028  1.00  0.00     0.031 C 
ATOM     43  C   UNL A   1      40.086  26.172  28.874  1.00  0.00     0.029 A 
ATOM     44  C   UNL A   1      40.605  27.492  29.189  1.00  0.00     0.049 A 
ATOM     45  H   UNL A   1      42.634  28.033  29.202  1.00  0.00     0.167 HD
ATOM     46  C   UNL A   1      46.715  29.321  27.931  1.00  0.00     0.037 A 
ATOM     47  C   UNL A   1      39.949  28.625  29.569  1.00  0.00     0.037 A 
ATOM     48  C   UNL A   1      46.744  29.226  29.370  1.00  0.00     0.049 A 
ATOM     49  C   UNL A   1      40.969  29.547  30.129  1.00  0.00     0.074 A 
ATOM     50  C   UNL A   1      47.335  28.374  30.283  1.00  0.00     0.029 A 
ATOM     51  N   UNL A   1      45.756  29.893  30.049  1.00  0.00    -0.354 N 
ATOM     52  N   UNL A   1      41.617  29.329  31.240  1.00  0.00    -0.248 NA
ATOM     53  C   UNL A   1      41.589  30.498  29.221  1.00  0.00     0.031 C 
ATOM     54  C   UNL A   1      46.392  28.255  31.345  1.00  0.00     0.029 A 
ATOM     55  C   UNL A   1      45.315  29.099  31.071  1.00  0.00     0.049 A 
ATOM     56  H   UNL A   1      45.421  30.793  29.836  1.00  0.00     0.167 HD
ATOM     57  C   UNL A   1      42.912  29.745  30.976  1.00  0.00     0.074 A 
ATOM     58  C   UNL A   1      42.811  30.546  29.757  1.00  0.00     0.031 C 
ATOM     59  C   UNL A   1      43.972  29.158  31.604  1.00  0.00     0.037 A 
BRANCH  46  60
ATOM     60  C   UNL A   1      46.760  30.660  27.214  1.00  0.00     0.058 A 
ATOM     61  C   UNL A   1      47.997  31.339  27.129  1.00  0.00     0.135 A 
ATOM     62  C   UNL A   1      45.628  31.438  26.881  1.00  0.00     0.135 A 
ATOM     63  F   UNL A   1      49.147  30.706  27.413  1.00  0.00    -0.206 F 
ATOM     64  C   UNL A   1      48.091  32.700  26.839  1.00  0.00     0.059 A 
ATOM     65  C   UNL A   1      45.704  32.784  26.541  1.00  0.00     0.059 A 
ATOM     66  F   UNL A   1      44.377  30.972  26.949  1.00  0.00    -0.206 F 
ATOM     67  C   UNL A   1      46.934  33.418  26.561  1.00  0.00     0.060 A 
BRANCH  67  68
ATOM     68  S   UNL A   1      47.039  35.188  26.255  1.00  0.00     0.124 S 
ATOM     69  O   UNL A   1      48.288  35.280  25.508  1.00  0.00    -0.237 OA
ATOM     70  O   UNL A   1      45.817  35.433  25.497  1.00  0.00    -0.237 OA
ATOM     71  O   UNL A   1      47.062  35.759  27.599  1.00  0.00    -0.744 OA
ENDBRANCH  67  68
ENDBRANCH  46  60
BRANCH  47  72
ATOM     72  C   UNL A   1      38.584  29.109  29.200  1.00  0.00     0.058 A 
ATOM     73  C   UNL A   1      37.621  29.416  30.185  1.00  0.00     0.135 A 
ATOM     74  C   UNL A   1      38.295  29.570  27.902  1.00  0.00     0.135 A 
ATOM     75  F   UNL A   1      37.812  29.034  31.458  1.00  0.00    -0.206 F 
ATOM     76  C   UNL A   1      36.480  30.183  29.913  1.00  0.00     0.059 A 
ATOM     77  C   UNL A   1      37.159  30.328  27.604  1.00  0.00     0.059 A 
ATOM     78  F   UNL A   1      39.157  29.381  26.893  1.00  0.00    -0.206 F 
ATOM     79  C   UNL A   1      36.270  30.657  28.619  1.00  0.00     0.060 A 
BRANCH  79  80
ATOM     80  S   UNL A   1      34.905  31.802  28.292  1.00  0.00     0.124 S 
ATOM     81  O   UNL A   1      34.505  32.192  29.640  1.00  0.00    -0.237 OA
ATOM     82  O   UNL A   1      35.552  32.837  27.494  1.00  0.00    -0.237 OA
ATOM     83  O   UNL A   1      33.938  30.977  27.570  1.00  0.00    -0.744 OA
ENDBRANCH  79  80
ENDBRANCH  47  72
BRANCH  59  84
ATOM     84  C   UNL A   1      43.713  28.361  32.855  1.00  0.00     0.058 A 
ATOM     85  C   UNL A   1      43.517  28.898  34.140  1.00  0.00     0.135 A 
ATOM     86  C   UNL A   1      43.508  26.982  32.697  1.00  0.00     0.135 A 
ATOM     87  F   UNL A   1      43.601  30.219  34.359  1.00  0.00    -0.206 F 
ATOM     88  C   UNL A   1      43.167  28.088  35.224  1.00  0.00     0.059 A 
ATOM     89  C   UNL A   1      43.123  26.164  33.752  1.00  0.00     0.059 A 
ATOM     90  F   UNL A   1      43.629  26.418  31.483  1.00  0.00    -0.206 F 
ATOM     91  C   UNL A   1      42.966  26.722  35.018  1.00  0.00     0.060 A 
BRANCH  91  92
ATOM     92  S   UNL A   1      42.442  25.682  36.397  1.00  0.00     0.124 S 
ATOM     93  O   UNL A   1      43.372  24.560  36.305  1.00  0.00    -0.237 OA
ATOM     94  O   UNL A   1      42.622  26.564  37.547  1.00  0.00    -0.237 OA
ATOM     95  O   UNL A   1      41.052  25.365  36.078  1.00  0.00    -0.744 OA
ENDBRANCH  91  92
ENDBRANCH  59  84
ENDBRANCH  33  34
ENDBRANCH  26  28
ENDBRANCH  25  26
ENDBRANCH  24  25
ENDBRANCH   1  24
TORSDOF 18
ENDMDL
