MODEL 1
REMARK VINA RESULT:     -11.2      0.000      0.000
REMARK SMILES O=C(OCCOC(=O)[C@H]1CC[C@@H](CNc2ccccc2C(F)(F)F)O1)c1ccc(-c2c3nc(c(-c4c(F)cc(S(=O)(=O)[O-])cc4F)c4ccc([nH]4)c(-c4c(F)cc(S(=O)(=O)[O-])cc4F)c4nc(c(-c5c(F)cc(S(=O)(=O)[O-])cc5F)c5ccc2[nH]5)C=C4)C=C3)cc1
REMARK SMILES IDX 5 1 4 2 3 3 2 4 1 5 26 6 27 7 91 8 28 9 90 10 29 11 30 12
REMARK SMILES IDX 31 13 84 14 32 15 89 16 83 17 85 18 33 19 88 20 82 21 81 22
REMARK SMILES IDX 34 24 68 25 47 26 67 27 48 28 51 29 66 30 86 31 49 32 50 33
REMARK SMILES IDX 65 35 87 36 52 37 35 38 36 39 45 40 37 41 38 42 44 43 46 44
REMARK SMILES IDX 39 45 40 46 41 47 42 48 43 49 69 50 70 51 79 52 71 53 72 54
REMARK SMILES IDX 78 55 80 56 73 57 74 58 75 59 76 60 77 61 53 62 54 63 63 64
REMARK SMILES IDX 55 65 56 66 62 67 64 68 57 69 58 70 59 71 60 72 61 73 6 74
REMARK SMILES IDX 7 75 8 76 9 77 10 78 25 79 11 80 12 81 13 82 14 83 15 85
REMARK SMILES IDX 16 86 20 87 17 88 19 89 18 90 21 91 22 92 23 93 24 94
REMARK H PARENT 85 23 51 34 14 84
REMARK Flexibility Score: inf
ROOT
ATOM      1  C   UNL A   1      45.295  23.350  25.584  1.00  0.00     0.274 C 
ENDROOT
BRANCH   1   2
ATOM      2  C   UNL A   1      44.485  24.549  25.089  1.00  0.00     0.275 C 
BRANCH   2   3
ATOM      3  O   UNL A   1      43.333  24.751  25.924  1.00  0.00    -0.458 OA
BRANCH   3   4
ATOM      4  C   UNL A   1      42.634  25.915  25.877  1.00  0.00     0.338 C 
ATOM      5  O   UNL A   1      42.426  26.503  24.824  1.00  0.00    -0.246 OA
BRANCH   4   6
ATOM      6  C   UNL A   1      42.407  26.598  27.180  1.00  0.00     0.060 A 
ATOM      7  C   UNL A   1      41.502  26.138  28.143  1.00  0.00     0.016 A 
ATOM      8  C   UNL A   1      43.090  27.803  27.408  1.00  0.00     0.016 A 
ATOM      9  C   UNL A   1      41.315  26.838  29.334  1.00  0.00     0.010 A 
ATOM     10  C   UNL A   1      42.907  28.508  28.602  1.00  0.00     0.010 A 
ATOM     11  C   UNL A   1      42.001  28.035  29.560  1.00  0.00    -0.014 A 
BRANCH  11  12
ATOM     12  C   UNL A   1      41.569  28.897  30.681  1.00  0.00     0.031 A 
ATOM     13  C   UNL A   1      42.368  28.823  31.951  1.00  0.00     0.074 A 
ATOM     14  C   UNL A   1      40.543  29.755  30.551  1.00  0.00     0.049 A 
ATOM     15  N   UNL A   1      42.229  29.499  33.059  1.00  0.00    -0.248 NA
ATOM     16  C   UNL A   1      43.482  27.859  31.965  1.00  0.00     0.031 C 
ATOM     17  C   UNL A   1      39.738  29.931  29.344  1.00  0.00     0.029 A 
ATOM     18  N   UNL A   1      40.003  30.644  31.445  1.00  0.00    -0.354 N 
ATOM     19  C   UNL A   1      43.238  29.045  33.899  1.00  0.00     0.074 A 
ATOM     20  C   UNL A   1      43.962  28.016  33.187  1.00  0.00     0.031 C 
ATOM     21  C   UNL A   1      38.795  30.860  29.576  1.00  0.00     0.029 A 
ATOM     22  C   UNL A   1      38.919  31.332  30.953  1.00  0.00     0.049 A 
ATOM     23  H   UNL A   1      40.358  30.775  32.353  1.00  0.00     0.167 HD
ATOM     24  C   UNL A   1      43.538  29.455  35.153  1.00  0.00     0.037 A 
ATOM     25  C   UNL A   1      38.117  32.232  31.558  1.00  0.00     0.037 A 
ATOM     26  C   UNL A   1      42.780  30.447  35.860  1.00  0.00     0.049 A 
ATOM     27  C   UNL A   1      38.426  32.631  32.977  1.00  0.00     0.074 A 
ATOM     28  C   UNL A   1      42.957  30.916  37.147  1.00  0.00     0.029 A 
ATOM     29  N   UNL A   1      41.681  31.113  35.333  1.00  0.00    -0.354 N 
ATOM     30  N   UNL A   1      39.397  32.211  33.755  1.00  0.00    -0.248 NA
ATOM     31  C   UNL A   1      37.544  33.627  33.601  1.00  0.00     0.031 C 
ATOM     32  C   UNL A   1      41.938  31.839  37.413  1.00  0.00     0.029 A 
ATOM     33  C   UNL A   1      41.157  31.980  36.274  1.00  0.00     0.049 A 
ATOM     34  H   UNL A   1      41.326  30.987  34.424  1.00  0.00     0.167 HD
ATOM     35  C   UNL A   1      39.264  32.913  34.948  1.00  0.00     0.074 A 
ATOM     36  C   UNL A   1      38.115  33.783  34.789  1.00  0.00     0.031 C 
ATOM     37  C   UNL A   1      40.023  32.848  36.071  1.00  0.00     0.037 A 
BRANCH  24  38
ATOM     38  C   UNL A   1      44.696  28.773  35.825  1.00  0.00     0.058 A 
ATOM     39  C   UNL A   1      44.511  27.650  36.651  1.00  0.00     0.135 A 
ATOM     40  C   UNL A   1      45.994  29.293  35.708  1.00  0.00     0.135 A 
ATOM     41  F   UNL A   1      43.285  27.129  36.819  1.00  0.00    -0.206 F 
ATOM     42  C   UNL A   1      45.562  27.104  37.379  1.00  0.00     0.059 A 
ATOM     43  C   UNL A   1      47.065  28.745  36.407  1.00  0.00     0.059 A 
ATOM     44  F   UNL A   1      46.224  30.367  34.937  1.00  0.00    -0.206 F 
ATOM     45  C   UNL A   1      46.833  27.668  37.263  1.00  0.00     0.060 A 
BRANCH  45  46
ATOM     46  S   UNL A   1      48.176  26.993  38.263  1.00  0.00     0.124 S 
ATOM     47  O   UNL A   1      48.649  25.903  37.415  1.00  0.00    -0.237 OA
ATOM     48  O   UNL A   1      49.078  28.134  38.389  1.00  0.00    -0.237 OA
ATOM     49  O   UNL A   1      47.510  26.587  39.495  1.00  0.00    -0.744 OA
ENDBRANCH  45  46
ENDBRANCH  24  38
BRANCH  25  50
ATOM     50  C   UNL A   1      36.961  32.810  30.819  1.00  0.00     0.058 A 
ATOM     51  C   UNL A   1      35.659  32.320  30.999  1.00  0.00     0.135 A 
ATOM     52  C   UNL A   1      37.130  33.896  29.944  1.00  0.00     0.135 A 
ATOM     53  F   UNL A   1      35.441  31.280  31.817  1.00  0.00    -0.206 F 
ATOM     54  C   UNL A   1      34.567  32.885  30.343  1.00  0.00     0.059 A 
ATOM     55  C   UNL A   1      36.054  34.491  29.292  1.00  0.00     0.059 A 
ATOM     56  F   UNL A   1      38.354  34.411  29.744  1.00  0.00    -0.206 F 
ATOM     57  C   UNL A   1      34.775  33.977  29.496  1.00  0.00     0.060 A 
BRANCH  57  58
ATOM     58  S   UNL A   1      33.343  34.755  28.716  1.00  0.00     0.124 S 
ATOM     59  O   UNL A   1      32.910  33.715  27.789  1.00  0.00    -0.237 OA
ATOM     60  O   UNL A   1      32.468  34.999  29.857  1.00  0.00    -0.237 OA
ATOM     61  O   UNL A   1      33.907  35.954  28.102  1.00  0.00    -0.744 OA
ENDBRANCH  57  58
ENDBRANCH  25  50
BRANCH  37  62
ATOM     62  C   UNL A   1      39.673  33.771  37.201  1.00  0.00     0.058 A 
ATOM     63  C   UNL A   1      38.830  33.369  38.247  1.00  0.00     0.135 A 
ATOM     64  C   UNL A   1      40.286  35.032  37.294  1.00  0.00     0.135 A 
ATOM     65  F   UNL A   1      38.217  32.175  38.199  1.00  0.00    -0.206 F 
ATOM     66  C   UNL A   1      38.607  34.185  39.350  1.00  0.00     0.059 A 
ATOM     67  C   UNL A   1      40.095  35.854  38.397  1.00  0.00     0.059 A 
ATOM     68  F   UNL A   1      41.108  35.456  36.320  1.00  0.00    -0.206 F 
ATOM     69  C   UNL A   1      39.253  35.422  39.420  1.00  0.00     0.060 A 
BRANCH  69  70
ATOM     70  S   UNL A   1      39.023  36.437  40.896  1.00  0.00     0.124 S 
ATOM     71  O   UNL A   1      40.346  36.367  41.508  1.00  0.00    -0.237 OA
ATOM     72  O   UNL A   1      38.653  37.732  40.331  1.00  0.00    -0.237 OA
ATOM     73  O   UNL A   1      37.959  35.749  41.618  1.00  0.00    -0.744 OA
ENDBRANCH  69  70
ENDBRANCH  37  62
ENDBRANCH  11  12
ENDBRANCH   4   6
ENDBRANCH   3   4
ENDBRANCH   2   3
ENDBRANCH   1   2
BRANCH   1  74
ATOM     74  O   UNL A   1      44.506  22.156  25.485  1.00  0.00    -0.460 OA
BRANCH  74  75
ATOM     75  C   UNL A   1      45.179  20.992  25.235  1.00  0.00     0.335 C 
ATOM     76  O   UNL A   1      46.374  20.809  25.441  1.00  0.00    -0.249 OA
BRANCH  75  77
ATOM     77  C   UNL A   1      44.200  19.930  24.740  1.00  0.00     0.228 C 
ATOM     78  C   UNL A   1      44.397  18.556  25.358  1.00  0.00     0.047 C 
ATOM     79  O   UNL A   1      42.872  20.358  25.075  1.00  0.00    -0.361 OA
ATOM     80  C   UNL A   1      43.347  18.512  26.448  1.00  0.00     0.037 C 
ATOM     81  C   UNL A   1      42.224  19.328  25.832  1.00  0.00     0.138 C 
BRANCH  81  82
ATOM     82  C   UNL A   1      41.179  19.921  26.795  1.00  0.00     0.145 C 
BRANCH  82  83
ATOM     83  N   UNL A   1      39.945  20.348  26.127  1.00  0.00    -0.382 N 
ATOM     84  H   UNL A   1      39.488  19.713  25.530  1.00  0.00     0.160 HD
BRANCH  83  85
ATOM     85  C   UNL A   1      39.393  21.610  26.300  1.00  0.00     0.046 A 
ATOM     86  C   UNL A   1      40.099  22.501  27.134  1.00  0.00     0.026 A 
ATOM     87  C   UNL A   1      38.216  22.074  25.689  1.00  0.00     0.079 A 
ATOM     88  C   UNL A   1      39.673  23.812  27.353  1.00  0.00     0.002 A 
ATOM     89  C   UNL A   1      37.810  23.414  25.899  1.00  0.00     0.015 A 
ATOM     90  C   UNL A   1      38.528  24.274  26.724  1.00  0.00     0.001 A 
BRANCH  87  91
ATOM     91  C   UNL A   1      37.311  21.225  24.832  1.00  0.00     0.418 C 
ATOM     92  F   UNL A   1      36.129  20.936  25.461  1.00  0.00    -0.166 F 
ATOM     93  F   UNL A   1      36.952  21.845  23.671  1.00  0.00    -0.166 F 
ATOM     94  F   UNL A   1      37.804  20.008  24.464  1.00  0.00    -0.166 F 
ENDBRANCH  87  91
ENDBRANCH  83  85
ENDBRANCH  82  83
ENDBRANCH  81  82
ENDBRANCH  75  77
ENDBRANCH  74  75
ENDBRANCH   1  74
TORSDOF 18
ENDMDL
MODEL 2
REMARK VINA RESULT:     -11.0      5.102     11.213
REMARK SMILES O=C(OCCOC(=O)[C@H]1CC[C@@H](CNc2ccccc2C(F)(F)F)O1)c1ccc(-c2c3nc(c(-c4c(F)cc(S(=O)(=O)[O-])cc4F)c4ccc([nH]4)c(-c4c(F)cc(S(=O)(=O)[O-])cc4F)c4nc(c(-c5c(F)cc(S(=O)(=O)[O-])cc5F)c5ccc2[nH]5)C=C4)C=C3)cc1
REMARK SMILES IDX 5 1 4 2 3 3 2 4 1 5 26 6 27 7 91 8 28 9 90 10 29 11 30 12
REMARK SMILES IDX 31 13 84 14 32 15 89 16 83 17 85 18 33 19 88 20 82 21 81 22
REMARK SMILES IDX 34 24 68 25 47 26 67 27 48 28 51 29 66 30 86 31 49 32 50 33
REMARK SMILES IDX 65 35 87 36 52 37 35 38 36 39 45 40 37 41 38 42 44 43 46 44
REMARK SMILES IDX 39 45 40 46 41 47 42 48 43 49 69 50 70 51 79 52 71 53 72 54
REMARK SMILES IDX 78 55 80 56 73 57 74 58 75 59 76 60 77 61 53 62 54 63 63 64
REMARK SMILES IDX 55 65 56 66 62 67 64 68 57 69 58 70 59 71 60 72 61 73 6 74
REMARK SMILES IDX 7 75 8 76 9 77 10 78 25 79 11 80 12 81 13 82 14 83 15 85
REMARK SMILES IDX 16 86 20 87 17 88 19 89 18 90 21 91 22 92 23 93 24 94
REMARK H PARENT 85 23 51 34 14 84
REMARK Flexibility Score: inf
ROOT
ATOM      1  C   UNL A   1      31.809  29.972  26.217  1.00  0.00     0.274 C 
ENDROOT
BRANCH   1   2
ATOM      2  C   UNL A   1      32.572  30.881  27.183  1.00  0.00     0.275 C 
BRANCH   2   3
ATOM      3  O   UNL A   1      33.728  30.200  27.698  1.00  0.00    -0.458 OA
BRANCH   3   4
ATOM      4  C   UNL A   1      34.675  30.872  28.404  1.00  0.00     0.338 C 
ATOM      5  O   UNL A   1      34.551  32.056  28.690  1.00  0.00    -0.246 OA
BRANCH   4   6
ATOM      6  C   UNL A   1      35.995  30.199  28.540  1.00  0.00     0.060 A 
ATOM      7  C   UNL A   1      36.475  29.683  29.749  1.00  0.00     0.016 A 
ATOM      8  C   UNL A   1      36.819  30.151  27.404  1.00  0.00     0.016 A 
ATOM      9  C   UNL A   1      37.733  29.086  29.817  1.00  0.00     0.010 A 
ATOM     10  C   UNL A   1      38.081  29.552  27.468  1.00  0.00     0.010 A 
ATOM     11  C   UNL A   1      38.549  29.035  28.683  1.00  0.00    -0.014 A 
BRANCH  11  12
ATOM     12  C   UNL A   1      39.972  28.670  28.851  1.00  0.00     0.031 A 
ATOM     13  C   UNL A   1      40.883  29.712  29.433  1.00  0.00     0.074 A 
ATOM     14  C   UNL A   1      40.420  27.439  28.553  1.00  0.00     0.049 A 
ATOM     15  N   UNL A   1      42.154  29.635  29.723  1.00  0.00    -0.248 NA
ATOM     16  C   UNL A   1      40.270  31.017  29.740  1.00  0.00     0.031 C 
ATOM     17  C   UNL A   1      39.603  26.348  28.027  1.00  0.00     0.029 A 
ATOM     18  N   UNL A   1      41.676  26.897  28.652  1.00  0.00    -0.354 N 
ATOM     19  C   UNL A   1      42.490  30.877  30.247  1.00  0.00     0.074 A 
ATOM     20  C   UNL A   1      41.301  31.698  30.207  1.00  0.00     0.031 C 
ATOM     21  C   UNL A   1      40.380  25.268  27.834  1.00  0.00     0.029 A 
ATOM     22  C   UNL A   1      41.754  25.598  28.208  1.00  0.00     0.049 A 
ATOM     23  H   UNL A   1      42.449  27.392  29.008  1.00  0.00     0.167 HD
ATOM     24  C   UNL A   1      43.685  31.294  30.724  1.00  0.00     0.037 A 
ATOM     25  C   UNL A   1      42.821  24.780  28.108  1.00  0.00     0.037 A 
ATOM     26  C   UNL A   1      44.866  30.478  30.714  1.00  0.00     0.049 A 
ATOM     27  C   UNL A   1      44.159  25.281  28.585  1.00  0.00     0.074 A 
ATOM     28  C   UNL A   1      46.144  30.799  31.128  1.00  0.00     0.029 A 
ATOM     29  N   UNL A   1      44.909  29.171  30.244  1.00  0.00    -0.354 N 
ATOM     30  N   UNL A   1      44.462  26.451  29.099  1.00  0.00    -0.248 NA
ATOM     31  C   UNL A   1      45.297  24.358  28.479  1.00  0.00     0.031 C 
ATOM     32  C   UNL A   1      46.970  29.698  30.872  1.00  0.00     0.029 A 
ATOM     33  C   UNL A   1      46.195  28.674  30.344  1.00  0.00     0.049 A 
ATOM     34  H   UNL A   1      44.137  28.672  29.892  1.00  0.00     0.167 HD
ATOM     35  C   UNL A   1      45.817  26.395  29.408  1.00  0.00     0.074 A 
ATOM     36  C   UNL A   1      46.275  25.075  29.020  1.00  0.00     0.031 C 
ATOM     37  C   UNL A   1      46.609  27.345  29.966  1.00  0.00     0.037 A 
BRANCH  24  38
ATOM     38  C   UNL A   1      43.753  32.707  31.230  1.00  0.00     0.058 A 
ATOM     39  C   UNL A   1      44.146  33.769  30.397  1.00  0.00     0.135 A 
ATOM     40  C   UNL A   1      43.500  32.993  32.580  1.00  0.00     0.135 A 
ATOM     41  F   UNL A   1      44.427  33.546  29.103  1.00  0.00    -0.206 F 
ATOM     42  C   UNL A   1      44.339  35.052  30.899  1.00  0.00     0.059 A 
ATOM     43  C   UNL A   1      43.661  34.274  33.097  1.00  0.00     0.059 A 
ATOM     44  F   UNL A   1      43.127  32.014  33.419  1.00  0.00    -0.206 F 
ATOM     45  C   UNL A   1      44.109  35.291  32.254  1.00  0.00     0.060 A 
BRANCH  45  46
ATOM     46  S   UNL A   1      44.427  36.944  32.908  1.00  0.00     0.124 S 
ATOM     47  O   UNL A   1      45.886  36.982  32.902  1.00  0.00    -0.237 OA
ATOM     48  O   UNL A   1      43.768  37.802  31.929  1.00  0.00    -0.237 OA
ATOM     49  O   UNL A   1      43.805  36.912  34.227  1.00  0.00    -0.744 OA
ENDBRANCH  45  46
ENDBRANCH  24  38
BRANCH  25  50
ATOM     50  C   UNL A   1      42.657  23.412  27.541  1.00  0.00     0.058 A 
ATOM     51  C   UNL A   1      42.821  23.164  26.171  1.00  0.00     0.135 A 
ATOM     52  C   UNL A   1      42.370  22.315  28.370  1.00  0.00     0.135 A 
ATOM     53  F   UNL A   1      43.088  24.177  25.334  1.00  0.00    -0.206 F 
ATOM     54  C   UNL A   1      42.711  21.880  25.642  1.00  0.00     0.059 A 
ATOM     55  C   UNL A   1      42.275  21.020  27.869  1.00  0.00     0.059 A 
ATOM     56  F   UNL A   1      42.214  22.495  29.691  1.00  0.00    -0.206 F 
ATOM     57  C   UNL A   1      42.445  20.812  26.502  1.00  0.00     0.060 A 
BRANCH  57  58
ATOM     58  S   UNL A   1      42.387  19.140  25.818  1.00  0.00     0.124 S 
ATOM     59  O   UNL A   1      42.981  18.359  26.898  1.00  0.00    -0.237 OA
ATOM     60  O   UNL A   1      40.956  18.949  25.603  1.00  0.00    -0.237 OA
ATOM     61  O   UNL A   1      43.186  19.247  24.602  1.00  0.00    -0.744 OA
ENDBRANCH  57  58
ENDBRANCH  25  50
BRANCH  37  62
ATOM     62  C   UNL A   1      48.041  26.985  30.236  1.00  0.00     0.058 A 
ATOM     63  C   UNL A   1      49.061  27.287  29.322  1.00  0.00     0.135 A 
ATOM     64  C   UNL A   1      48.405  26.438  31.477  1.00  0.00     0.135 A 
ATOM     65  F   UNL A   1      48.761  27.806  28.120  1.00  0.00    -0.206 F 
ATOM     66  C   UNL A   1      50.397  27.061  29.631  1.00  0.00     0.059 A 
ATOM     67  C   UNL A   1      49.735  26.225  31.816  1.00  0.00     0.059 A 
ATOM     68  F   UNL A   1      47.462  26.142  32.387  1.00  0.00    -0.206 F 
ATOM     69  C   UNL A   1      50.725  26.539  30.885  1.00  0.00     0.060 A 
BRANCH  69  70
ATOM     70  S   UNL A   1      52.467  26.328  31.308  1.00  0.00     0.124 S 
ATOM     71  O   UNL A   1      53.101  26.421  29.997  1.00  0.00    -0.237 OA
ATOM     72  O   UNL A   1      52.709  27.451  32.210  1.00  0.00    -0.237 OA
ATOM     73  O   UNL A   1      52.507  25.011  31.934  1.00  0.00    -0.744 OA
ENDBRANCH  69  70
ENDBRANCH  37  62
ENDBRANCH  11  12
ENDBRANCH   4   6
ENDBRANCH   3   4
ENDBRANCH   2   3
ENDBRANCH   1   2
BRANCH   1  74
ATOM     74  O   UNL A   1      32.560  29.813  25.005  1.00  0.00    -0.460 OA
BRANCH  74  75
ATOM     75  C   UNL A   1      32.354  28.660  24.300  1.00  0.00     0.335 C 
ATOM     76  O   UNL A   1      31.312  28.360  23.728  1.00  0.00    -0.249 OA
BRANCH  75  77
ATOM     77  C   UNL A   1      33.644  27.845  24.261  1.00  0.00     0.228 C 
ATOM     78  C   UNL A   1      33.905  27.021  25.511  1.00  0.00     0.047 C 
ATOM     79  O   UNL A   1      33.559  26.929  23.161  1.00  0.00    -0.361 OA
ATOM     80  C   UNL A   1      33.434  25.637  25.119  1.00  0.00     0.037 C 
ATOM     81  C   UNL A   1      33.781  25.597  23.641  1.00  0.00     0.138 C 
BRANCH  81  82
ATOM     82  C   UNL A   1      33.037  24.563  22.774  1.00  0.00     0.145 C 
BRANCH  82  83
ATOM     83  N   UNL A   1      33.802  23.333  22.548  1.00  0.00    -0.382 N 
ATOM     84  H   UNL A   1      34.281  23.225  21.695  1.00  0.00     0.160 HD
BRANCH  83  85
ATOM     85  C   UNL A   1      33.880  22.312  23.486  1.00  0.00     0.046 A 
ATOM     86  C   UNL A   1      32.691  21.601  23.749  1.00  0.00     0.026 A 
ATOM     87  C   UNL A   1      35.047  21.915  24.161  1.00  0.00     0.079 A 
ATOM     88  C   UNL A   1      32.649  20.525  24.637  1.00  0.00     0.002 A 
ATOM     89  C   UNL A   1      34.995  20.806  25.039  1.00  0.00     0.015 A 
ATOM     90  C   UNL A   1      33.808  20.118  25.277  1.00  0.00     0.001 A 
BRANCH  87  91
ATOM     91  C   UNL A   1      36.377  22.618  24.046  1.00  0.00     0.418 C 
ATOM     92  F   UNL A   1      36.659  22.976  22.754  1.00  0.00    -0.166 F 
ATOM     93  F   UNL A   1      36.418  23.783  24.754  1.00  0.00    -0.166 F 
ATOM     94  F   UNL A   1      37.467  21.904  24.446  1.00  0.00    -0.166 F 
ENDBRANCH  87  91
ENDBRANCH  83  85
ENDBRANCH  82  83
ENDBRANCH  81  82
ENDBRANCH  75  77
ENDBRANCH  74  75
ENDBRANCH   1  74
TORSDOF 18
ENDMDL
MODEL 3
REMARK VINA RESULT:     -11.0      4.507     12.341
REMARK SMILES O=C(OCCOC(=O)[C@H]1CC[C@@H](CNc2ccccc2C(F)(F)F)O1)c1ccc(-c2c3nc(c(-c4c(F)cc(S(=O)(=O)[O-])cc4F)c4ccc([nH]4)c(-c4c(F)cc(S(=O)(=O)[O-])cc4F)c4nc(c(-c5c(F)cc(S(=O)(=O)[O-])cc5F)c5ccc2[nH]5)C=C4)C=C3)cc1
REMARK SMILES IDX 5 1 4 2 3 3 2 4 1 5 26 6 27 7 91 8 28 9 90 10 29 11 30 12
REMARK SMILES IDX 31 13 84 14 32 15 89 16 83 17 85 18 33 19 88 20 82 21 81 22
REMARK SMILES IDX 34 24 68 25 47 26 67 27 48 28 51 29 66 30 86 31 49 32 50 33
REMARK SMILES IDX 65 35 87 36 52 37 35 38 36 39 45 40 37 41 38 42 44 43 46 44
REMARK SMILES IDX 39 45 40 46 41 47 42 48 43 49 69 50 70 51 79 52 71 53 72 54
REMARK SMILES IDX 78 55 80 56 73 57 74 58 75 59 76 60 77 61 53 62 54 63 63 64
REMARK SMILES IDX 55 65 56 66 62 67 64 68 57 69 58 70 59 71 60 72 61 73 6 74
REMARK SMILES IDX 7 75 8 76 9 77 10 78 25 79 11 80 12 81 13 82 14 83 15 85
REMARK SMILES IDX 16 86 20 87 17 88 19 89 18 90 21 91 22 92 23 93 24 94
REMARK H PARENT 85 23 51 34 14 84
REMARK Flexibility Score: inf
ROOT
ATOM      1  C   UNL A   1      33.744  33.866  28.377  1.00  0.00     0.274 C 
ENDROOT
BRANCH   1   2
ATOM      2  C   UNL A   1      34.586  32.601  28.557  1.00  0.00     0.275 C 
BRANCH   2   3
ATOM      3  O   UNL A   1      34.376  31.702  27.455  1.00  0.00    -0.458 OA
BRANCH   3   4
ATOM      4  C   UNL A   1      34.500  30.360  27.618  1.00  0.00     0.338 C 
ATOM      5  O   UNL A   1      33.524  29.626  27.713  1.00  0.00    -0.246 OA
BRANCH   4   6
ATOM      6  C   UNL A   1      35.854  29.864  27.988  1.00  0.00     0.060 A 
ATOM      7  C   UNL A   1      36.204  29.478  29.286  1.00  0.00     0.016 A 
ATOM      8  C   UNL A   1      36.837  29.856  26.986  1.00  0.00     0.016 A 
ATOM      9  C   UNL A   1      37.498  29.045  29.574  1.00  0.00     0.010 A 
ATOM     10  C   UNL A   1      38.136  29.421  27.270  1.00  0.00     0.010 A 
ATOM     11  C   UNL A   1      38.474  29.034  28.573  1.00  0.00    -0.014 A 
BRANCH  11  12
ATOM     12  C   UNL A   1      39.888  28.858  28.966  1.00  0.00     0.031 A 
ATOM     13  C   UNL A   1      40.532  27.541  28.639  1.00  0.00     0.074 A 
ATOM     14  C   UNL A   1      40.587  29.854  29.536  1.00  0.00     0.049 A 
ATOM     15  N   UNL A   1      41.762  27.148  28.833  1.00  0.00    -0.248 NA
ATOM     16  C   UNL A   1      39.669  26.535  27.994  1.00  0.00     0.031 C 
ATOM     17  C   UNL A   1      40.062  31.181  29.850  1.00  0.00     0.029 A 
ATOM     18  N   UNL A   1      41.893  29.905  29.952  1.00  0.00    -0.354 N 
ATOM     19  C   UNL A   1      41.820  25.853  28.333  1.00  0.00     0.074 A 
ATOM     20  C   UNL A   1      40.498  25.515  27.856  1.00  0.00     0.031 C 
ATOM     21  C   UNL A   1      41.032  31.914  30.424  1.00  0.00     0.029 A 
ATOM     22  C   UNL A   1      42.241  31.102  30.532  1.00  0.00     0.049 A 
ATOM     23  H   UNL A   1      42.521  29.155  29.845  1.00  0.00     0.167 HD
ATOM     24  C   UNL A   1      42.885  25.020  28.273  1.00  0.00     0.037 A 
ATOM     25  C   UNL A   1      43.405  31.485  31.096  1.00  0.00     0.037 A 
ATOM     26  C   UNL A   1      44.179  25.358  28.793  1.00  0.00     0.049 A 
ATOM     27  C   UNL A   1      44.563  30.522  31.078  1.00  0.00     0.074 A 
ATOM     28  C   UNL A   1      45.324  24.587  28.831  1.00  0.00     0.029 A 
ATOM     29  N   UNL A   1      44.490  26.575  29.386  1.00  0.00    -0.354 N 
ATOM     30  N   UNL A   1      44.614  29.307  30.582  1.00  0.00    -0.248 NA
ATOM     31  C   UNL A   1      45.823  30.977  31.683  1.00  0.00     0.031 C 
ATOM     32  C   UNL A   1      46.319  25.324  29.484  1.00  0.00     0.029 A 
ATOM     33  C   UNL A   1      45.807  26.573  29.807  1.00  0.00     0.049 A 
ATOM     34  H   UNL A   1      43.866  27.329  29.490  1.00  0.00     0.167 HD
ATOM     35  C   UNL A   1      45.916  28.862  30.787  1.00  0.00     0.074 A 
ATOM     36  C   UNL A   1      46.620  29.941  31.454  1.00  0.00     0.031 C 
ATOM     37  C   UNL A   1      46.480  27.676  30.450  1.00  0.00     0.037 A 
BRANCH  24  38
ATOM     38  C   UNL A   1      42.645  23.663  27.675  1.00  0.00     0.058 A 
ATOM     39  C   UNL A   1      42.346  22.547  28.476  1.00  0.00     0.135 A 
ATOM     40  C   UNL A   1      42.795  23.457  26.295  1.00  0.00     0.135 A 
ATOM     41  F   UNL A   1      42.218  22.685  29.806  1.00  0.00    -0.206 F 
ATOM     42  C   UNL A   1      42.259  21.268  27.937  1.00  0.00     0.059 A 
ATOM     43  C   UNL A   1      42.686  22.190  25.731  1.00  0.00     0.059 A 
ATOM     44  F   UNL A   1      43.087  24.487  25.486  1.00  0.00    -0.206 F 
ATOM     45  C   UNL A   1      42.445  21.098  26.565  1.00  0.00     0.060 A 
BRANCH  45  46
ATOM     46  S   UNL A   1      42.397  19.425  25.886  1.00  0.00     0.124 S 
ATOM     47  O   UNL A   1      40.965  19.246  25.662  1.00  0.00    -0.237 OA
ATOM     48  O   UNL A   1      43.215  19.551  24.684  1.00  0.00    -0.237 OA
ATOM     49  O   UNL A   1      42.973  18.610  26.949  1.00  0.00    -0.744 OA
ENDBRANCH  45  46
ENDBRANCH  24  38
BRANCH  25  50
ATOM     50  C   UNL A   1      43.523  32.836  31.711  1.00  0.00     0.058 A 
ATOM     51  C   UNL A   1      44.030  33.926  30.990  1.00  0.00     0.135 A 
ATOM     52  C   UNL A   1      43.091  33.072  33.026  1.00  0.00     0.135 A 
ATOM     53  F   UNL A   1      44.464  33.754  29.732  1.00  0.00    -0.206 F 
ATOM     54  C   UNL A   1      44.103  35.201  31.546  1.00  0.00     0.059 A 
ATOM     55  C   UNL A   1      43.134  34.340  33.599  1.00  0.00     0.059 A 
ATOM     56  F   UNL A   1      42.586  32.066  33.758  1.00  0.00    -0.206 F 
ATOM     57  C   UNL A   1      43.645  35.400  32.850  1.00  0.00     0.060 A 
BRANCH  57  58
ATOM     58  S   UNL A   1      43.666  37.072  33.534  1.00  0.00     0.124 S 
ATOM     59  O   UNL A   1      42.422  37.096  34.295  1.00  0.00    -0.237 OA
ATOM     60  O   UNL A   1      44.896  37.066  34.318  1.00  0.00    -0.237 OA
ATOM     61  O   UNL A   1      43.696  37.919  32.345  1.00  0.00    -0.744 OA
ENDBRANCH  57  58
ENDBRANCH  25  50
BRANCH  37  62
ATOM     62  C   UNL A   1      47.938  27.488  30.751  1.00  0.00     0.058 A 
ATOM     63  C   UNL A   1      48.373  26.843  31.917  1.00  0.00     0.135 A 
ATOM     64  C   UNL A   1      48.904  27.857  29.800  1.00  0.00     0.135 A 
ATOM     65  F   UNL A   1      47.487  26.477  32.858  1.00  0.00    -0.206 F 
ATOM     66  C   UNL A   1      49.718  26.565  32.130  1.00  0.00     0.059 A 
ATOM     67  C   UNL A   1      50.251  27.570  29.982  1.00  0.00     0.059 A 
ATOM     68  F   UNL A   1      48.533  28.470  28.663  1.00  0.00    -0.206 F 
ATOM     69  C   UNL A   1      50.649  26.925  31.152  1.00  0.00     0.060 A 
BRANCH  69  70
ATOM     70  S   UNL A   1      52.382  26.485  31.401  1.00  0.00     0.124 S 
ATOM     71  O   UNL A   1      52.792  27.463  32.403  1.00  0.00    -0.237 OA
ATOM     72  O   UNL A   1      52.291  25.103  31.863  1.00  0.00    -0.237 OA
ATOM     73  O   UNL A   1      52.969  26.658  30.076  1.00  0.00    -0.744 OA
ENDBRANCH  69  70
ENDBRANCH  37  62
ENDBRANCH  11  12
ENDBRANCH   4   6
ENDBRANCH   3   4
ENDBRANCH   2   3
ENDBRANCH   1   2
BRANCH   1  74
ATOM     74  O   UNL A   1      33.250  34.306  29.650  1.00  0.00    -0.460 OA
BRANCH  74  75
ATOM     75  C   UNL A   1      32.965  35.637  29.774  1.00  0.00     0.335 C 
ATOM     76  O   UNL A   1      32.349  36.306  28.951  1.00  0.00    -0.249 OA
BRANCH  75  77
ATOM     77  C   UNL A   1      33.456  36.143  31.128  1.00  0.00     0.228 C 
ATOM     78  C   UNL A   1      32.372  36.257  32.187  1.00  0.00     0.047 C 
ATOM     79  O   UNL A   1      34.434  35.218  31.622  1.00  0.00    -0.361 OA
ATOM     80  C   UNL A   1      32.542  34.988  32.996  1.00  0.00     0.037 C 
ATOM     81  C   UNL A   1      34.044  34.775  32.928  1.00  0.00     0.138 C 
BRANCH  81  82
ATOM     82  C   UNL A   1      34.564  33.353  33.210  1.00  0.00     0.145 C 
BRANCH  82  83
ATOM     83  N   UNL A   1      35.595  32.909  32.267  1.00  0.00    -0.382 N 
ATOM     84  H   UNL A   1      35.477  33.110  31.311  1.00  0.00     0.160 HD
BRANCH  83  85
ATOM     85  C   UNL A   1      36.732  32.219  32.665  1.00  0.00     0.046 A 
ATOM     86  C   UNL A   1      36.638  30.813  32.705  1.00  0.00     0.026 A 
ATOM     87  C   UNL A   1      37.966  32.806  32.993  1.00  0.00     0.079 A 
ATOM     88  C   UNL A   1      37.723  30.004  33.045  1.00  0.00     0.002 A 
ATOM     89  C   UNL A   1      39.065  31.972  33.311  1.00  0.00     0.015 A 
ATOM     90  C   UNL A   1      38.946  30.585  33.339  1.00  0.00     0.001 A 
BRANCH  87  91
ATOM     91  C   UNL A   1      38.208  34.293  33.070  1.00  0.00     0.418 C 
ATOM     92  F   UNL A   1      39.499  34.587  33.424  1.00  0.00    -0.166 F 
ATOM     93  F   UNL A   1      38.018  34.918  31.873  1.00  0.00    -0.166 F 
ATOM     94  F   UNL A   1      37.446  34.977  33.970  1.00  0.00    -0.166 F 
ENDBRANCH  87  91
ENDBRANCH  83  85
ENDBRANCH  82  83
ENDBRANCH  81  82
ENDBRANCH  75  77
ENDBRANCH  74  75
ENDBRANCH   1  74
TORSDOF 18
ENDMDL
