MODEL 1
REMARK VINA RESULT:     -10.2      0.000      0.000
REMARK SMILES O=C(CCc1cccnc1)Nc1ccsc1C(=O)OCCOC(=O)c1ccc(-c2c3nc(c(-c4c(F)cc(S(=O)(=O)[O-])cc4F)c4ccc([nH]4)c(-c4c(F)cc(S(=O)(=O)[O-])cc4F)c4nc(c(-c5c(F)cc(S(=O)(=O)[O-])cc5F)c5ccc2[nH]5)C=C4)C=C3)cc1
REMARK SMILES IDX 20 1 19 2 17 3 18 4 16 5 12 6 13 7 14 8 15 9 11 10 1 11 2 12
REMARK SMILES IDX 3 14 4 15 5 16 6 17 10 18 7 19 9 20 8 21 21 22 22 23 23 24
REMARK SMILES IDX 24 25 25 26 26 27 90 28 27 29 89 30 28 31 29 32 30 33 83 34
REMARK SMILES IDX 31 35 88 36 82 37 84 38 32 39 87 40 81 41 80 42 33 44 67 45
REMARK SMILES IDX 46 46 66 47 47 48 50 49 65 50 85 51 48 52 49 53 64 55 86 56
REMARK SMILES IDX 51 57 34 58 35 59 44 60 36 61 37 62 43 63 45 64 38 65 39 66
REMARK SMILES IDX 40 67 41 68 42 69 68 70 69 71 78 72 70 73 71 74 77 75 79 76
REMARK SMILES IDX 72 77 73 78 74 79 75 80 76 81 52 82 53 83 62 84 54 85 55 86
REMARK SMILES IDX 61 87 63 88 56 89 57 90 58 91 59 92 60 93
REMARK H PARENT 11 13 84 43 50 54
REMARK Flexibility Score: inf
ROOT
ATOM      1  C   UNL A   1      34.810  33.837  28.032  1.00  0.00     0.275 C 
ENDROOT
BRANCH   1   2
ATOM      2  O   UNL A   1      34.893  34.603  29.258  1.00  0.00    -0.458 OA
BRANCH   2   3
ATOM      3  C   UNL A   1      33.686  34.907  29.834  1.00  0.00     0.350 C 
ATOM      4  O   UNL A   1      32.612  34.625  29.313  1.00  0.00    -0.245 OA
BRANCH   3   5
ATOM      5  C   UNL A   1      33.865  35.503  31.149  1.00  0.00     0.136 A 
ATOM      6  C   UNL A   1      34.802  35.308  32.162  1.00  0.00     0.066 A 
ATOM      7  C   UNL A   1      34.425  36.018  33.350  1.00  0.00     0.039 A 
ATOM      8  C   UNL A   1      33.300  36.790  33.189  1.00  0.00     0.068 A 
ATOM      9  S   UNL A   1      32.705  36.704  31.599  1.00  0.00    -0.135 S 
BRANCH   6  10
ATOM     10  N   UNL A   1      35.981  34.574  32.003  1.00  0.00    -0.325 N 
ATOM     11  O   UNL A   1      35.305  32.526  32.862  1.00  0.00    -0.275 OA
ATOM     12  C   UNL A   1      36.186  33.290  32.472  1.00  0.00     0.224 C 
ATOM     13  H   UNL A   1      36.722  35.005  31.518  1.00  0.00     0.169 HD
BRANCH  12  14
ATOM     14  C   UNL A   1      37.641  32.862  32.631  1.00  0.00     0.105 C 
BRANCH  14  15
ATOM     15  C   UNL A   1      38.659  33.943  32.992  1.00  0.00     0.047 C 
BRANCH  15  16
ATOM     16  C   UNL A   1      39.570  34.297  31.845  1.00  0.00    -0.029 A 
ATOM     17  C   UNL A   1      40.952  34.376  32.015  1.00  0.00     0.007 A 
ATOM     18  C   UNL A   1      39.072  34.489  30.558  1.00  0.00     0.114 A 
ATOM     19  C   UNL A   1      41.769  34.541  30.900  1.00  0.00     0.020 A 
ATOM     20  N   UNL A   1      39.844  34.655  29.463  1.00  0.00    -0.264 NA
ATOM     21  C   UNL A   1      41.177  34.650  29.655  1.00  0.00     0.111 A 
ENDBRANCH  15  16
ENDBRANCH  14  15
ENDBRANCH  12  14
ENDBRANCH   6  10
ENDBRANCH   3   5
ENDBRANCH   2   3
ENDBRANCH   1   2
BRANCH   1  22
ATOM     22  C   UNL A   1      35.031  32.345  28.299  1.00  0.00     0.275 C 
BRANCH  22  23
ATOM     23  O   UNL A   1      36.410  32.129  28.635  1.00  0.00    -0.458 OA
BRANCH  23  24
ATOM     24  C   UNL A   1      36.607  31.112  29.506  1.00  0.00     0.338 C 
ATOM     25  O   UNL A   1      35.796  30.656  30.293  1.00  0.00    -0.246 OA
BRANCH  24  26
ATOM     26  C   UNL A   1      37.872  30.454  29.151  1.00  0.00     0.060 A 
ATOM     27  C   UNL A   1      38.836  30.369  30.158  1.00  0.00     0.016 A 
ATOM     28  C   UNL A   1      38.114  29.929  27.880  1.00  0.00     0.016 A 
ATOM     29  C   UNL A   1      40.065  29.784  29.895  1.00  0.00     0.010 A 
ATOM     30  C   UNL A   1      39.355  29.342  27.615  1.00  0.00     0.010 A 
ATOM     31  C   UNL A   1      40.344  29.293  28.614  1.00  0.00    -0.014 A 
BRANCH  31  32
ATOM     32  C   UNL A   1      41.721  28.851  28.299  1.00  0.00     0.031 A 
ATOM     33  C   UNL A   1      42.836  29.858  28.353  1.00  0.00     0.074 A 
ATOM     34  C   UNL A   1      41.969  27.556  28.035  1.00  0.00     0.049 A 
ATOM     35  N   UNL A   1      44.102  29.709  28.068  1.00  0.00    -0.248 NA
ATOM     36  C   UNL A   1      42.472  31.220  28.781  1.00  0.00     0.031 C 
ATOM     37  C   UNL A   1      40.963  26.492  28.011  1.00  0.00     0.029 A 
ATOM     38  N   UNL A   1      43.144  26.912  27.746  1.00  0.00    -0.354 N 
ATOM     39  C   UNL A   1      44.681  30.960  28.255  1.00  0.00     0.074 A 
ATOM     40  C   UNL A   1      43.623  31.863  28.652  1.00  0.00     0.031 C 
ATOM     41  C   UNL A   1      41.567  25.325  27.734  1.00  0.00     0.029 A 
ATOM     42  C   UNL A   1      42.989  25.565  27.510  1.00  0.00     0.049 A 
ATOM     43  H   UNL A   1      44.015  27.368  27.709  1.00  0.00     0.167 HD
ATOM     44  C   UNL A   1      45.980  31.316  28.114  1.00  0.00     0.037 A 
ATOM     45  C   UNL A   1      43.892  24.641  27.132  1.00  0.00     0.037 A 
ATOM     46  C   UNL A   1      47.020  30.391  27.740  1.00  0.00     0.049 A 
ATOM     47  C   UNL A   1      45.322  25.070  26.941  1.00  0.00     0.074 A 
ATOM     48  C   UNL A   1      48.372  30.635  27.575  1.00  0.00     0.029 A 
ATOM     49  N   UNL A   1      46.822  29.042  27.478  1.00  0.00    -0.354 N 
ATOM     50  N   UNL A   1      45.856  26.259  27.103  1.00  0.00    -0.248 NA
ATOM     51  C   UNL A   1      46.274  24.037  26.515  1.00  0.00     0.031 C 
ATOM     52  C   UNL A   1      48.981  29.444  27.164  1.00  0.00     0.029 A 
ATOM     53  C   UNL A   1      48.022  28.444  27.131  1.00  0.00     0.049 A 
ATOM     54  H   UNL A   1      45.955  28.578  27.532  1.00  0.00     0.167 HD
ATOM     55  C   UNL A   1      47.208  26.113  26.814  1.00  0.00     0.074 A 
ATOM     56  C   UNL A   1      47.413  24.715  26.492  1.00  0.00     0.031 C 
ATOM     57  C   UNL A   1      48.192  27.049  26.809  1.00  0.00     0.037 A 
BRANCH  44  58
ATOM     58  C   UNL A   1      46.336  32.762  28.325  1.00  0.00     0.058 A 
ATOM     59  C   UNL A   1      46.774  33.251  29.566  1.00  0.00     0.135 A 
ATOM     60  C   UNL A   1      46.255  33.675  27.260  1.00  0.00     0.135 A 
ATOM     61  F   UNL A   1      46.852  32.431  30.627  1.00  0.00    -0.206 F 
ATOM     62  C   UNL A   1      47.092  34.594  29.751  1.00  0.00     0.059 A 
ATOM     63  C   UNL A   1      46.595  35.016  27.414  1.00  0.00     0.059 A 
ATOM     64  F   UNL A   1      45.835  33.266  26.051  1.00  0.00    -0.206 F 
ATOM     65  C   UNL A   1      47.000  35.469  28.667  1.00  0.00     0.060 A 
BRANCH  65  66
ATOM     66  S   UNL A   1      47.421  37.206  28.920  1.00  0.00     0.124 S 
ATOM     67  O   UNL A   1      48.028  37.550  27.639  1.00  0.00    -0.237 OA
ATOM     68  O   UNL A   1      46.118  37.807  29.186  1.00  0.00    -0.237 OA
ATOM     69  O   UNL A   1      48.336  37.172  30.058  1.00  0.00    -0.744 OA
ENDBRANCH  65  66
ENDBRANCH  44  58
BRANCH  45  70
ATOM     70  C   UNL A   1      43.466  23.236  26.891  1.00  0.00     0.058 A 
ATOM     71  C   UNL A   1      43.380  22.711  25.593  1.00  0.00     0.135 A 
ATOM     72  C   UNL A   1      43.149  22.382  27.960  1.00  0.00     0.135 A 
ATOM     73  F   UNL A   1      43.663  23.487  24.536  1.00  0.00    -0.206 F 
ATOM     74  C   UNL A   1      42.982  21.397  25.363  1.00  0.00     0.059 A 
ATOM     75  C   UNL A   1      42.778  21.057  27.757  1.00  0.00     0.059 A 
ATOM     76  F   UNL A   1      43.224  22.830  29.224  1.00  0.00    -0.206 F 
ATOM     77  C   UNL A   1      42.687  20.576  26.453  1.00  0.00     0.060 A 
BRANCH  77  78
ATOM     78  S   UNL A   1      42.218  18.860  26.146  1.00  0.00     0.124 S 
ATOM     79  O   UNL A   1      43.127  18.494  25.066  1.00  0.00    -0.237 OA
ATOM     80  O   UNL A   1      42.477  18.234  27.438  1.00  0.00    -0.237 OA
ATOM     81  O   UNL A   1      40.808  18.958  25.778  1.00  0.00    -0.744 OA
ENDBRANCH  77  78
ENDBRANCH  45  70
BRANCH  57  82
ATOM     82  C   UNL A   1      49.578  26.573  26.468  1.00  0.00     0.058 A 
ATOM     83  C   UNL A   1      50.392  25.933  27.416  1.00  0.00     0.135 A 
ATOM     84  C   UNL A   1      50.089  26.743  25.171  1.00  0.00     0.135 A 
ATOM     85  F   UNL A   1      49.952  25.749  28.671  1.00  0.00    -0.206 F 
ATOM     86  C   UNL A   1      51.682  25.519  27.102  1.00  0.00     0.059 A 
ATOM     87  C   UNL A   1      51.363  26.306  24.828  1.00  0.00     0.059 A 
ATOM     88  F   UNL A   1      49.346  27.335  24.222  1.00  0.00    -0.206 F 
ATOM     89  C   UNL A   1      52.161  25.714  25.806  1.00  0.00     0.060 A 
BRANCH  89  90
ATOM     90  S   UNL A   1      53.835  25.173  25.412  1.00  0.00     0.124 S 
ATOM     91  O   UNL A   1      53.683  23.722  25.415  1.00  0.00    -0.237 OA
ATOM     92  O   UNL A   1      54.063  25.784  24.105  1.00  0.00    -0.237 OA
ATOM     93  O   UNL A   1      54.637  25.723  26.501  1.00  0.00    -0.744 OA
ENDBRANCH  89  90
ENDBRANCH  57  82
ENDBRANCH  31  32
ENDBRANCH  24  26
ENDBRANCH  23  24
ENDBRANCH  22  23
ENDBRANCH   1  22
TORSDOF 18
ENDMDL
MODEL 2
REMARK VINA RESULT:     -10.1      5.081      7.364
REMARK SMILES O=C(CCc1cccnc1)Nc1ccsc1C(=O)OCCOC(=O)c1ccc(-c2c3nc(c(-c4c(F)cc(S(=O)(=O)[O-])cc4F)c4ccc([nH]4)c(-c4c(F)cc(S(=O)(=O)[O-])cc4F)c4nc(c(-c5c(F)cc(S(=O)(=O)[O-])cc5F)c5ccc2[nH]5)C=C4)C=C3)cc1
REMARK SMILES IDX 20 1 19 2 17 3 18 4 16 5 12 6 13 7 14 8 15 9 11 10 1 11 2 12
REMARK SMILES IDX 3 14 4 15 5 16 6 17 10 18 7 19 9 20 8 21 21 22 22 23 23 24
REMARK SMILES IDX 24 25 25 26 26 27 90 28 27 29 89 30 28 31 29 32 30 33 83 34
REMARK SMILES IDX 31 35 88 36 82 37 84 38 32 39 87 40 81 41 80 42 33 44 67 45
REMARK SMILES IDX 46 46 66 47 47 48 50 49 65 50 85 51 48 52 49 53 64 55 86 56
REMARK SMILES IDX 51 57 34 58 35 59 44 60 36 61 37 62 43 63 45 64 38 65 39 66
REMARK SMILES IDX 40 67 41 68 42 69 68 70 69 71 78 72 70 73 71 74 77 75 79 76
REMARK SMILES IDX 72 77 73 78 74 79 75 80 76 81 52 82 53 83 62 84 54 85 55 86
REMARK SMILES IDX 61 87 63 88 56 89 57 90 58 91 59 92 60 93
REMARK H PARENT 11 13 84 43 50 54
REMARK Flexibility Score: inf
ROOT
ATOM      1  C   UNL A   1      32.116  27.230  26.536  1.00  0.00     0.275 C 
ENDROOT
BRANCH   1   2
ATOM      2  O   UNL A   1      32.615  26.047  25.865  1.00  0.00    -0.458 OA
BRANCH   2   3
ATOM      3  C   UNL A   1      32.029  24.870  26.252  1.00  0.00     0.350 C 
ATOM      4  O   UNL A   1      31.284  24.787  27.223  1.00  0.00    -0.245 OA
BRANCH   3   5
ATOM      5  C   UNL A   1      32.331  23.799  25.316  1.00  0.00     0.136 A 
ATOM      6  C   UNL A   1      32.197  23.676  23.934  1.00  0.00     0.066 A 
ATOM      7  C   UNL A   1      32.469  22.333  23.511  1.00  0.00     0.039 A 
ATOM      8  C   UNL A   1      32.885  21.514  24.533  1.00  0.00     0.068 A 
ATOM      9  S   UNL A   1      32.993  22.357  26.005  1.00  0.00    -0.135 S 
BRANCH   6  10
ATOM     10  N   UNL A   1      31.906  24.745  23.082  1.00  0.00    -0.325 N 
ATOM     11  O   UNL A   1      34.000  25.098  22.141  1.00  0.00    -0.275 OA
ATOM     12  C   UNL A   1      32.841  25.453  22.349  1.00  0.00     0.224 C 
ATOM     13  H   UNL A   1      30.963  25.014  22.995  1.00  0.00     0.169 HD
BRANCH  12  14
ATOM     14  C   UNL A   1      32.412  26.840  21.883  1.00  0.00     0.105 C 
BRANCH  14  15
ATOM     15  C   UNL A   1      31.917  27.820  22.947  1.00  0.00     0.047 C 
BRANCH  15  16
ATOM     16  C   UNL A   1      30.510  28.296  22.695  1.00  0.00    -0.029 A 
ATOM     17  C   UNL A   1      29.412  27.639  23.250  1.00  0.00     0.007 A 
ATOM     18  C   UNL A   1      30.258  29.449  21.956  1.00  0.00     0.114 A 
ATOM     19  C   UNL A   1      28.146  28.203  23.131  1.00  0.00     0.020 A 
ATOM     20  N   UNL A   1      29.039  30.014  21.824  1.00  0.00    -0.264 NA
ATOM     21  C   UNL A   1      28.013  29.392  22.437  1.00  0.00     0.111 A 
ENDBRANCH  15  16
ENDBRANCH  14  15
ENDBRANCH  12  14
ENDBRANCH   6  10
ENDBRANCH   3   5
ENDBRANCH   2   3
ENDBRANCH   1   2
BRANCH   1  22
ATOM     22  C   UNL A   1      33.086  28.405  26.375  1.00  0.00     0.275 C 
BRANCH  22  23
ATOM     23  O   UNL A   1      33.782  28.609  27.614  1.00  0.00    -0.458 OA
BRANCH  23  24
ATOM     24  C   UNL A   1      34.305  29.850  27.748  1.00  0.00     0.338 C 
ATOM     25  O   UNL A   1      33.692  30.903  27.771  1.00  0.00    -0.246 OA
BRANCH  24  26
ATOM     26  C   UNL A   1      35.711  29.705  28.148  1.00  0.00     0.060 A 
ATOM     27  C   UNL A   1      36.669  29.930  27.158  1.00  0.00     0.016 A 
ATOM     28  C   UNL A   1      36.090  29.368  29.449  1.00  0.00     0.016 A 
ATOM     29  C   UNL A   1      38.017  29.789  27.450  1.00  0.00     0.010 A 
ATOM     30  C   UNL A   1      37.449  29.223  29.743  1.00  0.00     0.010 A 
ATOM     31  C   UNL A   1      38.415  29.407  28.737  1.00  0.00    -0.014 A 
BRANCH  31  32
ATOM     32  C   UNL A   1      39.837  29.074  28.978  1.00  0.00     0.031 A 
ATOM     33  C   UNL A   1      40.725  30.105  29.616  1.00  0.00     0.074 A 
ATOM     34  C   UNL A   1      40.300  27.845  28.688  1.00  0.00     0.049 A 
ATOM     35  N   UNL A   1      42.004  30.053  29.874  1.00  0.00    -0.248 NA
ATOM     36  C   UNL A   1      40.084  31.371  30.012  1.00  0.00     0.031 C 
ATOM     37  C   UNL A   1      39.504  26.757  28.116  1.00  0.00     0.029 A 
ATOM     38  N   UNL A   1      41.548  27.300  28.844  1.00  0.00    -0.354 N 
ATOM     39  C   UNL A   1      42.327  31.284  30.436  1.00  0.00     0.074 A 
ATOM     40  C   UNL A   1      41.115  32.072  30.457  1.00  0.00     0.031 C 
ATOM     41  C   UNL A   1      40.282  25.670  27.980  1.00  0.00     0.029 A 
ATOM     42  C   UNL A   1      41.639  26.000  28.405  1.00  0.00     0.049 A 
ATOM     43  H   UNL A   1      42.307  27.792  29.232  1.00  0.00     0.167 HD
ATOM     44  C   UNL A   1      43.527  31.709  30.897  1.00  0.00     0.037 A 
ATOM     45  C   UNL A   1      42.705  25.181  28.333  1.00  0.00     0.037 A 
ATOM     46  C   UNL A   1      44.716  30.895  30.887  1.00  0.00     0.049 A 
ATOM     47  C   UNL A   1      44.037  25.692  28.813  1.00  0.00     0.074 A 
ATOM     48  C   UNL A   1      45.985  31.215  31.335  1.00  0.00     0.029 A 
ATOM     49  N   UNL A   1      44.779  29.594  30.405  1.00  0.00    -0.354 N 
ATOM     50  N   UNL A   1      44.336  26.863  29.326  1.00  0.00    -0.248 NA
ATOM     51  C   UNL A   1      45.178  24.774  28.705  1.00  0.00     0.031 C 
ATOM     52  C   UNL A   1      46.825  30.126  31.078  1.00  0.00     0.029 A 
ATOM     53  C   UNL A   1      46.069  29.105  30.524  1.00  0.00     0.049 A 
ATOM     54  H   UNL A   1      44.017  29.092  30.034  1.00  0.00     0.167 HD
ATOM     55  C   UNL A   1      45.694  26.818  29.616  1.00  0.00     0.074 A 
ATOM     56  C   UNL A   1      46.152  25.493  29.244  1.00  0.00     0.031 C 
ATOM     57  C   UNL A   1      46.495  27.782  30.138  1.00  0.00     0.037 A 
BRANCH  44  58
ATOM     58  C   UNL A   1      43.619  33.120  31.411  1.00  0.00     0.058 A 
ATOM     59  C   UNL A   1      43.369  33.445  32.754  1.00  0.00     0.135 A 
ATOM     60  C   UNL A   1      43.981  34.167  30.547  1.00  0.00     0.135 A 
ATOM     61  F   UNL A   1      42.997  32.490  33.622  1.00  0.00    -0.206 F 
ATOM     62  C   UNL A   1      43.448  34.756  33.215  1.00  0.00     0.059 A 
ATOM     63  C   UNL A   1      44.096  35.481  30.992  1.00  0.00     0.059 A 
ATOM     64  F   UNL A   1      44.225  33.918  29.249  1.00  0.00    -0.206 F 
ATOM     65  C   UNL A   1      43.813  35.768  32.325  1.00  0.00     0.060 A 
BRANCH  65  66
ATOM     66  S   UNL A   1      43.917  37.463  32.939  1.00  0.00     0.124 S 
ATOM     67  O   UNL A   1      43.756  38.230  31.708  1.00  0.00    -0.237 OA
ATOM     68  O   UNL A   1      42.800  37.524  33.876  1.00  0.00    -0.237 OA
ATOM     69  O   UNL A   1      45.244  37.524  33.546  1.00  0.00    -0.744 OA
ENDBRANCH  65  66
ENDBRANCH  44  58
BRANCH  45  70
ATOM     70  C   UNL A   1      42.559  23.812  27.767  1.00  0.00     0.058 A 
ATOM     71  C   UNL A   1      42.548  23.590  26.382  1.00  0.00     0.135 A 
ATOM     72  C   UNL A   1      42.440  22.692  28.606  1.00  0.00     0.135 A 
ATOM     73  F   UNL A   1      42.648  24.628  25.537  1.00  0.00    -0.206 F 
ATOM     74  C   UNL A   1      42.411  22.312  25.849  1.00  0.00     0.059 A 
ATOM     75  C   UNL A   1      42.332  21.401  28.097  1.00  0.00     0.059 A 
ATOM     76  F   UNL A   1      42.455  22.844  29.940  1.00  0.00    -0.206 F 
ATOM     77  C   UNL A   1      42.308  21.223  26.716  1.00  0.00     0.060 A 
BRANCH  77  78
ATOM     78  S   UNL A   1      42.178  19.564  26.014  1.00  0.00     0.124 S 
ATOM     79  O   UNL A   1      42.631  18.737  27.126  1.00  0.00    -0.237 OA
ATOM     80  O   UNL A   1      40.758  19.477  25.692  1.00  0.00    -0.237 OA
ATOM     81  O   UNL A   1      43.072  19.616  24.861  1.00  0.00    -0.744 OA
ENDBRANCH  77  78
ENDBRANCH  45  70
BRANCH  57  82
ATOM     82  C   UNL A   1      47.938  27.420  30.356  1.00  0.00     0.058 A 
ATOM     83  C   UNL A   1      48.917  27.667  29.381  1.00  0.00     0.135 A 
ATOM     84  C   UNL A   1      48.350  26.836  31.566  1.00  0.00     0.135 A 
ATOM     85  F   UNL A   1      48.576  28.221  28.206  1.00  0.00    -0.206 F 
ATOM     86  C   UNL A   1      50.246  27.307  29.579  1.00  0.00     0.059 A 
ATOM     87  C   UNL A   1      49.678  26.498  31.797  1.00  0.00     0.059 A 
ATOM     88  F   UNL A   1      47.457  26.592  32.538  1.00  0.00    -0.206 F 
ATOM     89  C   UNL A   1      50.616  26.719  30.789  1.00  0.00     0.060 A 
BRANCH  89  90
ATOM     90  S   UNL A   1      52.342  26.255  31.033  1.00  0.00     0.124 S 
ATOM     91  O   UNL A   1      52.207  24.980  31.730  1.00  0.00    -0.237 OA
ATOM     92  O   UNL A   1      52.842  26.179  29.663  1.00  0.00    -0.237 OA
ATOM     93  O   UNL A   1      52.881  27.353  31.830  1.00  0.00    -0.744 OA
ENDBRANCH  89  90
ENDBRANCH  57  82
ENDBRANCH  31  32
ENDBRANCH  24  26
ENDBRANCH  23  24
ENDBRANCH  22  23
ENDBRANCH   1  22
TORSDOF 18
ENDMDL
MODEL 3
REMARK VINA RESULT:     -10.1      6.767     13.519
REMARK SMILES O=C(CCc1cccnc1)Nc1ccsc1C(=O)OCCOC(=O)c1ccc(-c2c3nc(c(-c4c(F)cc(S(=O)(=O)[O-])cc4F)c4ccc([nH]4)c(-c4c(F)cc(S(=O)(=O)[O-])cc4F)c4nc(c(-c5c(F)cc(S(=O)(=O)[O-])cc5F)c5ccc2[nH]5)C=C4)C=C3)cc1
REMARK SMILES IDX 20 1 19 2 17 3 18 4 16 5 12 6 13 7 14 8 15 9 11 10 1 11 2 12
REMARK SMILES IDX 3 14 4 15 5 16 6 17 10 18 7 19 9 20 8 21 21 22 22 23 23 24
REMARK SMILES IDX 24 25 25 26 26 27 90 28 27 29 89 30 28 31 29 32 30 33 83 34
REMARK SMILES IDX 31 35 88 36 82 37 84 38 32 39 87 40 81 41 80 42 33 44 67 45
REMARK SMILES IDX 46 46 66 47 47 48 50 49 65 50 85 51 48 52 49 53 64 55 86 56
REMARK SMILES IDX 51 57 34 58 35 59 44 60 36 61 37 62 43 63 45 64 38 65 39 66
REMARK SMILES IDX 40 67 41 68 42 69 68 70 69 71 78 72 70 73 71 74 77 75 79 76
REMARK SMILES IDX 72 77 73 78 74 79 75 80 76 81 52 82 53 83 62 84 54 85 55 86
REMARK SMILES IDX 61 87 63 88 56 89 57 90 58 91 59 92 60 93
REMARK H PARENT 11 13 84 43 50 54
REMARK Flexibility Score: inf
ROOT
ATOM      1  C   UNL A   1      38.222  22.243  25.754  1.00  0.00     0.275 C 
ENDROOT
BRANCH   1   2
ATOM      2  O   UNL A   1      36.800  22.248  25.479  1.00  0.00    -0.458 OA
BRANCH   2   3
ATOM      3  C   UNL A   1      36.276  21.034  25.117  1.00  0.00     0.350 C 
ATOM      4  O   UNL A   1      36.954  20.014  25.040  1.00  0.00    -0.245 OA
BRANCH   3   5
ATOM      5  C   UNL A   1      34.834  21.114  24.941  1.00  0.00     0.136 A 
ATOM      6  C   UNL A   1      33.942  22.182  24.873  1.00  0.00     0.066 A 
ATOM      7  C   UNL A   1      32.585  21.716  24.876  1.00  0.00     0.039 A 
ATOM      8  C   UNL A   1      32.481  20.346  24.849  1.00  0.00     0.068 A 
ATOM      9  S   UNL A   1      34.008  19.604  24.777  1.00  0.00    -0.135 S 
BRANCH   6  10
ATOM     10  N   UNL A   1      34.333  23.518  24.746  1.00  0.00    -0.325 N 
ATOM     11  O   UNL A   1      32.989  24.492  26.370  1.00  0.00    -0.275 OA
ATOM     12  C   UNL A   1      33.748  24.582  25.406  1.00  0.00     0.224 C 
ATOM     13  H   UNL A   1      35.084  23.716  24.141  1.00  0.00     0.169 HD
BRANCH  12  14
ATOM     14  C   UNL A   1      33.975  25.957  24.788  1.00  0.00     0.105 C 
BRANCH  14  15
ATOM     15  C   UNL A   1      32.828  26.964  24.866  1.00  0.00     0.047 C 
BRANCH  15  16
ATOM     16  C   UNL A   1      33.139  28.138  25.759  1.00  0.00    -0.029 A 
ATOM     17  C   UNL A   1      34.156  28.075  26.711  1.00  0.00     0.007 A 
ATOM     18  C   UNL A   1      32.468  29.351  25.619  1.00  0.00     0.114 A 
ATOM     19  C   UNL A   1      34.520  29.229  27.399  1.00  0.00     0.020 A 
ATOM     20  N   UNL A   1      32.801  30.481  26.277  1.00  0.00    -0.264 NA
ATOM     21  C   UNL A   1      33.837  30.402  27.133  1.00  0.00     0.111 A 
ENDBRANCH  15  16
ENDBRANCH  14  15
ENDBRANCH  12  14
ENDBRANCH   6  10
ENDBRANCH   3   5
ENDBRANCH   2   3
ENDBRANCH   1   2
BRANCH   1  22
ATOM     22  C   UNL A   1      38.694  23.619  26.236  1.00  0.00     0.275 C 
BRANCH  22  23
ATOM     23  O   UNL A   1      39.724  23.441  27.221  1.00  0.00    -0.458 OA
BRANCH  23  24
ATOM     24  C   UNL A   1      40.740  24.328  27.115  1.00  0.00     0.338 C 
ATOM     25  O   UNL A   1      41.602  24.353  26.254  1.00  0.00    -0.246 OA
BRANCH  24  26
ATOM     26  C   UNL A   1      40.473  25.431  28.048  1.00  0.00     0.060 A 
ATOM     27  C   UNL A   1      41.415  26.460  28.086  1.00  0.00     0.016 A 
ATOM     28  C   UNL A   1      39.336  25.470  28.858  1.00  0.00     0.016 A 
ATOM     29  C   UNL A   1      41.247  27.526  28.957  1.00  0.00     0.010 A 
ATOM     30  C   UNL A   1      39.168  26.542  29.739  1.00  0.00     0.010 A 
ATOM     31  C   UNL A   1      40.138  27.559  29.810  1.00  0.00    -0.014 A 
BRANCH  31  32
ATOM     32  C   UNL A   1      40.075  28.597  30.864  1.00  0.00     0.031 A 
ATOM     33  C   UNL A   1      41.027  28.512  32.024  1.00  0.00     0.074 A 
ATOM     34  C   UNL A   1      39.221  29.629  30.743  1.00  0.00     0.049 A 
ATOM     35  N   UNL A   1      41.117  29.274  33.081  1.00  0.00    -0.248 NA
ATOM     36  C   UNL A   1      42.007  27.413  31.991  1.00  0.00     0.031 C 
ATOM     37  C   UNL A   1      38.293  29.830  29.628  1.00  0.00     0.029 A 
ATOM     38  N   UNL A   1      39.001  30.708  31.559  1.00  0.00    -0.354 N 
ATOM     39  C   UNL A   1      42.142  28.734  33.850  1.00  0.00     0.074 A 
ATOM     40  C   UNL A   1      42.626  27.564  33.152  1.00  0.00     0.031 C 
ATOM     41  C   UNL A   1      37.612  30.971  29.825  1.00  0.00     0.029 A 
ATOM     42  C   UNL A   1      38.016  31.552  31.101  1.00  0.00     0.049 A 
ATOM     43  H   UNL A   1      39.499  30.864  32.393  1.00  0.00     0.167 HD
ATOM     44  C   UNL A   1      42.636  29.183  35.028  1.00  0.00     0.037 A 
ATOM     45  C   UNL A   1      37.486  32.654  31.665  1.00  0.00     0.037 A 
ATOM     46  C   UNL A   1      42.152  30.367  35.693  1.00  0.00     0.049 A 
ATOM     47  C   UNL A   1      38.024  33.109  32.996  1.00  0.00     0.074 A 
ATOM     48  C   UNL A   1      42.580  30.923  36.884  1.00  0.00     0.029 A 
ATOM     49  N   UNL A   1      41.132  31.180  35.216  1.00  0.00    -0.354 N 
ATOM     50  N   UNL A   1      38.981  32.581  33.723  1.00  0.00    -0.248 NA
ATOM     51  C   UNL A   1      37.411  34.306  33.584  1.00  0.00     0.031 C 
ATOM     52  C   UNL A   1      41.785  32.043  37.152  1.00  0.00     0.029 A 
ATOM     53  C   UNL A   1      40.901  32.220  36.100  1.00  0.00     0.049 A 
ATOM     54  H   UNL A   1      40.644  31.037  34.373  1.00  0.00     0.167 HD
ATOM     55  C   UNL A   1      39.096  33.391  34.848  1.00  0.00     0.074 A 
ATOM     56  C   UNL A   1      38.127  34.457  34.689  1.00  0.00     0.031 C 
ATOM     57  C   UNL A   1      39.922  33.264  35.918  1.00  0.00     0.037 A 
BRANCH  44  58
ATOM     58  C   UNL A   1      43.721  28.375  35.686  1.00  0.00     0.058 A 
ATOM     59  C   UNL A   1      45.081  28.579  35.404  1.00  0.00     0.135 A 
ATOM     60  C   UNL A   1      43.394  27.387  36.631  1.00  0.00     0.135 A 
ATOM     61  F   UNL A   1      45.453  29.493  34.494  1.00  0.00    -0.206 F 
ATOM     62  C   UNL A   1      46.075  27.817  36.013  1.00  0.00     0.059 A 
ATOM     63  C   UNL A   1      44.373  26.634  37.274  1.00  0.00     0.059 A 
ATOM     64  F   UNL A   1      42.109  27.142  36.935  1.00  0.00    -0.206 F 
ATOM     65  C   UNL A   1      45.710  26.846  36.948  1.00  0.00     0.060 A 
BRANCH  65  66
ATOM     66  S   UNL A   1      47.011  25.871  37.733  1.00  0.00     0.124 S 
ATOM     67  O   UNL A   1      46.291  24.650  38.081  1.00  0.00    -0.237 OA
ATOM     68  O   UNL A   1      47.994  25.744  36.662  1.00  0.00    -0.237 OA
ATOM     69  O   UNL A   1      47.422  26.699  38.863  1.00  0.00    -0.744 OA
ENDBRANCH  65  66
ENDBRANCH  44  58
BRANCH  45  70
ATOM     70  C   UNL A   1      36.380  33.382  30.987  1.00  0.00     0.058 A 
ATOM     71  C   UNL A   1      35.072  33.359  31.492  1.00  0.00     0.135 A 
ATOM     72  C   UNL A   1      36.614  34.130  29.821  1.00  0.00     0.135 A 
ATOM     73  F   UNL A   1      34.793  32.651  32.598  1.00  0.00    -0.206 F 
ATOM     74  C   UNL A   1      34.033  34.038  30.861  1.00  0.00     0.059 A 
ATOM     75  C   UNL A   1      35.599  34.842  29.189  1.00  0.00     0.059 A 
ATOM     76  F   UNL A   1      37.849  34.195  29.299  1.00  0.00    -0.206 F 
ATOM     77  C   UNL A   1      34.309  34.781  29.711  1.00  0.00     0.060 A 
BRANCH  77  78
ATOM     78  S   UNL A   1      32.965  35.697  28.927  1.00  0.00     0.124 S 
ATOM     79  O   UNL A   1      32.358  34.670  28.089  1.00  0.00    -0.237 OA
ATOM     80  O   UNL A   1      32.177  36.130  30.076  1.00  0.00    -0.237 OA
ATOM     81  O   UNL A   1      33.658  36.765  28.214  1.00  0.00    -0.744 OA
ENDBRANCH  77  78
ENDBRANCH  45  70
BRANCH  57  82
ATOM     82  C   UNL A   1      39.823  34.324  36.980  1.00  0.00     0.058 A 
ATOM     83  C   UNL A   1      40.480  35.559  36.855  1.00  0.00     0.135 A 
ATOM     84  C   UNL A   1      39.045  34.108  38.130  1.00  0.00     0.135 A 
ATOM     85  F   UNL A   1      41.238  35.814  35.777  1.00  0.00    -0.206 F 
ATOM     86  C   UNL A   1      40.405  36.525  37.852  1.00  0.00     0.059 A 
ATOM     87  C   UNL A   1      38.930  35.073  39.123  1.00  0.00     0.059 A 
ATOM     88  F   UNL A   1      38.384  32.951  38.292  1.00  0.00    -0.206 F 
ATOM     89  C   UNL A   1      39.631  36.271  38.986  1.00  0.00     0.060 A 
BRANCH  89  90
ATOM     90  S   UNL A   1      39.543  37.531  40.273  1.00  0.00     0.124 S 
ATOM     91  O   UNL A   1      38.764  38.572  39.611  1.00  0.00    -0.237 OA
ATOM     92  O   UNL A   1      38.866  36.824  41.357  1.00  0.00    -0.237 OA
ATOM     93  O   UNL A   1      40.943  37.859  40.526  1.00  0.00    -0.744 OA
ENDBRANCH  89  90
ENDBRANCH  57  82
ENDBRANCH  31  32
ENDBRANCH  24  26
ENDBRANCH  23  24
ENDBRANCH  22  23
ENDBRANCH   1  22
TORSDOF 18
ENDMDL
