MODEL 1
REMARK VINA RESULT:     -10.3      0.000      0.000
REMARK SMILES Cc1cc(C)n([C@@H](C(=O)OCCOC(=O)c2ccc(-c3c4nc(c(-c5c(F)cc(S(=O)(=O)[O-])cc5F)c5ccc([nH]5)c(-c5c(F)cc(S(=O)(=O)[O-])cc5F)c5nc(c(-c6c(F)cc(S(=O)(=O)[O-])cc6F)c6ccc3[nH]6)C=C5)C=C4)cc2)C(C)C)n1
REMARK SMILES IDX 12 1 11 2 10 3 8 4 9 5 7 6 6 7 1 8 2 9 3 10 85 11 4 12 5 13
REMARK SMILES IDX 82 14 83 15 84 16 13 17 14 18 15 19 16 20 17 21 81 22 18 23
REMARK SMILES IDX 80 24 19 25 20 26 21 27 74 28 22 29 79 30 73 31 75 32 23 33
REMARK SMILES IDX 78 34 72 35 71 36 24 38 58 39 37 40 57 41 38 42 41 43 56 44
REMARK SMILES IDX 76 45 39 46 40 47 55 49 77 50 42 51 25 52 26 53 35 54 27 55
REMARK SMILES IDX 28 56 34 57 36 58 29 59 30 60 31 61 32 62 33 63 59 64 60 65
REMARK SMILES IDX 69 66 61 67 62 68 68 69 70 70 63 71 64 72 65 73 66 74 67 75
REMARK SMILES IDX 43 76 44 77 53 78 45 79 46 80 52 81 54 82 47 83 48 84 49 85
REMARK SMILES IDX 50 86 51 87
REMARK H PARENT 75 37 41 48
REMARK Flexibility Score: inf
ROOT
ATOM      1  C   UNL A   1      34.048  33.350  28.449  1.00  0.00     0.275 C 
ENDROOT
BRANCH   1   2
ATOM      2  C   UNL A   1      34.298  34.214  29.678  1.00  0.00     0.274 C 
BRANCH   2   3
ATOM      3  O   UNL A   1      34.083  33.406  30.851  1.00  0.00    -0.460 OA
BRANCH   3   4
ATOM      4  C   UNL A   1      35.196  32.999  31.515  1.00  0.00     0.331 C 
ATOM      5  O   UNL A   1      35.417  31.822  31.798  1.00  0.00    -0.250 OA
BRANCH   4   6
ATOM      6  C   UNL A   1      36.140  34.131  31.905  1.00  0.00     0.219 C 
BRANCH   6   7
ATOM      7  N   UNL A   1      37.563  33.821  31.668  1.00  0.00    -0.255 N 
ATOM      8  C   UNL A   1      40.430  34.719  29.759  1.00  0.00     0.069 C 
ATOM      9  C   UNL A   1      39.443  34.140  30.696  1.00  0.00     0.060 A 
ATOM     10  C   UNL A   1      39.686  33.219  31.720  1.00  0.00     0.048 A 
ATOM     11  N   UNL A   1      38.158  34.495  30.644  1.00  0.00    -0.177 NA
ATOM     12  C   UNL A   1      38.476  33.040  32.355  1.00  0.00     0.037 A 
ATOM     13  C   UNL A   1      38.243  32.179  33.533  1.00  0.00     0.066 C 
ENDBRANCH   6   7
BRANCH   6  14
ATOM     14  C   UNL A   1      35.832  34.848  33.253  1.00  0.00     0.019 C 
ATOM     15  C   UNL A   1      34.796  35.960  33.040  1.00  0.00     0.010 C 
ATOM     16  C   UNL A   1      35.319  33.915  34.360  1.00  0.00     0.010 C 
ENDBRANCH   6  14
ENDBRANCH   4   6
ENDBRANCH   3   4
ENDBRANCH   2   3
ENDBRANCH   1   2
BRANCH   1  17
ATOM     17  O   UNL A   1      34.032  31.938  28.721  1.00  0.00    -0.458 OA
BRANCH  17  18
ATOM     18  C   UNL A   1      34.554  31.146  27.751  1.00  0.00     0.338 C 
ATOM     19  O   UNL A   1      33.971  30.679  26.805  1.00  0.00    -0.246 OA
BRANCH  18  20
ATOM     20  C   UNL A   1      35.942  30.783  28.095  1.00  0.00     0.060 A 
ATOM     21  C   UNL A   1      36.305  29.440  27.952  1.00  0.00     0.016 A 
ATOM     22  C   UNL A   1      36.840  31.718  28.616  1.00  0.00     0.016 A 
ATOM     23  C   UNL A   1      37.540  29.019  28.404  1.00  0.00     0.010 A 
ATOM     24  C   UNL A   1      38.102  31.306  29.013  1.00  0.00     0.010 A 
ATOM     25  C   UNL A   1      38.442  29.956  28.924  1.00  0.00    -0.014 A 
BRANCH  25  26
ATOM     26  C   UNL A   1      39.823  29.510  29.093  1.00  0.00     0.031 A 
ATOM     27  C   UNL A   1      40.186  29.299  30.524  1.00  0.00     0.074 A 
ATOM     28  C   UNL A   1      40.661  29.164  28.097  1.00  0.00     0.049 A 
ATOM     29  N   UNL A   1      41.053  29.953  31.223  1.00  0.00    -0.248 NA
ATOM     30  C   UNL A   1      39.352  28.379  31.318  1.00  0.00     0.031 C 
ATOM     31  C   UNL A   1      40.361  29.055  26.670  1.00  0.00     0.029 A 
ATOM     32  N   UNL A   1      41.947  28.719  28.175  1.00  0.00    -0.354 N 
ATOM     33  C   UNL A   1      41.048  29.358  32.481  1.00  0.00     0.074 A 
ATOM     34  C   UNL A   1      39.861  28.547  32.539  1.00  0.00     0.031 C 
ATOM     35  C   UNL A   1      41.346  28.355  26.063  1.00  0.00     0.029 A 
ATOM     36  C   UNL A   1      42.399  28.077  27.026  1.00  0.00     0.049 A 
ATOM     37  H   UNL A   1      42.507  28.841  28.975  1.00  0.00     0.167 HD
ATOM     38  C   UNL A   1      42.163  29.361  33.260  1.00  0.00     0.037 A 
ATOM     39  C   UNL A   1      43.519  27.318  26.903  1.00  0.00     0.037 A 
ATOM     40  C   UNL A   1      43.074  30.406  32.863  1.00  0.00     0.049 A 
ATOM     41  C   UNL A   1      44.438  27.707  28.005  1.00  0.00     0.074 A 
ATOM     42  C   UNL A   1      42.972  31.776  32.699  1.00  0.00     0.029 A 
ATOM     43  N   UNL A   1      44.226  30.042  32.209  1.00  0.00    -0.354 N 
ATOM     44  N   UNL A   1      45.020  28.873  28.093  1.00  0.00    -0.248 NA
ATOM     45  C   UNL A   1      44.373  26.949  29.245  1.00  0.00     0.031 C 
ATOM     46  C   UNL A   1      43.769  32.071  31.554  1.00  0.00     0.029 A 
ATOM     47  C   UNL A   1      44.364  30.880  31.135  1.00  0.00     0.049 A 
ATOM     48  H   UNL A   1      44.837  29.313  32.463  1.00  0.00     0.167 HD
ATOM     49  C   UNL A   1      44.985  29.180  29.444  1.00  0.00     0.074 A 
ATOM     50  C   UNL A   1      44.668  27.920  30.112  1.00  0.00     0.031 C 
ATOM     51  C   UNL A   1      44.938  30.475  29.873  1.00  0.00     0.037 A 
BRANCH  38  52
ATOM     52  C   UNL A   1      42.610  28.161  34.069  1.00  0.00     0.058 A 
ATOM     53  C   UNL A   1      42.850  28.320  35.449  1.00  0.00     0.135 A 
ATOM     54  C   UNL A   1      43.113  26.968  33.500  1.00  0.00     0.135 A 
ATOM     55  F   UNL A   1      42.420  29.414  36.097  1.00  0.00    -0.206 F 
ATOM     56  C   UNL A   1      43.621  27.417  36.182  1.00  0.00     0.059 A 
ATOM     57  C   UNL A   1      43.833  26.029  34.225  1.00  0.00     0.059 A 
ATOM     58  F   UNL A   1      43.021  26.694  32.194  1.00  0.00    -0.206 F 
ATOM     59  C   UNL A   1      44.124  26.284  35.552  1.00  0.00     0.060 A 
BRANCH  59  60
ATOM     60  S   UNL A   1      45.210  25.172  36.460  1.00  0.00     0.124 S 
ATOM     61  O   UNL A   1      44.266  24.526  37.365  1.00  0.00    -0.237 OA
ATOM     62  O   UNL A   1      45.746  24.338  35.389  1.00  0.00    -0.237 OA
ATOM     63  O   UNL A   1      46.169  26.079  37.082  1.00  0.00    -0.744 OA
ENDBRANCH  59  60
ENDBRANCH  38  52
BRANCH  39  64
ATOM     64  C   UNL A   1      43.714  26.068  26.114  1.00  0.00     0.058 A 
ATOM     65  C   UNL A   1      44.912  25.836  25.410  1.00  0.00     0.135 A 
ATOM     66  C   UNL A   1      42.868  24.951  26.267  1.00  0.00     0.135 A 
ATOM     67  F   UNL A   1      45.789  26.834  25.219  1.00  0.00    -0.206 F 
ATOM     68  C   UNL A   1      45.282  24.564  24.954  1.00  0.00     0.059 A 
ATOM     69  C   UNL A   1      43.206  23.679  25.807  1.00  0.00     0.059 A 
ATOM     70  F   UNL A   1      41.721  25.036  26.957  1.00  0.00    -0.206 F 
ATOM     71  C   UNL A   1      44.430  23.485  25.180  1.00  0.00     0.060 A 
BRANCH  71  72
ATOM     72  S   UNL A   1      44.981  21.809  24.778  1.00  0.00     0.124 S 
ATOM     73  O   UNL A   1      44.185  21.002  25.697  1.00  0.00    -0.237 OA
ATOM     74  O   UNL A   1      44.633  21.697  23.366  1.00  0.00    -0.237 OA
ATOM     75  O   UNL A   1      46.413  21.848  25.062  1.00  0.00    -0.744 OA
ENDBRANCH  71  72
ENDBRANCH  39  64
BRANCH  51  76
ATOM     76  C   UNL A   1      45.297  31.574  28.911  1.00  0.00     0.058 A 
ATOM     77  C   UNL A   1      46.604  31.999  28.618  1.00  0.00     0.135 A 
ATOM     78  C   UNL A   1      44.257  32.118  28.140  1.00  0.00     0.135 A 
ATOM     79  F   UNL A   1      47.664  31.458  29.235  1.00  0.00    -0.206 F 
ATOM     80  C   UNL A   1      46.859  32.951  27.628  1.00  0.00     0.059 A 
ATOM     81  C   UNL A   1      44.491  33.040  27.127  1.00  0.00     0.059 A 
ATOM     82  F   UNL A   1      42.991  31.711  28.332  1.00  0.00    -0.206 F 
ATOM     83  C   UNL A   1      45.795  33.463  26.884  1.00  0.00     0.060 A 
BRANCH  83  84
ATOM     84  S   UNL A   1      46.131  34.631  25.548  1.00  0.00     0.124 S 
ATOM     85  O   UNL A   1      45.235  34.163  24.497  1.00  0.00    -0.237 OA
ATOM     86  O   UNL A   1      45.785  35.913  26.154  1.00  0.00    -0.237 OA
ATOM     87  O   UNL A   1      47.557  34.444  25.282  1.00  0.00    -0.744 OA
ENDBRANCH  83  84
ENDBRANCH  51  76
ENDBRANCH  25  26
ENDBRANCH  18  20
ENDBRANCH  17  18
ENDBRANCH   1  17
TORSDOF 16
ENDMDL
MODEL 2
REMARK VINA RESULT:     -10.2      4.519     10.693
REMARK SMILES Cc1cc(C)n([C@@H](C(=O)OCCOC(=O)c2ccc(-c3c4nc(c(-c5c(F)cc(S(=O)(=O)[O-])cc5F)c5ccc([nH]5)c(-c5c(F)cc(S(=O)(=O)[O-])cc5F)c5nc(c(-c6c(F)cc(S(=O)(=O)[O-])cc6F)c6ccc3[nH]6)C=C5)C=C4)cc2)C(C)C)n1
REMARK SMILES IDX 12 1 11 2 10 3 8 4 9 5 7 6 6 7 1 8 2 9 3 10 85 11 4 12 5 13
REMARK SMILES IDX 82 14 83 15 84 16 13 17 14 18 15 19 16 20 17 21 81 22 18 23
REMARK SMILES IDX 80 24 19 25 20 26 21 27 74 28 22 29 79 30 73 31 75 32 23 33
REMARK SMILES IDX 78 34 72 35 71 36 24 38 58 39 37 40 57 41 38 42 41 43 56 44
REMARK SMILES IDX 76 45 39 46 40 47 55 49 77 50 42 51 25 52 26 53 35 54 27 55
REMARK SMILES IDX 28 56 34 57 36 58 29 59 30 60 31 61 32 62 33 63 59 64 60 65
REMARK SMILES IDX 69 66 61 67 62 68 68 69 70 70 63 71 64 72 65 73 66 74 67 75
REMARK SMILES IDX 43 76 44 77 53 78 45 79 46 80 52 81 54 82 47 83 48 84 49 85
REMARK SMILES IDX 50 86 51 87
REMARK H PARENT 75 37 41 48
REMARK Flexibility Score: inf
ROOT
ATOM      1  C   UNL A   1      37.229  21.704  24.662  1.00  0.00     0.275 C 
ENDROOT
BRANCH   1   2
ATOM      2  C   UNL A   1      36.798  22.660  23.558  1.00  0.00     0.274 C 
BRANCH   2   3
ATOM      3  O   UNL A   1      36.114  23.774  24.164  1.00  0.00    -0.460 OA
BRANCH   3   4
ATOM      4  C   UNL A   1      34.807  23.934  23.828  1.00  0.00     0.331 C 
ATOM      5  O   UNL A   1      34.440  24.294  22.710  1.00  0.00    -0.250 OA
BRANCH   4   6
ATOM      6  C   UNL A   1      33.830  23.653  24.964  1.00  0.00     0.219 C 
BRANCH   6   7
ATOM      7  N   UNL A   1      33.472  22.228  25.096  1.00  0.00    -0.255 N 
ATOM      8  C   UNL A   1      32.394  19.349  23.301  1.00  0.00     0.069 C 
ATOM      9  C   UNL A   1      32.851  20.341  24.298  1.00  0.00     0.060 A 
ATOM     10  C   UNL A   1      33.200  20.103  25.631  1.00  0.00     0.048 A 
ATOM     11  N   UNL A   1      32.993  21.627  23.970  1.00  0.00    -0.177 NA
ATOM     12  C   UNL A   1      33.623  21.318  26.127  1.00  0.00     0.037 A 
ATOM     13  C   UNL A   1      34.131  21.558  27.494  1.00  0.00     0.066 C 
ENDBRANCH   6   7
BRANCH   6  14
ATOM     14  C   UNL A   1      32.645  24.653  25.112  1.00  0.00     0.019 C 
ATOM     15  C   UNL A   1      31.450  23.966  25.787  1.00  0.00     0.010 C 
ATOM     16  C   UNL A   1      32.986  25.921  25.908  1.00  0.00     0.010 C 
ENDBRANCH   6  14
ENDBRANCH   4   6
ENDBRANCH   3   4
ENDBRANCH   2   3
ENDBRANCH   1   2
BRANCH   1  17
ATOM     17  O   UNL A   1      37.673  22.361  25.862  1.00  0.00    -0.458 OA
BRANCH  17  18
ATOM     18  C   UNL A   1      39.014  22.369  26.067  1.00  0.00     0.338 C 
ATOM     19  O   UNL A   1      39.789  21.478  25.827  1.00  0.00    -0.246 OA
BRANCH  18  20
ATOM     20  C   UNL A   1      39.401  23.593  26.794  1.00  0.00     0.060 A 
ATOM     21  C   UNL A   1      40.598  23.556  27.516  1.00  0.00     0.016 A 
ATOM     22  C   UNL A   1      38.577  24.720  26.829  1.00  0.00     0.016 A 
ATOM     23  C   UNL A   1      40.930  24.615  28.336  1.00  0.00     0.010 A 
ATOM     24  C   UNL A   1      38.941  25.809  27.605  1.00  0.00     0.010 A 
ATOM     25  C   UNL A   1      40.106  25.747  28.371  1.00  0.00    -0.014 A 
BRANCH  25  26
ATOM     26  C   UNL A   1      40.660  26.941  29.004  1.00  0.00     0.031 A 
ATOM     27  C   UNL A   1      41.841  27.483  28.272  1.00  0.00     0.074 A 
ATOM     28  C   UNL A   1      40.109  27.605  30.039  1.00  0.00     0.049 A 
ATOM     29  N   UNL A   1      43.062  27.553  28.687  1.00  0.00    -0.248 NA
ATOM     30  C   UNL A   1      41.676  27.809  26.844  1.00  0.00     0.031 C 
ATOM     31  C   UNL A   1      38.819  27.356  30.679  1.00  0.00     0.029 A 
ATOM     32  N   UNL A   1      40.552  28.732  30.666  1.00  0.00    -0.354 N 
ATOM     33  C   UNL A   1      43.773  28.163  27.658  1.00  0.00     0.074 A 
ATOM     34  C   UNL A   1      42.927  28.111  26.496  1.00  0.00     0.031 C 
ATOM     35  C   UNL A   1      38.481  28.432  31.425  1.00  0.00     0.029 A 
ATOM     36  C   UNL A   1      39.579  29.385  31.417  1.00  0.00     0.049 A 
ATOM     37  H   UNL A   1      41.478  29.056  30.594  1.00  0.00     0.167 HD
ATOM     38  C   UNL A   1      44.880  28.909  27.920  1.00  0.00     0.037 A 
ATOM     39  C   UNL A   1      39.650  30.642  31.928  1.00  0.00     0.037 A 
ATOM     40  C   UNL A   1      45.444  28.573  29.205  1.00  0.00     0.049 A 
ATOM     41  C   UNL A   1      41.091  30.998  32.018  1.00  0.00     0.074 A 
ATOM     42  C   UNL A   1      45.876  27.403  29.802  1.00  0.00     0.029 A 
ATOM     43  N   UNL A   1      45.291  29.476  30.230  1.00  0.00    -0.354 N 
ATOM     44  N   UNL A   1      41.935  30.425  32.832  1.00  0.00    -0.248 NA
ATOM     45  C   UNL A   1      41.689  31.701  30.893  1.00  0.00     0.031 C 
ATOM     46  C   UNL A   1      45.475  27.515  31.166  1.00  0.00     0.029 A 
ATOM     47  C   UNL A   1      44.890  28.771  31.333  1.00  0.00     0.049 A 
ATOM     48  H   UNL A   1      45.441  30.447  30.180  1.00  0.00     0.167 HD
ATOM     49  C   UNL A   1      43.104  30.309  32.097  1.00  0.00     0.074 A 
ATOM     50  C   UNL A   1      42.924  31.197  30.952  1.00  0.00     0.031 C 
ATOM     51  C   UNL A   1      43.989  29.296  32.333  1.00  0.00     0.037 A 
BRANCH  38  52
ATOM     52  C   UNL A   1      45.179  30.220  27.223  1.00  0.00     0.058 A 
ATOM     53  C   UNL A   1      46.504  30.495  26.825  1.00  0.00     0.135 A 
ATOM     54  C   UNL A   1      44.302  31.330  27.219  1.00  0.00     0.135 A 
ATOM     55  F   UNL A   1      47.424  29.518  26.792  1.00  0.00    -0.206 F 
ATOM     56  C   UNL A   1      46.948  31.788  26.549  1.00  0.00     0.059 A 
ATOM     57  C   UNL A   1      44.711  32.616  26.892  1.00  0.00     0.059 A 
ATOM     58  F   UNL A   1      43.031  31.250  27.626  1.00  0.00    -0.206 F 
ATOM     59  C   UNL A   1      46.044  32.844  26.605  1.00  0.00     0.060 A 
BRANCH  59  60
ATOM     60  S   UNL A   1      46.630  34.528  26.360  1.00  0.00     0.124 S 
ATOM     61  O   UNL A   1      47.207  34.438  25.024  1.00  0.00    -0.237 OA
ATOM     62  O   UNL A   1      45.394  35.295  26.475  1.00  0.00    -0.237 OA
ATOM     63  O   UNL A   1      47.581  34.712  27.452  1.00  0.00    -0.744 OA
ENDBRANCH  59  60
ENDBRANCH  38  52
BRANCH  39  64
ATOM     64  C   UNL A   1      38.572  31.667  32.033  1.00  0.00     0.058 A 
ATOM     65  C   UNL A   1      38.051  32.289  30.881  1.00  0.00     0.135 A 
ATOM     66  C   UNL A   1      37.826  31.844  33.216  1.00  0.00     0.135 A 
ATOM     67  F   UNL A   1      38.684  32.171  29.704  1.00  0.00    -0.206 F 
ATOM     68  C   UNL A   1      36.832  32.979  30.886  1.00  0.00     0.059 A 
ATOM     69  C   UNL A   1      36.619  32.541  33.248  1.00  0.00     0.059 A 
ATOM     70  F   UNL A   1      38.196  31.264  34.366  1.00  0.00    -0.206 F 
ATOM     71  C   UNL A   1      36.110  33.079  32.074  1.00  0.00     0.060 A 
BRANCH  71  72
ATOM     72  S   UNL A   1      34.446  33.788  32.053  1.00  0.00     0.124 S 
ATOM     73  O   UNL A   1      33.715  32.865  32.915  1.00  0.00    -0.237 OA
ATOM     74  O   UNL A   1      34.671  35.124  32.595  1.00  0.00    -0.237 OA
ATOM     75  O   UNL A   1      34.079  33.746  30.640  1.00  0.00    -0.744 OA
ENDBRANCH  71  72
ENDBRANCH  39  64
BRANCH  51  76
ATOM     76  C   UNL A   1      43.888  28.527  33.622  1.00  0.00     0.058 A 
ATOM     77  C   UNL A   1      44.483  28.904  34.838  1.00  0.00     0.135 A 
ATOM     78  C   UNL A   1      43.017  27.426  33.647  1.00  0.00     0.135 A 
ATOM     79  F   UNL A   1      45.247  30.002  34.925  1.00  0.00    -0.206 F 
ATOM     80  C   UNL A   1      44.249  28.194  36.018  1.00  0.00     0.059 A 
ATOM     81  C   UNL A   1      42.743  26.726  34.816  1.00  0.00     0.059 A 
ATOM     82  F   UNL A   1      42.374  27.050  32.529  1.00  0.00    -0.206 F 
ATOM     83  C   UNL A   1      43.372  27.107  35.997  1.00  0.00     0.060 A 
BRANCH  83  84
ATOM     84  S   UNL A   1      43.005  26.240  37.537  1.00  0.00     0.124 S 
ATOM     85  O   UNL A   1      43.401  24.872  37.222  1.00  0.00    -0.237 OA
ATOM     86  O   UNL A   1      43.846  26.938  38.504  1.00  0.00    -0.237 OA
ATOM     87  O   UNL A   1      41.568  26.448  37.713  1.00  0.00    -0.744 OA
ENDBRANCH  83  84
ENDBRANCH  51  76
ENDBRANCH  25  26
ENDBRANCH  18  20
ENDBRANCH  17  18
ENDBRANCH   1  17
TORSDOF 16
ENDMDL
MODEL 3
REMARK VINA RESULT:     -10.2      3.515      5.733
REMARK SMILES Cc1cc(C)n([C@@H](C(=O)OCCOC(=O)c2ccc(-c3c4nc(c(-c5c(F)cc(S(=O)(=O)[O-])cc5F)c5ccc([nH]5)c(-c5c(F)cc(S(=O)(=O)[O-])cc5F)c5nc(c(-c6c(F)cc(S(=O)(=O)[O-])cc6F)c6ccc3[nH]6)C=C5)C=C4)cc2)C(C)C)n1
REMARK SMILES IDX 12 1 11 2 10 3 8 4 9 5 7 6 6 7 1 8 2 9 3 10 85 11 4 12 5 13
REMARK SMILES IDX 82 14 83 15 84 16 13 17 14 18 15 19 16 20 17 21 81 22 18 23
REMARK SMILES IDX 80 24 19 25 20 26 21 27 74 28 22 29 79 30 73 31 75 32 23 33
REMARK SMILES IDX 78 34 72 35 71 36 24 38 58 39 37 40 57 41 38 42 41 43 56 44
REMARK SMILES IDX 76 45 39 46 40 47 55 49 77 50 42 51 25 52 26 53 35 54 27 55
REMARK SMILES IDX 28 56 34 57 36 58 29 59 30 60 31 61 32 62 33 63 59 64 60 65
REMARK SMILES IDX 69 66 61 67 62 68 68 69 70 70 63 71 64 72 65 73 66 74 67 75
REMARK SMILES IDX 43 76 44 77 53 78 45 79 46 80 52 81 54 82 47 83 48 84 49 85
REMARK SMILES IDX 50 86 51 87
REMARK H PARENT 75 37 41 48
REMARK Flexibility Score: inf
ROOT
ATOM      1  C   UNL A   1      32.363  30.089  26.744  1.00  0.00     0.275 C 
ENDROOT
BRANCH   1   2
ATOM      2  C   UNL A   1      31.916  29.846  25.309  1.00  0.00     0.274 C 
BRANCH   2   3
ATOM      3  O   UNL A   1      32.447  28.578  24.877  1.00  0.00    -0.460 OA
BRANCH   3   4
ATOM      4  C   UNL A   1      32.882  28.513  23.592  1.00  0.00     0.331 C 
ATOM      5  O   UNL A   1      33.919  29.051  23.206  1.00  0.00    -0.250 OA
BRANCH   4   6
ATOM      6  C   UNL A   1      31.960  27.736  22.658  1.00  0.00     0.219 C 
BRANCH   6   7
ATOM      7  N   UNL A   1      30.541  28.122  22.775  1.00  0.00    -0.255 N 
ATOM      8  C   UNL A   1      28.034  30.308  21.507  1.00  0.00     0.069 C 
ATOM      9  C   UNL A   1      28.831  29.280  22.209  1.00  0.00     0.060 A 
ATOM     10  C   UNL A   1      28.362  28.296  23.085  1.00  0.00     0.048 A 
ATOM     11  N   UNL A   1      30.151  29.196  22.031  1.00  0.00    -0.177 NA
ATOM     12  C   UNL A   1      29.465  27.541  23.422  1.00  0.00     0.037 A 
ATOM     13  C   UNL A   1      29.457  26.353  24.302  1.00  0.00     0.066 C 
ENDBRANCH   6   7
BRANCH   6  14
ATOM     14  C   UNL A   1      32.226  26.206  22.549  1.00  0.00     0.019 C 
ATOM     15  C   UNL A   1      32.597  25.832  21.107  1.00  0.00     0.010 C 
ATOM     16  C   UNL A   1      33.331  25.690  23.482  1.00  0.00     0.010 C 
ENDBRANCH   6  14
ENDBRANCH   4   6
ENDBRANCH   3   4
ENDBRANCH   2   3
ENDBRANCH   1   2
BRANCH   1  17
ATOM     17  O   UNL A   1      33.779  29.936  26.948  1.00  0.00    -0.458 OA
BRANCH  17  18
ATOM     18  C   UNL A   1      34.373  30.897  27.699  1.00  0.00     0.338 C 
ATOM     19  O   UNL A   1      33.913  31.970  27.999  1.00  0.00    -0.246 OA
BRANCH  18  20
ATOM     20  C   UNL A   1      35.770  30.517  27.983  1.00  0.00     0.060 A 
ATOM     21  C   UNL A   1      36.621  31.520  28.457  1.00  0.00     0.016 A 
ATOM     22  C   UNL A   1      36.251  29.232  27.721  1.00  0.00     0.016 A 
ATOM     23  C   UNL A   1      37.970  31.259  28.592  1.00  0.00     0.010 A 
ATOM     24  C   UNL A   1      37.594  28.953  27.915  1.00  0.00     0.010 A 
ATOM     25  C   UNL A   1      38.454  29.970  28.331  1.00  0.00    -0.014 A 
BRANCH  25  26
ATOM     26  C   UNL A   1      39.811  29.677  28.784  1.00  0.00     0.031 A 
ATOM     27  C   UNL A   1      39.939  29.706  30.270  1.00  0.00     0.074 A 
ATOM     28  C   UNL A   1      40.826  29.267  27.999  1.00  0.00     0.049 A 
ATOM     29  N   UNL A   1      40.631  30.527  30.986  1.00  0.00    -0.248 NA
ATOM     30  C   UNL A   1      39.042  28.839  31.055  1.00  0.00     0.031 C 
ATOM     31  C   UNL A   1      40.781  28.929  26.578  1.00  0.00     0.029 A 
ATOM     32  N   UNL A   1      42.107  28.954  28.349  1.00  0.00    -0.354 N 
ATOM     33  C   UNL A   1      40.450  30.120  32.305  1.00  0.00     0.074 A 
ATOM     34  C   UNL A   1      39.324  29.224  32.300  1.00  0.00     0.031 C 
ATOM     35  C   UNL A   1      41.897  28.239  26.251  1.00  0.00     0.029 A 
ATOM     36  C   UNL A   1      42.787  28.196  27.400  1.00  0.00     0.049 A 
ATOM     37  H   UNL A   1      42.513  29.237  29.199  1.00  0.00     0.167 HD
ATOM     38  C   UNL A   1      41.414  30.333  33.240  1.00  0.00     0.037 A 
ATOM     39  C   UNL A   1      43.958  27.529  27.576  1.00  0.00     0.037 A 
ATOM     40  C   UNL A   1      42.311  31.388  32.835  1.00  0.00     0.049 A 
ATOM     41  C   UNL A   1      44.649  28.152  28.735  1.00  0.00     0.074 A 
ATOM     42  C   UNL A   1      42.151  32.705  32.446  1.00  0.00     0.029 A 
ATOM     43  N   UNL A   1      43.578  31.036  32.436  1.00  0.00    -0.354 N 
ATOM     44  N   UNL A   1      45.132  29.365  28.731  1.00  0.00    -0.248 NA
ATOM     45  C   UNL A   1      44.422  27.577  30.052  1.00  0.00     0.031 C 
ATOM     46  C   UNL A   1      43.111  32.902  31.410  1.00  0.00     0.029 A 
ATOM     47  C   UNL A   1      43.843  31.721  31.280  1.00  0.00     0.049 A 
ATOM     48  H   UNL A   1      44.182  30.409  32.895  1.00  0.00     0.167 HD
ATOM     49  C   UNL A   1      44.849  29.858  29.995  1.00  0.00     0.074 A 
ATOM     50  C   UNL A   1      44.503  28.684  30.793  1.00  0.00     0.031 C 
ATOM     51  C   UNL A   1      44.648  31.192  30.204  1.00  0.00     0.037 A 
BRANCH  38  52
ATOM     52  C   UNL A   1      41.793  29.306  34.287  1.00  0.00     0.058 A 
ATOM     53  C   UNL A   1      42.071  27.985  33.877  1.00  0.00     0.135 A 
ATOM     54  C   UNL A   1      41.585  29.478  35.675  1.00  0.00     0.135 A 
ATOM     55  F   UNL A   1      42.284  27.701  32.582  1.00  0.00    -0.206 F 
ATOM     56  C   UNL A   1      42.038  26.907  34.761  1.00  0.00     0.059 A 
ATOM     57  C   UNL A   1      41.606  28.426  36.579  1.00  0.00     0.059 A 
ATOM     58  F   UNL A   1      41.254  30.656  36.216  1.00  0.00    -0.206 F 
ATOM     59  C   UNL A   1      41.785  27.139  36.109  1.00  0.00     0.060 A 
BRANCH  59  60
ATOM     60  S   UNL A   1      41.631  25.745  37.236  1.00  0.00     0.124 S 
ATOM     61  O   UNL A   1      41.844  24.621  36.331  1.00  0.00    -0.237 OA
ATOM     62  O   UNL A   1      42.702  26.012  38.191  1.00  0.00    -0.237 OA
ATOM     63  O   UNL A   1      40.278  25.890  37.762  1.00  0.00    -0.744 OA
ENDBRANCH  59  60
ENDBRANCH  38  52
BRANCH  39  64
ATOM     64  C   UNL A   1      44.362  26.201  27.032  1.00  0.00     0.058 A 
ATOM     65  C   UNL A   1      43.788  25.012  27.524  1.00  0.00     0.135 A 
ATOM     66  C   UNL A   1      45.089  26.078  25.830  1.00  0.00     0.135 A 
ATOM     67  F   UNL A   1      43.069  25.027  28.657  1.00  0.00    -0.206 F 
ATOM     68  C   UNL A   1      43.865  23.797  26.831  1.00  0.00     0.059 A 
ATOM     69  C   UNL A   1      45.194  24.876  25.132  1.00  0.00     0.059 A 
ATOM     70  F   UNL A   1      45.644  27.147  25.240  1.00  0.00    -0.206 F 
ATOM     71  C   UNL A   1      44.553  23.746  25.620  1.00  0.00     0.060 A 
BRANCH  71  72
ATOM     72  S   UNL A   1      44.491  22.241  24.618  1.00  0.00     0.124 S 
ATOM     73  O   UNL A   1      43.854  21.298  25.531  1.00  0.00    -0.237 OA
ATOM     74  O   UNL A   1      43.690  22.662  23.474  1.00  0.00    -0.237 OA
ATOM     75  O   UNL A   1      45.897  21.973  24.325  1.00  0.00    -0.744 OA
ENDBRANCH  71  72
ENDBRANCH  39  64
BRANCH  51  76
ATOM     76  C   UNL A   1      45.094  32.169  29.151  1.00  0.00     0.058 A 
ATOM     77  C   UNL A   1      46.388  32.706  29.042  1.00  0.00     0.135 A 
ATOM     78  C   UNL A   1      44.191  32.455  28.116  1.00  0.00     0.135 A 
ATOM     79  F   UNL A   1      47.344  32.402  29.933  1.00  0.00    -0.206 F 
ATOM     80  C   UNL A   1      46.753  33.522  27.968  1.00  0.00     0.059 A 
ATOM     81  C   UNL A   1      44.543  33.236  27.020  1.00  0.00     0.059 A 
ATOM     82  F   UNL A   1      42.956  31.926  28.133  1.00  0.00    -0.206 F 
ATOM     83  C   UNL A   1      45.823  33.777  26.959  1.00  0.00     0.060 A 
BRANCH  83  84
ATOM     84  S   UNL A   1      46.319  34.763  25.530  1.00  0.00     0.124 S 
ATOM     85  O   UNL A   1      46.102  36.125  26.005  1.00  0.00    -0.237 OA
ATOM     86  O   UNL A   1      47.713  34.371  25.341  1.00  0.00    -0.237 OA
ATOM     87  O   UNL A   1      45.410  34.318  24.475  1.00  0.00    -0.744 OA
ENDBRANCH  83  84
ENDBRANCH  51  76
ENDBRANCH  25  26
ENDBRANCH  18  20
ENDBRANCH  17  18
ENDBRANCH   1  17
TORSDOF 16
ENDMDL
