MODEL 1
REMARK VINA RESULT:     -12.9      0.000      0.000
REMARK SMILES CC[C@H](NC(=O)Cc1c(C)c2cc(Cl)c(OC)cc2oc1=O)C(=O)OCCOC(=O)c1ccc(-c2c3nc(c(-c4c(F)cc(S(=O)(=O)[O-])cc4F)c4ccc([nH]4)c(-c4c(F)cc(S(=O)(=O)[O-])cc4F)c4nc(c(-c5c(F)cc(S(=O)(=O)[O-])cc5F)c5ccc2[nH]5)C=C4)C=C3)cc1
REMARK SMILES IDX 26 1 25 2 23 3 24 4 3 5 2 6 1 7 4 8 5 9 6 11 7 12 8 13 9 14
REMARK SMILES IDX 21 15 10 16 11 17 20 18 22 19 12 20 19 21 13 22 18 23 14 24
REMARK SMILES IDX 15 25 16 26 17 27 27 28 28 29 29 30 30 31 31 32 32 33 96 34
REMARK SMILES IDX 33 35 95 36 34 37 35 38 36 39 89 40 37 41 94 42 88 43 90 44
REMARK SMILES IDX 38 45 93 46 87 47 86 48 39 50 73 51 52 52 72 53 53 54 56 55
REMARK SMILES IDX 71 56 91 57 54 58 55 59 70 61 92 62 57 63 40 64 41 65 50 66
REMARK SMILES IDX 42 67 43 68 49 69 51 70 44 71 45 72 46 73 47 74 48 75 74 76
REMARK SMILES IDX 75 77 84 78 76 79 77 80 83 81 85 82 78 83 79 84 80 85 81 86
REMARK SMILES IDX 82 87 58 88 59 89 68 90 60 91 61 92 67 93 69 94 62 95 63 96
REMARK SMILES IDX 64 97 65 98 66 99
REMARK H PARENT 4 10 90 49 56 60
REMARK Flexibility Score: inf
ROOT
ATOM      1  C   UNL A   1      33.159  31.064  27.258  1.00  0.00     0.274 C 
ENDROOT
BRANCH   1   2
ATOM      2  O   UNL A   1      33.207  30.325  25.962  1.00  0.00    -0.461 OA
BRANCH   2   3
ATOM      3  C   UNL A   1      33.591  29.017  25.762  1.00  0.00     0.328 C 
ATOM      4  O   UNL A   1      34.379  28.453  26.512  1.00  0.00    -0.250 OA
BRANCH   3   5
ATOM      5  C   UNL A   1      32.663  28.248  24.645  1.00  0.00     0.192 C 
BRANCH   5   6
ATOM      6  C   UNL A   1      32.791  28.898  23.258  1.00  0.00     0.033 C 
ATOM      7  C   UNL A   1      34.114  28.573  22.603  1.00  0.00     0.007 C 
ENDBRANCH   5   6
BRANCH   5   8
ATOM      8  N   UNL A   1      31.241  27.884  24.824  1.00  0.00    -0.342 N 
ATOM      9  C   UNL A   1      30.708  26.705  25.231  1.00  0.00     0.225 C 
ATOM     10  H   UNL A   1      30.593  28.597  24.622  1.00  0.00     0.164 HD
ATOM     11  O   UNL A   1      29.591  26.372  24.833  1.00  0.00    -0.275 OA
BRANCH   9  12
ATOM     12  C   UNL A   1      31.387  25.984  26.336  1.00  0.00     0.143 C 
BRANCH  12  13
ATOM     13  C   UNL A   1      31.684  24.514  26.162  1.00  0.00     0.051 A 
ATOM     14  C   UNL A   1      33.070  24.159  25.515  1.00  0.00    -0.029 A 
ATOM     15  C   UNL A   1      30.385  23.063  26.640  1.00  0.00     0.340 A 
ATOM     16  C   UNL A   1      34.281  25.046  25.611  1.00  0.00     0.046 C 
ATOM     17  C   UNL A   1      33.482  22.449  24.932  1.00  0.00     0.023 A 
ATOM     18  O   UNL A   1      30.821  21.500  25.857  1.00  0.00    -0.422 OA
ATOM     19  O   UNL A   1      29.538  22.962  27.517  1.00  0.00    -0.246 OA
ATOM     20  C   UNL A   1      34.794  22.058  24.805  1.00  0.00     0.036 A 
ATOM     21  C   UNL A   1      32.383  21.162  25.013  1.00  0.00     0.142 A 
ATOM     22  C   UNL A   1      35.054  20.655  24.759  1.00  0.00     0.083 A 
ATOM     23  C   UNL A   1      32.673  19.822  24.920  1.00  0.00     0.095 A 
ATOM     24  Cl  UNL A   1      36.746  20.222  24.849  1.00  0.00    -0.080 Cl
ATOM     25  C   UNL A   1      34.050  19.580  24.796  1.00  0.00     0.141 A 
BRANCH  25  26
ATOM     26  O   UNL A   1      34.586  18.306  24.800  1.00  0.00    -0.495 OA
ATOM     27  C   UNL A   1      33.969  17.318  23.984  1.00  0.00     0.278 C 
ENDBRANCH  25  26
ENDBRANCH  12  13
ENDBRANCH   9  12
ENDBRANCH   5   8
ENDBRANCH   3   5
ENDBRANCH   2   3
ENDBRANCH   1   2
BRANCH   1  28
ATOM     28  C   UNL A   1      34.714  31.627  27.984  1.00  0.00     0.275 C 
BRANCH  28  29
ATOM     29  O   UNL A   1      35.695  30.667  29.457  1.00  0.00    -0.458 OA
BRANCH  29  30
ATOM     30  C   UNL A   1      36.771  30.542  30.414  1.00  0.00     0.338 C 
ATOM     31  O   UNL A   1      36.696  30.627  31.638  1.00  0.00    -0.246 OA
BRANCH  30  32
ATOM     32  C   UNL A   1      37.953  29.903  29.885  1.00  0.00     0.060 A 
ATOM     33  C   UNL A   1      38.239  29.981  28.537  1.00  0.00     0.016 A 
ATOM     34  C   UNL A   1      38.867  29.419  30.832  1.00  0.00     0.016 A 
ATOM     35  C   UNL A   1      39.464  29.537  28.105  1.00  0.00     0.010 A 
ATOM     36  C   UNL A   1      40.134  29.088  30.416  1.00  0.00     0.010 A 
ATOM     37  C   UNL A   1      40.423  29.147  29.050  1.00  0.00    -0.014 A 
BRANCH  37  38
ATOM     38  C   UNL A   1      41.763  28.805  28.581  1.00  0.00     0.031 A 
ATOM     39  C   UNL A   1      42.808  29.865  28.616  1.00  0.00     0.074 A 
ATOM     40  C   UNL A   1      41.974  27.538  28.185  1.00  0.00     0.049 A 
ATOM     41  N   UNL A   1      44.050  29.790  28.241  1.00  0.00    -0.248 NA
ATOM     42  C   UNL A   1      42.405  31.194  29.120  1.00  0.00     0.031 C 
ATOM     43  C   UNL A   1      40.949  26.485  28.133  1.00  0.00     0.029 A 
ATOM     44  N   UNL A   1      43.114  26.906  27.789  1.00  0.00    -0.354 N 
ATOM     45  C   UNL A   1      44.571  31.057  28.446  1.00  0.00     0.074 A 
ATOM     46  C   UNL A   1      43.507  31.902  28.931  1.00  0.00     0.031 C 
ATOM     47  C   UNL A   1      41.527  25.322  27.796  1.00  0.00     0.029 A 
ATOM     48  C   UNL A   1      42.939  25.566  27.540  1.00  0.00     0.049 A 
ATOM     49  H   UNL A   1      43.980  27.365  27.690  1.00  0.00     0.167 HD
ATOM     50  C   UNL A   1      45.847  31.452  28.265  1.00  0.00     0.037 A 
ATOM     51  C   UNL A   1      43.837  24.652  27.138  1.00  0.00     0.037 A 
ATOM     52  C   UNL A   1      46.873  30.551  27.821  1.00  0.00     0.049 A 
ATOM     53  C   UNL A   1      45.247  25.134  26.934  1.00  0.00     0.074 A 
ATOM     54  C   UNL A   1      48.210  30.812  27.599  1.00  0.00     0.029 A 
ATOM     55  N   UNL A   1      46.666  29.204  27.547  1.00  0.00    -0.354 N 
ATOM     56  N   UNL A   1      45.739  26.338  27.132  1.00  0.00    -0.248 NA
ATOM     57  C   UNL A   1      46.220  24.154  26.447  1.00  0.00     0.031 C 
ATOM     58  C   UNL A   1      48.804  29.628  27.154  1.00  0.00     0.029 A 
ATOM     59  C   UNL A   1      47.851  28.619  27.146  1.00  0.00     0.049 A 
ATOM     60  H   UNL A   1      45.803  28.737  27.627  1.00  0.00     0.167 HD
ATOM     61  C   UNL A   1      47.081  26.259  26.801  1.00  0.00     0.074 A 
ATOM     62  C   UNL A   1      47.330  24.881  26.420  1.00  0.00     0.031 C 
ATOM     63  C   UNL A   1      48.027  27.231  26.794  1.00  0.00     0.037 A 
BRANCH  50  64
ATOM     64  C   UNL A   1      46.190  32.883  28.549  1.00  0.00     0.058 A 
ATOM     65  C   UNL A   1      46.100  33.872  27.556  1.00  0.00     0.135 A 
ATOM     66  C   UNL A   1      46.565  33.281  29.841  1.00  0.00     0.135 A 
ATOM     67  F   UNL A   1      45.789  33.538  26.294  1.00  0.00    -0.206 F 
ATOM     68  C   UNL A   1      46.357  35.208  27.839  1.00  0.00     0.059 A 
ATOM     69  C   UNL A   1      46.802  34.615  30.153  1.00  0.00     0.059 A 
ATOM     70  F   UNL A   1      46.693  32.369  30.818  1.00  0.00    -0.206 F 
ATOM     71  C   UNL A   1      46.690  35.572  29.145  1.00  0.00     0.060 A 
BRANCH  71  72
ATOM     72  S   UNL A   1      46.935  37.323  29.509  1.00  0.00     0.124 S 
ATOM     73  O   UNL A   1      45.982  37.950  28.597  1.00  0.00    -0.237 OA
ATOM     74  O   UNL A   1      46.594  37.392  30.926  1.00  0.00    -0.237 OA
ATOM     75  O   UNL A   1      48.342  37.545  29.192  1.00  0.00    -0.744 OA
ENDBRANCH  71  72
ENDBRANCH  50  64
BRANCH  51  76
ATOM     76  C   UNL A   1      43.431  23.242  26.897  1.00  0.00     0.058 A 
ATOM     77  C   UNL A   1      43.132  22.378  27.960  1.00  0.00     0.135 A 
ATOM     78  C   UNL A   1      43.321  22.729  25.593  1.00  0.00     0.135 A 
ATOM     79  F   UNL A   1      43.212  22.817  29.225  1.00  0.00    -0.206 F 
ATOM     80  C   UNL A   1      42.772  21.051  27.744  1.00  0.00     0.059 A 
ATOM     81  C   UNL A   1      42.933  21.415  25.350  1.00  0.00     0.059 A 
ATOM     82  F   UNL A   1      43.571  23.517  24.536  1.00  0.00    -0.206 F 
ATOM     83  C   UNL A   1      42.680  20.578  26.434  1.00  0.00     0.060 A 
BRANCH  83  84
ATOM     84  S   UNL A   1      42.218  18.853  26.165  1.00  0.00     0.124 S 
ATOM     85  O   UNL A   1      40.820  18.982  25.771  1.00  0.00    -0.237 OA
ATOM     86  O   UNL A   1      43.143  18.448  25.111  1.00  0.00    -0.237 OA
ATOM     87  O   UNL A   1      42.451  18.234  27.467  1.00  0.00    -0.744 OA
ENDBRANCH  83  84
ENDBRANCH  51  76
BRANCH  63  88
ATOM     88  C   UNL A   1      49.407  26.822  26.378  1.00  0.00     0.058 A 
ATOM     89  C   UNL A   1      50.305  26.259  27.295  1.00  0.00     0.135 A 
ATOM     90  C   UNL A   1      49.793  26.912  25.032  1.00  0.00     0.135 A 
ATOM     91  F   UNL A   1      49.975  26.160  28.593  1.00  0.00    -0.206 F 
ATOM     92  C   UNL A   1      51.554  25.810  26.893  1.00  0.00     0.059 A 
ATOM     93  C   UNL A   1      51.025  26.440  24.602  1.00  0.00     0.059 A 
ATOM     94  F   UNL A   1      48.956  27.431  24.119  1.00  0.00    -0.206 F 
ATOM     95  C   UNL A   1      51.901  25.898  25.542  1.00  0.00     0.060 A 
BRANCH  95  96
ATOM     96  S   UNL A   1      53.507  25.259  25.030  1.00  0.00     0.124 S 
ATOM     97  O   UNL A   1      53.359  23.835  25.310  1.00  0.00    -0.237 OA
ATOM     98  O   UNL A   1      53.550  25.629  23.618  1.00  0.00    -0.237 OA
ATOM     99  O   UNL A   1      54.446  25.974  25.889  1.00  0.00    -0.744 OA
ENDBRANCH  95  96
ENDBRANCH  63  88
ENDBRANCH  37  38
ENDBRANCH  30  32
ENDBRANCH  29  30
ENDBRANCH  28  29
ENDBRANCH   1  28
TORSDOF 19
ENDMDL
MODEL 2
REMARK VINA RESULT:     -12.9      1.589      2.250
REMARK SMILES CC[C@H](NC(=O)Cc1c(C)c2cc(Cl)c(OC)cc2oc1=O)C(=O)OCCOC(=O)c1ccc(-c2c3nc(c(-c4c(F)cc(S(=O)(=O)[O-])cc4F)c4ccc([nH]4)c(-c4c(F)cc(S(=O)(=O)[O-])cc4F)c4nc(c(-c5c(F)cc(S(=O)(=O)[O-])cc5F)c5ccc2[nH]5)C=C4)C=C3)cc1
REMARK SMILES IDX 26 1 25 2 23 3 24 4 3 5 2 6 1 7 4 8 5 9 6 11 7 12 8 13 9 14
REMARK SMILES IDX 21 15 10 16 11 17 20 18 22 19 12 20 19 21 13 22 18 23 14 24
REMARK SMILES IDX 15 25 16 26 17 27 27 28 28 29 29 30 30 31 31 32 32 33 96 34
REMARK SMILES IDX 33 35 95 36 34 37 35 38 36 39 89 40 37 41 94 42 88 43 90 44
REMARK SMILES IDX 38 45 93 46 87 47 86 48 39 50 73 51 52 52 72 53 53 54 56 55
REMARK SMILES IDX 71 56 91 57 54 58 55 59 70 61 92 62 57 63 40 64 41 65 50 66
REMARK SMILES IDX 42 67 43 68 49 69 51 70 44 71 45 72 46 73 47 74 48 75 74 76
REMARK SMILES IDX 75 77 84 78 76 79 77 80 83 81 85 82 78 83 79 84 80 85 81 86
REMARK SMILES IDX 82 87 58 88 59 89 68 90 60 91 61 92 67 93 69 94 62 95 63 96
REMARK SMILES IDX 64 97 65 98 66 99
REMARK H PARENT 4 10 90 49 56 60
REMARK Flexibility Score: inf
ROOT
ATOM      1  C   UNL A   1      33.233  31.281  27.469  1.00  0.00     0.274 C 
ENDROOT
BRANCH   1   2
ATOM      2  O   UNL A   1      32.155  30.719  26.605  1.00  0.00    -0.461 OA
BRANCH   2   3
ATOM      3  C   UNL A   1      31.832  29.390  26.433  1.00  0.00     0.328 C 
ATOM      4  O   UNL A   1      31.387  28.709  27.350  1.00  0.00    -0.250 OA
BRANCH   3   5
ATOM      5  C   UNL A   1      31.813  28.942  24.853  1.00  0.00     0.192 C 
BRANCH   5   6
ATOM      6  C   UNL A   1      33.122  29.317  24.140  1.00  0.00     0.033 C 
ATOM      7  C   UNL A   1      34.112  28.175  24.142  1.00  0.00     0.007 C 
ENDBRANCH   5   6
BRANCH   5   8
ATOM      8  N   UNL A   1      30.711  29.212  23.905  1.00  0.00    -0.342 N 
ATOM      9  C   UNL A   1      30.178  28.394  22.962  1.00  0.00     0.225 C 
ATOM     10  H   UNL A   1      30.307  30.107  23.968  1.00  0.00     0.164 HD
ATOM     11  O   UNL A   1      29.689  28.880  21.941  1.00  0.00    -0.275 OA
BRANCH   9  12
ATOM     12  C   UNL A   1      29.982  26.967  23.316  1.00  0.00     0.143 C 
BRANCH  12  13
ATOM     13  C   UNL A   1      31.199  26.079  23.428  1.00  0.00     0.051 A 
ATOM     14  C   UNL A   1      31.510  25.507  24.857  1.00  0.00    -0.029 A 
ATOM     15  C   UNL A   1      32.423  25.687  21.889  1.00  0.00     0.340 A 
ATOM     16  C   UNL A   1      30.456  25.278  25.905  1.00  0.00     0.046 C 
ATOM     17  C   UNL A   1      33.113  24.672  25.262  1.00  0.00     0.023 A 
ATOM     18  O   UNL A   1      34.009  25.043  22.452  1.00  0.00    -0.422 OA
ATOM     19  O   UNL A   1      32.233  25.562  20.687  1.00  0.00    -0.246 OA
ATOM     20  C   UNL A   1      33.192  23.801  26.325  1.00  0.00     0.036 A 
ATOM     21  C   UNL A   1      34.371  24.504  24.139  1.00  0.00     0.142 A 
ATOM     22  C   UNL A   1      34.294  22.894  26.343  1.00  0.00     0.083 A 
ATOM     23  C   UNL A   1      35.441  23.645  24.219  1.00  0.00     0.095 A 
ATOM     24  Cl  UNL A   1      34.201  21.658  27.576  1.00  0.00    -0.080 Cl
ATOM     25  C   UNL A   1      35.381  22.821  25.354  1.00  0.00     0.141 A 
BRANCH  25  26
ATOM     26  O   UNL A   1      36.287  21.803  25.584  1.00  0.00    -0.495 OA
ATOM     27  C   UNL A   1      37.458  21.754  24.777  1.00  0.00     0.278 C 
ENDBRANCH  25  26
ENDBRANCH  12  13
ENDBRANCH   9  12
ENDBRANCH   5   8
ENDBRANCH   3   5
ENDBRANCH   2   3
ENDBRANCH   1   2
BRANCH   1  28
ATOM     28  C   UNL A   1      34.858  30.493  27.438  1.00  0.00     0.275 C 
BRANCH  28  29
ATOM     29  O   UNL A   1      35.733  29.628  29.032  1.00  0.00    -0.458 OA
BRANCH  29  30
ATOM     30  C   UNL A   1      36.611  29.642  30.180  1.00  0.00     0.338 C 
ATOM     31  O   UNL A   1      36.325  29.369  31.343  1.00  0.00    -0.246 OA
BRANCH  30  32
ATOM     32  C   UNL A   1      38.015  29.625  29.842  1.00  0.00     0.060 A 
ATOM     33  C   UNL A   1      38.953  29.268  30.789  1.00  0.00     0.016 A 
ATOM     34  C   UNL A   1      38.322  29.767  28.480  1.00  0.00     0.016 A 
ATOM     35  C   UNL A   1      40.248  29.070  30.380  1.00  0.00     0.010 A 
ATOM     36  C   UNL A   1      39.590  29.453  28.054  1.00  0.00     0.010 A 
ATOM     37  C   UNL A   1      40.548  29.108  29.011  1.00  0.00    -0.014 A 
BRANCH  37  38
ATOM     38  C   UNL A   1      41.901  28.766  28.585  1.00  0.00     0.031 A 
ATOM     39  C   UNL A   1      42.947  29.822  28.665  1.00  0.00     0.074 A 
ATOM     40  C   UNL A   1      42.123  27.502  28.185  1.00  0.00     0.049 A 
ATOM     41  N   UNL A   1      44.202  29.747  28.332  1.00  0.00    -0.248 NA
ATOM     42  C   UNL A   1      42.531  31.148  29.166  1.00  0.00     0.031 C 
ATOM     43  C   UNL A   1      41.097  26.452  28.089  1.00  0.00     0.029 A 
ATOM     44  N   UNL A   1      43.274  26.870  27.823  1.00  0.00    -0.354 N 
ATOM     45  C   UNL A   1      44.719  31.011  28.566  1.00  0.00     0.074 A 
ATOM     46  C   UNL A   1      43.642  31.854  29.021  1.00  0.00     0.031 C 
ATOM     47  C   UNL A   1      41.683  25.291  27.762  1.00  0.00     0.029 A 
ATOM     48  C   UNL A   1      43.103  25.532  27.556  1.00  0.00     0.049 A 
ATOM     49  H   UNL A   1      44.144  27.327  27.758  1.00  0.00     0.167 HD
ATOM     50  C   UNL A   1      46.002  31.403  28.432  1.00  0.00     0.037 A 
ATOM     51  C   UNL A   1      44.013  24.619  27.178  1.00  0.00     0.037 A 
ATOM     52  C   UNL A   1      47.040  30.503  28.015  1.00  0.00     0.049 A 
ATOM     53  C   UNL A   1      45.430  25.098  27.026  1.00  0.00     0.074 A 
ATOM     54  C   UNL A   1      48.384  30.761  27.842  1.00  0.00     0.029 A 
ATOM     55  N   UNL A   1      46.839  29.158  27.723  1.00  0.00    -0.354 N 
ATOM     56  N   UNL A   1      45.918  26.299  27.251  1.00  0.00    -0.248 NA
ATOM     57  C   UNL A   1      46.417  24.119  26.565  1.00  0.00     0.031 C 
ATOM     58  C   UNL A   1      48.990  29.579  27.408  1.00  0.00     0.029 A 
ATOM     59  C   UNL A   1      48.034  28.573  27.358  1.00  0.00     0.049 A 
ATOM     60  H   UNL A   1      45.972  28.693  27.770  1.00  0.00     0.167 HD
ATOM     61  C   UNL A   1      47.271  26.219  26.966  1.00  0.00     0.074 A 
ATOM     62  C   UNL A   1      47.529  24.843  26.582  1.00  0.00     0.031 C 
ATOM     63  C   UNL A   1      48.219  27.188  27.000  1.00  0.00     0.037 A 
BRANCH  50  64
ATOM     64  C   UNL A   1      46.339  32.830  28.740  1.00  0.00     0.058 A 
ATOM     65  C   UNL A   1      46.754  33.228  30.020  1.00  0.00     0.135 A 
ATOM     66  C   UNL A   1      46.294  33.804  27.731  1.00  0.00     0.135 A 
ATOM     67  F   UNL A   1      46.772  32.345  31.032  1.00  0.00    -0.206 F 
ATOM     68  C   UNL A   1      47.128  34.540  30.287  1.00  0.00     0.059 A 
ATOM     69  C   UNL A   1      46.688  35.117  27.968  1.00  0.00     0.059 A 
ATOM     70  F   UNL A   1      45.877  33.481  26.497  1.00  0.00    -0.206 F 
ATOM     71  C   UNL A   1      47.108  35.473  29.249  1.00  0.00     0.060 A 
BRANCH  71  72
ATOM     72  S   UNL A   1      47.679  37.150  29.595  1.00  0.00     0.124 S 
ATOM     73  O   UNL A   1      46.653  37.953  28.934  1.00  0.00    -0.237 OA
ATOM     74  O   UNL A   1      47.665  37.183  31.054  1.00  0.00    -0.237 OA
ATOM     75  O   UNL A   1      49.001  37.196  28.982  1.00  0.00    -0.744 OA
ENDBRANCH  71  72
ENDBRANCH  50  64
BRANCH  51  76
ATOM     76  C   UNL A   1      43.611  23.213  26.911  1.00  0.00     0.058 A 
ATOM     77  C   UNL A   1      43.357  22.316  27.959  1.00  0.00     0.135 A 
ATOM     78  C   UNL A   1      43.460  22.735  25.598  1.00  0.00     0.135 A 
ATOM     79  F   UNL A   1      43.477  22.720  29.232  1.00  0.00    -0.206 F 
ATOM     80  C   UNL A   1      43.002  20.991  27.717  1.00  0.00     0.059 A 
ATOM     81  C   UNL A   1      43.075  21.426  25.331  1.00  0.00     0.059 A 
ATOM     82  F   UNL A   1      43.665  23.555  24.555  1.00  0.00    -0.206 F 
ATOM     83  C   UNL A   1      42.868  20.555  26.398  1.00  0.00     0.060 A 
BRANCH  83  84
ATOM     84  S   UNL A   1      42.413  18.834  26.096  1.00  0.00     0.124 S 
ATOM     85  O   UNL A   1      43.404  18.439  25.102  1.00  0.00    -0.237 OA
ATOM     86  O   UNL A   1      42.565  18.239  27.420  1.00  0.00    -0.237 OA
ATOM     87  O   UNL A   1      41.038  18.928  25.612  1.00  0.00    -0.744 OA
ENDBRANCH  83  84
ENDBRANCH  51  76
BRANCH  63  88
ATOM     88  C   UNL A   1      49.611  26.778  26.628  1.00  0.00     0.058 A 
ATOM     89  C   UNL A   1      50.530  26.362  27.601  1.00  0.00     0.135 A 
ATOM     90  C   UNL A   1      49.992  26.718  25.279  1.00  0.00     0.135 A 
ATOM     91  F   UNL A   1      50.206  26.409  28.903  1.00  0.00    -0.206 F 
ATOM     92  C   UNL A   1      51.792  25.909  27.248  1.00  0.00     0.059 A 
ATOM     93  C   UNL A   1      51.238  26.238  24.901  1.00  0.00     0.059 A 
ATOM     94  F   UNL A   1      49.135  27.094  24.315  1.00  0.00    -0.206 F 
ATOM     95  C   UNL A   1      52.133  25.844  25.895  1.00  0.00     0.060 A 
BRANCH  95  96
ATOM     96  S   UNL A   1      53.759  25.203  25.454  1.00  0.00     0.124 S 
ATOM     97  O   UNL A   1      54.310  24.876  26.764  1.00  0.00    -0.237 OA
ATOM     98  O   UNL A   1      53.422  24.065  24.604  1.00  0.00    -0.237 OA
ATOM     99  O   UNL A   1      54.392  26.325  24.768  1.00  0.00    -0.744 OA
ENDBRANCH  95  96
ENDBRANCH  63  88
ENDBRANCH  37  38
ENDBRANCH  30  32
ENDBRANCH  29  30
ENDBRANCH  28  29
ENDBRANCH   1  28
TORSDOF 19
ENDMDL
MODEL 3
REMARK VINA RESULT:     -12.7      6.654     12.284
REMARK SMILES CC[C@H](NC(=O)Cc1c(C)c2cc(Cl)c(OC)cc2oc1=O)C(=O)OCCOC(=O)c1ccc(-c2c3nc(c(-c4c(F)cc(S(=O)(=O)[O-])cc4F)c4ccc([nH]4)c(-c4c(F)cc(S(=O)(=O)[O-])cc4F)c4nc(c(-c5c(F)cc(S(=O)(=O)[O-])cc5F)c5ccc2[nH]5)C=C4)C=C3)cc1
REMARK SMILES IDX 26 1 25 2 23 3 24 4 3 5 2 6 1 7 4 8 5 9 6 11 7 12 8 13 9 14
REMARK SMILES IDX 21 15 10 16 11 17 20 18 22 19 12 20 19 21 13 22 18 23 14 24
REMARK SMILES IDX 15 25 16 26 17 27 27 28 28 29 29 30 30 31 31 32 32 33 96 34
REMARK SMILES IDX 33 35 95 36 34 37 35 38 36 39 89 40 37 41 94 42 88 43 90 44
REMARK SMILES IDX 38 45 93 46 87 47 86 48 39 50 73 51 52 52 72 53 53 54 56 55
REMARK SMILES IDX 71 56 91 57 54 58 55 59 70 61 92 62 57 63 40 64 41 65 50 66
REMARK SMILES IDX 42 67 43 68 49 69 51 70 44 71 45 72 46 73 47 74 48 75 74 76
REMARK SMILES IDX 75 77 84 78 76 79 77 80 83 81 85 82 78 83 79 84 80 85 81 86
REMARK SMILES IDX 82 87 58 88 59 89 68 90 60 91 61 92 67 93 69 94 62 95 63 96
REMARK SMILES IDX 64 97 65 98 66 99
REMARK H PARENT 4 10 90 49 56 60
REMARK Flexibility Score: inf
ROOT
ATOM      1  C   UNL A   1      36.947  22.287  25.729  1.00  0.00     0.274 C 
ENDROOT
BRANCH   1   2
ATOM      2  O   UNL A   1      35.511  22.299  25.325  1.00  0.00    -0.461 OA
BRANCH   2   3
ATOM      3  C   UNL A   1      34.429  21.901  26.080  1.00  0.00     0.328 C 
ATOM      4  O   UNL A   1      34.515  21.725  27.290  1.00  0.00    -0.250 OA
BRANCH   3   5
ATOM      5  C   UNL A   1      33.010  22.002  25.257  1.00  0.00     0.192 C 
BRANCH   5   6
ATOM      6  C   UNL A   1      33.228  22.451  23.803  1.00  0.00     0.033 C 
ATOM      7  C   UNL A   1      32.047  22.106  22.924  1.00  0.00     0.007 C 
ENDBRANCH   5   6
BRANCH   5   8
ATOM      8  N   UNL A   1      31.791  22.682  25.743  1.00  0.00    -0.342 N 
ATOM      9  C   UNL A   1      31.674  23.884  26.361  1.00  0.00     0.225 C 
ATOM     10  H   UNL A   1      30.947  22.196  25.596  1.00  0.00     0.164 HD
ATOM     11  O   UNL A   1      30.754  24.073  27.157  1.00  0.00    -0.275 OA
BRANCH   9  12
ATOM     12  C   UNL A   1      32.513  25.002  25.862  1.00  0.00     0.143 C 
BRANCH  12  13
ATOM     13  C   UNL A   1      31.881  26.364  25.709  1.00  0.00     0.051 A 
ATOM     14  C   UNL A   1      31.265  26.688  24.301  1.00  0.00    -0.029 A 
ATOM     15  C   UNL A   1      31.872  27.745  27.162  1.00  0.00     0.340 A 
ATOM     16  C   UNL A   1      30.743  25.634  23.363  1.00  0.00     0.046 C 
ATOM     17  C   UNL A   1      30.736  28.397  23.820  1.00  0.00     0.023 A 
ATOM     18  O   UNL A   1      31.513  29.387  26.512  1.00  0.00    -0.422 OA
ATOM     19  O   UNL A   1      31.812  27.668  28.382  1.00  0.00    -0.246 OA
ATOM     20  C   UNL A   1      29.814  28.580  22.816  1.00  0.00     0.036 A 
ATOM     21  C   UNL A   1      30.918  29.736  24.841  1.00  0.00     0.142 A 
ATOM     22  C   UNL A   1      29.147  29.841  22.767  1.00  0.00     0.083 A 
ATOM     23  C   UNL A   1      30.286  30.952  24.731  1.00  0.00     0.095 A 
ATOM     24  Cl  UNL A   1      27.818  29.921  21.632  1.00  0.00    -0.080 Cl
ATOM     25  C   UNL A   1      29.375  30.985  23.663  1.00  0.00     0.141 A 
BRANCH  25  26
ATOM     26  O   UNL A   1      28.543  32.064  23.427  1.00  0.00    -0.495 OA
ATOM     27  C   UNL A   1      29.013  33.096  22.570  1.00  0.00     0.278 C 
ENDBRANCH  25  26
ENDBRANCH  12  13
ENDBRANCH   9  12
ENDBRANCH   5   8
ENDBRANCH   3   5
ENDBRANCH   2   3
ENDBRANCH   1   2
BRANCH   1  28
ATOM     28  C   UNL A   1      37.786  23.869  25.967  1.00  0.00     0.275 C 
BRANCH  28  29
ATOM     29  O   UNL A   1      39.717  24.063  26.503  1.00  0.00    -0.458 OA
BRANCH  29  30
ATOM     30  C   UNL A   1      40.861  24.840  26.923  1.00  0.00     0.338 C 
ATOM     31  O   UNL A   1      41.969  24.884  26.395  1.00  0.00    -0.246 OA
BRANCH  30  32
ATOM     32  C   UNL A   1      40.534  25.920  27.824  1.00  0.00     0.060 A 
ATOM     33  C   UNL A   1      39.498  25.783  28.725  1.00  0.00     0.016 A 
ATOM     34  C   UNL A   1      41.452  26.980  27.872  1.00  0.00     0.016 A 
ATOM     35  C   UNL A   1      39.346  26.745  29.693  1.00  0.00     0.010 A 
ATOM     36  C   UNL A   1      41.372  27.875  28.912  1.00  0.00     0.010 A 
ATOM     37  C   UNL A   1      40.314  27.751  29.817  1.00  0.00    -0.014 A 
BRANCH  37  38
ATOM     38  C   UNL A   1      40.208  28.685  30.933  1.00  0.00     0.031 A 
ATOM     39  C   UNL A   1      41.167  28.539  32.062  1.00  0.00     0.074 A 
ATOM     40  C   UNL A   1      39.270  29.646  30.849  1.00  0.00     0.049 A 
ATOM     41  N   UNL A   1      41.249  29.242  33.152  1.00  0.00    -0.248 NA
ATOM     42  C   UNL A   1      42.158  27.447  31.968  1.00  0.00     0.031 C 
ATOM     43  C   UNL A   1      38.307  29.795  29.747  1.00  0.00     0.029 A 
ATOM     44  N   UNL A   1      38.993  30.696  31.671  1.00  0.00    -0.354 N 
ATOM     45  C   UNL A   1      42.282  28.671  33.879  1.00  0.00     0.074 A 
ATOM     46  C   UNL A   1      42.770  27.535  33.139  1.00  0.00     0.031 C 
ATOM     47  C   UNL A   1      37.595  30.915  29.932  1.00  0.00     0.029 A 
ATOM     48  C   UNL A   1      38.000  31.517  31.194  1.00  0.00     0.049 A 
ATOM     49  H   UNL A   1      39.457  30.850  32.525  1.00  0.00     0.167 HD
ATOM     50  C   UNL A   1      42.783  29.099  35.054  1.00  0.00     0.037 A 
ATOM     51  C   UNL A   1      37.481  32.629  31.740  1.00  0.00     0.037 A 
ATOM     52  C   UNL A   1      42.282  30.267  35.723  1.00  0.00     0.049 A 
ATOM     53  C   UNL A   1      38.058  33.067  33.058  1.00  0.00     0.074 A 
ATOM     54  C   UNL A   1      42.698  30.821  36.916  1.00  0.00     0.029 A 
ATOM     55  N   UNL A   1      41.256  31.068  35.234  1.00  0.00    -0.354 N 
ATOM     56  N   UNL A   1      39.040  32.524  33.744  1.00  0.00    -0.248 NA
ATOM     57  C   UNL A   1      37.463  34.250  33.684  1.00  0.00     0.031 C 
ATOM     58  C   UNL A   1      41.896  31.937  37.168  1.00  0.00     0.029 A 
ATOM     59  C   UNL A   1      41.015  32.108  36.109  1.00  0.00     0.049 A 
ATOM     60  H   UNL A   1      40.773  30.916  34.390  1.00  0.00     0.167 HD
ATOM     61  C   UNL A   1      39.187  33.302  34.881  1.00  0.00     0.074 A 
ATOM     62  C   UNL A   1      38.212  34.373  34.773  1.00  0.00     0.031 C 
ATOM     63  C   UNL A   1      40.033  33.150  35.929  1.00  0.00     0.037 A 
BRANCH  50  64
ATOM     64  C   UNL A   1      43.908  28.322  35.666  1.00  0.00     0.058 A 
ATOM     65  C   UNL A   1      45.250  28.625  35.388  1.00  0.00     0.135 A 
ATOM     66  C   UNL A   1      43.644  27.292  36.582  1.00  0.00     0.135 A 
ATOM     67  F   UNL A   1      45.557  29.572  34.486  1.00  0.00    -0.206 F 
ATOM     68  C   UNL A   1      46.292  27.944  36.006  1.00  0.00     0.059 A 
ATOM     69  C   UNL A   1      44.670  26.614  37.232  1.00  0.00     0.059 A 
ATOM     70  F   UNL A   1      42.378  26.944  36.861  1.00  0.00    -0.206 F 
ATOM     71  C   UNL A   1      45.991  26.952  36.941  1.00  0.00     0.060 A 
BRANCH  71  72
ATOM     72  S   UNL A   1      47.357  26.140  37.796  1.00  0.00     0.124 S 
ATOM     73  O   UNL A   1      48.501  26.562  36.992  1.00  0.00    -0.237 OA
ATOM     74  O   UNL A   1      47.273  26.723  39.131  1.00  0.00    -0.237 OA
ATOM     75  O   UNL A   1      47.021  24.723  37.710  1.00  0.00    -0.744 OA
ENDBRANCH  71  72
ENDBRANCH  50  64
BRANCH  51  76
ATOM     76  C   UNL A   1      36.381  33.365  31.065  1.00  0.00     0.058 A 
ATOM     77  C   UNL A   1      36.606  34.098  29.890  1.00  0.00     0.135 A 
ATOM     78  C   UNL A   1      35.071  33.343  31.574  1.00  0.00     0.135 A 
ATOM     79  F   UNL A   1      37.835  34.146  29.355  1.00  0.00    -0.206 F 
ATOM     80  C   UNL A   1      35.585  34.807  29.264  1.00  0.00     0.059 A 
ATOM     81  C   UNL A   1      34.027  34.018  30.949  1.00  0.00     0.059 A 
ATOM     82  F   UNL A   1      34.790  32.639  32.682  1.00  0.00    -0.206 F 
ATOM     83  C   UNL A   1      34.298  34.764  29.805  1.00  0.00     0.060 A 
BRANCH  83  84
ATOM     84  S   UNL A   1      32.983  35.694  28.988  1.00  0.00     0.124 S 
ATOM     85  O   UNL A   1      32.183  36.130  30.127  1.00  0.00    -0.237 OA
ATOM     86  O   UNL A   1      33.730  36.738  28.295  1.00  0.00    -0.237 OA
ATOM     87  O   UNL A   1      32.355  34.700  28.122  1.00  0.00    -0.744 OA
ENDBRANCH  83  84
ENDBRANCH  51  76
BRANCH  63  88
ATOM     88  C   UNL A   1      39.943  34.173  37.019  1.00  0.00     0.058 A 
ATOM     89  C   UNL A   1      40.582  35.415  36.903  1.00  0.00     0.135 A 
ATOM     90  C   UNL A   1      39.135  33.938  38.142  1.00  0.00     0.135 A 
ATOM     91  F   UNL A   1      41.368  35.677  35.846  1.00  0.00    -0.206 F 
ATOM     92  C   UNL A   1      40.435  36.391  37.878  1.00  0.00     0.059 A 
ATOM     93  C   UNL A   1      38.948  34.912  39.113  1.00  0.00     0.059 A 
ATOM     94  F   UNL A   1      38.494  32.767  38.283  1.00  0.00    -0.206 F 
ATOM     95  C   UNL A   1      39.609  36.132  38.975  1.00  0.00     0.060 A 
BRANCH  95  96
ATOM     96  S   UNL A   1      39.387  37.432  40.203  1.00  0.00     0.124 S 
ATOM     97  O   UNL A   1      38.538  38.374  39.483  1.00  0.00    -0.237 OA
ATOM     98  O   UNL A   1      38.751  36.713  41.302  1.00  0.00    -0.237 OA
ATOM     99  O   UNL A   1      40.749  37.888  40.465  1.00  0.00    -0.744 OA
ENDBRANCH  95  96
ENDBRANCH  63  88
ENDBRANCH  37  38
ENDBRANCH  30  32
ENDBRANCH  29  30
ENDBRANCH  28  29
ENDBRANCH   1  28
TORSDOF 19
ENDMDL
