MODEL 1
REMARK VINA RESULT:     -13.4      0.000      0.000
REMARK SMILES CC(C)[C@H](NC(=O)c1cc2cc(Cl)ccc2n1C)C(=O)N[C@@H](C(=O)OCCOC(=O)c1ccc(-c2c3nc(c(-c4c(F)cc(S(=O)(=O)[O-])cc4F)c4ccc([nH]4)c(-c4c(F)cc(S(=O)(=O)[O-])cc4F)c4nc(c(-c5c(F)cc(S(=O)(=O)[O-])cc5F)c5ccc2[nH]5)C=C4)C=C3)cc1)c1ccccc1
REMARK SMILES IDX 26 1 25 2 23 3 24 4 22 5 21 6 19 7 20 8 4 10 2 11 1 12 3 13
REMARK SMILES IDX 5 14 6 15 7 17 8 18 9 19 17 20 10 21 16 22 18 23 11 24 15 25
REMARK SMILES IDX 12 26 14 27 13 28 97 29 98 30 102 31 99 32 101 33 100 34
REMARK SMILES IDX 27 35 28 36 29 37 30 38 31 39 32 40 96 41 33 42 95 43 34 44
REMARK SMILES IDX 35 45 36 46 89 47 37 48 94 49 88 50 90 51 38 52 93 53 87 54
REMARK SMILES IDX 86 55 39 57 73 58 52 59 72 60 53 61 56 62 71 63 91 64 54 65
REMARK SMILES IDX 55 66 70 68 92 69 57 70 40 71 41 72 50 73 42 74 43 75 49 76
REMARK SMILES IDX 51 77 44 78 45 79 46 80 47 81 48 82 74 83 75 84 84 85 76 86
REMARK SMILES IDX 77 87 83 88 85 89 78 90 79 91 80 92 81 93 82 94 58 95 59 96
REMARK SMILES IDX 68 97 60 98 61 99 67 100 69 101 62 102 63 103 64 104 65 105
REMARK SMILES IDX 66 106
REMARK H PARENT 21 9 5 16 90 56 56 67
REMARK Flexibility Score: inf
ROOT
ATOM      1  C   UNL A   1      37.614  22.195  25.365  1.00  0.00     0.274 C 
ENDROOT
BRANCH   1   2
ATOM      2  O   UNL A   1      36.813  21.652  24.271  1.00  0.00    -0.460 OA
BRANCH   2   3
ATOM      3  C   UNL A   1      35.885  22.507  23.751  1.00  0.00     0.333 C 
ATOM      4  O   UNL A   1      36.143  23.328  22.869  1.00  0.00    -0.249 OA
BRANCH   3   5
ATOM      5  C   UNL A   1      34.483  22.426  24.359  1.00  0.00     0.223 C 
BRANCH   5   6
ATOM      6  N   UNL A   1      34.288  23.071  25.634  1.00  0.00    -0.337 N 
ATOM      7  C   UNL A   1      33.143  23.750  25.959  1.00  0.00     0.243 C 
ATOM      8  O   UNL A   1      32.698  23.575  27.096  1.00  0.00    -0.273 OA
ATOM      9  H   UNL A   1      35.010  23.021  26.301  1.00  0.00     0.164 HD
BRANCH   7  10
ATOM     10  C   UNL A   1      32.422  24.670  24.933  1.00  0.00     0.174 C 
BRANCH  10  11
ATOM     11  C   UNL A   1      30.926  24.349  24.692  1.00  0.00     0.015 C 
ATOM     12  C   UNL A   1      29.960  25.466  25.069  1.00  0.00     0.010 C 
ATOM     13  C   UNL A   1      30.603  23.780  23.305  1.00  0.00     0.010 C 
ENDBRANCH  10  11
BRANCH  10  14
ATOM     14  N   UNL A   1      33.195  24.800  23.684  1.00  0.00    -0.339 N 
ATOM     15  C   UNL A   1      33.220  25.815  22.768  1.00  0.00     0.268 C 
ATOM     16  H   UNL A   1      33.784  24.038  23.477  1.00  0.00     0.164 HD
ATOM     17  O   UNL A   1      33.936  25.701  21.777  1.00  0.00    -0.268 OA
BRANCH  15  18
ATOM     18  C   UNL A   1      32.367  26.955  22.974  1.00  0.00     0.107 A 
ATOM     19  C   UNL A   1      31.254  27.281  22.216  1.00  0.00     0.042 A 
ATOM     20  N   UNL A   1      32.550  27.996  23.855  1.00  0.00    -0.340 N 
ATOM     21  C   UNL A   1      30.664  28.446  22.764  1.00  0.00     0.002 A 
ATOM     22  C   UNL A   1      31.444  28.822  23.855  1.00  0.00     0.048 A 
ATOM     23  C   UNL A   1      33.767  28.330  24.559  1.00  0.00     0.150 C 
ATOM     24  C   UNL A   1      29.534  29.217  22.436  1.00  0.00     0.030 A 
ATOM     25  C   UNL A   1      31.108  29.896  24.691  1.00  0.00     0.028 A 
ATOM     26  C   UNL A   1      29.210  30.311  23.243  1.00  0.00     0.041 A 
ATOM     27  C   UNL A   1      29.969  30.633  24.366  1.00  0.00     0.023 A 
ATOM     28  Cl  UNL A   1      27.849  31.286  22.837  1.00  0.00    -0.084 Cl
ENDBRANCH  15  18
ENDBRANCH  10  14
ENDBRANCH   7  10
ENDBRANCH   5   6
BRANCH   5  29
ATOM     29  C   UNL A   1      33.584  21.200  24.324  1.00  0.00    -0.014 A 
ATOM     30  C   UNL A   1      33.761  20.210  25.325  1.00  0.00     0.006 A 
ATOM     31  C   UNL A   1      32.738  20.903  23.256  1.00  0.00     0.006 A 
ATOM     32  C   UNL A   1      33.214  18.937  25.210  1.00  0.00     0.000 A 
ATOM     33  C   UNL A   1      32.146  19.636  23.168  1.00  0.00     0.000 A 
ATOM     34  C   UNL A   1      32.407  18.647  24.121  1.00  0.00     0.000 A 
ENDBRANCH   5  29
ENDBRANCH   3   5
ENDBRANCH   2   3
ENDBRANCH   1   2
BRANCH   1  35
ATOM     35  C   UNL A   1      38.749  21.227  25.759  1.00  0.00     0.275 C 
BRANCH  35  36
ATOM     36  O   UNL A   1      39.943  21.980  26.078  1.00  0.00    -0.458 OA
BRANCH  36  37
ATOM     37  C   UNL A   1      40.224  22.161  27.401  1.00  0.00     0.338 C 
ATOM     38  O   UNL A   1      40.842  21.417  28.126  1.00  0.00    -0.246 OA
BRANCH  37  39
ATOM     39  C   UNL A   1      40.088  23.618  27.630  1.00  0.00     0.060 A 
ATOM     40  C   UNL A   1      38.991  24.460  27.544  1.00  0.00     0.016 A 
ATOM     41  C   UNL A   1      41.315  24.201  27.852  1.00  0.00     0.016 A 
ATOM     42  C   UNL A   1      39.199  25.863  27.710  1.00  0.00     0.010 A 
ATOM     43  C   UNL A   1      41.382  25.421  28.455  1.00  0.00     0.010 A 
ATOM     44  C   UNL A   1      40.449  26.364  28.123  1.00  0.00    -0.014 A 
BRANCH  44  45
ATOM     45  C   UNL A   1      40.793  27.704  28.626  1.00  0.00     0.031 A 
ATOM     46  C   UNL A   1      42.016  28.291  28.024  1.00  0.00     0.074 A 
ATOM     47  C   UNL A   1      39.947  28.530  29.313  1.00  0.00     0.049 A 
ATOM     48  N   UNL A   1      43.119  28.549  28.631  1.00  0.00    -0.248 NA
ATOM     49  C   UNL A   1      42.068  28.561  26.581  1.00  0.00     0.031 C 
ATOM     50  C   UNL A   1      38.571  28.269  29.765  1.00  0.00     0.029 A 
ATOM     51  N   UNL A   1      40.137  29.832  29.728  1.00  0.00    -0.354 N 
ATOM     52  C   UNL A   1      43.922  29.216  27.715  1.00  0.00     0.074 A 
ATOM     53  C   UNL A   1      43.276  29.104  26.438  1.00  0.00     0.031 C 
ATOM     54  C   UNL A   1      38.031  29.393  30.310  1.00  0.00     0.029 A 
ATOM     55  C   UNL A   1      39.026  30.454  30.339  1.00  0.00     0.049 A 
ATOM     56  H   UNL A   1      40.995  30.299  29.606  1.00  0.00     0.167 HD
ATOM     57  C   UNL A   1      44.972  29.972  28.127  1.00  0.00     0.037 A 
ATOM     58  C   UNL A   1      38.966  31.714  30.875  1.00  0.00     0.037 A 
ATOM     59  C   UNL A   1      45.284  29.711  29.509  1.00  0.00     0.049 A 
ATOM     60  C   UNL A   1      40.359  31.981  31.303  1.00  0.00     0.074 A 
ATOM     61  C   UNL A   1      45.663  28.586  30.211  1.00  0.00     0.029 A 
ATOM     62  N   UNL A   1      44.772  30.592  30.428  1.00  0.00    -0.354 N 
ATOM     63  N   UNL A   1      40.954  31.338  32.268  1.00  0.00    -0.248 NA
ATOM     64  C   UNL A   1      41.219  32.807  30.472  1.00  0.00     0.031 C 
ATOM     65  C   UNL A   1      44.962  28.667  31.450  1.00  0.00     0.029 A 
ATOM     66  C   UNL A   1      44.250  29.867  31.472  1.00  0.00     0.049 A 
ATOM     67  H   UNL A   1      44.778  31.574  30.354  1.00  0.00     0.167 HD
ATOM     68  C   UNL A   1      42.284  31.324  31.902  1.00  0.00     0.074 A 
ATOM     69  C   UNL A   1      42.409  32.382  30.904  1.00  0.00     0.031 C 
ATOM     70  C   UNL A   1      43.086  30.274  32.236  1.00  0.00     0.037 A 
BRANCH  57  71
ATOM     71  C   UNL A   1      45.490  31.175  27.396  1.00  0.00     0.058 A 
ATOM     72  C   UNL A   1      46.830  31.193  26.967  1.00  0.00     0.135 A 
ATOM     73  C   UNL A   1      44.801  32.407  27.345  1.00  0.00     0.135 A 
ATOM     74  F   UNL A   1      47.569  30.075  26.995  1.00  0.00    -0.206 F 
ATOM     75  C   UNL A   1      47.462  32.368  26.564  1.00  0.00     0.059 A 
ATOM     76  C   UNL A   1      45.400  33.582  26.903  1.00  0.00     0.059 A 
ATOM     77  F   UNL A   1      43.551  32.535  27.813  1.00  0.00    -0.206 F 
ATOM     78  C   UNL A   1      46.742  33.560  26.549  1.00  0.00     0.060 A 
BRANCH  78  79
ATOM     79  S   UNL A   1      47.595  35.089  26.127  1.00  0.00     0.124 S 
ATOM     80  O   UNL A   1      46.476  35.967  25.809  1.00  0.00    -0.237 OA
ATOM     81  O   UNL A   1      48.311  35.386  27.364  1.00  0.00    -0.237 OA
ATOM     82  O   UNL A   1      48.438  34.702  24.999  1.00  0.00    -0.744 OA
ENDBRANCH  78  79
ENDBRANCH  57  71
BRANCH  58  83
ATOM     83  C   UNL A   1      37.932  32.788  31.128  1.00  0.00     0.058 A 
ATOM     84  C   UNL A   1      36.833  32.987  30.265  1.00  0.00     0.135 A 
ATOM     85  C   UNL A   1      37.769  33.386  32.383  1.00  0.00     0.135 A 
ATOM     86  F   UNL A   1      36.863  32.504  29.015  1.00  0.00    -0.206 F 
ATOM     87  C   UNL A   1      35.640  33.617  30.669  1.00  0.00     0.059 A 
ATOM     88  C   UNL A   1      36.598  34.009  32.826  1.00  0.00     0.059 A 
ATOM     89  F   UNL A   1      38.740  33.335  33.276  1.00  0.00    -0.206 F 
ATOM     90  C   UNL A   1      35.516  34.088  31.972  1.00  0.00     0.060 A 
BRANCH  90  91
ATOM     91  S   UNL A   1      33.920  34.674  32.591  1.00  0.00     0.124 S 
ATOM     92  O   UNL A   1      34.322  35.722  33.522  1.00  0.00    -0.237 OA
ATOM     93  O   UNL A   1      33.258  35.121  31.371  1.00  0.00    -0.237 OA
ATOM     94  O   UNL A   1      33.338  33.482  33.207  1.00  0.00    -0.744 OA
ENDBRANCH  90  91
ENDBRANCH  58  83
BRANCH  70  95
ATOM     95  C   UNL A   1      42.626  29.345  33.339  1.00  0.00     0.058 A 
ATOM     96  C   UNL A   1      41.867  28.175  33.159  1.00  0.00     0.135 A 
ATOM     97  C   UNL A   1      43.100  29.595  34.637  1.00  0.00     0.135 A 
ATOM     98  F   UNL A   1      41.441  27.803  31.947  1.00  0.00    -0.206 F 
ATOM     99  C   UNL A   1      41.573  27.312  34.217  1.00  0.00     0.059 A 
ATOM    100  C   UNL A   1      42.853  28.729  35.700  1.00  0.00     0.059 A 
ATOM    101  F   UNL A   1      43.867  30.672  34.876  1.00  0.00    -0.206 F 
ATOM    102  C   UNL A   1      42.080  27.592  35.484  1.00  0.00     0.060 A 
BRANCH 102 103
ATOM    103  S   UNL A   1      41.795  26.418  36.826  1.00  0.00     0.124 S 
ATOM    104  O   UNL A   1      42.993  26.587  37.643  1.00  0.00    -0.237 OA
ATOM    105  O   UNL A   1      40.552  26.905  37.416  1.00  0.00    -0.237 OA
ATOM    106  O   UNL A   1      41.686  25.133  36.139  1.00  0.00    -0.744 OA
ENDBRANCH 102 103
ENDBRANCH  70  95
ENDBRANCH  44  45
ENDBRANCH  37  39
ENDBRANCH  36  37
ENDBRANCH  35  36
ENDBRANCH   1  35
TORSDOF 20
ENDMDL
MODEL 2
REMARK VINA RESULT:     -12.9      3.301      9.814
REMARK SMILES CC(C)[C@H](NC(=O)c1cc2cc(Cl)ccc2n1C)C(=O)N[C@@H](C(=O)OCCOC(=O)c1ccc(-c2c3nc(c(-c4c(F)cc(S(=O)(=O)[O-])cc4F)c4ccc([nH]4)c(-c4c(F)cc(S(=O)(=O)[O-])cc4F)c4nc(c(-c5c(F)cc(S(=O)(=O)[O-])cc5F)c5ccc2[nH]5)C=C4)C=C3)cc1)c1ccccc1
REMARK SMILES IDX 26 1 25 2 23 3 24 4 22 5 21 6 19 7 20 8 4 10 2 11 1 12 3 13
REMARK SMILES IDX 5 14 6 15 7 17 8 18 9 19 17 20 10 21 16 22 18 23 11 24 15 25
REMARK SMILES IDX 12 26 14 27 13 28 97 29 98 30 102 31 99 32 101 33 100 34
REMARK SMILES IDX 27 35 28 36 29 37 30 38 31 39 32 40 96 41 33 42 95 43 34 44
REMARK SMILES IDX 35 45 36 46 89 47 37 48 94 49 88 50 90 51 38 52 93 53 87 54
REMARK SMILES IDX 86 55 39 57 73 58 52 59 72 60 53 61 56 62 71 63 91 64 54 65
REMARK SMILES IDX 55 66 70 68 92 69 57 70 40 71 41 72 50 73 42 74 43 75 49 76
REMARK SMILES IDX 51 77 44 78 45 79 46 80 47 81 48 82 74 83 75 84 84 85 76 86
REMARK SMILES IDX 77 87 83 88 85 89 78 90 79 91 80 92 81 93 82 94 58 95 59 96
REMARK SMILES IDX 68 97 60 98 61 99 67 100 69 101 62 102 63 103 64 104 65 105
REMARK SMILES IDX 66 106
REMARK H PARENT 21 9 5 16 90 56 56 67
REMARK Flexibility Score: inf
ROOT
ATOM      1  C   UNL A   1      33.704  30.555  27.339  1.00  0.00     0.274 C 
ENDROOT
BRANCH   1   2
ATOM      2  O   UNL A   1      32.364  30.643  26.764  1.00  0.00    -0.460 OA
BRANCH   2   3
ATOM      3  C   UNL A   1      31.767  29.446  26.497  1.00  0.00     0.333 C 
ATOM      4  O   UNL A   1      31.411  28.658  27.375  1.00  0.00    -0.249 OA
BRANCH   3   5
ATOM      5  C   UNL A   1      31.593  29.099  25.016  1.00  0.00     0.223 C 
BRANCH   5   6
ATOM      6  N   UNL A   1      32.788  29.067  24.210  1.00  0.00    -0.337 N 
ATOM      7  C   UNL A   1      33.066  28.056  23.328  1.00  0.00     0.243 C 
ATOM      8  O   UNL A   1      33.528  28.386  22.233  1.00  0.00    -0.273 OA
ATOM      9  H   UNL A   1      33.434  29.805  24.297  1.00  0.00     0.164 HD
BRANCH   7  10
ATOM     10  C   UNL A   1      32.783  26.567  23.679  1.00  0.00     0.174 C 
BRANCH  10  11
ATOM     11  C   UNL A   1      32.082  25.746  22.569  1.00  0.00     0.015 C 
ATOM     12  C   UNL A   1      32.909  24.603  21.994  1.00  0.00     0.010 C 
ATOM     13  C   UNL A   1      30.659  25.287  22.907  1.00  0.00     0.010 C 
ENDBRANCH  10  11
BRANCH  10  14
ATOM     14  N   UNL A   1      32.132  26.435  24.996  1.00  0.00    -0.339 N 
ATOM     15  C   UNL A   1      32.262  25.460  25.946  1.00  0.00     0.268 C 
ATOM     16  H   UNL A   1      31.508  27.160  25.227  1.00  0.00     0.164 HD
ATOM     17  O   UNL A   1      31.600  25.545  26.977  1.00  0.00    -0.268 OA
BRANCH  15  18
ATOM     18  C   UNL A   1      33.131  24.345  25.680  1.00  0.00     0.107 A 
ATOM     19  C   UNL A   1      34.514  24.394  25.614  1.00  0.00     0.042 A 
ATOM     20  N   UNL A   1      32.774  23.067  25.316  1.00  0.00    -0.340 N 
ATOM     21  C   UNL A   1      34.999  23.084  25.376  1.00  0.00     0.002 A 
ATOM     22  C   UNL A   1      33.886  22.249  25.288  1.00  0.00     0.048 A 
ATOM     23  C   UNL A   1      31.480  22.631  24.841  1.00  0.00     0.150 C 
ATOM     24  C   UNL A   1      36.282  22.527  25.231  1.00  0.00     0.030 A 
ATOM     25  C   UNL A   1      33.993  20.860  25.137  1.00  0.00     0.028 A 
ATOM     26  C   UNL A   1      36.397  21.147  25.044  1.00  0.00     0.041 A 
ATOM     27  C   UNL A   1      35.276  20.322  25.021  1.00  0.00     0.023 A 
ATOM     28  Cl  UNL A   1      37.959  20.453  24.830  1.00  0.00    -0.084 Cl
ENDBRANCH  15  18
ENDBRANCH  10  14
ENDBRANCH   7  10
ENDBRANCH   5   6
BRANCH   5  29
ATOM     29  C   UNL A   1      30.458  29.588  24.131  1.00  0.00    -0.014 A 
ATOM     30  C   UNL A   1      30.043  30.940  24.257  1.00  0.00     0.006 A 
ATOM     31  C   UNL A   1      29.675  28.737  23.351  1.00  0.00     0.006 A 
ATOM     32  C   UNL A   1      28.841  31.396  23.729  1.00  0.00     0.000 A 
ATOM     33  C   UNL A   1      28.489  29.212  22.775  1.00  0.00     0.000 A 
ATOM     34  C   UNL A   1      28.057  30.525  22.989  1.00  0.00     0.000 A 
ENDBRANCH   5  29
ENDBRANCH   3   5
ENDBRANCH   2   3
ENDBRANCH   1   2
BRANCH   1  35
ATOM     35  C   UNL A   1      34.232  31.947  27.741  1.00  0.00     0.275 C 
BRANCH  35  36
ATOM     36  O   UNL A   1      34.522  31.969  29.158  1.00  0.00    -0.458 OA
BRANCH  36  37
ATOM     37  C   UNL A   1      35.707  32.526  29.539  1.00  0.00     0.338 C 
ATOM     38  O   UNL A   1      35.881  33.626  30.011  1.00  0.00    -0.246 OA
BRANCH  37  39
ATOM     39  C   UNL A   1      36.626  31.383  29.741  1.00  0.00     0.060 A 
ATOM     40  C   UNL A   1      36.379  30.039  29.972  1.00  0.00     0.016 A 
ATOM     41  C   UNL A   1      37.933  31.806  29.819  1.00  0.00     0.016 A 
ATOM     42  C   UNL A   1      37.488  29.184  30.251  1.00  0.00     0.010 A 
ATOM     43  C   UNL A   1      38.944  30.914  29.615  1.00  0.00     0.010 A 
ATOM     44  C   UNL A   1      38.810  29.652  30.124  1.00  0.00    -0.014 A 
BRANCH  44  45
ATOM     45  C   UNL A   1      40.067  28.885  30.077  1.00  0.00     0.031 A 
ATOM     46  C   UNL A   1      40.678  28.627  31.405  1.00  0.00     0.074 A 
ATOM     47  C   UNL A   1      40.508  28.159  29.007  1.00  0.00     0.049 A 
ATOM     48  N   UNL A   1      41.798  29.091  31.835  1.00  0.00    -0.248 NA
ATOM     49  C   UNL A   1      39.955  27.832  32.405  1.00  0.00     0.031 C 
ATOM     50  C   UNL A   1      39.905  28.027  27.671  1.00  0.00     0.029 A 
ATOM     51  N   UNL A   1      41.606  27.329  28.902  1.00  0.00    -0.354 N 
ATOM     52  C   UNL A   1      42.031  28.475  33.057  1.00  0.00     0.074 A 
ATOM     53  C   UNL A   1      40.820  27.792  33.417  1.00  0.00     0.031 C 
ATOM     54  C   UNL A   1      40.591  27.115  26.930  1.00  0.00     0.029 A 
ATOM     55  C   UNL A   1      41.742  26.637  27.679  1.00  0.00     0.049 A 
ATOM     56  H   UNL A   1      42.254  27.225  29.636  1.00  0.00     0.167 HD
ATOM     57  C   UNL A   1      43.280  28.427  33.587  1.00  0.00     0.037 A 
ATOM     58  C   UNL A   1      42.757  25.794  27.306  1.00  0.00     0.037 A 
ATOM     59  C   UNL A   1      44.166  29.330  32.901  1.00  0.00     0.049 A 
ATOM     60  C   UNL A   1      43.924  26.289  28.072  1.00  0.00     0.074 A 
ATOM     61  C   UNL A   1      44.175  30.695  32.696  1.00  0.00     0.029 A 
ATOM     62  N   UNL A   1      44.964  28.783  31.927  1.00  0.00    -0.354 N 
ATOM     63  N   UNL A   1      44.486  27.446  27.865  1.00  0.00    -0.248 NA
ATOM     64  C   UNL A   1      44.332  25.598  29.285  1.00  0.00     0.031 C 
ATOM     65  C   UNL A   1      44.620  30.866  31.352  1.00  0.00     0.029 A 
ATOM     66  C   UNL A   1      44.929  29.609  30.829  1.00  0.00     0.049 A 
ATOM     67  H   UNL A   1      45.475  27.945  32.002  1.00  0.00     0.167 HD
ATOM     68  C   UNL A   1      44.964  27.822  29.103  1.00  0.00     0.074 A 
ATOM     69  C   UNL A   1      45.003  26.587  29.881  1.00  0.00     0.031 C 
ATOM     70  C   UNL A   1      45.011  29.137  29.460  1.00  0.00     0.037 A 
BRANCH  57  71
ATOM     71  C   UNL A   1      43.780  27.334  34.485  1.00  0.00     0.058 A 
ATOM     72  C   UNL A   1      44.213  27.657  35.784  1.00  0.00     0.135 A 
ATOM     73  C   UNL A   1      44.100  26.038  34.024  1.00  0.00     0.135 A 
ATOM     74  F   UNL A   1      43.969  28.870  36.302  1.00  0.00    -0.206 F 
ATOM     75  C   UNL A   1      44.963  26.771  36.556  1.00  0.00     0.059 A 
ATOM     76  C   UNL A   1      44.808  25.122  34.796  1.00  0.00     0.059 A 
ATOM     77  F   UNL A   1      43.822  25.647  32.773  1.00  0.00    -0.206 F 
ATOM     78  C   UNL A   1      45.267  25.512  36.047  1.00  0.00     0.060 A 
BRANCH  78  79
ATOM     79  S   UNL A   1      46.323  24.414  37.009  1.00  0.00     0.124 S 
ATOM     80  O   UNL A   1      46.555  23.331  36.061  1.00  0.00    -0.237 OA
ATOM     81  O   UNL A   1      47.469  25.272  37.294  1.00  0.00    -0.237 OA
ATOM     82  O   UNL A   1      45.495  24.079  38.164  1.00  0.00    -0.744 OA
ENDBRANCH  78  79
ENDBRANCH  57  71
BRANCH  58  83
ATOM     83  C   UNL A   1      42.966  24.611  26.387  1.00  0.00     0.058 A 
ATOM     84  C   UNL A   1      43.957  24.611  25.383  1.00  0.00     0.135 A 
ATOM     85  C   UNL A   1      42.482  23.334  26.692  1.00  0.00     0.135 A 
ATOM     86  F   UNL A   1      44.487  25.767  24.958  1.00  0.00    -0.206 F 
ATOM     87  C   UNL A   1      44.496  23.431  24.832  1.00  0.00     0.059 A 
ATOM     88  C   UNL A   1      42.997  22.140  26.177  1.00  0.00     0.059 A 
ATOM     89  F   UNL A   1      41.508  23.183  27.571  1.00  0.00    -0.206 F 
ATOM     90  C   UNL A   1      44.037  22.193  25.271  1.00  0.00     0.060 A 
BRANCH  90  91
ATOM     91  S   UNL A   1      44.875  20.670  24.769  1.00  0.00     0.124 S 
ATOM     92  O   UNL A   1      44.164  19.663  25.547  1.00  0.00    -0.237 OA
ATOM     93  O   UNL A   1      44.644  20.648  23.329  1.00  0.00    -0.237 OA
ATOM     94  O   UNL A   1      46.263  20.902  25.167  1.00  0.00    -0.744 OA
ENDBRANCH  90  91
ENDBRANCH  58  83
BRANCH  70  95
ATOM     95  C   UNL A   1      44.931  30.179  28.365  1.00  0.00     0.058 A 
ATOM     96  C   UNL A   1      43.747  30.744  27.860  1.00  0.00     0.135 A 
ATOM     97  C   UNL A   1      46.139  30.725  27.900  1.00  0.00     0.135 A 
ATOM     98  F   UNL A   1      42.546  30.353  28.302  1.00  0.00    -0.206 F 
ATOM     99  C   UNL A   1      43.761  31.781  26.924  1.00  0.00     0.059 A 
ATOM    100  C   UNL A   1      46.177  31.784  26.996  1.00  0.00     0.059 A 
ATOM    101  F   UNL A   1      47.309  30.264  28.370  1.00  0.00    -0.206 F 
ATOM    102  C   UNL A   1      44.982  32.302  26.505  1.00  0.00     0.060 A 
BRANCH 102 103
ATOM    103  S   UNL A   1      44.998  33.715  25.381  1.00  0.00     0.124 S 
ATOM    104  O   UNL A   1      46.418  34.050  25.326  1.00  0.00    -0.237 OA
ATOM    105  O   UNL A   1      44.431  33.155  24.158  1.00  0.00    -0.237 OA
ATOM    106  O   UNL A   1      44.152  34.697  26.055  1.00  0.00    -0.744 OA
ENDBRANCH 102 103
ENDBRANCH  70  95
ENDBRANCH  44  45
ENDBRANCH  37  39
ENDBRANCH  36  37
ENDBRANCH  35  36
ENDBRANCH   1  35
TORSDOF 20
ENDMDL
MODEL 3
REMARK VINA RESULT:     -12.8      3.243      9.383
REMARK SMILES CC(C)[C@H](NC(=O)c1cc2cc(Cl)ccc2n1C)C(=O)N[C@@H](C(=O)OCCOC(=O)c1ccc(-c2c3nc(c(-c4c(F)cc(S(=O)(=O)[O-])cc4F)c4ccc([nH]4)c(-c4c(F)cc(S(=O)(=O)[O-])cc4F)c4nc(c(-c5c(F)cc(S(=O)(=O)[O-])cc5F)c5ccc2[nH]5)C=C4)C=C3)cc1)c1ccccc1
REMARK SMILES IDX 26 1 25 2 23 3 24 4 22 5 21 6 19 7 20 8 4 10 2 11 1 12 3 13
REMARK SMILES IDX 5 14 6 15 7 17 8 18 9 19 17 20 10 21 16 22 18 23 11 24 15 25
REMARK SMILES IDX 12 26 14 27 13 28 97 29 98 30 102 31 99 32 101 33 100 34
REMARK SMILES IDX 27 35 28 36 29 37 30 38 31 39 32 40 96 41 33 42 95 43 34 44
REMARK SMILES IDX 35 45 36 46 89 47 37 48 94 49 88 50 90 51 38 52 93 53 87 54
REMARK SMILES IDX 86 55 39 57 73 58 52 59 72 60 53 61 56 62 71 63 91 64 54 65
REMARK SMILES IDX 55 66 70 68 92 69 57 70 40 71 41 72 50 73 42 74 43 75 49 76
REMARK SMILES IDX 51 77 44 78 45 79 46 80 47 81 48 82 74 83 75 84 84 85 76 86
REMARK SMILES IDX 77 87 83 88 85 89 78 90 79 91 80 92 81 93 82 94 58 95 59 96
REMARK SMILES IDX 68 97 60 98 61 99 67 100 69 101 62 102 63 103 64 104 65 105
REMARK SMILES IDX 66 106
REMARK H PARENT 21 9 5 16 90 56 56 67
REMARK Flexibility Score: inf
ROOT
ATOM      1  C   UNL A   1      32.037  30.149  26.913  1.00  0.00     0.274 C 
ENDROOT
BRANCH   1   2
ATOM      2  O   UNL A   1      31.411  29.041  26.197  1.00  0.00    -0.460 OA
BRANCH   2   3
ATOM      3  C   UNL A   1      31.391  27.853  26.868  1.00  0.00     0.333 C 
ATOM      4  O   UNL A   1      31.414  27.772  28.097  1.00  0.00    -0.249 OA
BRANCH   3   5
ATOM      5  C   UNL A   1      31.380  26.592  26.001  1.00  0.00     0.223 C 
BRANCH   5   6
ATOM      6  N   UNL A   1      30.557  26.624  24.816  1.00  0.00    -0.337 N 
ATOM      7  C   UNL A   1      31.012  26.240  23.582  1.00  0.00     0.243 C 
ATOM      8  O   UNL A   1      30.244  25.563  22.894  1.00  0.00    -0.273 OA
ATOM      9  H   UNL A   1      29.627  26.936  24.899  1.00  0.00     0.164 HD
BRANCH   7  10
ATOM     10  C   UNL A   1      32.438  26.613  23.086  1.00  0.00     0.174 C 
BRANCH  10  11
ATOM     11  C   UNL A   1      32.858  28.085  23.323  1.00  0.00     0.015 C 
ATOM     12  C   UNL A   1      34.283  28.423  22.902  1.00  0.00     0.010 C 
ATOM     13  C   UNL A   1      31.864  29.132  22.806  1.00  0.00     0.010 C 
ENDBRANCH  10  11
BRANCH  10  14
ATOM     14  N   UNL A   1      32.665  26.162  21.701  1.00  0.00    -0.339 N 
ATOM     15  C   UNL A   1      32.984  24.921  21.223  1.00  0.00     0.268 C 
ATOM     16  H   UNL A   1      32.572  26.861  21.013  1.00  0.00     0.164 HD
ATOM     17  O   UNL A   1      33.145  24.775  20.014  1.00  0.00    -0.268 OA
BRANCH  15  18
ATOM     18  C   UNL A   1      33.169  23.845  22.159  1.00  0.00     0.107 A 
ATOM     19  C   UNL A   1      32.266  22.823  22.407  1.00  0.00     0.042 A 
ATOM     20  N   UNL A   1      34.189  23.685  23.069  1.00  0.00    -0.340 N 
ATOM     21  C   UNL A   1      32.835  21.942  23.359  1.00  0.00     0.002 A 
ATOM     22  C   UNL A   1      34.089  22.455  23.689  1.00  0.00     0.048 A 
ATOM     23  C   UNL A   1      35.138  24.690  23.490  1.00  0.00     0.150 C 
ATOM     24  C   UNL A   1      32.404  20.752  23.970  1.00  0.00     0.030 A 
ATOM     25  C   UNL A   1      34.974  21.793  24.549  1.00  0.00     0.028 A 
ATOM     26  C   UNL A   1      33.266  20.102  24.858  1.00  0.00     0.041 A 
ATOM     27  C   UNL A   1      34.539  20.599  25.127  1.00  0.00     0.023 A 
ATOM     28  Cl  UNL A   1      32.741  18.661  25.642  1.00  0.00    -0.084 Cl
ENDBRANCH  15  18
ENDBRANCH  10  14
ENDBRANCH   7  10
ENDBRANCH   5   6
BRANCH   5  29
ATOM     29  C   UNL A   1      31.364  25.167  26.529  1.00  0.00    -0.014 A 
ATOM     30  C   UNL A   1      32.607  24.546  26.819  1.00  0.00     0.006 A 
ATOM     31  C   UNL A   1      30.218  24.374  26.557  1.00  0.00     0.006 A 
ATOM     32  C   UNL A   1      32.720  23.173  27.012  1.00  0.00     0.000 A 
ATOM     33  C   UNL A   1      30.327  22.999  26.802  1.00  0.00     0.000 A 
ATOM     34  C   UNL A   1      31.574  22.395  26.996  1.00  0.00     0.000 A 
ENDBRANCH   5  29
ENDBRANCH   3   5
ENDBRANCH   2   3
ENDBRANCH   1   2
BRANCH   1  35
ATOM     35  C   UNL A   1      33.536  30.260  26.568  1.00  0.00     0.275 C 
BRANCH  35  36
ATOM     36  O   UNL A   1      34.316  30.285  27.787  1.00  0.00    -0.458 OA
BRANCH  36  37
ATOM     37  C   UNL A   1      34.829  31.490  28.168  1.00  0.00     0.338 C 
ATOM     38  O   UNL A   1      34.213  32.471  28.515  1.00  0.00    -0.246 OA
BRANCH  37  39
ATOM     39  C   UNL A   1      36.229  31.209  28.561  1.00  0.00     0.060 A 
ATOM     40  C   UNL A   1      37.068  31.836  29.469  1.00  0.00     0.016 A 
ATOM     41  C   UNL A   1      36.775  30.220  27.776  1.00  0.00     0.016 A 
ATOM     42  C   UNL A   1      38.428  31.403  29.544  1.00  0.00     0.010 A 
ATOM     43  C   UNL A   1      37.882  29.552  28.206  1.00  0.00     0.010 A 
ATOM     44  C   UNL A   1      38.861  30.259  28.847  1.00  0.00    -0.014 A 
BRANCH  44  45
ATOM     45  C   UNL A   1      40.105  29.488  29.009  1.00  0.00     0.031 A 
ATOM     46  C   UNL A   1      40.460  29.186  30.418  1.00  0.00     0.074 A 
ATOM     47  C   UNL A   1      40.738  28.793  28.017  1.00  0.00     0.049 A 
ATOM     48  N   UNL A   1      41.481  29.632  31.062  1.00  0.00    -0.248 NA
ATOM     49  C   UNL A   1      39.566  28.364  31.242  1.00  0.00     0.031 C 
ATOM     50  C   UNL A   1      40.391  28.705  26.589  1.00  0.00     0.029 A 
ATOM     51  N   UNL A   1      41.836  27.961  28.091  1.00  0.00    -0.354 N 
ATOM     52  C   UNL A   1      41.485  28.978  32.287  1.00  0.00     0.074 A 
ATOM     53  C   UNL A   1      40.229  28.290  32.395  1.00  0.00     0.031 C 
ATOM     54  C   UNL A   1      41.203  27.813  25.959  1.00  0.00     0.029 A 
ATOM     55  C   UNL A   1      42.197  27.306  26.893  1.00  0.00     0.049 A 
ATOM     56  H   UNL A   1      42.338  27.832  28.928  1.00  0.00     0.167 HD
ATOM     57  C   UNL A   1      42.615  28.907  33.037  1.00  0.00     0.037 A 
ATOM     58  C   UNL A   1      43.264  26.470  26.689  1.00  0.00     0.037 A 
ATOM     59  C   UNL A   1      43.612  29.827  32.554  1.00  0.00     0.049 A 
ATOM     60  C   UNL A   1      44.269  26.936  27.672  1.00  0.00     0.074 A 
ATOM     61  C   UNL A   1      43.657  31.197  32.396  1.00  0.00     0.029 A 
ATOM     62  N   UNL A   1      44.577  29.306  31.728  1.00  0.00    -0.354 N 
ATOM     63  N   UNL A   1      44.858  28.096  27.608  1.00  0.00    -0.248 NA
ATOM     64  C   UNL A   1      44.446  26.207  28.917  1.00  0.00     0.031 C 
ATOM     65  C   UNL A   1      44.343  31.407  31.164  1.00  0.00     0.029 A 
ATOM     66  C   UNL A   1      44.744  30.165  30.668  1.00  0.00     0.049 A 
ATOM     67  H   UNL A   1      45.065  28.463  31.870  1.00  0.00     0.167 HD
ATOM     68  C   UNL A   1      45.099  28.432  28.924  1.00  0.00     0.074 A 
ATOM     69  C   UNL A   1      44.994  27.173  29.657  1.00  0.00     0.031 C 
ATOM     70  C   UNL A   1      45.078  29.735  29.324  1.00  0.00     0.037 A 
BRANCH  57  71
ATOM     71  C   UNL A   1      42.941  27.785  33.977  1.00  0.00     0.058 A 
ATOM     72  C   UNL A   1      42.994  28.041  35.359  1.00  0.00     0.135 A 
ATOM     73  C   UNL A   1      43.465  26.544  33.551  1.00  0.00     0.135 A 
ATOM     74  F   UNL A   1      42.535  29.200  35.855  1.00  0.00    -0.206 F 
ATOM     75  C   UNL A   1      43.579  27.148  36.255  1.00  0.00     0.059 A 
ATOM     76  C   UNL A   1      44.011  25.619  34.435  1.00  0.00     0.059 A 
ATOM     77  F   UNL A   1      43.553  26.225  32.252  1.00  0.00    -0.206 F 
ATOM     78  C   UNL A   1      44.097  25.946  35.781  1.00  0.00     0.060 A 
BRANCH  78  79
ATOM     79  S   UNL A   1      44.942  24.846  36.931  1.00  0.00     0.124 S 
ATOM     80  O   UNL A   1      46.312  25.336  36.846  1.00  0.00    -0.237 OA
ATOM     81  O   UNL A   1      44.240  25.121  38.181  1.00  0.00    -0.237 OA
ATOM     82  O   UNL A   1      44.706  23.522  36.364  1.00  0.00    -0.744 OA
ENDBRANCH  78  79
ENDBRANCH  57  71
BRANCH  58  83
ATOM     83  C   UNL A   1      43.640  25.315  25.787  1.00  0.00     0.058 A 
ATOM     84  C   UNL A   1      44.980  25.049  25.433  1.00  0.00     0.135 A 
ATOM     85  C   UNL A   1      42.778  24.237  25.557  1.00  0.00     0.135 A 
ATOM     86  F   UNL A   1      45.913  26.003  25.561  1.00  0.00    -0.206 F 
ATOM     87  C   UNL A   1      45.427  23.782  25.008  1.00  0.00     0.059 A 
ATOM     88  C   UNL A   1      43.184  22.962  25.149  1.00  0.00     0.059 A 
ATOM     89  F   UNL A   1      41.484  24.358  25.786  1.00  0.00    -0.206 F 
ATOM     90  C   UNL A   1      44.524  22.728  24.911  1.00  0.00     0.060 A 
BRANCH  90  91
ATOM     91  S   UNL A   1      45.106  21.042  24.611  1.00  0.00     0.124 S 
ATOM     92  O   UNL A   1      46.524  21.148  24.934  1.00  0.00    -0.237 OA
ATOM     93  O   UNL A   1      44.295  20.263  25.540  1.00  0.00    -0.237 OA
ATOM     94  O   UNL A   1      44.802  20.826  23.197  1.00  0.00    -0.744 OA
ENDBRANCH  90  91
ENDBRANCH  58  83
BRANCH  70  95
ATOM     95  C   UNL A   1      45.201  30.810  28.266  1.00  0.00     0.058 A 
ATOM     96  C   UNL A   1      44.138  31.342  27.515  1.00  0.00     0.135 A 
ATOM     97  C   UNL A   1      46.455  31.423  28.107  1.00  0.00     0.135 A 
ATOM     98  F   UNL A   1      42.889  30.885  27.657  1.00  0.00    -0.206 F 
ATOM     99  C   UNL A   1      44.316  32.410  26.632  1.00  0.00     0.059 A 
ATOM    100  C   UNL A   1      46.648  32.513  27.262  1.00  0.00     0.059 A 
ATOM    101  F   UNL A   1      47.507  30.995  28.823  1.00  0.00    -0.206 F 
ATOM    102  C   UNL A   1      45.574  32.997  26.520  1.00  0.00     0.060 A 
BRANCH 102 103
ATOM    103  S   UNL A   1      45.778  34.448  25.466  1.00  0.00     0.124 S 
ATOM    104  O   UNL A   1      44.957  34.106  24.308  1.00  0.00    -0.237 OA
ATOM    105  O   UNL A   1      45.269  35.527  26.307  1.00  0.00    -0.237 OA
ATOM    106  O   UNL A   1      47.218  34.491  25.218  1.00  0.00    -0.744 OA
ENDBRANCH 102 103
ENDBRANCH  70  95
ENDBRANCH  44  45
ENDBRANCH  37  39
ENDBRANCH  36  37
ENDBRANCH  35  36
ENDBRANCH   1  35
TORSDOF 20
ENDMDL
