MODEL 1
REMARK VINA RESULT:     -13.5      0.000      0.000
REMARK SMILES O=C(OCCOC(=O)c1ccc(-c2c3nc(c(-c4c(F)cc(S(=O)(=O)[O-])cc4F)c4ccc([nH]4)c(-c4c(F)cc(S(=O)(=O)[O-])cc4F)c4nc(c(-c5c(F)cc(S(=O)(=O)[O-])cc5F)c5ccc2[nH]5)C=C4)C=C3)cc1)C1=Cc2cc(Cl)c(Cl)c(Cl)c2O[C@@H]1C(F)(F)F
REMARK SMILES IDX 5 1 4 2 3 3 2 4 1 5 75 6 76 7 87 8 77 9 86 10 78 11 85 12
REMARK SMILES IDX 79 13 83 14 80 15 81 16 84 17 82 18 88 19 89 20 90 21 91 22
REMARK SMILES IDX 6 23 7 24 8 25 9 26 10 27 74 28 11 29 73 30 12 31 13 32
REMARK SMILES IDX 14 33 67 34 15 35 72 36 66 37 68 38 16 39 71 40 65 41 64 42
REMARK SMILES IDX 17 44 51 45 30 46 50 47 31 48 34 49 49 50 69 51 32 52 33 53
REMARK SMILES IDX 48 55 70 56 35 57 18 58 19 59 28 60 20 61 21 62 27 63 29 64
REMARK SMILES IDX 22 65 23 66 24 67 25 68 26 69 52 70 53 71 62 72 54 73 55 74
REMARK SMILES IDX 61 75 63 76 56 77 57 78 58 79 59 80 60 81 36 82 37 83 46 84
REMARK SMILES IDX 38 85 39 86 45 87 47 88 40 89 41 90 42 91 43 92 44 93
REMARK H PARENT 68 43 34 54
REMARK Flexibility Score: inf
ROOT
ATOM      1  C   UNL A   1      39.751  22.314  26.674  1.00  0.00     0.275 C 
ENDROOT
BRANCH   1   2
ATOM      2  C   UNL A   1      38.169  21.497  25.408  1.00  0.00     0.275 C 
BRANCH   2   3
ATOM      3  O   UNL A   1      36.676  21.611  25.628  1.00  0.00    -0.459 OA
BRANCH   3   4
ATOM      4  C   UNL A   1      36.063  22.225  24.612  1.00  0.00     0.338 C 
ATOM      5  O   UNL A   1      36.560  22.704  23.624  1.00  0.00    -0.246 OA
BRANCH   4   6
ATOM      6  C   UNL A   1      34.819  22.536  25.308  1.00  0.00     0.087 C 
ATOM      7  C   UNL A   1      34.727  23.863  25.872  1.00  0.00     0.027 C 
ATOM      8  C   UNL A   1      33.755  21.879  23.853  1.00  0.00     0.316 C 
ATOM      9  C   UNL A   1      33.804  25.198  25.153  1.00  0.00     0.020 A 
ATOM     10  O   UNL A   1      32.827  23.344  22.959  1.00  0.00    -0.474 OA
ATOM     11  C   UNL A   1      33.960  26.426  25.720  1.00  0.00     0.034 A 
ATOM     12  C   UNL A   1      32.950  25.045  23.655  1.00  0.00     0.148 A 
ATOM     13  C   UNL A   1      33.463  27.495  24.958  1.00  0.00     0.062 A 
ATOM     14  C   UNL A   1      32.509  26.144  22.964  1.00  0.00     0.103 A 
ATOM     15  Cl  UNL A   1      33.749  29.053  25.700  1.00  0.00    -0.083 Cl
ATOM     16  C   UNL A   1      32.805  27.378  23.641  1.00  0.00     0.082 A 
ATOM     17  Cl  UNL A   1      31.799  26.047  21.417  1.00  0.00    -0.079 Cl
ATOM     18  Cl  UNL A   1      32.430  28.886  22.826  1.00  0.00    -0.081 Cl
BRANCH   8  19
ATOM     19  C   UNL A   1      33.315  20.608  24.817  1.00  0.00     0.430 C 
ATOM     20  F   UNL A   1      32.735  21.032  25.944  1.00  0.00    -0.167 F 
ATOM     21  F   UNL A   1      32.304  19.886  24.229  1.00  0.00    -0.167 F 
ATOM     22  F   UNL A   1      34.217  19.643  25.058  1.00  0.00    -0.167 F 
ENDBRANCH   8  19
ENDBRANCH   4   6
ENDBRANCH   3   4
ENDBRANCH   2   3
ENDBRANCH   1   2
BRANCH   1  23
ATOM     23  O   UNL A   1      40.378  23.948  26.501  1.00  0.00    -0.458 OA
BRANCH  23  24
ATOM     24  C   UNL A   1      41.484  24.733  26.794  1.00  0.00     0.338 C 
ATOM     25  O   UNL A   1      42.590  24.734  26.282  1.00  0.00    -0.246 OA
BRANCH  24  26
ATOM     26  C   UNL A   1      40.974  25.935  27.528  1.00  0.00     0.060 A 
ATOM     27  C   UNL A   1      39.873  25.779  28.399  1.00  0.00     0.016 A 
ATOM     28  C   UNL A   1      41.798  27.052  27.650  1.00  0.00     0.016 A 
ATOM     29  C   UNL A   1      39.728  26.636  29.508  1.00  0.00     0.010 A 
ATOM     30  C   UNL A   1      41.671  27.881  28.769  1.00  0.00     0.010 A 
ATOM     31  C   UNL A   1      40.668  27.654  29.734  1.00  0.00    -0.014 A 
BRANCH  31  32
ATOM     32  C   UNL A   1      40.404  28.716  30.739  1.00  0.00     0.031 A 
ATOM     33  C   UNL A   1      41.253  28.601  31.971  1.00  0.00     0.074 A 
ATOM     34  C   UNL A   1      39.460  29.676  30.635  1.00  0.00     0.049 A 
ATOM     35  N   UNL A   1      41.243  29.302  33.068  1.00  0.00    -0.248 NA
ATOM     36  C   UNL A   1      42.224  27.488  31.970  1.00  0.00     0.031 C 
ATOM     37  C   UNL A   1      38.556  29.887  29.503  1.00  0.00     0.029 A 
ATOM     38  N   UNL A   1      39.099  30.667  31.525  1.00  0.00    -0.354 N 
ATOM     39  C   UNL A   1      42.199  28.705  33.879  1.00  0.00     0.074 A 
ATOM     40  C   UNL A   1      42.682  27.529  33.203  1.00  0.00     0.031 C 
ATOM     41  C   UNL A   1      37.760  30.946  29.762  1.00  0.00     0.029 A 
ATOM     42  C   UNL A   1      38.080  31.487  31.084  1.00  0.00     0.049 A 
ATOM     43  H   UNL A   1      39.533  30.780  32.401  1.00  0.00     0.167 HD
ATOM     44  C   UNL A   1      42.679  29.124  35.068  1.00  0.00     0.037 A 
ATOM     45  C   UNL A   1      37.498  32.551  31.683  1.00  0.00     0.037 A 
ATOM     46  C   UNL A   1      42.185  30.287  35.740  1.00  0.00     0.049 A 
ATOM     47  C   UNL A   1      38.002  32.974  33.051  1.00  0.00     0.074 A 
ATOM     48  C   UNL A   1      42.587  30.818  36.947  1.00  0.00     0.029 A 
ATOM     49  N   UNL A   1      41.158  31.087  35.259  1.00  0.00    -0.354 N 
ATOM     50  N   UNL A   1      38.956  32.445  33.783  1.00  0.00    -0.248 NA
ATOM     51  C   UNL A   1      37.362  34.147  33.668  1.00  0.00     0.031 C 
ATOM     52  C   UNL A   1      41.756  31.905  37.230  1.00  0.00     0.029 A 
ATOM     53  C   UNL A   1      40.894  32.099  36.158  1.00  0.00     0.049 A 
ATOM     54  H   UNL A   1      40.688  30.952  34.404  1.00  0.00     0.167 HD
ATOM     55  C   UNL A   1      39.068  33.249  34.916  1.00  0.00     0.074 A 
ATOM     56  C   UNL A   1      38.079  34.298  34.774  1.00  0.00     0.031 C 
ATOM     57  C   UNL A   1      39.916  33.143  35.971  1.00  0.00     0.037 A 
BRANCH  44  58
ATOM     58  C   UNL A   1      43.754  28.280  35.686  1.00  0.00     0.058 A 
ATOM     59  C   UNL A   1      43.458  27.278  36.630  1.00  0.00     0.135 A 
ATOM     60  C   UNL A   1      45.102  28.549  35.415  1.00  0.00     0.135 A 
ATOM     61  F   UNL A   1      42.183  27.014  36.962  1.00  0.00    -0.206 F 
ATOM     62  C   UNL A   1      44.462  26.618  37.325  1.00  0.00     0.059 A 
ATOM     63  C   UNL A   1      46.124  27.867  36.068  1.00  0.00     0.059 A 
ATOM     64  F   UNL A   1      45.440  29.509  34.541  1.00  0.00    -0.206 F 
ATOM     65  C   UNL A   1      45.793  26.922  37.038  1.00  0.00     0.060 A 
BRANCH  65  66
ATOM     66  S   UNL A   1      47.087  26.072  37.963  1.00  0.00     0.124 S 
ATOM     67  O   UNL A   1      46.886  26.608  39.305  1.00  0.00    -0.237 OA
ATOM     68  O   UNL A   1      46.725  24.670  37.780  1.00  0.00    -0.237 OA
ATOM     69  O   UNL A   1      48.314  26.493  37.295  1.00  0.00    -0.744 OA
ENDBRANCH  65  66
ENDBRANCH  44  58
BRANCH  45  70
ATOM     70  C   UNL A   1      36.417  33.338  31.006  1.00  0.00     0.058 A 
ATOM     71  C   UNL A   1      35.082  33.266  31.445  1.00  0.00     0.135 A 
ATOM     72  C   UNL A   1      36.675  34.145  29.886  1.00  0.00     0.135 A 
ATOM     73  F   UNL A   1      34.764  32.489  32.492  1.00  0.00    -0.206 F 
ATOM     74  C   UNL A   1      34.052  33.952  30.801  1.00  0.00     0.059 A 
ATOM     75  C   UNL A   1      35.665  34.861  29.240  1.00  0.00     0.059 A 
ATOM     76  F   UNL A   1      37.925  34.249  29.408  1.00  0.00    -0.206 F 
ATOM     77  C   UNL A   1      34.355  34.755  29.703  1.00  0.00     0.060 A 
BRANCH  77  78
ATOM     78  S   UNL A   1      33.019  35.689  28.916  1.00  0.00     0.124 S 
ATOM     79  O   UNL A   1      33.760  36.690  28.156  1.00  0.00    -0.237 OA
ATOM     80  O   UNL A   1      32.349  34.658  28.130  1.00  0.00    -0.237 OA
ATOM     81  O   UNL A   1      32.253  36.202  30.048  1.00  0.00    -0.744 OA
ENDBRANCH  77  78
ENDBRANCH  45  70
BRANCH  57  82
ATOM     82  C   UNL A   1      39.878  34.223  37.019  1.00  0.00     0.058 A 
ATOM     83  C   UNL A   1      40.498  35.467  36.838  1.00  0.00     0.135 A 
ATOM     84  C   UNL A   1      39.121  34.029  38.188  1.00  0.00     0.135 A 
ATOM     85  F   UNL A   1      41.227  35.707  35.737  1.00  0.00    -0.206 F 
ATOM     86  C   UNL A   1      40.396  36.473  37.794  1.00  0.00     0.059 A 
ATOM     87  C   UNL A   1      38.973  35.033  39.137  1.00  0.00     0.059 A 
ATOM     88  F   UNL A   1      38.488  32.865  38.401  1.00  0.00    -0.206 F 
ATOM     89  C   UNL A   1      39.627  36.247  38.939  1.00  0.00     0.060 A 
BRANCH  89  90
ATOM     90  S   UNL A   1      39.479  37.569  40.156  1.00  0.00     0.124 S 
ATOM     91  O   UNL A   1      38.925  36.852  41.300  1.00  0.00    -0.237 OA
ATOM     92  O   UNL A   1      40.859  38.019  40.297  1.00  0.00    -0.237 OA
ATOM     93  O   UNL A   1      38.576  38.522  39.517  1.00  0.00    -0.744 OA
ENDBRANCH  89  90
ENDBRANCH  57  82
ENDBRANCH  31  32
ENDBRANCH  24  26
ENDBRANCH  23  24
ENDBRANCH   1  23
TORSDOF 15
ENDMDL
MODEL 2
REMARK VINA RESULT:     -13.4      7.036     11.928
REMARK SMILES O=C(OCCOC(=O)c1ccc(-c2c3nc(c(-c4c(F)cc(S(=O)(=O)[O-])cc4F)c4ccc([nH]4)c(-c4c(F)cc(S(=O)(=O)[O-])cc4F)c4nc(c(-c5c(F)cc(S(=O)(=O)[O-])cc5F)c5ccc2[nH]5)C=C4)C=C3)cc1)C1=Cc2cc(Cl)c(Cl)c(Cl)c2O[C@@H]1C(F)(F)F
REMARK SMILES IDX 5 1 4 2 3 3 2 4 1 5 75 6 76 7 87 8 77 9 86 10 78 11 85 12
REMARK SMILES IDX 79 13 83 14 80 15 81 16 84 17 82 18 88 19 89 20 90 21 91 22
REMARK SMILES IDX 6 23 7 24 8 25 9 26 10 27 74 28 11 29 73 30 12 31 13 32
REMARK SMILES IDX 14 33 67 34 15 35 72 36 66 37 68 38 16 39 71 40 65 41 64 42
REMARK SMILES IDX 17 44 51 45 30 46 50 47 31 48 34 49 49 50 69 51 32 52 33 53
REMARK SMILES IDX 48 55 70 56 35 57 18 58 19 59 28 60 20 61 21 62 27 63 29 64
REMARK SMILES IDX 22 65 23 66 24 67 25 68 26 69 52 70 53 71 62 72 54 73 55 74
REMARK SMILES IDX 61 75 63 76 56 77 57 78 58 79 59 80 60 81 36 82 37 83 46 84
REMARK SMILES IDX 38 85 39 86 45 87 47 88 40 89 41 90 42 91 43 92 44 93
REMARK H PARENT 68 43 34 54
REMARK Flexibility Score: inf
ROOT
ATOM      1  C   UNL A   1      34.919  29.488  27.709  1.00  0.00     0.275 C 
ENDROOT
BRANCH   1   2
ATOM      2  C   UNL A   1      33.183  30.445  26.790  1.00  0.00     0.275 C 
BRANCH   2   3
ATOM      3  O   UNL A   1      32.336  29.902  25.659  1.00  0.00    -0.459 OA
BRANCH   3   4
ATOM      4  C   UNL A   1      31.784  28.724  25.964  1.00  0.00     0.338 C 
ATOM      5  O   UNL A   1      31.459  28.314  27.050  1.00  0.00    -0.246 OA
BRANCH   4   6
ATOM      6  C   UNL A   1      32.174  28.018  24.749  1.00  0.00     0.087 C 
ATOM      7  C   UNL A   1      33.409  27.273  24.821  1.00  0.00     0.027 C 
ATOM      8  C   UNL A   1      30.428  27.243  24.552  1.00  0.00     0.316 C 
ATOM      9  C   UNL A   1      33.510  25.510  25.004  1.00  0.00     0.020 A 
ATOM     10  O   UNL A   1      30.485  25.320  24.876  1.00  0.00    -0.474 OA
ATOM     11  C   UNL A   1      34.748  24.987  25.225  1.00  0.00     0.034 A 
ATOM     12  C   UNL A   1      32.111  24.504  25.163  1.00  0.00     0.148 A 
ATOM     13  C   UNL A   1      34.756  23.652  25.658  1.00  0.00     0.062 A 
ATOM     14  C   UNL A   1      32.204  23.210  25.608  1.00  0.00     0.103 A 
ATOM     15  Cl  UNL A   1      36.364  23.051  25.991  1.00  0.00    -0.083 Cl
ATOM     16  C   UNL A   1      33.559  22.812  25.873  1.00  0.00     0.082 A 
ATOM     17  Cl  UNL A   1      30.840  22.235  25.923  1.00  0.00    -0.079 Cl
ATOM     18  Cl  UNL A   1      33.841  21.231  26.580  1.00  0.00    -0.081 Cl
BRANCH   8  19
ATOM     19  C   UNL A   1      30.201  28.219  23.235  1.00  0.00     0.430 C 
ATOM     20  F   UNL A   1      30.941  27.814  22.198  1.00  0.00    -0.167 F 
ATOM     21  F   UNL A   1      28.925  28.079  22.748  1.00  0.00    -0.167 F 
ATOM     22  F   UNL A   1      30.271  29.550  23.402  1.00  0.00    -0.167 F 
ENDBRANCH   8  19
ENDBRANCH   4   6
ENDBRANCH   3   4
ENDBRANCH   2   3
ENDBRANCH   1   2
BRANCH   1  23
ATOM     23  O   UNL A   1      35.881  30.242  28.973  1.00  0.00    -0.458 OA
BRANCH  23  24
ATOM     24  C   UNL A   1      36.617  29.948  30.111  1.00  0.00     0.338 C 
ATOM     25  O   UNL A   1      36.299  29.299  31.092  1.00  0.00    -0.246 OA
BRANCH  24  26
ATOM     26  C   UNL A   1      38.058  30.147  29.754  1.00  0.00     0.060 A 
ATOM     27  C   UNL A   1      39.038  29.921  30.746  1.00  0.00     0.016 A 
ATOM     28  C   UNL A   1      38.426  30.157  28.410  1.00  0.00     0.016 A 
ATOM     29  C   UNL A   1      40.333  29.510  30.372  1.00  0.00     0.010 A 
ATOM     30  C   UNL A   1      39.701  29.718  28.043  1.00  0.00     0.010 A 
ATOM     31  C   UNL A   1      40.651  29.343  29.015  1.00  0.00    -0.014 A 
BRANCH  31  32
ATOM     32  C   UNL A   1      42.062  29.157  28.588  1.00  0.00     0.031 A 
ATOM     33  C   UNL A   1      42.378  27.756  28.153  1.00  0.00     0.074 A 
ATOM     34  C   UNL A   1      43.024  30.104  28.628  1.00  0.00     0.049 A 
ATOM     35  N   UNL A   1      43.508  27.223  27.790  1.00  0.00    -0.248 NA
ATOM     36  C   UNL A   1      41.243  26.811  28.186  1.00  0.00     0.031 C 
ATOM     37  C   UNL A   1      42.856  31.497  29.048  1.00  0.00     0.029 A 
ATOM     38  N   UNL A   1      44.364  30.022  28.309  1.00  0.00    -0.354 N 
ATOM     39  C   UNL A   1      43.213  25.885  27.561  1.00  0.00     0.074 A 
ATOM     40  C   UNL A   1      41.839  25.665  27.935  1.00  0.00     0.031 C 
ATOM     41  C   UNL A   1      44.040  32.137  28.946  1.00  0.00     0.029 A 
ATOM     42  C   UNL A   1      45.061  31.203  28.467  1.00  0.00     0.049 A 
ATOM     43  H   UNL A   1      44.787  29.192  27.994  1.00  0.00     0.167 HD
ATOM     44  C   UNL A   1      43.999  24.924  27.035  1.00  0.00     0.037 A 
ATOM     45  C   UNL A   1      46.365  31.482  28.235  1.00  0.00     0.037 A 
ATOM     46  C   UNL A   1      45.367  25.147  26.680  1.00  0.00     0.049 A 
ATOM     47  C   UNL A   1      47.257  30.375  27.706  1.00  0.00     0.074 A 
ATOM     48  C   UNL A   1      46.270  24.257  26.137  1.00  0.00     0.029 A 
ATOM     49  N   UNL A   1      46.030  26.353  26.853  1.00  0.00    -0.354 N 
ATOM     50  N   UNL A   1      46.952  29.127  27.426  1.00  0.00    -0.248 NA
ATOM     51  C   UNL A   1      48.665  30.714  27.445  1.00  0.00     0.031 C 
ATOM     52  C   UNL A   1      47.503  24.909  26.044  1.00  0.00     0.029 A 
ATOM     53  C   UNL A   1      47.343  26.227  26.449  1.00  0.00     0.049 A 
ATOM     54  H   UNL A   1      45.625  27.176  27.211  1.00  0.00     0.167 HD
ATOM     55  C   UNL A   1      48.111  28.552  26.907  1.00  0.00     0.074 A 
ATOM     56  C   UNL A   1      49.124  29.587  26.917  1.00  0.00     0.031 C 
ATOM     57  C   UNL A   1      48.320  27.289  26.451  1.00  0.00     0.037 A 
BRANCH  44  58
ATOM     58  C   UNL A   1      43.374  23.571  26.869  1.00  0.00     0.058 A 
ATOM     59  C   UNL A   1      43.276  22.663  27.940  1.00  0.00     0.135 A 
ATOM     60  C   UNL A   1      42.969  23.136  25.600  1.00  0.00     0.135 A 
ATOM     61  F   UNL A   1      43.695  23.014  29.167  1.00  0.00    -0.206 F 
ATOM     62  C   UNL A   1      42.856  21.354  27.745  1.00  0.00     0.059 A 
ATOM     63  C   UNL A   1      42.502  21.842  25.391  1.00  0.00     0.059 A 
ATOM     64  F   UNL A   1      43.062  23.954  24.540  1.00  0.00    -0.206 F 
ATOM     65  C   UNL A   1      42.473  20.953  26.464  1.00  0.00     0.060 A 
BRANCH  65  66
ATOM     66  S   UNL A   1      41.948  19.245  26.221  1.00  0.00     0.124 S 
ATOM     67  O   UNL A   1      40.516  19.409  25.992  1.00  0.00    -0.237 OA
ATOM     68  O   UNL A   1      42.733  18.844  25.059  1.00  0.00    -0.237 OA
ATOM     69  O   UNL A   1      42.313  18.596  27.477  1.00  0.00    -0.744 OA
ENDBRANCH  65  66
ENDBRANCH  44  58
BRANCH  45  70
ATOM     70  C   UNL A   1      46.920  32.859  28.441  1.00  0.00     0.058 A 
ATOM     71  C   UNL A   1      46.930  33.803  27.397  1.00  0.00     0.135 A 
ATOM     72  C   UNL A   1      47.488  33.256  29.662  1.00  0.00     0.135 A 
ATOM     73  F   UNL A   1      46.429  33.476  26.196  1.00  0.00    -0.206 F 
ATOM     74  C   UNL A   1      47.485  35.073  27.551  1.00  0.00     0.059 A 
ATOM     75  C   UNL A   1      48.028  34.531  29.849  1.00  0.00     0.059 A 
ATOM     76  F   UNL A   1      47.522  32.401  30.696  1.00  0.00    -0.206 F 
ATOM     77  C   UNL A   1      48.025  35.432  28.786  1.00  0.00     0.060 A 
BRANCH  77  78
ATOM     78  S   UNL A   1      48.683  37.105  28.992  1.00  0.00     0.124 S 
ATOM     79  O   UNL A   1      50.101  36.844  29.215  1.00  0.00    -0.237 OA
ATOM     80  O   UNL A   1      48.343  37.725  27.715  1.00  0.00    -0.237 OA
ATOM     81  O   UNL A   1      47.950  37.617  30.145  1.00  0.00    -0.744 OA
ENDBRANCH  77  78
ENDBRANCH  45  70
BRANCH  57  82
ATOM     82  C   UNL A   1      49.661  26.969  25.849  1.00  0.00     0.058 A 
ATOM     83  C   UNL A   1      49.945  27.177  24.492  1.00  0.00     0.135 A 
ATOM     84  C   UNL A   1      50.708  26.532  26.680  1.00  0.00     0.135 A 
ATOM     85  F   UNL A   1      48.983  27.600  23.656  1.00  0.00    -0.206 F 
ATOM     86  C   UNL A   1      51.212  26.933  23.971  1.00  0.00     0.059 A 
ATOM     87  C   UNL A   1      51.990  26.320  26.190  1.00  0.00     0.059 A 
ATOM     88  F   UNL A   1      50.497  26.338  27.991  1.00  0.00    -0.206 F 
ATOM     89  C   UNL A   1      52.229  26.508  24.830  1.00  0.00     0.060 A 
BRANCH  89  90
ATOM     90  S   UNL A   1      53.874  26.224  24.148  1.00  0.00     0.124 S 
ATOM     91  O   UNL A   1      53.591  26.162  22.718  1.00  0.00    -0.237 OA
ATOM     92  O   UNL A   1      54.607  27.402  24.600  1.00  0.00    -0.237 OA
ATOM     93  O   UNL A   1      54.285  24.963  24.762  1.00  0.00    -0.744 OA
ENDBRANCH  89  90
ENDBRANCH  57  82
ENDBRANCH  31  32
ENDBRANCH  24  26
ENDBRANCH  23  24
ENDBRANCH   1  23
TORSDOF 15
ENDMDL
MODEL 3
REMARK VINA RESULT:     -13.2      6.905     12.385
REMARK SMILES O=C(OCCOC(=O)c1ccc(-c2c3nc(c(-c4c(F)cc(S(=O)(=O)[O-])cc4F)c4ccc([nH]4)c(-c4c(F)cc(S(=O)(=O)[O-])cc4F)c4nc(c(-c5c(F)cc(S(=O)(=O)[O-])cc5F)c5ccc2[nH]5)C=C4)C=C3)cc1)C1=Cc2cc(Cl)c(Cl)c(Cl)c2O[C@@H]1C(F)(F)F
REMARK SMILES IDX 5 1 4 2 3 3 2 4 1 5 75 6 76 7 87 8 77 9 86 10 78 11 85 12
REMARK SMILES IDX 79 13 83 14 80 15 81 16 84 17 82 18 88 19 89 20 90 21 91 22
REMARK SMILES IDX 6 23 7 24 8 25 9 26 10 27 74 28 11 29 73 30 12 31 13 32
REMARK SMILES IDX 14 33 67 34 15 35 72 36 66 37 68 38 16 39 71 40 65 41 64 42
REMARK SMILES IDX 17 44 51 45 30 46 50 47 31 48 34 49 49 50 69 51 32 52 33 53
REMARK SMILES IDX 48 55 70 56 35 57 18 58 19 59 28 60 20 61 21 62 27 63 29 64
REMARK SMILES IDX 22 65 23 66 24 67 25 68 26 69 52 70 53 71 62 72 54 73 55 74
REMARK SMILES IDX 61 75 63 76 56 77 57 78 58 79 59 80 60 81 36 82 37 83 46 84
REMARK SMILES IDX 38 85 39 86 45 87 47 88 40 89 41 90 42 91 43 92 44 93
REMARK H PARENT 68 43 34 54
REMARK Flexibility Score: inf
ROOT
ATOM      1  C   UNL A   1      34.785  31.367  27.783  1.00  0.00     0.275 C 
ENDROOT
BRANCH   1   2
ATOM      2  C   UNL A   1      32.818  30.695  27.114  1.00  0.00     0.275 C 
BRANCH   2   3
ATOM      3  O   UNL A   1      32.502  29.904  25.862  1.00  0.00    -0.459 OA
BRANCH   3   4
ATOM      4  C   UNL A   1      31.903  28.743  26.137  1.00  0.00     0.338 C 
ATOM      5  O   UNL A   1      31.549  28.325  27.211  1.00  0.00    -0.246 OA
BRANCH   4   6
ATOM      6  C   UNL A   1      32.283  28.045  24.914  1.00  0.00     0.087 C 
ATOM      7  C   UNL A   1      33.505  27.278  24.979  1.00  0.00     0.027 C 
ATOM      8  C   UNL A   1      30.525  27.305  24.703  1.00  0.00     0.316 C 
ATOM      9  C   UNL A   1      33.574  25.511  25.139  1.00  0.00     0.020 A 
ATOM     10  O   UNL A   1      30.547  25.377  25.002  1.00  0.00    -0.474 OA
ATOM     11  C   UNL A   1      34.802  24.963  25.355  1.00  0.00     0.034 A 
ATOM     12  C   UNL A   1      32.157  24.528  25.281  1.00  0.00     0.148 A 
ATOM     13  C   UNL A   1      34.785  23.622  25.770  1.00  0.00     0.062 A 
ATOM     14  C   UNL A   1      32.225  23.227  25.710  1.00  0.00     0.103 A 
ATOM     15  Cl  UNL A   1      36.381  22.989  26.099  1.00  0.00    -0.083 Cl
ATOM     16  C   UNL A   1      33.573  22.802  25.972  1.00  0.00     0.082 A 
ATOM     17  Cl  UNL A   1      30.844  22.273  26.009  1.00  0.00    -0.079 Cl
ATOM     18  Cl  UNL A   1      33.825  21.206  26.658  1.00  0.00    -0.081 Cl
BRANCH   8  19
ATOM     19  C   UNL A   1      30.318  28.301  23.399  1.00  0.00     0.430 C 
ATOM     20  F   UNL A   1      30.860  27.776  22.296  1.00  0.00    -0.167 F 
ATOM     21  F   UNL A   1      28.990  28.376  23.056  1.00  0.00    -0.167 F 
ATOM     22  F   UNL A   1      30.626  29.603  23.529  1.00  0.00    -0.167 F 
ENDBRANCH   8  19
ENDBRANCH   4   6
ENDBRANCH   3   4
ENDBRANCH   2   3
ENDBRANCH   1   2
BRANCH   1  23
ATOM     23  O   UNL A   1      35.613  30.693  29.180  1.00  0.00    -0.458 OA
BRANCH  23  24
ATOM     24  C   UNL A   1      36.669  30.930  30.047  1.00  0.00     0.338 C 
ATOM     25  O   UNL A   1      36.663  31.447  31.150  1.00  0.00    -0.246 OA
BRANCH  24  26
ATOM     26  C   UNL A   1      37.779  30.014  29.632  1.00  0.00     0.060 A 
ATOM     27  C   UNL A   1      38.064  29.877  28.256  1.00  0.00     0.016 A 
ATOM     28  C   UNL A   1      38.733  29.638  30.576  1.00  0.00     0.016 A 
ATOM     29  C   UNL A   1      39.371  29.556  27.838  1.00  0.00     0.010 A 
ATOM     30  C   UNL A   1      40.037  29.351  30.159  1.00  0.00     0.010 A 
ATOM     31  C   UNL A   1      40.381  29.355  28.791  1.00  0.00    -0.014 A 
BRANCH  31  32
ATOM     32  C   UNL A   1      41.691  28.776  28.393  1.00  0.00     0.031 A 
ATOM     33  C   UNL A   1      42.803  29.783  28.347  1.00  0.00     0.074 A 
ATOM     34  C   UNL A   1      41.903  27.492  28.034  1.00  0.00     0.049 A 
ATOM     35  N   UNL A   1      44.044  29.648  27.977  1.00  0.00    -0.248 NA
ATOM     36  C   UNL A   1      42.430  31.158  28.733  1.00  0.00     0.031 C 
ATOM     37  C   UNL A   1      40.907  26.419  28.015  1.00  0.00     0.029 A 
ATOM     38  N   UNL A   1      43.055  26.870  27.600  1.00  0.00    -0.354 N 
ATOM     39  C   UNL A   1      44.586  30.922  28.083  1.00  0.00     0.074 A 
ATOM     40  C   UNL A   1      43.523  31.828  28.435  1.00  0.00     0.031 C 
ATOM     41  C   UNL A   1      41.495  25.274  27.607  1.00  0.00     0.029 A 
ATOM     42  C   UNL A   1      42.908  25.526  27.319  1.00  0.00     0.049 A 
ATOM     43  H   UNL A   1      43.912  27.344  27.500  1.00  0.00     0.167 HD
ATOM     44  C   UNL A   1      45.872  31.307  27.950  1.00  0.00     0.037 A 
ATOM     45  C   UNL A   1      43.819  24.620  26.895  1.00  0.00     0.037 A 
ATOM     46  C   UNL A   1      46.920  30.404  27.586  1.00  0.00     0.049 A 
ATOM     47  C   UNL A   1      45.250  25.080  26.685  1.00  0.00     0.074 A 
ATOM     48  C   UNL A   1      48.264  30.669  27.421  1.00  0.00     0.029 A 
ATOM     49  N   UNL A   1      46.729  29.057  27.314  1.00  0.00    -0.354 N 
ATOM     50  N   UNL A   1      45.770  26.275  26.854  1.00  0.00    -0.248 NA
ATOM     51  C   UNL A   1      46.221  24.067  26.241  1.00  0.00     0.031 C 
ATOM     52  C   UNL A   1      48.876  29.492  26.982  1.00  0.00     0.029 A 
ATOM     53  C   UNL A   1      47.928  28.477  26.957  1.00  0.00     0.049 A 
ATOM     54  H   UNL A   1      45.866  28.586  27.368  1.00  0.00     0.167 HD
ATOM     55  C   UNL A   1      47.133  26.145  26.593  1.00  0.00     0.074 A 
ATOM     56  C   UNL A   1      47.355  24.756  26.249  1.00  0.00     0.031 C 
ATOM     57  C   UNL A   1      48.116  27.081  26.644  1.00  0.00     0.037 A 
BRANCH  44  58
ATOM     58  C   UNL A   1      46.156  32.764  28.170  1.00  0.00     0.058 A 
ATOM     59  C   UNL A   1      46.140  33.690  27.110  1.00  0.00     0.135 A 
ATOM     60  C   UNL A   1      46.555  33.219  29.434  1.00  0.00     0.135 A 
ATOM     61  F   UNL A   1      45.812  33.295  25.869  1.00  0.00    -0.206 F 
ATOM     62  C   UNL A   1      46.570  34.999  27.285  1.00  0.00     0.059 A 
ATOM     63  C   UNL A   1      46.946  34.537  29.641  1.00  0.00     0.059 A 
ATOM     64  F   UNL A   1      46.609  32.372  30.474  1.00  0.00    -0.206 F 
ATOM     65  C   UNL A   1      46.973  35.412  28.555  1.00  0.00     0.060 A 
BRANCH  65  66
ATOM     66  S   UNL A   1      47.547  37.109  28.764  1.00  0.00     0.124 S 
ATOM     67  O   UNL A   1      48.315  37.310  27.539  1.00  0.00    -0.237 OA
ATOM     68  O   UNL A   1      46.293  37.849  28.854  1.00  0.00    -0.237 OA
ATOM     69  O   UNL A   1      48.330  37.053  29.994  1.00  0.00    -0.744 OA
ENDBRANCH  65  66
ENDBRANCH  44  58
BRANCH  45  70
ATOM     70  C   UNL A   1      43.454  23.182  26.682  1.00  0.00     0.058 A 
ATOM     71  C   UNL A   1      43.157  22.339  27.768  1.00  0.00     0.135 A 
ATOM     72  C   UNL A   1      43.430  22.604  25.403  1.00  0.00     0.135 A 
ATOM     73  F   UNL A   1      43.191  22.823  29.019  1.00  0.00    -0.206 F 
ATOM     74  C   UNL A   1      42.862  20.986  27.598  1.00  0.00     0.059 A 
ATOM     75  C   UNL A   1      43.113  21.258  25.204  1.00  0.00     0.059 A 
ATOM     76  F   UNL A   1      43.715  23.349  24.324  1.00  0.00    -0.206 F 
ATOM     77  C   UNL A   1      42.834  20.456  26.309  1.00  0.00     0.060 A 
BRANCH  77  78
ATOM     78  S   UNL A   1      42.386  18.715  26.096  1.00  0.00     0.124 S 
ATOM     79  O   UNL A   1      43.330  18.286  25.070  1.00  0.00    -0.237 OA
ATOM     80  O   UNL A   1      42.612  18.177  27.434  1.00  0.00    -0.237 OA
ATOM     81  O   UNL A   1      40.989  18.774  25.679  1.00  0.00    -0.744 OA
ENDBRANCH  77  78
ENDBRANCH  45  70
BRANCH  57  82
ATOM     82  C   UNL A   1      49.533  26.632  26.404  1.00  0.00     0.058 A 
ATOM     83  C   UNL A   1      50.299  26.003  27.395  1.00  0.00     0.135 A 
ATOM     84  C   UNL A   1      50.091  26.755  25.120  1.00  0.00     0.135 A 
ATOM     85  F   UNL A   1      49.811  25.854  28.637  1.00  0.00    -0.206 F 
ATOM     86  C   UNL A   1      51.584  25.540  27.131  1.00  0.00     0.059 A 
ATOM     87  C   UNL A   1      51.356  26.264  24.823  1.00  0.00     0.059 A 
ATOM     88  F   UNL A   1      49.391  27.329  24.128  1.00  0.00    -0.206 F 
ATOM     89  C   UNL A   1      52.102  25.672  25.840  1.00  0.00     0.060 A 
BRANCH  89  90
ATOM     90  S   UNL A   1      53.757  25.040  25.503  1.00  0.00     0.124 S 
ATOM     91  O   UNL A   1      54.483  25.471  26.693  1.00  0.00    -0.237 OA
ATOM     92  O   UNL A   1      53.525  23.604  25.386  1.00  0.00    -0.237 OA
ATOM     93  O   UNL A   1      54.133  25.712  24.262  1.00  0.00    -0.744 OA
ENDBRANCH  89  90
ENDBRANCH  57  82
ENDBRANCH  31  32
ENDBRANCH  24  26
ENDBRANCH  23  24
ENDBRANCH   1  23
TORSDOF 15
ENDMDL
