MODEL 1
REMARK VINA RESULT:     -12.5      0.000      0.000
REMARK SMILES CC(C)c1ccc2c(c1)C(=O)C[C@@H]1[C@@]2(C)CCC[C@]1(C)C(=O)OCCOC(=O)c1ccc(-c2c3nc(c(-c4c(F)cc(S(=O)(=O)[O-])cc4F)c4ccc([nH]4)c(-c4c(F)cc(S(=O)(=O)[O-])cc4F)c4nc(c(-c5c(F)cc(S(=O)(=O)[O-])cc5F)c5ccc2[nH]5)C=C4)C=C3)cc1
REMARK SMILES IDX 25 1 24 2 23 3 21 4 22 5 19 6 4 7 5 8 9 9 6 10 8 11 7 12
REMARK SMILES IDX 10 13 14 14 12 15 11 16 13 17 16 18 15 19 17 20 18 21 20 22
REMARK SMILES IDX 2 23 1 24 3 25 26 26 27 27 28 28 29 29 30 30 94 31 31 32
REMARK SMILES IDX 93 33 32 34 33 35 34 36 87 37 35 38 92 39 86 40 88 41 36 42
REMARK SMILES IDX 91 43 85 44 84 45 37 47 71 48 50 49 70 50 51 51 54 52 69 53
REMARK SMILES IDX 89 54 52 55 53 56 68 58 90 59 55 60 38 61 39 62 48 63 40 64
REMARK SMILES IDX 41 65 47 66 49 67 42 68 43 69 44 70 45 71 46 72 72 73 73 74
REMARK SMILES IDX 82 75 74 76 75 77 81 78 83 79 76 80 77 81 78 82 79 83 80 84
REMARK SMILES IDX 56 85 57 86 66 87 58 88 59 89 65 90 67 91 60 92 61 93 62 94
REMARK SMILES IDX 63 95 64 96
REMARK H PARENT 88 46 54 57
REMARK Flexibility Score: inf
ROOT
ATOM      1  C   UNL A   1      32.881  28.788  27.339  1.00  0.00     0.275 C 
ENDROOT
BRANCH   1   2
ATOM      2  C   UNL A   1      32.932  27.404  26.643  1.00  0.00     0.274 C 
BRANCH   2   3
ATOM      3  O   UNL A   1      34.094  26.965  25.870  1.00  0.00    -0.462 OA
BRANCH   3   4
ATOM      4  C   UNL A   1      34.150  25.715  25.344  1.00  0.00     0.312 C 
ATOM      5  O   UNL A   1      35.035  25.329  24.604  1.00  0.00    -0.252 OA
BRANCH   4   6
ATOM      6  C   UNL A   1      32.959  24.832  25.805  1.00  0.00     0.069 C 
ATOM      7  C   UNL A   1      28.692  28.874  22.977  1.00  0.00    -0.045 A 
ATOM      8  C   UNL A   1      27.961  27.813  23.512  1.00  0.00     0.004 A 
ATOM      9  C   UNL A   1      30.084  28.734  22.910  1.00  0.00     0.016 A 
ATOM     10  C   UNL A   1      28.602  26.644  23.936  1.00  0.00     0.005 A 
ATOM     11  C   UNL A   1      30.723  27.555  23.346  1.00  0.00     0.022 A 
ATOM     12  C   UNL A   1      30.003  26.478  23.857  1.00  0.00    -0.031 A 
ATOM     13  C   UNL A   1      32.170  27.441  23.151  1.00  0.00     0.163 C 
ATOM     14  C   UNL A   1      30.654  25.133  24.250  1.00  0.00    -0.002 C 
ATOM     15  C   UNL A   1      32.739  26.052  23.114  1.00  0.00     0.086 C 
ATOM     16  O   UNL A   1      32.837  28.439  22.895  1.00  0.00    -0.294 OA
ATOM     17  C   UNL A   1      32.265  25.046  24.208  1.00  0.00     0.024 C 
ATOM     18  C   UNL A   1      30.150  24.815  25.671  1.00  0.00     0.012 C 
ATOM     19  C   UNL A   1      30.129  24.091  23.223  1.00  0.00     0.017 C 
ATOM     20  C   UNL A   1      30.710  23.531  26.203  1.00  0.00     0.002 C 
ATOM     21  C   UNL A   1      32.198  23.414  25.945  1.00  0.00     0.019 C 
ATOM     22  C   UNL A   1      34.239  24.003  26.531  1.00  0.00     0.024 C 
BRANCH   7  23
ATOM     23  C   UNL A   1      27.961  30.077  22.408  1.00  0.00     0.013 C 
ATOM     24  C   UNL A   1      27.587  31.119  23.464  1.00  0.00     0.012 C 
ATOM     25  C   UNL A   1      28.784  30.717  21.286  1.00  0.00     0.012 C 
ENDBRANCH   7  23
ENDBRANCH   4   6
ENDBRANCH   3   4
ENDBRANCH   2   3
ENDBRANCH   1   2
BRANCH   1  26
ATOM     26  O   UNL A   1      33.867  29.717  26.838  1.00  0.00    -0.458 OA
BRANCH  26  27
ATOM     27  C   UNL A   1      34.461  30.491  27.789  1.00  0.00     0.338 C 
ATOM     28  O   UNL A   1      33.985  31.485  28.323  1.00  0.00    -0.246 OA
BRANCH  27  29
ATOM     29  C   UNL A   1      35.809  29.969  28.123  1.00  0.00     0.060 A 
ATOM     30  C   UNL A   1      36.789  29.961  27.135  1.00  0.00     0.016 A 
ATOM     31  C   UNL A   1      36.147  29.595  29.433  1.00  0.00     0.016 A 
ATOM     32  C   UNL A   1      38.085  29.538  27.453  1.00  0.00     0.010 A 
ATOM     33  C   UNL A   1      37.437  29.159  29.750  1.00  0.00     0.010 A 
ATOM     34  C   UNL A   1      38.419  29.131  28.759  1.00  0.00    -0.014 A 
BRANCH  34  35
ATOM     35  C   UNL A   1      39.831  28.821  29.089  1.00  0.00     0.031 A 
ATOM     36  C   UNL A   1      40.438  27.488  28.772  1.00  0.00     0.074 A 
ATOM     37  C   UNL A   1      40.582  29.792  29.642  1.00  0.00     0.049 A 
ATOM     38  N   UNL A   1      41.700  27.144  28.770  1.00  0.00    -0.248 NA
ATOM     39  C   UNL A   1      39.515  26.398  28.422  1.00  0.00     0.031 C 
ATOM     40  C   UNL A   1      40.080  31.102  30.059  1.00  0.00     0.029 A 
ATOM     41  N   UNL A   1      41.925  29.844  29.916  1.00  0.00    -0.354 N 
ATOM     42  C   UNL A   1      41.732  25.815  28.370  1.00  0.00     0.074 A 
ATOM     43  C   UNL A   1      40.355  25.393  28.210  1.00  0.00     0.031 C 
ATOM     44  C   UNL A   1      41.109  31.849  30.483  1.00  0.00     0.029 A 
ATOM     45  C   UNL A   1      42.341  31.072  30.374  1.00  0.00     0.049 A 
ATOM     46  H   UNL A   1      42.531  29.077  29.798  1.00  0.00     0.167 HD
ATOM     47  C   UNL A   1      42.815  25.035  28.131  1.00  0.00     0.037 A 
ATOM     48  C   UNL A   1      43.579  31.534  30.639  1.00  0.00     0.037 A 
ATOM     49  C   UNL A   1      44.180  25.467  28.321  1.00  0.00     0.049 A 
ATOM     50  C   UNL A   1      44.764  30.644  30.383  1.00  0.00     0.074 A 
ATOM     51  C   UNL A   1      45.346  24.766  28.066  1.00  0.00     0.029 A 
ATOM     52  N   UNL A   1      44.561  26.700  28.831  1.00  0.00    -0.354 N 
ATOM     53  N   UNL A   1      44.789  29.426  29.898  1.00  0.00    -0.248 NA
ATOM     54  C   UNL A   1      46.089  31.195  30.700  1.00  0.00     0.031 C 
ATOM     55  C   UNL A   1      46.430  25.555  28.469  1.00  0.00     0.029 A 
ATOM     56  C   UNL A   1      45.943  26.769  28.926  1.00  0.00     0.049 A 
ATOM     57  H   UNL A   1      43.941  27.421  29.087  1.00  0.00     0.167 HD
ATOM     58  C   UNL A   1      46.133  29.070  29.833  1.00  0.00     0.074 A 
ATOM     59  C   UNL A   1      46.888  30.210  30.312  1.00  0.00     0.031 C 
ATOM     60  C   UNL A   1      46.686  27.905  29.416  1.00  0.00     0.037 A 
BRANCH  47  61
ATOM     61  C   UNL A   1      42.582  23.642  27.610  1.00  0.00     0.058 A 
ATOM     62  C   UNL A   1      42.569  23.375  26.232  1.00  0.00     0.135 A 
ATOM     63  C   UNL A   1      42.458  22.552  28.486  1.00  0.00     0.135 A 
ATOM     64  F   UNL A   1      42.679  24.379  25.347  1.00  0.00    -0.206 F 
ATOM     65  C   UNL A   1      42.423  22.081  25.741  1.00  0.00     0.059 A 
ATOM     66  C   UNL A   1      42.336  21.245  28.018  1.00  0.00     0.059 A 
ATOM     67  F   UNL A   1      42.469  22.748  29.815  1.00  0.00    -0.206 F 
ATOM     68  C   UNL A   1      42.310  21.022  26.643  1.00  0.00     0.060 A 
BRANCH  68  69
ATOM     69  S   UNL A   1      42.137  19.349  25.985  1.00  0.00     0.124 S 
ATOM     70  O   UNL A   1      42.661  18.546  27.086  1.00  0.00    -0.237 OA
ATOM     71  O   UNL A   1      40.698  19.252  25.758  1.00  0.00    -0.237 OA
ATOM     72  O   UNL A   1      42.960  19.369  24.780  1.00  0.00    -0.744 OA
ENDBRANCH  68  69
ENDBRANCH  47  61
BRANCH  48  73
ATOM     73  C   UNL A   1      43.751  32.931  31.118  1.00  0.00     0.058 A 
ATOM     74  C   UNL A   1      43.813  34.003  30.216  1.00  0.00     0.135 A 
ATOM     75  C   UNL A   1      43.816  33.223  32.490  1.00  0.00     0.135 A 
ATOM     76  F   UNL A   1      43.760  33.773  28.896  1.00  0.00    -0.206 F 
ATOM     77  C   UNL A   1      43.942  35.316  30.656  1.00  0.00     0.059 A 
ATOM     78  C   UNL A   1      43.918  34.530  32.954  1.00  0.00     0.059 A 
ATOM     79  F   UNL A   1      43.744  32.232  33.392  1.00  0.00    -0.206 F 
ATOM     80  C   UNL A   1      43.987  35.570  32.028  1.00  0.00     0.060 A 
BRANCH  80  81
ATOM     81  S   UNL A   1      44.100  37.284  32.587  1.00  0.00     0.124 S 
ATOM     82  O   UNL A   1      45.446  37.322  33.146  1.00  0.00    -0.237 OA
ATOM     83  O   UNL A   1      43.905  38.022  31.343  1.00  0.00    -0.237 OA
ATOM     84  O   UNL A   1      43.011  37.396  33.553  1.00  0.00    -0.744 OA
ENDBRANCH  80  81
ENDBRANCH  48  73
BRANCH  60  85
ATOM     85  C   UNL A   1      48.187  27.793  29.461  1.00  0.00     0.058 A 
ATOM     86  C   UNL A   1      48.851  27.298  30.595  1.00  0.00     0.135 A 
ATOM     87  C   UNL A   1      48.964  28.116  28.337  1.00  0.00     0.135 A 
ATOM     88  F   UNL A   1      48.157  26.981  31.700  1.00  0.00    -0.206 F 
ATOM     89  C   UNL A   1      50.233  27.144  30.619  1.00  0.00     0.059 A 
ATOM     90  C   UNL A   1      50.346  27.943  28.329  1.00  0.00     0.059 A 
ATOM     91  F   UNL A   1      48.380  28.585  27.222  1.00  0.00    -0.206 F 
ATOM     92  C   UNL A   1      50.972  27.462  29.477  1.00  0.00     0.060 A 
BRANCH  92  93
ATOM     93  S   UNL A   1      52.759  27.209  29.510  1.00  0.00     0.124 S 
ATOM     94  O   UNL A   1      53.244  28.555  29.795  1.00  0.00    -0.237 OA
ATOM     95  O   UNL A   1      52.915  26.238  30.589  1.00  0.00    -0.237 OA
ATOM     96  O   UNL A   1      53.058  26.704  28.173  1.00  0.00    -0.744 OA
ENDBRANCH  92  93
ENDBRANCH  60  85
ENDBRANCH  34  35
ENDBRANCH  27  29
ENDBRANCH  26  27
ENDBRANCH   1  26
TORSDOF 15
ENDMDL
MODEL 2
REMARK VINA RESULT:     -12.4      1.368      3.821
REMARK SMILES CC(C)c1ccc2c(c1)C(=O)C[C@@H]1[C@@]2(C)CCC[C@]1(C)C(=O)OCCOC(=O)c1ccc(-c2c3nc(c(-c4c(F)cc(S(=O)(=O)[O-])cc4F)c4ccc([nH]4)c(-c4c(F)cc(S(=O)(=O)[O-])cc4F)c4nc(c(-c5c(F)cc(S(=O)(=O)[O-])cc5F)c5ccc2[nH]5)C=C4)C=C3)cc1
REMARK SMILES IDX 25 1 24 2 23 3 21 4 22 5 19 6 4 7 5 8 9 9 6 10 8 11 7 12
REMARK SMILES IDX 10 13 14 14 12 15 11 16 13 17 16 18 15 19 17 20 18 21 20 22
REMARK SMILES IDX 2 23 1 24 3 25 26 26 27 27 28 28 29 29 30 30 94 31 31 32
REMARK SMILES IDX 93 33 32 34 33 35 34 36 87 37 35 38 92 39 86 40 88 41 36 42
REMARK SMILES IDX 91 43 85 44 84 45 37 47 71 48 50 49 70 50 51 51 54 52 69 53
REMARK SMILES IDX 89 54 52 55 53 56 68 58 90 59 55 60 38 61 39 62 48 63 40 64
REMARK SMILES IDX 41 65 47 66 49 67 42 68 43 69 44 70 45 71 46 72 72 73 73 74
REMARK SMILES IDX 82 75 74 76 75 77 81 78 83 79 76 80 77 81 78 82 79 83 80 84
REMARK SMILES IDX 56 85 57 86 66 87 58 88 59 89 65 90 67 91 60 92 61 93 62 94
REMARK SMILES IDX 63 95 64 96
REMARK H PARENT 88 46 54 57
REMARK Flexibility Score: inf
ROOT
ATOM      1  C   UNL A   1      33.559  28.839  26.257  1.00  0.00     0.275 C 
ENDROOT
BRANCH   1   2
ATOM      2  C   UNL A   1      33.253  27.325  26.135  1.00  0.00     0.274 C 
BRANCH   2   3
ATOM      3  O   UNL A   1      31.961  26.760  26.522  1.00  0.00    -0.462 OA
BRANCH   3   4
ATOM      4  C   UNL A   1      31.067  26.354  25.584  1.00  0.00     0.312 C 
ATOM      5  O   UNL A   1      29.974  25.888  25.844  1.00  0.00    -0.252 OA
BRANCH   4   6
ATOM      6  C   UNL A   1      31.598  26.566  24.140  1.00  0.00     0.069 C 
ATOM      7  C   UNL A   1      36.371  22.230  25.116  1.00  0.00    -0.045 A 
ATOM      8  C   UNL A   1      36.470  22.659  23.792  1.00  0.00     0.004 A 
ATOM      9  C   UNL A   1      35.210  22.567  25.822  1.00  0.00     0.016 A 
ATOM     10  C   UNL A   1      35.428  23.374  23.191  1.00  0.00     0.005 A 
ATOM     11  C   UNL A   1      34.167  23.293  25.211  1.00  0.00     0.022 A 
ATOM     12  C   UNL A   1      34.241  23.704  23.883  1.00  0.00    -0.031 A 
ATOM     13  C   UNL A   1      32.941  23.519  25.980  1.00  0.00     0.163 C 
ATOM     14  C   UNL A   1      33.080  24.411  23.149  1.00  0.00    -0.002 C 
ATOM     15  C   UNL A   1      31.693  23.798  25.193  1.00  0.00     0.086 C 
ATOM     16  O   UNL A   1      32.935  23.346  27.195  1.00  0.00    -0.294 OA
ATOM     17  C   UNL A   1      31.788  24.826  24.024  1.00  0.00     0.024 C 
ATOM     18  C   UNL A   1      33.692  25.664  22.493  1.00  0.00     0.012 C 
ATOM     19  C   UNL A   1      32.580  23.404  22.074  1.00  0.00     0.017 C 
ATOM     20  C   UNL A   1      32.675  26.473  21.744  1.00  0.00     0.002 C 
ATOM     21  C   UNL A   1      31.399  26.650  22.539  1.00  0.00     0.019 C 
ATOM     22  C   UNL A   1      30.353  27.706  24.166  1.00  0.00     0.024 C 
BRANCH   7  23
ATOM     23  C   UNL A   1      37.460  21.349  25.702  1.00  0.00     0.013 C 
ATOM     24  C   UNL A   1      37.740  20.094  24.873  1.00  0.00     0.012 C 
ATOM     25  C   UNL A   1      38.744  22.157  25.908  1.00  0.00     0.012 C 
ENDBRANCH   7  23
ENDBRANCH   4   6
ENDBRANCH   3   4
ENDBRANCH   2   3
ENDBRANCH   1   2
BRANCH   1  26
ATOM     26  O   UNL A   1      33.504  29.326  27.616  1.00  0.00    -0.458 OA
BRANCH  26  27
ATOM     27  C   UNL A   1      34.340  30.369  27.887  1.00  0.00     0.338 C 
ATOM     28  O   UNL A   1      34.041  31.555  27.908  1.00  0.00    -0.246 OA
BRANCH  27  29
ATOM     29  C   UNL A   1      35.712  29.881  28.169  1.00  0.00     0.060 A 
ATOM     30  C   UNL A   1      36.669  29.949  27.161  1.00  0.00     0.016 A 
ATOM     31  C   UNL A   1      36.092  29.464  29.455  1.00  0.00     0.016 A 
ATOM     32  C   UNL A   1      37.986  29.560  27.433  1.00  0.00     0.010 A 
ATOM     33  C   UNL A   1      37.403  29.061  29.725  1.00  0.00     0.010 A 
ATOM     34  C   UNL A   1      38.363  29.110  28.714  1.00  0.00    -0.014 A 
BRANCH  34  35
ATOM     35  C   UNL A   1      39.792  28.836  29.000  1.00  0.00     0.031 A 
ATOM     36  C   UNL A   1      40.415  27.509  28.691  1.00  0.00     0.074 A 
ATOM     37  C   UNL A   1      40.541  29.835  29.504  1.00  0.00     0.049 A 
ATOM     38  N   UNL A   1      41.684  27.191  28.652  1.00  0.00    -0.248 NA
ATOM     39  C   UNL A   1      39.504  26.393  28.399  1.00  0.00     0.031 C 
ATOM     40  C   UNL A   1      40.026  31.144  29.910  1.00  0.00     0.029 A 
ATOM     41  N   UNL A   1      41.891  29.921  29.730  1.00  0.00    -0.354 N 
ATOM     42  C   UNL A   1      41.730  25.854  28.281  1.00  0.00     0.074 A 
ATOM     43  C   UNL A   1      40.358  25.400  28.179  1.00  0.00     0.031 C 
ATOM     44  C   UNL A   1      41.053  31.922  30.281  1.00  0.00     0.029 A 
ATOM     45  C   UNL A   1      42.297  31.167  30.145  1.00  0.00     0.049 A 
ATOM     46  H   UNL A   1      42.509  29.164  29.607  1.00  0.00     0.167 HD
ATOM     47  C   UNL A   1      42.820  25.092  28.021  1.00  0.00     0.037 A 
ATOM     48  C   UNL A   1      43.533  31.661  30.356  1.00  0.00     0.037 A 
ATOM     49  C   UNL A   1      44.181  25.555  28.153  1.00  0.00     0.049 A 
ATOM     50  C   UNL A   1      44.727  30.789  30.078  1.00  0.00     0.074 A 
ATOM     51  C   UNL A   1      45.353  24.873  27.872  1.00  0.00     0.029 A 
ATOM     52  N   UNL A   1      44.554  26.807  28.621  1.00  0.00    -0.354 N 
ATOM     53  N   UNL A   1      44.761  29.562  29.619  1.00  0.00    -0.248 NA
ATOM     54  C   UNL A   1      46.050  31.374  30.336  1.00  0.00     0.031 C 
ATOM     55  C   UNL A   1      46.433  25.693  28.219  1.00  0.00     0.029 A 
ATOM     56  C   UNL A   1      45.936  26.907  28.667  1.00  0.00     0.049 A 
ATOM     57  H   UNL A   1      43.928  27.522  28.884  1.00  0.00     0.167 HD
ATOM     58  C   UNL A   1      46.109  29.231  29.515  1.00  0.00     0.074 A 
ATOM     59  C   UNL A   1      46.856  30.397  29.942  1.00  0.00     0.031 C 
ATOM     60  C   UNL A   1      46.672  28.068  29.105  1.00  0.00     0.037 A 
BRANCH  47  61
ATOM     61  C   UNL A   1      42.599  23.683  27.539  1.00  0.00     0.058 A 
ATOM     62  C   UNL A   1      42.555  23.381  26.169  1.00  0.00     0.135 A 
ATOM     63  C   UNL A   1      42.517  22.612  28.444  1.00  0.00     0.135 A 
ATOM     64  F   UNL A   1      42.625  24.365  25.258  1.00  0.00    -0.206 F 
ATOM     65  C   UNL A   1      42.420  22.074  25.713  1.00  0.00     0.059 A 
ATOM     66  C   UNL A   1      42.406  21.293  28.011  1.00  0.00     0.059 A 
ATOM     67  F   UNL A   1      42.558  22.840  29.767  1.00  0.00    -0.206 F 
ATOM     68  C   UNL A   1      42.350  21.035  26.642  1.00  0.00     0.060 A 
BRANCH  68  69
ATOM     69  S   UNL A   1      42.189  19.344  26.029  1.00  0.00     0.124 S 
ATOM     70  O   UNL A   1      42.718  18.574  27.152  1.00  0.00    -0.237 OA
ATOM     71  O   UNL A   1      40.752  19.230  25.804  1.00  0.00    -0.237 OA
ATOM     72  O   UNL A   1      43.013  19.338  24.825  1.00  0.00    -0.744 OA
ENDBRANCH  68  69
ENDBRANCH  47  61
BRANCH  48  73
ATOM     73  C   UNL A   1      43.692  33.071  30.798  1.00  0.00     0.058 A 
ATOM     74  C   UNL A   1      43.767  33.399  32.159  1.00  0.00     0.135 A 
ATOM     75  C   UNL A   1      43.815  34.112  29.864  1.00  0.00     0.135 A 
ATOM     76  F   UNL A   1      43.650  32.438  33.088  1.00  0.00    -0.206 F 
ATOM     77  C   UNL A   1      43.949  34.711  32.582  1.00  0.00     0.059 A 
ATOM     78  C   UNL A   1      44.024  35.429  30.262  1.00  0.00     0.059 A 
ATOM     79  F   UNL A   1      43.767  33.846  28.550  1.00  0.00    -0.206 F 
ATOM     80  C   UNL A   1      44.083  35.719  31.624  1.00  0.00     0.060 A 
BRANCH  80  81
ATOM     81  S   UNL A   1      44.373  37.411  32.186  1.00  0.00     0.124 S 
ATOM     82  O   UNL A   1      43.977  38.182  31.013  1.00  0.00    -0.237 OA
ATOM     83  O   UNL A   1      43.485  37.504  33.340  1.00  0.00    -0.237 OA
ATOM     84  O   UNL A   1      45.800  37.423  32.497  1.00  0.00    -0.744 OA
ENDBRANCH  80  81
ENDBRANCH  48  73
BRANCH  60  85
ATOM     85  C   UNL A   1      48.175  27.988  29.099  1.00  0.00     0.058 A 
ATOM     86  C   UNL A   1      48.887  27.500  30.206  1.00  0.00     0.135 A 
ATOM     87  C   UNL A   1      48.908  28.336  27.953  1.00  0.00     0.135 A 
ATOM     88  F   UNL A   1      48.238  27.160  31.331  1.00  0.00    -0.206 F 
ATOM     89  C   UNL A   1      50.273  27.375  30.183  1.00  0.00     0.059 A 
ATOM     90  C   UNL A   1      50.292  28.193  27.897  1.00  0.00     0.059 A 
ATOM     91  F   UNL A   1      48.277  28.801  26.862  1.00  0.00    -0.206 F 
ATOM     92  C   UNL A   1      50.966  27.717  29.019  1.00  0.00     0.060 A 
BRANCH  92  93
ATOM     93  S   UNL A   1      52.758  27.502  28.992  1.00  0.00     0.124 S 
ATOM     94  O   UNL A   1      52.924  26.539  27.908  1.00  0.00    -0.237 OA
ATOM     95  O   UNL A   1      53.229  28.855  28.714  1.00  0.00    -0.237 OA
ATOM     96  O   UNL A   1      53.063  27.000  30.329  1.00  0.00    -0.744 OA
ENDBRANCH  92  93
ENDBRANCH  60  85
ENDBRANCH  34  35
ENDBRANCH  27  29
ENDBRANCH  26  27
ENDBRANCH   1  26
TORSDOF 15
ENDMDL
MODEL 3
REMARK VINA RESULT:     -12.0      3.111      8.376
REMARK SMILES CC(C)c1ccc2c(c1)C(=O)C[C@@H]1[C@@]2(C)CCC[C@]1(C)C(=O)OCCOC(=O)c1ccc(-c2c3nc(c(-c4c(F)cc(S(=O)(=O)[O-])cc4F)c4ccc([nH]4)c(-c4c(F)cc(S(=O)(=O)[O-])cc4F)c4nc(c(-c5c(F)cc(S(=O)(=O)[O-])cc5F)c5ccc2[nH]5)C=C4)C=C3)cc1
REMARK SMILES IDX 25 1 24 2 23 3 21 4 22 5 19 6 4 7 5 8 9 9 6 10 8 11 7 12
REMARK SMILES IDX 10 13 14 14 12 15 11 16 13 17 16 18 15 19 17 20 18 21 20 22
REMARK SMILES IDX 2 23 1 24 3 25 26 26 27 27 28 28 29 29 30 30 94 31 31 32
REMARK SMILES IDX 93 33 32 34 33 35 34 36 87 37 35 38 92 39 86 40 88 41 36 42
REMARK SMILES IDX 91 43 85 44 84 45 37 47 71 48 50 49 70 50 51 51 54 52 69 53
REMARK SMILES IDX 89 54 52 55 53 56 68 58 90 59 55 60 38 61 39 62 48 63 40 64
REMARK SMILES IDX 41 65 47 66 49 67 42 68 43 69 44 70 45 71 46 72 72 73 73 74
REMARK SMILES IDX 82 75 74 76 75 77 81 78 83 79 76 80 77 81 78 82 79 83 80 84
REMARK SMILES IDX 56 85 57 86 66 87 58 88 59 89 65 90 67 91 60 92 61 93 62 94
REMARK SMILES IDX 63 95 64 96
REMARK H PARENT 88 46 54 57
REMARK Flexibility Score: inf
ROOT
ATOM      1  C   UNL A   1      32.863  28.652  27.135  1.00  0.00     0.275 C 
ENDROOT
BRANCH   1   2
ATOM      2  C   UNL A   1      32.977  27.201  26.604  1.00  0.00     0.274 C 
BRANCH   2   3
ATOM      3  O   UNL A   1      34.154  26.731  25.874  1.00  0.00    -0.462 OA
BRANCH   3   4
ATOM      4  C   UNL A   1      34.188  25.487  25.332  1.00  0.00     0.312 C 
ATOM      5  O   UNL A   1      35.064  25.096  24.584  1.00  0.00    -0.252 OA
BRANCH   4   6
ATOM      6  C   UNL A   1      32.986  24.616  25.788  1.00  0.00     0.069 C 
ATOM      7  C   UNL A   1      28.771  28.762  23.033  1.00  0.00    -0.045 A 
ATOM      8  C   UNL A   1      28.025  27.706  23.557  1.00  0.00     0.004 A 
ATOM      9  C   UNL A   1      30.160  28.601  22.957  1.00  0.00     0.016 A 
ATOM     10  C   UNL A   1      28.649  26.521  23.964  1.00  0.00     0.005 A 
ATOM     11  C   UNL A   1      30.782  27.406  23.375  1.00  0.00     0.022 A 
ATOM     12  C   UNL A   1      30.047  26.334  23.876  1.00  0.00    -0.031 A 
ATOM     13  C   UNL A   1      32.226  27.271  23.171  1.00  0.00     0.163 C 
ATOM     14  C   UNL A   1      30.678  24.975  24.248  1.00  0.00    -0.002 C 
ATOM     15  C   UNL A   1      32.772  25.874  23.114  1.00  0.00     0.086 C 
ATOM     16  O   UNL A   1      32.907  28.262  22.924  1.00  0.00    -0.294 OA
ATOM     17  C   UNL A   1      32.288  24.862  24.198  1.00  0.00     0.024 C 
ATOM     18  C   UNL A   1      30.176  24.647  25.667  1.00  0.00     0.012 C 
ATOM     19  C   UNL A   1      30.131  23.953  23.211  1.00  0.00     0.017 C 
ATOM     20  C   UNL A   1      30.718  23.347  26.181  1.00  0.00     0.002 C 
ATOM     21  C   UNL A   1      32.202  23.209  25.914  1.00  0.00     0.019 C 
ATOM     22  C   UNL A   1      34.255  23.759  26.497  1.00  0.00     0.024 C 
BRANCH   7  23
ATOM     23  C   UNL A   1      28.057  29.983  22.482  1.00  0.00     0.013 C 
ATOM     24  C   UNL A   1      27.751  31.041  23.544  1.00  0.00     0.012 C 
ATOM     25  C   UNL A   1      28.858  30.592  21.328  1.00  0.00     0.012 C 
ENDBRANCH   7  23
ENDBRANCH   4   6
ENDBRANCH   3   4
ENDBRANCH   2   3
ENDBRANCH   1   2
BRANCH   1  26
ATOM     26  O   UNL A   1      33.844  29.548  26.568  1.00  0.00    -0.458 OA
BRANCH  26  27
ATOM     27  C   UNL A   1      34.315  30.499  27.424  1.00  0.00     0.338 C 
ATOM     28  O   UNL A   1      33.778  31.565  27.695  1.00  0.00    -0.246 OA
BRANCH  27  29
ATOM     29  C   UNL A   1      35.607  30.077  28.017  1.00  0.00     0.060 A 
ATOM     30  C   UNL A   1      36.774  30.250  27.279  1.00  0.00     0.016 A 
ATOM     31  C   UNL A   1      35.690  29.619  29.342  1.00  0.00     0.016 A 
ATOM     32  C   UNL A   1      38.008  29.923  27.852  1.00  0.00     0.010 A 
ATOM     33  C   UNL A   1      36.921  29.278  29.912  1.00  0.00     0.010 A 
ATOM     34  C   UNL A   1      38.092  29.432  29.169  1.00  0.00    -0.014 A 
BRANCH  34  35
ATOM     35  C   UNL A   1      39.424  29.226  29.788  1.00  0.00     0.031 A 
ATOM     36  C   UNL A   1      39.847  29.979  31.012  1.00  0.00     0.074 A 
ATOM     37  C   UNL A   1      40.239  28.300  29.248  1.00  0.00     0.049 A 
ATOM     38  N   UNL A   1      40.859  29.746  31.807  1.00  0.00    -0.248 NA
ATOM     39  C   UNL A   1      39.040  31.148  31.391  1.00  0.00     0.031 C 
ATOM     40  C   UNL A   1      39.962  27.559  28.017  1.00  0.00     0.029 A 
ATOM     41  N   UNL A   1      41.441  27.800  29.678  1.00  0.00    -0.354 N 
ATOM     42  C   UNL A   1      40.786  30.703  32.809  1.00  0.00     0.074 A 
ATOM     43  C   UNL A   1      39.671  31.568  32.481  1.00  0.00     0.031 C 
ATOM     44  C   UNL A   1      40.937  26.659  27.820  1.00  0.00     0.029 A 
ATOM     45  C   UNL A   1      41.909  26.763  28.906  1.00  0.00     0.049 A 
ATOM     46  H   UNL A   1      41.923  28.150  30.462  1.00  0.00     0.167 HD
ATOM     47  C   UNL A   1      41.562  30.824  33.914  1.00  0.00     0.037 A 
ATOM     48  C   UNL A   1      42.977  25.960  29.072  1.00  0.00     0.037 A 
ATOM     49  C   UNL A   1      42.686  29.967  34.211  1.00  0.00     0.049 A 
ATOM     50  C   UNL A   1      43.835  26.125  30.297  1.00  0.00     0.074 A 
ATOM     51  C   UNL A   1      43.507  29.981  35.326  1.00  0.00     0.029 A 
ATOM     52  N   UNL A   1      43.158  28.958  33.383  1.00  0.00    -0.354 N 
ATOM     53  N   UNL A   1      43.690  26.961  31.297  1.00  0.00    -0.248 NA
ATOM     54  C   UNL A   1      44.993  25.230  30.423  1.00  0.00     0.031 C 
ATOM     55  C   UNL A   1      44.505  29.017  35.147  1.00  0.00     0.029 A 
ATOM     56  C   UNL A   1      44.277  28.364  33.947  1.00  0.00     0.049 A 
ATOM     57  H   UNL A   1      42.757  28.701  32.520  1.00  0.00     0.167 HD
ATOM     58  C   UNL A   1      44.728  26.682  32.180  1.00  0.00     0.074 A 
ATOM     59  C   UNL A   1      45.480  25.586  31.604  1.00  0.00     0.031 C 
ATOM     60  C   UNL A   1      45.028  27.281  33.359  1.00  0.00     0.037 A 
BRANCH  47  61
ATOM     61  C   UNL A   1      41.215  31.901  34.907  1.00  0.00     0.058 A 
ATOM     62  C   UNL A   1      41.769  33.187  34.808  1.00  0.00     0.135 A 
ATOM     63  C   UNL A   1      40.260  31.678  35.913  1.00  0.00     0.135 A 
ATOM     64  F   UNL A   1      42.690  33.456  33.869  1.00  0.00    -0.206 F 
ATOM     65  C   UNL A   1      41.403  34.208  35.679  1.00  0.00     0.059 A 
ATOM     66  C   UNL A   1      39.859  32.692  36.780  1.00  0.00     0.059 A 
ATOM     67  F   UNL A   1      39.693  30.469  36.052  1.00  0.00    -0.206 F 
ATOM     68  C   UNL A   1      40.444  33.952  36.661  1.00  0.00     0.060 A 
BRANCH  68  69
ATOM     69  S   UNL A   1      39.972  35.295  37.771  1.00  0.00     0.124 S 
ATOM     70  O   UNL A   1      41.122  35.349  38.671  1.00  0.00    -0.237 OA
ATOM     71  O   UNL A   1      39.833  36.423  36.854  1.00  0.00    -0.237 OA
ATOM     72  O   UNL A   1      38.730  34.822  38.373  1.00  0.00    -0.744 OA
ENDBRANCH  68  69
ENDBRANCH  47  61
BRANCH  48  73
ATOM     73  C   UNL A   1      43.251  24.890  28.078  1.00  0.00     0.058 A 
ATOM     74  C   UNL A   1      44.027  25.143  26.937  1.00  0.00     0.135 A 
ATOM     75  C   UNL A   1      42.776  23.583  28.271  1.00  0.00     0.135 A 
ATOM     76  F   UNL A   1      44.499  26.377  26.707  1.00  0.00    -0.206 F 
ATOM     77  C   UNL A   1      44.316  24.141  26.017  1.00  0.00     0.059 A 
ATOM     78  C   UNL A   1      43.074  22.558  27.379  1.00  0.00     0.059 A 
ATOM     79  F   UNL A   1      42.044  23.288  29.355  1.00  0.00    -0.206 F 
ATOM     80  C   UNL A   1      43.840  22.849  26.250  1.00  0.00     0.060 A 
BRANCH  80  81
ATOM     81  S   UNL A   1      44.267  21.545  25.076  1.00  0.00     0.124 S 
ATOM     82  O   UNL A   1      43.241  20.548  25.357  1.00  0.00    -0.237 OA
ATOM     83  O   UNL A   1      44.151  22.238  23.797  1.00  0.00    -0.237 OA
ATOM     84  O   UNL A   1      45.627  21.177  25.462  1.00  0.00    -0.744 OA
ENDBRANCH  80  81
ENDBRANCH  48  73
BRANCH  60  85
ATOM     85  C   UNL A   1      46.227  26.771  34.112  1.00  0.00     0.058 A 
ATOM     86  C   UNL A   1      46.120  25.719  35.036  1.00  0.00     0.135 A 
ATOM     87  C   UNL A   1      47.507  27.290  33.858  1.00  0.00     0.135 A 
ATOM     88  F   UNL A   1      44.920  25.192  35.323  1.00  0.00    -0.206 F 
ATOM     89  C   UNL A   1      47.236  25.212  35.693  1.00  0.00     0.059 A 
ATOM     90  C   UNL A   1      48.642  26.779  34.483  1.00  0.00     0.059 A 
ATOM     91  F   UNL A   1      47.669  28.292  32.977  1.00  0.00    -0.206 F 
ATOM     92  C   UNL A   1      48.495  25.744  35.404  1.00  0.00     0.060 A 
BRANCH  92  93
ATOM     93  S   UNL A   1      49.937  25.039  36.230  1.00  0.00     0.124 S 
ATOM     94  O   UNL A   1      50.532  26.220  36.846  1.00  0.00    -0.237 OA
ATOM     95  O   UNL A   1      49.331  24.082  37.151  1.00  0.00    -0.237 OA
ATOM     96  O   UNL A   1      50.703  24.448  35.136  1.00  0.00    -0.744 OA
ENDBRANCH  92  93
ENDBRANCH  60  85
ENDBRANCH  34  35
ENDBRANCH  27  29
ENDBRANCH  26  27
ENDBRANCH   1  26
TORSDOF 15
ENDMDL
