MODEL 1
REMARK VINA RESULT:     -11.7      0.000      0.000
REMARK SMILES CCc1nn(-c2ccc(Cl)nn2)c(CC)c1CC(=O)OCCOC(=O)c1ccc(-c2c3nc(c(-c4c(F)cc(S(=O)(=O)[O-])cc4F)c4ccc([nH]4)c(-c4c(F)cc(S(=O)(=O)[O-])cc4F)c4nc(c(-c5c(F)cc(S(=O)(=O)[O-])cc5F)c5ccc2[nH]5)C=C4)C=C3)cc1
REMARK SMILES IDX 22 1 21 2 20 3 18 4 19 5 17 6 16 7 3 8 4 9 5 10 13 11 2 12
REMARK SMILES IDX 1 13 6 14 7 15 12 16 8 17 11 18 9 19 10 20 14 21 15 22 23 23
REMARK SMILES IDX 24 24 25 25 26 26 27 27 91 28 28 29 90 30 29 31 30 32 31 33
REMARK SMILES IDX 84 34 32 35 89 36 83 37 85 38 33 39 88 40 82 41 81 42 34 44
REMARK SMILES IDX 68 45 47 46 67 47 48 48 51 49 66 50 86 51 49 52 50 53 65 55
REMARK SMILES IDX 87 56 52 57 35 58 36 59 45 60 37 61 38 62 44 63 46 64 39 65
REMARK SMILES IDX 40 66 41 67 42 68 43 69 69 70 70 71 79 72 71 73 72 74 78 75
REMARK SMILES IDX 80 76 73 77 74 78 75 79 76 80 77 81 53 82 54 83 63 84 55 85
REMARK SMILES IDX 56 86 62 87 64 88 57 89 58 90 59 91 60 92 61 93
REMARK H PARENT 85 43 51 54
REMARK Flexibility Score: inf
ROOT
ATOM      1  C   UNL A   1      32.438  30.385  26.546  1.00  0.00     0.275 C 
ENDROOT
BRANCH   1   2
ATOM      2  C   UNL A   1      32.286  29.644  25.222  1.00  0.00     0.274 C 
BRANCH   2   3
ATOM      3  O   UNL A   1      33.564  29.064  24.910  1.00  0.00    -0.462 OA
BRANCH   3   4
ATOM      4  C   UNL A   1      33.579  27.744  24.587  1.00  0.00     0.310 C 
ATOM      5  O   UNL A   1      33.468  27.300  23.448  1.00  0.00    -0.252 OA
BRANCH   4   6
ATOM      6  C   UNL A   1      33.822  26.874  25.806  1.00  0.00     0.162 C 
BRANCH   6   7
ATOM      7  C   UNL A   1      33.201  25.511  25.722  1.00  0.00     0.008 A 
ATOM      8  C   UNL A   1      31.823  25.157  25.824  1.00  0.00     0.067 A 
ATOM      9  N   UNL A   1      31.640  23.834  25.703  1.00  0.00    -0.171 NA
ATOM     10  N   UNL A   1      32.865  23.334  25.435  1.00  0.00    -0.217 N 
ATOM     11  C   UNL A   1      33.848  24.304  25.490  1.00  0.00     0.050 A 
BRANCH   8  12
ATOM     12  C   UNL A   1      30.613  26.031  25.972  1.00  0.00     0.055 C 
ATOM     13  C   UNL A   1      29.919  26.434  24.681  1.00  0.00     0.011 C 
ENDBRANCH   8  12
BRANCH  10  14
ATOM     14  C   UNL A   1      33.067  21.973  25.102  1.00  0.00     0.176 A 
ATOM     15  C   UNL A   1      32.622  21.525  23.863  1.00  0.00     0.054 A 
ATOM     16  N   UNL A   1      33.328  21.123  26.123  1.00  0.00    -0.129 NA
ATOM     17  C   UNL A   1      32.396  20.159  23.701  1.00  0.00     0.047 A 
ATOM     18  N   UNL A   1      33.145  19.778  25.943  1.00  0.00    -0.136 NA
ATOM     19  C   UNL A   1      32.662  19.324  24.769  1.00  0.00     0.151 A 
ATOM     20  Cl  UNL A   1      32.331  17.651  24.699  1.00  0.00    -0.060 Cl
ENDBRANCH  10  14
BRANCH  11  21
ATOM     21  C   UNL A   1      35.297  23.995  25.273  1.00  0.00     0.053 C 
ATOM     22  C   UNL A   1      35.627  23.737  23.807  1.00  0.00     0.011 C 
ENDBRANCH  11  21
ENDBRANCH   6   7
ENDBRANCH   4   6
ENDBRANCH   3   4
ENDBRANCH   2   3
ENDBRANCH   1   2
BRANCH   1  23
ATOM     23  O   UNL A   1      33.628  30.033  27.278  1.00  0.00    -0.458 OA
BRANCH  23  24
ATOM     24  C   UNL A   1      34.291  31.061  27.867  1.00  0.00     0.338 C 
ATOM     25  O   UNL A   1      33.888  32.195  27.991  1.00  0.00    -0.246 OA
BRANCH  24  26
ATOM     26  C   UNL A   1      35.669  30.644  28.207  1.00  0.00     0.060 A 
ATOM     27  C   UNL A   1      36.555  31.642  28.627  1.00  0.00     0.016 A 
ATOM     28  C   UNL A   1      36.123  29.343  27.965  1.00  0.00     0.016 A 
ATOM     29  C   UNL A   1      37.914  31.375  28.655  1.00  0.00     0.010 A 
ATOM     30  C   UNL A   1      37.476  29.060  28.069  1.00  0.00     0.010 A 
ATOM     31  C   UNL A   1      38.380  30.086  28.363  1.00  0.00    -0.014 A 
BRANCH  31  32
ATOM     32  C   UNL A   1      39.793  29.800  28.638  1.00  0.00     0.031 A 
ATOM     33  C   UNL A   1      40.116  29.770  30.100  1.00  0.00     0.074 A 
ATOM     34  C   UNL A   1      40.680  29.367  27.720  1.00  0.00     0.049 A 
ATOM     35  N   UNL A   1      41.048  30.393  30.747  1.00  0.00    -0.248 NA
ATOM     36  C   UNL A   1      39.171  29.042  30.970  1.00  0.00     0.031 C 
ATOM     37  C   UNL A   1      40.432  29.060  26.309  1.00  0.00     0.029 A 
ATOM     38  N   UNL A   1      41.966  28.950  27.902  1.00  0.00    -0.354 N 
ATOM     39  C   UNL A   1      40.922  29.983  32.073  1.00  0.00     0.074 A 
ATOM     40  C   UNL A   1      39.658  29.304  32.179  1.00  0.00     0.031 C 
ATOM     41  C   UNL A   1      41.426  28.270  25.850  1.00  0.00     0.029 A 
ATOM     42  C   UNL A   1      42.425  28.110  26.894  1.00  0.00     0.049 A 
ATOM     43  H   UNL A   1      42.517  29.218  28.673  1.00  0.00     0.167 HD
ATOM     44  C   UNL A   1      41.955  30.015  32.956  1.00  0.00     0.037 A 
ATOM     45  C   UNL A   1      43.478  27.256  26.963  1.00  0.00     0.037 A 
ATOM     46  C   UNL A   1      42.989  30.925  32.554  1.00  0.00     0.049 A 
ATOM     47  C   UNL A   1      44.340  27.689  28.093  1.00  0.00     0.074 A 
ATOM     48  C   UNL A   1      43.032  32.277  32.272  1.00  0.00     0.029 A 
ATOM     49  N   UNL A   1      44.162  30.409  32.060  1.00  0.00    -0.354 N 
ATOM     50  N   UNL A   1      45.031  28.795  28.112  1.00  0.00    -0.248 NA
ATOM     51  C   UNL A   1      44.122  27.072  29.394  1.00  0.00     0.031 C 
ATOM     52  C   UNL A   1      43.970  32.404  31.207  1.00  0.00     0.029 A 
ATOM     53  C   UNL A   1      44.465  31.129  30.933  1.00  0.00     0.049 A 
ATOM     54  H   UNL A   1      44.683  29.666  32.441  1.00  0.00     0.167 HD
ATOM     55  C   UNL A   1      44.972  29.230  29.428  1.00  0.00     0.074 A 
ATOM     56  C   UNL A   1      44.496  28.079  30.187  1.00  0.00     0.031 C 
ATOM     57  C   UNL A   1      45.047  30.557  29.741  1.00  0.00     0.037 A 
BRANCH  44  58
ATOM     58  C   UNL A   1      42.155  28.947  34.005  1.00  0.00     0.058 A 
ATOM     59  C   UNL A   1      42.442  27.625  33.621  1.00  0.00     0.135 A 
ATOM     60  C   UNL A   1      41.802  29.127  35.365  1.00  0.00     0.135 A 
ATOM     61  F   UNL A   1      42.762  27.338  32.350  1.00  0.00    -0.206 F 
ATOM     62  C   UNL A   1      42.333  26.552  34.509  1.00  0.00     0.059 A 
ATOM     63  C   UNL A   1      41.750  28.085  36.278  1.00  0.00     0.059 A 
ATOM     64  F   UNL A   1      41.392  30.307  35.846  1.00  0.00    -0.206 F 
ATOM     65  C   UNL A   1      41.970  26.794  35.832  1.00  0.00     0.060 A 
BRANCH  65  66
ATOM     66  S   UNL A   1      41.697  25.410  36.952  1.00  0.00     0.124 S 
ATOM     67  O   UNL A   1      42.995  25.315  37.610  1.00  0.00    -0.237 OA
ATOM     68  O   UNL A   1      40.595  25.897  37.775  1.00  0.00    -0.237 OA
ATOM     69  O   UNL A   1      41.362  24.312  36.050  1.00  0.00    -0.744 OA
ENDBRANCH  65  66
ENDBRANCH  44  58
BRANCH  45  70
ATOM     70  C   UNL A   1      43.609  25.915  26.329  1.00  0.00     0.058 A 
ATOM     71  C   UNL A   1      44.658  25.629  25.439  1.00  0.00     0.135 A 
ATOM     72  C   UNL A   1      42.862  24.806  26.779  1.00  0.00     0.135 A 
ATOM     73  F   UNL A   1      45.444  26.616  24.982  1.00  0.00    -0.206 F 
ATOM     74  C   UNL A   1      44.974  24.321  25.049  1.00  0.00     0.059 A 
ATOM     75  C   UNL A   1      43.143  23.498  26.388  1.00  0.00     0.059 A 
ATOM     76  F   UNL A   1      41.888  24.943  27.691  1.00  0.00    -0.206 F 
ATOM     77  C   UNL A   1      44.217  23.260  25.543  1.00  0.00     0.060 A 
BRANCH  77  78
ATOM     78  S   UNL A   1      44.717  21.560  25.183  1.00  0.00     0.124 S 
ATOM     79  O   UNL A   1      46.079  21.529  25.703  1.00  0.00    -0.237 OA
ATOM     80  O   UNL A   1      43.730  20.785  25.926  1.00  0.00    -0.237 OA
ATOM     81  O   UNL A   1      44.602  21.476  23.728  1.00  0.00    -0.744 OA
ENDBRANCH  77  78
ENDBRANCH  45  70
BRANCH  57  82
ATOM     82  C   UNL A   1      45.518  31.517  28.680  1.00  0.00     0.058 A 
ATOM     83  C   UNL A   1      44.688  32.069  27.687  1.00  0.00     0.135 A 
ATOM     84  C   UNL A   1      46.833  31.998  28.753  1.00  0.00     0.135 A 
ATOM     85  F   UNL A   1      43.387  31.754  27.621  1.00  0.00    -0.206 F 
ATOM     86  C   UNL A   1      45.163  33.008  26.771  1.00  0.00     0.059 A 
ATOM     87  C   UNL A   1      47.319  32.960  27.871  1.00  0.00     0.059 A 
ATOM     88  F   UNL A   1      47.657  31.564  29.722  1.00  0.00    -0.206 F 
ATOM     89  C   UNL A   1      46.483  33.444  26.867  1.00  0.00     0.060 A 
BRANCH  89  90
ATOM     90  S   UNL A   1      47.081  34.695  25.711  1.00  0.00     0.124 S 
ATOM     91  O   UNL A   1      46.044  34.683  24.685  1.00  0.00    -0.237 OA
ATOM     92  O   UNL A   1      47.137  35.896  26.540  1.00  0.00    -0.237 OA
ATOM     93  O   UNL A   1      48.382  34.178  25.291  1.00  0.00    -0.744 OA
ENDBRANCH  89  90
ENDBRANCH  57  82
ENDBRANCH  31  32
ENDBRANCH  24  26
ENDBRANCH  23  24
ENDBRANCH   1  23
TORSDOF 18
ENDMDL
MODEL 2
REMARK VINA RESULT:     -11.3      1.392      2.198
REMARK SMILES CCc1nn(-c2ccc(Cl)nn2)c(CC)c1CC(=O)OCCOC(=O)c1ccc(-c2c3nc(c(-c4c(F)cc(S(=O)(=O)[O-])cc4F)c4ccc([nH]4)c(-c4c(F)cc(S(=O)(=O)[O-])cc4F)c4nc(c(-c5c(F)cc(S(=O)(=O)[O-])cc5F)c5ccc2[nH]5)C=C4)C=C3)cc1
REMARK SMILES IDX 22 1 21 2 20 3 18 4 19 5 17 6 16 7 3 8 4 9 5 10 13 11 2 12
REMARK SMILES IDX 1 13 6 14 7 15 12 16 8 17 11 18 9 19 10 20 14 21 15 22 23 23
REMARK SMILES IDX 24 24 25 25 26 26 27 27 91 28 28 29 90 30 29 31 30 32 31 33
REMARK SMILES IDX 84 34 32 35 89 36 83 37 85 38 33 39 88 40 82 41 81 42 34 44
REMARK SMILES IDX 68 45 47 46 67 47 48 48 51 49 66 50 86 51 49 52 50 53 65 55
REMARK SMILES IDX 87 56 52 57 35 58 36 59 45 60 37 61 38 62 44 63 46 64 39 65
REMARK SMILES IDX 40 66 41 67 42 68 43 69 69 70 70 71 79 72 71 73 72 74 78 75
REMARK SMILES IDX 80 76 73 77 74 78 75 79 76 80 77 81 53 82 54 83 63 84 55 85
REMARK SMILES IDX 56 86 62 87 64 88 57 89 58 90 59 91 60 92 61 93
REMARK H PARENT 85 43 51 54
REMARK Flexibility Score: inf
ROOT
ATOM      1  C   UNL A   1      32.113  29.537  26.978  1.00  0.00     0.275 C 
ENDROOT
BRANCH   1   2
ATOM      2  C   UNL A   1      31.627  29.600  25.534  1.00  0.00     0.274 C 
BRANCH   2   3
ATOM      3  O   UNL A   1      31.858  28.307  24.951  1.00  0.00    -0.462 OA
BRANCH   3   4
ATOM      4  C   UNL A   1      30.913  27.841  24.092  1.00  0.00     0.310 C 
ATOM      5  O   UNL A   1      30.250  28.540  23.332  1.00  0.00    -0.252 OA
BRANCH   4   6
ATOM      6  C   UNL A   1      30.823  26.327  24.131  1.00  0.00     0.162 C 
BRANCH   6   7
ATOM      7  C   UNL A   1      32.140  25.628  23.965  1.00  0.00     0.008 A 
ATOM      8  C   UNL A   1      33.120  25.816  22.946  1.00  0.00     0.067 A 
ATOM      9  N   UNL A   1      34.178  25.009  23.119  1.00  0.00    -0.171 NA
ATOM     10  N   UNL A   1      33.940  24.366  24.283  1.00  0.00    -0.217 N 
ATOM     11  C   UNL A   1      32.696  24.669  24.802  1.00  0.00     0.050 A 
BRANCH   8  12
ATOM     12  C   UNL A   1      33.151  26.792  21.808  1.00  0.00     0.055 C 
ATOM     13  C   UNL A   1      33.879  28.100  22.071  1.00  0.00     0.011 C 
ENDBRANCH   8  12
BRANCH  10  14
ATOM     14  C   UNL A   1      34.901  23.519  24.885  1.00  0.00     0.176 A 
ATOM     15  C   UNL A   1      35.956  24.105  25.577  1.00  0.00     0.054 A 
ATOM     16  N   UNL A   1      34.953  22.239  24.447  1.00  0.00    -0.129 NA
ATOM     17  C   UNL A   1      37.113  23.353  25.773  1.00  0.00     0.047 A 
ATOM     18  N   UNL A   1      36.076  21.491  24.681  1.00  0.00    -0.136 NA
ATOM     19  C   UNL A   1      37.132  22.055  25.301  1.00  0.00     0.151 A 
ATOM     20  Cl  UNL A   1      38.532  21.085  25.410  1.00  0.00    -0.060 Cl
ENDBRANCH  10  14
BRANCH  11  21
ATOM     21  C   UNL A   1      32.178  24.051  26.064  1.00  0.00     0.053 C 
ATOM     22  C   UNL A   1      31.066  23.040  25.807  1.00  0.00     0.011 C 
ENDBRANCH  11  21
ENDBRANCH   6   7
ENDBRANCH   4   6
ENDBRANCH   3   4
ENDBRANCH   2   3
ENDBRANCH   1   2
BRANCH   1  23
ATOM     23  O   UNL A   1      33.546  29.599  27.114  1.00  0.00    -0.458 OA
BRANCH  23  24
ATOM     24  C   UNL A   1      34.050  30.769  27.585  1.00  0.00     0.338 C 
ATOM     25  O   UNL A   1      33.445  31.808  27.712  1.00  0.00    -0.246 OA
BRANCH  24  26
ATOM     26  C   UNL A   1      35.511  30.646  27.780  1.00  0.00     0.060 A 
ATOM     27  C   UNL A   1      36.075  29.376  27.617  1.00  0.00     0.016 A 
ATOM     28  C   UNL A   1      36.278  31.709  28.269  1.00  0.00     0.016 A 
ATOM     29  C   UNL A   1      37.357  29.136  28.086  1.00  0.00     0.010 A 
ATOM     30  C   UNL A   1      37.588  31.483  28.666  1.00  0.00     0.010 A 
ATOM     31  C   UNL A   1      38.113  30.188  28.624  1.00  0.00    -0.014 A 
BRANCH  31  32
ATOM     32  C   UNL A   1      39.535  29.933  28.882  1.00  0.00     0.031 A 
ATOM     33  C   UNL A   1      39.868  29.864  30.340  1.00  0.00     0.074 A 
ATOM     34  C   UNL A   1      40.428  29.558  27.945  1.00  0.00     0.049 A 
ATOM     35  N   UNL A   1      40.786  30.491  31.003  1.00  0.00    -0.248 NA
ATOM     36  C   UNL A   1      38.949  29.079  31.190  1.00  0.00     0.031 C 
ATOM     37  C   UNL A   1      40.180  29.292  26.526  1.00  0.00     0.029 A 
ATOM     38  N   UNL A   1      41.727  29.172  28.106  1.00  0.00    -0.354 N 
ATOM     39  C   UNL A   1      40.679  30.032  32.315  1.00  0.00     0.074 A 
ATOM     40  C   UNL A   1      39.436  29.314  32.404  1.00  0.00     0.031 C 
ATOM     41  C   UNL A   1      41.193  28.547  26.035  1.00  0.00     0.029 A 
ATOM     42  C   UNL A   1      42.203  28.380  27.067  1.00  0.00     0.049 A 
ATOM     43  H   UNL A   1      42.274  29.429  28.883  1.00  0.00     0.167 HD
ATOM     44  C   UNL A   1      41.717  30.063  33.194  1.00  0.00     0.037 A 
ATOM     45  C   UNL A   1      43.280  27.555  27.101  1.00  0.00     0.037 A 
ATOM     46  C   UNL A   1      42.722  31.016  32.817  1.00  0.00     0.049 A 
ATOM     47  C   UNL A   1      44.137  27.974  28.241  1.00  0.00     0.074 A 
ATOM     48  C   UNL A   1      42.724  32.377  32.581  1.00  0.00     0.029 A 
ATOM     49  N   UNL A   1      43.906  30.550  32.300  1.00  0.00    -0.354 N 
ATOM     50  N   UNL A   1      44.796  29.098  28.294  1.00  0.00    -0.248 NA
ATOM     51  C   UNL A   1      43.945  27.307  29.521  1.00  0.00     0.031 C 
ATOM     52  C   UNL A   1      43.652  32.568  31.516  1.00  0.00     0.029 A 
ATOM     53  C   UNL A   1      44.181  31.318  31.196  1.00  0.00     0.049 A 
ATOM     54  H   UNL A   1      44.450  29.810  32.652  1.00  0.00     0.167 HD
ATOM     55  C   UNL A   1      44.732  29.486  29.624  1.00  0.00     0.074 A 
ATOM     56  C   UNL A   1      44.294  28.296  30.346  1.00  0.00     0.031 C 
ATOM     57  C   UNL A   1      44.772  30.803  29.982  1.00  0.00     0.037 A 
BRANCH  44  58
ATOM     58  C   UNL A   1      41.953  28.967  34.204  1.00  0.00     0.058 A 
ATOM     59  C   UNL A   1      42.238  27.658  33.773  1.00  0.00     0.135 A 
ATOM     60  C   UNL A   1      41.639  29.104  35.578  1.00  0.00     0.135 A 
ATOM     61  F   UNL A   1      42.523  27.411  32.485  1.00  0.00    -0.206 F 
ATOM     62  C   UNL A   1      42.162  26.559  34.632  1.00  0.00     0.059 A 
ATOM     63  C   UNL A   1      41.620  28.035  36.461  1.00  0.00     0.059 A 
ATOM     64  F   UNL A   1      41.235  30.266  36.106  1.00  0.00    -0.206 F 
ATOM     65  C   UNL A   1      41.835  26.759  35.971  1.00  0.00     0.060 A 
BRANCH  65  66
ATOM     66  S   UNL A   1      41.604  25.341  37.057  1.00  0.00     0.124 S 
ATOM     67  O   UNL A   1      42.866  25.331  37.787  1.00  0.00    -0.237 OA
ATOM     68  O   UNL A   1      40.424  25.732  37.821  1.00  0.00    -0.237 OA
ATOM     69  O   UNL A   1      41.403  24.236  36.124  1.00  0.00    -0.744 OA
ENDBRANCH  65  66
ENDBRANCH  44  58
BRANCH  45  70
ATOM     70  C   UNL A   1      43.445  26.241  26.421  1.00  0.00     0.058 A 
ATOM     71  C   UNL A   1      44.468  26.031  25.479  1.00  0.00     0.135 A 
ATOM     72  C   UNL A   1      42.771  25.085  26.867  1.00  0.00     0.135 A 
ATOM     73  F   UNL A   1      45.186  27.066  25.021  1.00  0.00    -0.206 F 
ATOM     74  C   UNL A   1      44.826  24.751  25.036  1.00  0.00     0.059 A 
ATOM     75  C   UNL A   1      43.094  23.804  26.424  1.00  0.00     0.059 A 
ATOM     76  F   UNL A   1      41.831  25.149  27.823  1.00  0.00    -0.206 F 
ATOM     77  C   UNL A   1      44.141  23.641  25.529  1.00  0.00     0.060 A 
BRANCH  77  78
ATOM     78  S   UNL A   1      44.702  21.978  25.095  1.00  0.00     0.124 S 
ATOM     79  O   UNL A   1      44.579  21.987  23.642  1.00  0.00    -0.237 OA
ATOM     80  O   UNL A   1      46.062  21.965  25.622  1.00  0.00    -0.237 OA
ATOM     81  O   UNL A   1      43.758  21.110  25.795  1.00  0.00    -0.744 OA
ENDBRANCH  77  78
ENDBRANCH  45  70
BRANCH  57  82
ATOM     82  C   UNL A   1      45.208  31.812  28.952  1.00  0.00     0.058 A 
ATOM     83  C   UNL A   1      46.549  32.141  28.683  1.00  0.00     0.135 A 
ATOM     84  C   UNL A   1      44.233  32.371  28.113  1.00  0.00     0.135 A 
ATOM     85  F   UNL A   1      47.551  31.561  29.359  1.00  0.00    -0.206 F 
ATOM     86  C   UNL A   1      46.898  33.033  27.669  1.00  0.00     0.059 A 
ATOM     87  C   UNL A   1      44.561  33.237  27.072  1.00  0.00     0.059 A 
ATOM     88  F   UNL A   1      42.939  32.043  28.271  1.00  0.00    -0.206 F 
ATOM     89  C   UNL A   1      45.896  33.581  26.871  1.00  0.00     0.060 A 
BRANCH  89  90
ATOM     90  S   UNL A   1      46.354  34.697  25.528  1.00  0.00     0.124 S 
ATOM     91  O   UNL A   1      45.443  34.285  24.465  1.00  0.00    -0.237 OA
ATOM     92  O   UNL A   1      46.100  36.013  26.105  1.00  0.00    -0.237 OA
ATOM     93  O   UNL A   1      47.764  34.390  25.295  1.00  0.00    -0.744 OA
ENDBRANCH  89  90
ENDBRANCH  57  82
ENDBRANCH  31  32
ENDBRANCH  24  26
ENDBRANCH  23  24
ENDBRANCH   1  23
TORSDOF 18
ENDMDL
MODEL 3
REMARK VINA RESULT:     -11.3      0.967      1.696
REMARK SMILES CCc1nn(-c2ccc(Cl)nn2)c(CC)c1CC(=O)OCCOC(=O)c1ccc(-c2c3nc(c(-c4c(F)cc(S(=O)(=O)[O-])cc4F)c4ccc([nH]4)c(-c4c(F)cc(S(=O)(=O)[O-])cc4F)c4nc(c(-c5c(F)cc(S(=O)(=O)[O-])cc5F)c5ccc2[nH]5)C=C4)C=C3)cc1
REMARK SMILES IDX 22 1 21 2 20 3 18 4 19 5 17 6 16 7 3 8 4 9 5 10 13 11 2 12
REMARK SMILES IDX 1 13 6 14 7 15 12 16 8 17 11 18 9 19 10 20 14 21 15 22 23 23
REMARK SMILES IDX 24 24 25 25 26 26 27 27 91 28 28 29 90 30 29 31 30 32 31 33
REMARK SMILES IDX 84 34 32 35 89 36 83 37 85 38 33 39 88 40 82 41 81 42 34 44
REMARK SMILES IDX 68 45 47 46 67 47 48 48 51 49 66 50 86 51 49 52 50 53 65 55
REMARK SMILES IDX 87 56 52 57 35 58 36 59 45 60 37 61 38 62 44 63 46 64 39 65
REMARK SMILES IDX 40 66 41 67 42 68 43 69 69 70 70 71 79 72 71 73 72 74 78 75
REMARK SMILES IDX 80 76 73 77 74 78 75 79 76 80 77 81 53 82 54 83 63 84 55 85
REMARK SMILES IDX 56 86 62 87 64 88 57 89 58 90 59 91 60 92 61 93
REMARK H PARENT 85 43 51 54
REMARK Flexibility Score: inf
ROOT
ATOM      1  C   UNL A   1      32.700  29.552  26.112  1.00  0.00     0.275 C 
ENDROOT
BRANCH   1   2
ATOM      2  C   UNL A   1      33.319  28.866  24.899  1.00  0.00     0.274 C 
BRANCH   2   3
ATOM      3  O   UNL A   1      32.645  27.607  24.733  1.00  0.00    -0.462 OA
BRANCH   3   4
ATOM      4  C   UNL A   1      33.303  26.643  24.035  1.00  0.00     0.310 C 
ATOM      5  O   UNL A   1      33.244  26.495  22.819  1.00  0.00    -0.252 OA
BRANCH   4   6
ATOM      6  C   UNL A   1      34.186  25.806  24.941  1.00  0.00     0.162 C 
BRANCH   6   7
ATOM      7  C   UNL A   1      33.756  24.373  25.065  1.00  0.00     0.008 A 
ATOM      8  C   UNL A   1      32.708  23.829  25.863  1.00  0.00     0.067 A 
ATOM      9  N   UNL A   1      32.615  22.498  25.721  1.00  0.00    -0.171 NA
ATOM     10  N   UNL A   1      33.527  22.183  24.776  1.00  0.00    -0.217 N 
ATOM     11  C   UNL A   1      34.277  23.277  24.389  1.00  0.00     0.050 A 
BRANCH   8  12
ATOM     12  C   UNL A   1      31.706  24.521  26.740  1.00  0.00     0.055 C 
ATOM     13  C   UNL A   1      30.286  23.983  26.682  1.00  0.00     0.011 C 
ENDBRANCH   8  12
BRANCH  10  14
ATOM     14  C   UNL A   1      33.639  20.876  24.243  1.00  0.00     0.176 A 
ATOM     15  C   UNL A   1      32.571  20.370  23.510  1.00  0.00     0.054 A 
ATOM     16  N   UNL A   1      34.587  20.073  24.780  1.00  0.00    -0.129 NA
ATOM     17  C   UNL A   1      32.463  18.986  23.375  1.00  0.00     0.047 A 
ATOM     18  N   UNL A   1      34.500  18.717  24.607  1.00  0.00    -0.136 NA
ATOM     19  C   UNL A   1      33.444  18.199  23.947  1.00  0.00     0.151 A 
ATOM     20  Cl  UNL A   1      33.352  16.495  23.916  1.00  0.00    -0.060 Cl
ENDBRANCH  10  14
BRANCH  11  21
ATOM     21  C   UNL A   1      35.384  23.180  23.385  1.00  0.00     0.053 C 
ATOM     22  C   UNL A   1      36.739  22.914  24.030  1.00  0.00     0.011 C 
ENDBRANCH  11  21
ENDBRANCH   6   7
ENDBRANCH   4   6
ENDBRANCH   3   4
ENDBRANCH   2   3
ENDBRANCH   1   2
BRANCH   1  23
ATOM     23  O   UNL A   1      33.535  29.522  27.287  1.00  0.00    -0.458 OA
BRANCH  23  24
ATOM     24  C   UNL A   1      34.043  30.717  27.687  1.00  0.00     0.338 C 
ATOM     25  O   UNL A   1      33.440  31.763  27.755  1.00  0.00    -0.246 OA
BRANCH  24  26
ATOM     26  C   UNL A   1      35.505  30.603  27.883  1.00  0.00     0.060 A 
ATOM     27  C   UNL A   1      36.078  29.339  27.702  1.00  0.00     0.016 A 
ATOM     28  C   UNL A   1      36.262  31.665  28.387  1.00  0.00     0.016 A 
ATOM     29  C   UNL A   1      37.361  29.103  28.169  1.00  0.00     0.010 A 
ATOM     30  C   UNL A   1      37.573  31.444  28.783  1.00  0.00     0.010 A 
ATOM     31  C   UNL A   1      38.108  30.153  28.724  1.00  0.00    -0.014 A 
BRANCH  31  32
ATOM     32  C   UNL A   1      39.532  29.906  28.980  1.00  0.00     0.031 A 
ATOM     33  C   UNL A   1      39.869  29.853  30.438  1.00  0.00     0.074 A 
ATOM     34  C   UNL A   1      40.423  29.524  28.044  1.00  0.00     0.049 A 
ATOM     35  N   UNL A   1      40.787  30.490  31.091  1.00  0.00    -0.248 NA
ATOM     36  C   UNL A   1      38.956  29.074  31.299  1.00  0.00     0.031 C 
ATOM     37  C   UNL A   1      40.173  29.243  26.629  1.00  0.00     0.029 A 
ATOM     38  N   UNL A   1      41.724  29.144  28.206  1.00  0.00    -0.354 N 
ATOM     39  C   UNL A   1      40.686  30.044  32.409  1.00  0.00     0.074 A 
ATOM     40  C   UNL A   1      39.445  29.323  32.509  1.00  0.00     0.031 C 
ATOM     41  C   UNL A   1      41.186  28.496  26.143  1.00  0.00     0.029 A 
ATOM     42  C   UNL A   1      42.200  28.343  27.174  1.00  0.00     0.049 A 
ATOM     43  H   UNL A   1      42.273  29.411  28.978  1.00  0.00     0.167 HD
ATOM     44  C   UNL A   1      41.726  30.088  33.284  1.00  0.00     0.037 A 
ATOM     45  C   UNL A   1      43.280  27.522  27.213  1.00  0.00     0.037 A 
ATOM     46  C   UNL A   1      42.727  31.040  32.895  1.00  0.00     0.049 A 
ATOM     47  C   UNL A   1      44.139  27.956  28.346  1.00  0.00     0.074 A 
ATOM     48  C   UNL A   1      42.723  32.399  32.644  1.00  0.00     0.029 A 
ATOM     49  N   UNL A   1      43.910  30.574  32.379  1.00  0.00    -0.354 N 
ATOM     50  N   UNL A   1      44.794  29.083  28.386  1.00  0.00    -0.248 NA
ATOM     51  C   UNL A   1      43.953  27.301  29.633  1.00  0.00     0.031 C 
ATOM     52  C   UNL A   1      43.647  32.582  31.575  1.00  0.00     0.029 A 
ATOM     53  C   UNL A   1      44.180  31.330  31.266  1.00  0.00     0.049 A 
ATOM     54  H   UNL A   1      44.459  29.839  32.737  1.00  0.00     0.167 HD
ATOM     55  C   UNL A   1      44.733  29.484  29.712  1.00  0.00     0.074 A 
ATOM     56  C   UNL A   1      44.301  28.301  30.448  1.00  0.00     0.031 C 
ATOM     57  C   UNL A   1      44.769  30.805  30.056  1.00  0.00     0.037 A 
BRANCH  44  58
ATOM     58  C   UNL A   1      41.969  29.003  34.305  1.00  0.00     0.058 A 
ATOM     59  C   UNL A   1      42.162  29.336  35.658  1.00  0.00     0.135 A 
ATOM     60  C   UNL A   1      42.289  27.670  33.951  1.00  0.00     0.135 A 
ATOM     61  F   UNL A   1      41.915  30.581  36.095  1.00  0.00    -0.206 F 
ATOM     62  C   UNL A   1      42.688  28.428  36.580  1.00  0.00     0.059 A 
ATOM     63  C   UNL A   1      42.752  26.734  34.864  1.00  0.00     0.059 A 
ATOM     64  F   UNL A   1      42.265  27.242  32.683  1.00  0.00    -0.206 F 
ATOM     65  C   UNL A   1      42.994  27.134  36.167  1.00  0.00     0.060 A 
BRANCH  65  66
ATOM     66  S   UNL A   1      43.794  25.995  37.309  1.00  0.00     0.124 S 
ATOM     67  O   UNL A   1      45.180  26.444  37.236  1.00  0.00    -0.237 OA
ATOM     68  O   UNL A   1      43.094  26.275  38.558  1.00  0.00    -0.237 OA
ATOM     69  O   UNL A   1      43.520  24.687  36.722  1.00  0.00    -0.744 OA
ENDBRANCH  65  66
ENDBRANCH  44  58
BRANCH  45  70
ATOM     70  C   UNL A   1      43.448  26.202  26.546  1.00  0.00     0.058 A 
ATOM     71  C   UNL A   1      44.422  26.006  25.552  1.00  0.00     0.135 A 
ATOM     72  C   UNL A   1      42.835  25.034  27.048  1.00  0.00     0.135 A 
ATOM     73  F   UNL A   1      45.082  27.054  25.037  1.00  0.00    -0.206 F 
ATOM     74  C   UNL A   1      44.795  24.730  25.110  1.00  0.00     0.059 A 
ATOM     75  C   UNL A   1      43.173  23.756  26.608  1.00  0.00     0.059 A 
ATOM     76  F   UNL A   1      41.949  25.087  28.054  1.00  0.00    -0.206 F 
ATOM     77  C   UNL A   1      44.173  23.609  25.658  1.00  0.00     0.060 A 
BRANCH  77  78
ATOM     78  S   UNL A   1      44.761  21.955  25.221  1.00  0.00     0.124 S 
ATOM     79  O   UNL A   1      46.110  21.959  25.775  1.00  0.00    -0.237 OA
ATOM     80  O   UNL A   1      43.794  21.097  25.894  1.00  0.00    -0.237 OA
ATOM     81  O   UNL A   1      44.687  21.947  23.761  1.00  0.00    -0.744 OA
ENDBRANCH  77  78
ENDBRANCH  45  70
BRANCH  57  82
ATOM     82  C   UNL A   1      45.199  31.805  29.014  1.00  0.00     0.058 A 
ATOM     83  C   UNL A   1      46.537  32.147  28.749  1.00  0.00     0.135 A 
ATOM     84  C   UNL A   1      44.222  32.339  28.161  1.00  0.00     0.135 A 
ATOM     85  F   UNL A   1      47.542  31.590  29.439  1.00  0.00    -0.206 F 
ATOM     86  C   UNL A   1      46.881  33.029  27.724  1.00  0.00     0.059 A 
ATOM     87  C   UNL A   1      44.546  33.194  27.110  1.00  0.00     0.059 A 
ATOM     88  F   UNL A   1      42.932  31.997  28.315  1.00  0.00    -0.206 F 
ATOM     89  C   UNL A   1      45.877  33.552  26.912  1.00  0.00     0.060 A 
BRANCH  89  90
ATOM     90  S   UNL A   1      46.330  34.655  25.556  1.00  0.00     0.124 S 
ATOM     91  O   UNL A   1      45.397  34.250  24.510  1.00  0.00    -0.237 OA
ATOM     92  O   UNL A   1      46.102  35.978  26.130  1.00  0.00    -0.237 OA
ATOM     93  O   UNL A   1      47.732  34.328  25.304  1.00  0.00    -0.744 OA
ENDBRANCH  89  90
ENDBRANCH  57  82
ENDBRANCH  31  32
ENDBRANCH  24  26
ENDBRANCH  23  24
ENDBRANCH   1  23
TORSDOF 18
ENDMDL
