MODEL 1
REMARK VINA RESULT:     -11.9      0.000      0.000
REMARK SMILES Cc1ccccc1OCC(=O)NCCC(=O)OCCOC(=O)c1ccc(-c2c3nc(c(-c4c(F)cc(S(=O)(=O)[O-])cc4F)c4ccc([nH]4)c(-c4c(F)cc(S(=O)(=O)[O-])cc4F)c4nc(c(-c5c(F)cc(S(=O)(=O)[O-])cc5F)c5ccc2[nH]5)C=C4)C=C3)cc1
REMARK SMILES IDX 18 1 17 2 15 3 16 4 14 5 13 6 12 7 10 8 11 9 9 11 8 12 7 13
REMARK SMILES IDX 1 14 2 15 3 16 4 17 6 18 5 19 19 20 20 21 21 22 22 23 23 24
REMARK SMILES IDX 24 25 88 26 25 27 87 28 26 29 27 30 28 31 81 32 29 33 86 34
REMARK SMILES IDX 80 35 82 36 30 37 85 38 79 39 78 40 31 42 65 43 44 44 64 45
REMARK SMILES IDX 45 46 48 47 63 48 83 49 46 50 47 51 62 53 84 54 49 55 32 56
REMARK SMILES IDX 33 57 42 58 34 59 35 60 41 61 43 62 36 63 37 64 38 65 39 66
REMARK SMILES IDX 40 67 66 68 67 69 76 70 68 71 69 72 75 73 77 74 70 75 71 76
REMARK SMILES IDX 72 77 73 78 74 79 50 80 51 81 60 82 52 83 53 84 59 85 61 86
REMARK SMILES IDX 54 87 55 88 56 89 57 90 58 91
REMARK H PARENT 12 10 82 41 48 52
REMARK Flexibility Score: inf
ROOT
ATOM      1  C   UNL A   1      33.876  29.377  27.645  1.00  0.00     0.274 C 
ENDROOT
BRANCH   1   2
ATOM      2  O   UNL A   1      34.378  28.338  26.807  1.00  0.00    -0.462 OA
BRANCH   2   3
ATOM      3  C   UNL A   1      33.438  27.704  26.051  1.00  0.00     0.307 C 
ATOM      4  O   UNL A   1      32.410  28.208  25.670  1.00  0.00    -0.252 OA
BRANCH   3   5
ATOM      5  C   UNL A   1      33.872  26.295  25.712  1.00  0.00     0.144 C 
BRANCH   5   6
ATOM      6  C   UNL A   1      32.953  25.612  24.715  1.00  0.00     0.127 C 
BRANCH   6   7
ATOM      7  N   UNL A   1      33.039  26.269  23.425  1.00  0.00    -0.353 N 
ATOM      8  C   UNL A   1      33.302  25.687  22.218  1.00  0.00     0.257 C 
ATOM      9  O   UNL A   1      33.620  26.414  21.274  1.00  0.00    -0.271 OA
ATOM     10  H   UNL A   1      32.890  27.242  23.418  1.00  0.00     0.163 HD
BRANCH   8  11
ATOM     11  C   UNL A   1      33.069  24.178  22.037  1.00  0.00     0.329 C 
BRANCH  11  12
ATOM     12  O   UNL A   1      34.141  23.275  22.152  1.00  0.00    -0.484 OA
BRANCH  12  13
ATOM     13  C   UNL A   1      34.601  22.780  23.337  1.00  0.00     0.122 A 
ATOM     14  C   UNL A   1      32.789  21.035  23.941  1.00  0.00     0.048 C 
ATOM     15  C   UNL A   1      34.056  21.804  24.183  1.00  0.00    -0.009 A 
ATOM     16  C   UNL A   1      34.811  21.400  25.310  1.00  0.00     0.007 A 
ATOM     17  C   UNL A   1      36.070  21.932  25.588  1.00  0.00     0.001 A 
ATOM     18  C   UNL A   1      35.877  23.300  23.629  1.00  0.00     0.047 A 
ATOM     19  C   UNL A   1      36.610  22.885  24.739  1.00  0.00     0.004 A 
ENDBRANCH  12  13
ENDBRANCH  11  12
ENDBRANCH   8  11
ENDBRANCH   6   7
ENDBRANCH   5   6
ENDBRANCH   3   5
ENDBRANCH   2   3
ENDBRANCH   1   2
BRANCH   1  20
ATOM     20  C   UNL A   1      34.474  30.733  27.224  1.00  0.00     0.275 C 
BRANCH  20  21
ATOM     21  O   UNL A   1      35.814  31.109  27.650  1.00  0.00    -0.458 OA
BRANCH  21  22
ATOM     22  C   UNL A   1      36.290  30.710  28.865  1.00  0.00     0.338 C 
ATOM     23  O   UNL A   1      35.757  30.981  29.928  1.00  0.00    -0.246 OA
BRANCH  22  24
ATOM     24  C   UNL A   1      37.343  29.672  28.671  1.00  0.00     0.060 A 
ATOM     25  C   UNL A   1      38.215  29.708  27.569  1.00  0.00     0.016 A 
ATOM     26  C   UNL A   1      37.662  28.909  29.786  1.00  0.00     0.016 A 
ATOM     27  C   UNL A   1      39.463  29.079  27.651  1.00  0.00     0.010 A 
ATOM     28  C   UNL A   1      38.963  28.548  29.969  1.00  0.00     0.010 A 
ATOM     29  C   UNL A   1      39.845  28.556  28.883  1.00  0.00    -0.014 A 
BRANCH  29  30
ATOM     30  C   UNL A   1      40.988  27.693  29.133  1.00  0.00     0.031 A 
ATOM     31  C   UNL A   1      41.058  26.290  28.708  1.00  0.00     0.074 A 
ATOM     32  C   UNL A   1      42.051  28.425  29.536  1.00  0.00     0.049 A 
ATOM     33  N   UNL A   1      41.980  25.483  29.091  1.00  0.00    -0.248 NA
ATOM     34  C   UNL A   1      40.106  25.659  27.808  1.00  0.00     0.031 C 
ATOM     35  C   UNL A   1      43.468  28.140  29.596  1.00  0.00     0.029 A 
ATOM     36  N   UNL A   1      41.949  29.699  30.118  1.00  0.00    -0.354 N 
ATOM     37  C   UNL A   1      41.948  24.369  28.274  1.00  0.00     0.074 A 
ATOM     38  C   UNL A   1      40.698  24.483  27.566  1.00  0.00     0.031 C 
ATOM     39  C   UNL A   1      44.030  29.002  30.469  1.00  0.00     0.029 A 
ATOM     40  C   UNL A   1      42.950  29.781  31.075  1.00  0.00     0.049 A 
ATOM     41  H   UNL A   1      41.294  30.397  29.892  1.00  0.00     0.167 HD
ATOM     42  C   UNL A   1      43.073  23.592  28.213  1.00  0.00     0.037 A 
ATOM     43  C   UNL A   1      42.526  29.731  32.372  1.00  0.00     0.037 A 
ATOM     44  C   UNL A   1      44.052  24.102  29.185  1.00  0.00     0.049 A 
ATOM     45  C   UNL A   1      42.987  28.430  32.990  1.00  0.00     0.074 A 
ATOM     46  C   UNL A   1      45.150  24.931  29.041  1.00  0.00     0.029 A 
ATOM     47  N   UNL A   1      43.735  24.099  30.543  1.00  0.00    -0.354 N 
ATOM     48  N   UNL A   1      43.129  27.303  32.338  1.00  0.00    -0.248 NA
ATOM     49  C   UNL A   1      43.499  28.366  34.350  1.00  0.00     0.031 C 
ATOM     50  C   UNL A   1      45.406  25.533  30.305  1.00  0.00     0.029 A 
ATOM     51  C   UNL A   1      44.480  25.051  31.219  1.00  0.00     0.049 A 
ATOM     52  H   UNL A   1      43.073  23.503  30.964  1.00  0.00     0.167 HD
ATOM     53  C   UNL A   1      43.854  26.428  33.106  1.00  0.00     0.074 A 
ATOM     54  C   UNL A   1      44.030  27.132  34.368  1.00  0.00     0.031 C 
ATOM     55  C   UNL A   1      44.336  25.226  32.659  1.00  0.00     0.037 A 
BRANCH  42  56
ATOM     56  C   UNL A   1      43.441  22.579  27.127  1.00  0.00     0.058 A 
ATOM     57  C   UNL A   1      42.734  21.353  27.032  1.00  0.00     0.135 A 
ATOM     58  C   UNL A   1      44.495  22.698  26.197  1.00  0.00     0.135 A 
ATOM     59  F   UNL A   1      41.657  21.106  27.790  1.00  0.00    -0.206 F 
ATOM     60  C   UNL A   1      43.092  20.316  26.160  1.00  0.00     0.059 A 
ATOM     61  C   UNL A   1      44.885  21.667  25.328  1.00  0.00     0.059 A 
ATOM     62  F   UNL A   1      45.184  23.832  26.048  1.00  0.00    -0.206 F 
ATOM     63  C   UNL A   1      44.186  20.472  25.323  1.00  0.00     0.060 A 
BRANCH  63  64
ATOM     64  S   UNL A   1      44.652  19.120  24.223  1.00  0.00     0.124 S 
ATOM     65  O   UNL A   1      43.674  18.094  24.567  1.00  0.00    -0.237 OA
ATOM     66  O   UNL A   1      44.498  19.728  22.906  1.00  0.00    -0.237 OA
ATOM     67  O   UNL A   1      46.027  18.821  24.613  1.00  0.00    -0.744 OA
ENDBRANCH  63  64
ENDBRANCH  42  56
BRANCH  43  68
ATOM     68  C   UNL A   1      41.230  30.481  32.605  1.00  0.00     0.058 A 
ATOM     69  C   UNL A   1      40.108  29.731  33.047  1.00  0.00     0.135 A 
ATOM     70  C   UNL A   1      41.116  31.874  32.722  1.00  0.00     0.135 A 
ATOM     71  F   UNL A   1      40.128  28.388  32.969  1.00  0.00    -0.206 F 
ATOM     72  C   UNL A   1      39.004  30.307  33.676  1.00  0.00     0.059 A 
ATOM     73  C   UNL A   1      39.996  32.481  33.327  1.00  0.00     0.059 A 
ATOM     74  F   UNL A   1      42.118  32.671  32.326  1.00  0.00    -0.206 F 
ATOM     75  C   UNL A   1      38.964  31.686  33.836  1.00  0.00     0.060 A 
BRANCH  75  76
ATOM     76  S   UNL A   1      37.640  32.389  34.862  1.00  0.00     0.124 S 
ATOM     77  O   UNL A   1      37.636  31.488  36.009  1.00  0.00    -0.237 OA
ATOM     78  O   UNL A   1      38.138  33.739  35.121  1.00  0.00    -0.237 OA
ATOM     79  O   UNL A   1      36.469  32.313  33.994  1.00  0.00    -0.744 OA
ENDBRANCH  75  76
ENDBRANCH  43  68
BRANCH  55  80
ATOM     80  C   UNL A   1      44.845  24.111  33.548  1.00  0.00     0.058 A 
ATOM     81  C   UNL A   1      44.046  23.044  33.988  1.00  0.00     0.135 A 
ATOM     82  C   UNL A   1      46.230  23.994  33.839  1.00  0.00     0.135 A 
ATOM     83  F   UNL A   1      42.748  22.958  33.670  1.00  0.00    -0.206 F 
ATOM     84  C   UNL A   1      44.562  21.983  34.730  1.00  0.00     0.059 A 
ATOM     85  C   UNL A   1      46.775  22.906  34.506  1.00  0.00     0.059 A 
ATOM     86  F   UNL A   1      47.118  24.926  33.462  1.00  0.00    -0.206 F 
ATOM     87  C   UNL A   1      45.927  21.919  34.978  1.00  0.00     0.060 A 
BRANCH  87  88
ATOM     88  S   UNL A   1      46.601  20.512  35.869  1.00  0.00     0.124 S 
ATOM     89  O   UNL A   1      48.026  20.652  35.590  1.00  0.00    -0.237 OA
ATOM     90  O   UNL A   1      46.198  20.782  37.247  1.00  0.00    -0.237 OA
ATOM     91  O   UNL A   1      45.942  19.370  35.244  1.00  0.00    -0.744 OA
ENDBRANCH  87  88
ENDBRANCH  55  80
ENDBRANCH  29  30
ENDBRANCH  22  24
ENDBRANCH  21  22
ENDBRANCH  20  21
ENDBRANCH   1  20
TORSDOF 19
ENDMDL
MODEL 2
REMARK VINA RESULT:     -11.6      4.745     11.551
REMARK SMILES Cc1ccccc1OCC(=O)NCCC(=O)OCCOC(=O)c1ccc(-c2c3nc(c(-c4c(F)cc(S(=O)(=O)[O-])cc4F)c4ccc([nH]4)c(-c4c(F)cc(S(=O)(=O)[O-])cc4F)c4nc(c(-c5c(F)cc(S(=O)(=O)[O-])cc5F)c5ccc2[nH]5)C=C4)C=C3)cc1
REMARK SMILES IDX 18 1 17 2 15 3 16 4 14 5 13 6 12 7 10 8 11 9 9 11 8 12 7 13
REMARK SMILES IDX 1 14 2 15 3 16 4 17 6 18 5 19 19 20 20 21 21 22 22 23 23 24
REMARK SMILES IDX 24 25 88 26 25 27 87 28 26 29 27 30 28 31 81 32 29 33 86 34
REMARK SMILES IDX 80 35 82 36 30 37 85 38 79 39 78 40 31 42 65 43 44 44 64 45
REMARK SMILES IDX 45 46 48 47 63 48 83 49 46 50 47 51 62 53 84 54 49 55 32 56
REMARK SMILES IDX 33 57 42 58 34 59 35 60 41 61 43 62 36 63 37 64 38 65 39 66
REMARK SMILES IDX 40 67 66 68 67 69 76 70 68 71 69 72 75 73 77 74 70 75 71 76
REMARK SMILES IDX 72 77 73 78 74 79 50 80 51 81 60 82 52 83 53 84 59 85 61 86
REMARK SMILES IDX 54 87 55 88 56 89 57 90 58 91
REMARK H PARENT 12 10 82 41 48 52
REMARK Flexibility Score: inf
ROOT
ATOM      1  C   UNL A   1      37.401  22.500  25.378  1.00  0.00     0.274 C 
ENDROOT
BRANCH   1   2
ATOM      2  O   UNL A   1      36.213  22.185  26.102  1.00  0.00    -0.462 OA
BRANCH   2   3
ATOM      3  C   UNL A   1      35.150  21.819  25.332  1.00  0.00     0.307 C 
ATOM      4  O   UNL A   1      34.325  20.997  25.648  1.00  0.00    -0.252 OA
BRANCH   3   5
ATOM      5  C   UNL A   1      35.113  22.610  24.043  1.00  0.00     0.144 C 
BRANCH   5   6
ATOM      6  C   UNL A   1      33.759  23.238  23.769  1.00  0.00     0.127 C 
BRANCH   6   7
ATOM      7  N   UNL A   1      33.804  24.009  22.541  1.00  0.00    -0.353 N 
ATOM      8  C   UNL A   1      33.541  25.340  22.393  1.00  0.00     0.257 C 
ATOM      9  O   UNL A   1      33.346  25.776  21.256  1.00  0.00    -0.271 OA
ATOM     10  H   UNL A   1      34.053  23.518  21.725  1.00  0.00     0.163 HD
BRANCH   8  11
ATOM     11  C   UNL A   1      33.626  26.271  23.614  1.00  0.00     0.329 C 
BRANCH  11  12
ATOM     12  O   UNL A   1      32.848  27.443  23.668  1.00  0.00    -0.484 OA
BRANCH  12  13
ATOM     13  C   UNL A   1      32.785  28.269  24.751  1.00  0.00     0.122 A 
ATOM     14  C   UNL A   1      30.648  29.644  24.268  1.00  0.00     0.048 C 
ATOM     15  C   UNL A   1      31.854  29.266  25.077  1.00  0.00    -0.009 A 
ATOM     16  C   UNL A   1      31.970  29.902  26.336  1.00  0.00     0.007 A 
ATOM     17  C   UNL A   1      32.965  29.558  27.252  1.00  0.00     0.001 A 
ATOM     18  C   UNL A   1      33.777  27.929  25.692  1.00  0.00     0.047 A 
ATOM     19  C   UNL A   1      33.872  28.561  26.930  1.00  0.00     0.004 A 
ENDBRANCH  12  13
ENDBRANCH  11  12
ENDBRANCH   8  11
ENDBRANCH   6   7
ENDBRANCH   5   6
ENDBRANCH   3   5
ENDBRANCH   2   3
ENDBRANCH   1   2
BRANCH   1  20
ATOM     20  C   UNL A   1      38.094  23.725  26.007  1.00  0.00     0.275 C 
BRANCH  20  21
ATOM     21  O   UNL A   1      39.264  23.552  26.855  1.00  0.00    -0.458 OA
BRANCH  21  22
ATOM     22  C   UNL A   1      40.285  24.458  26.817  1.00  0.00     0.338 C 
ATOM     23  O   UNL A   1      41.297  24.316  26.150  1.00  0.00    -0.246 OA
BRANCH  22  24
ATOM     24  C   UNL A   1      39.843  25.734  27.446  1.00  0.00     0.060 A 
ATOM     25  C   UNL A   1      39.368  25.775  28.769  1.00  0.00     0.016 A 
ATOM     26  C   UNL A   1      40.261  26.901  26.821  1.00  0.00     0.016 A 
ATOM     27  C   UNL A   1      39.440  26.969  29.496  1.00  0.00     0.010 A 
ATOM     28  C   UNL A   1      40.589  27.969  27.602  1.00  0.00     0.010 A 
ATOM     29  C   UNL A   1      40.112  28.041  28.916  1.00  0.00    -0.014 A 
BRANCH  29  30
ATOM     30  C   UNL A   1      40.123  29.412  29.398  1.00  0.00     0.031 A 
ATOM     31  C   UNL A   1      38.999  30.342  29.238  1.00  0.00     0.074 A 
ATOM     32  C   UNL A   1      41.162  29.605  30.243  1.00  0.00     0.049 A 
ATOM     33  N   UNL A   1      39.080  31.597  29.496  1.00  0.00    -0.248 NA
ATOM     34  C   UNL A   1      37.674  29.953  28.780  1.00  0.00     0.031 C 
ATOM     35  C   UNL A   1      41.445  30.627  31.227  1.00  0.00     0.029 A 
ATOM     36  N   UNL A   1      42.320  28.811  30.254  1.00  0.00    -0.354 N 
ATOM     37  C   UNL A   1      37.799  32.111  29.558  1.00  0.00     0.074 A 
ATOM     38  C   UNL A   1      36.971  31.071  29.000  1.00  0.00     0.031 C 
ATOM     39  C   UNL A   1      42.773  30.617  31.468  1.00  0.00     0.029 A 
ATOM     40  C   UNL A   1      43.379  29.657  30.545  1.00  0.00     0.049 A 
ATOM     41  H   UNL A   1      42.370  27.843  30.085  1.00  0.00     0.167 HD
ATOM     42  C   UNL A   1      37.619  33.294  30.223  1.00  0.00     0.037 A 
ATOM     43  C   UNL A   1      44.213  29.934  29.498  1.00  0.00     0.037 A 
ATOM     44  C   UNL A   1      38.935  33.814  30.624  1.00  0.00     0.049 A 
ATOM     45  C   UNL A   1      44.051  31.387  29.113  1.00  0.00     0.074 A 
ATOM     46  C   UNL A   1      39.626  33.752  31.822  1.00  0.00     0.029 A 
ATOM     47  N   UNL A   1      39.873  34.137  29.644  1.00  0.00    -0.354 N 
ATOM     48  N   UNL A   1      42.937  32.068  29.219  1.00  0.00    -0.248 NA
ATOM     49  C   UNL A   1      45.192  32.219  28.759  1.00  0.00     0.031 C 
ATOM     50  C   UNL A   1      41.010  33.910  31.531  1.00  0.00     0.029 A 
ATOM     51  C   UNL A   1      41.156  34.089  30.162  1.00  0.00     0.049 A 
ATOM     52  H   UNL A   1      39.653  34.368  28.712  1.00  0.00     0.167 HD
ATOM     53  C   UNL A   1      43.214  33.406  29.093  1.00  0.00     0.074 A 
ATOM     54  C   UNL A   1      44.634  33.441  28.773  1.00  0.00     0.031 C 
ATOM     55  C   UNL A   1      42.309  34.407  29.330  1.00  0.00     0.037 A 
BRANCH  42  56
ATOM     56  C   UNL A   1      36.307  33.856  30.774  1.00  0.00     0.058 A 
ATOM     57  C   UNL A   1      35.313  34.337  29.886  1.00  0.00     0.135 A 
ATOM     58  C   UNL A   1      35.975  34.017  32.136  1.00  0.00     0.135 A 
ATOM     59  F   UNL A   1      35.433  34.196  28.558  1.00  0.00    -0.206 F 
ATOM     60  C   UNL A   1      34.147  34.990  30.306  1.00  0.00     0.059 A 
ATOM     61  C   UNL A   1      34.823  34.683  32.581  1.00  0.00     0.059 A 
ATOM     62  F   UNL A   1      36.726  33.504  33.114  1.00  0.00    -0.206 F 
ATOM     63  C   UNL A   1      33.918  35.180  31.660  1.00  0.00     0.060 A 
BRANCH  63  64
ATOM     64  S   UNL A   1      32.424  36.044  32.187  1.00  0.00     0.124 S 
ATOM     65  O   UNL A   1      32.004  36.709  30.958  1.00  0.00    -0.237 OA
ATOM     66  O   UNL A   1      31.576  34.946  32.637  1.00  0.00    -0.237 OA
ATOM     67  O   UNL A   1      32.899  36.934  33.243  1.00  0.00    -0.744 OA
ENDBRANCH  63  64
ENDBRANCH  42  56
BRANCH  43  68
ATOM     68  C   UNL A   1      44.458  28.740  28.600  1.00  0.00     0.058 A 
ATOM     69  C   UNL A   1      44.024  28.833  27.250  1.00  0.00     0.135 A 
ATOM     70  C   UNL A   1      45.337  27.685  28.885  1.00  0.00     0.135 A 
ATOM     71  F   UNL A   1      43.177  29.813  26.887  1.00  0.00    -0.206 F 
ATOM     72  C   UNL A   1      44.520  28.021  26.230  1.00  0.00     0.059 A 
ATOM     73  C   UNL A   1      45.829  26.832  27.874  1.00  0.00     0.059 A 
ATOM     74  F   UNL A   1      45.800  27.506  30.129  1.00  0.00    -0.206 F 
ATOM     75  C   UNL A   1      45.445  27.034  26.545  1.00  0.00     0.060 A 
BRANCH  75  76
ATOM     76  S   UNL A   1      46.251  26.152  25.177  1.00  0.00     0.124 S 
ATOM     77  O   UNL A   1      45.250  25.151  24.831  1.00  0.00    -0.237 OA
ATOM     78  O   UNL A   1      46.443  27.219  24.196  1.00  0.00    -0.237 OA
ATOM     79  O   UNL A   1      47.475  25.640  25.786  1.00  0.00    -0.744 OA
ENDBRANCH  75  76
ENDBRANCH  43  68
BRANCH  55  80
ATOM     80  C   UNL A   1      42.476  35.847  28.895  1.00  0.00     0.058 A 
ATOM     81  C   UNL A   1      43.335  36.756  29.534  1.00  0.00     0.135 A 
ATOM     82  C   UNL A   1      41.895  36.308  27.684  1.00  0.00     0.135 A 
ATOM     83  F   UNL A   1      44.051  36.410  30.612  1.00  0.00    -0.206 F 
ATOM     84  C   UNL A   1      43.539  38.049  29.059  1.00  0.00     0.059 A 
ATOM     85  C   UNL A   1      42.151  37.564  27.151  1.00  0.00     0.059 A 
ATOM     86  F   UNL A   1      41.073  35.543  26.953  1.00  0.00    -0.206 F 
ATOM     87  C   UNL A   1      42.949  38.443  27.864  1.00  0.00     0.060 A 
BRANCH  87  88
ATOM     88  S   UNL A   1      43.274  40.085  27.212  1.00  0.00     0.124 S 
ATOM     89  O   UNL A   1      43.455  40.850  28.441  1.00  0.00    -0.237 OA
ATOM     90  O   UNL A   1      44.481  39.879  26.414  1.00  0.00    -0.237 OA
ATOM     91  O   UNL A   1      42.070  40.388  26.447  1.00  0.00    -0.744 OA
ENDBRANCH  87  88
ENDBRANCH  55  80
ENDBRANCH  29  30
ENDBRANCH  22  24
ENDBRANCH  21  22
ENDBRANCH  20  21
ENDBRANCH   1  20
TORSDOF 19
ENDMDL
MODEL 3
REMARK VINA RESULT:     -11.6      1.190      2.054
REMARK SMILES Cc1ccccc1OCC(=O)NCCC(=O)OCCOC(=O)c1ccc(-c2c3nc(c(-c4c(F)cc(S(=O)(=O)[O-])cc4F)c4ccc([nH]4)c(-c4c(F)cc(S(=O)(=O)[O-])cc4F)c4nc(c(-c5c(F)cc(S(=O)(=O)[O-])cc5F)c5ccc2[nH]5)C=C4)C=C3)cc1
REMARK SMILES IDX 18 1 17 2 15 3 16 4 14 5 13 6 12 7 10 8 11 9 9 11 8 12 7 13
REMARK SMILES IDX 1 14 2 15 3 16 4 17 6 18 5 19 19 20 20 21 21 22 22 23 23 24
REMARK SMILES IDX 24 25 88 26 25 27 87 28 26 29 27 30 28 31 81 32 29 33 86 34
REMARK SMILES IDX 80 35 82 36 30 37 85 38 79 39 78 40 31 42 65 43 44 44 64 45
REMARK SMILES IDX 45 46 48 47 63 48 83 49 46 50 47 51 62 53 84 54 49 55 32 56
REMARK SMILES IDX 33 57 42 58 34 59 35 60 41 61 43 62 36 63 37 64 38 65 39 66
REMARK SMILES IDX 40 67 66 68 67 69 76 70 68 71 69 72 75 73 77 74 70 75 71 76
REMARK SMILES IDX 72 77 73 78 74 79 50 80 51 81 60 82 52 83 53 84 59 85 61 86
REMARK SMILES IDX 54 87 55 88 56 89 57 90 58 91
REMARK H PARENT 12 10 82 41 48 52
REMARK Flexibility Score: inf
ROOT
ATOM      1  C   UNL A   1      33.318  30.464  27.265  1.00  0.00     0.274 C 
ENDROOT
BRANCH   1   2
ATOM      2  O   UNL A   1      32.492  29.387  26.826  1.00  0.00    -0.462 OA
BRANCH   2   3
ATOM      3  C   UNL A   1      32.069  29.476  25.534  1.00  0.00     0.307 C 
ATOM      4  O   UNL A   1      31.129  30.137  25.164  1.00  0.00    -0.252 OA
BRANCH   3   5
ATOM      5  C   UNL A   1      32.959  28.671  24.613  1.00  0.00     0.144 C 
BRANCH   5   6
ATOM      6  C   UNL A   1      32.652  27.185  24.638  1.00  0.00     0.127 C 
BRANCH   6   7
ATOM      7  N   UNL A   1      31.357  26.951  25.248  1.00  0.00    -0.353 N 
ATOM      8  C   UNL A   1      31.004  25.911  26.060  1.00  0.00     0.257 C 
ATOM      9  O   UNL A   1      29.804  25.707  26.260  1.00  0.00    -0.271 OA
ATOM     10  H   UNL A   1      30.657  27.616  25.058  1.00  0.00     0.163 HD
BRANCH   8  11
ATOM     11  C   UNL A   1      32.095  25.119  26.798  1.00  0.00     0.329 C 
BRANCH  11  12
ATOM     12  O   UNL A   1      32.512  23.865  26.314  1.00  0.00    -0.484 OA
BRANCH  12  13
ATOM     13  C   UNL A   1      32.794  23.606  25.005  1.00  0.00     0.122 A 
ATOM     14  C   UNL A   1      35.284  24.288  24.836  1.00  0.00     0.048 C 
ATOM     15  C   UNL A   1      33.985  23.775  24.285  1.00  0.00    -0.009 A 
ATOM     16  C   UNL A   1      34.028  23.314  22.947  1.00  0.00     0.007 A 
ATOM     17  C   UNL A   1      32.935  22.692  22.343  1.00  0.00     0.001 A 
ATOM     18  C   UNL A   1      31.704  22.968  24.380  1.00  0.00     0.047 A 
ATOM     19  C   UNL A   1      31.767  22.513  23.065  1.00  0.00     0.004 A 
ENDBRANCH  12  13
ENDBRANCH  11  12
ENDBRANCH   8  11
ENDBRANCH   6   7
ENDBRANCH   5   6
ENDBRANCH   3   5
ENDBRANCH   2   3
ENDBRANCH   1   2
BRANCH   1  20
ATOM     20  C   UNL A   1      34.794  30.022  27.291  1.00  0.00     0.275 C 
BRANCH  20  21
ATOM     21  O   UNL A   1      35.820  30.918  27.804  1.00  0.00    -0.458 OA
BRANCH  21  22
ATOM     22  C   UNL A   1      36.446  30.647  28.987  1.00  0.00     0.338 C 
ATOM     23  O   UNL A   1      36.018  30.987  30.077  1.00  0.00    -0.246 OA
BRANCH  22  24
ATOM     24  C   UNL A   1      37.524  29.642  28.761  1.00  0.00     0.060 A 
ATOM     25  C   UNL A   1      38.438  29.771  27.702  1.00  0.00     0.016 A 
ATOM     26  C   UNL A   1      37.811  28.804  29.831  1.00  0.00     0.016 A 
ATOM     27  C   UNL A   1      39.693  29.157  27.789  1.00  0.00     0.010 A 
ATOM     28  C   UNL A   1      39.110  28.450  30.040  1.00  0.00     0.010 A 
ATOM     29  C   UNL A   1      40.035  28.551  28.994  1.00  0.00    -0.014 A 
BRANCH  29  30
ATOM     30  C   UNL A   1      41.182  27.689  29.228  1.00  0.00     0.031 A 
ATOM     31  C   UNL A   1      41.269  26.303  28.755  1.00  0.00     0.074 A 
ATOM     32  C   UNL A   1      42.234  28.415  29.670  1.00  0.00     0.049 A 
ATOM     33  N   UNL A   1      42.193  25.490  29.120  1.00  0.00    -0.248 NA
ATOM     34  C   UNL A   1      40.333  25.696  27.821  1.00  0.00     0.031 C 
ATOM     35  C   UNL A   1      43.653  28.140  29.737  1.00  0.00     0.029 A 
ATOM     36  N   UNL A   1      42.114  29.667  30.296  1.00  0.00    -0.354 N 
ATOM     37  C   UNL A   1      42.181  24.405  28.264  1.00  0.00     0.074 A 
ATOM     38  C   UNL A   1      40.939  24.534  27.545  1.00  0.00     0.031 C 
ATOM     39  C   UNL A   1      44.197  28.975  30.648  1.00  0.00     0.029 A 
ATOM     40  C   UNL A   1      43.102  29.723  31.267  1.00  0.00     0.049 A 
ATOM     41  H   UNL A   1      41.455  30.367  30.086  1.00  0.00     0.167 HD
ATOM     42  C   UNL A   1      43.313  23.640  28.190  1.00  0.00     0.037 A 
ATOM     43  C   UNL A   1      42.662  29.624  32.557  1.00  0.00     0.037 A 
ATOM     44  C   UNL A   1      44.275  24.123  29.192  1.00  0.00     0.049 A 
ATOM     45  C   UNL A   1      43.127  28.305  33.134  1.00  0.00     0.074 A 
ATOM     46  C   UNL A   1      45.369  24.966  29.090  1.00  0.00     0.029 A 
ATOM     47  N   UNL A   1      43.942  24.070  30.545  1.00  0.00    -0.354 N 
ATOM     48  N   UNL A   1      43.287  27.203  32.444  1.00  0.00    -0.248 NA
ATOM     49  C   UNL A   1      43.624  28.197  34.497  1.00  0.00     0.031 C 
ATOM     50  C   UNL A   1      45.604  25.525  30.378  1.00  0.00     0.029 A 
ATOM     51  C   UNL A   1      44.670  25.003  31.263  1.00  0.00     0.049 A 
ATOM     52  H   UNL A   1      43.281  23.454  30.936  1.00  0.00     0.167 HD
ATOM     53  C   UNL A   1      44.010  26.307  33.189  1.00  0.00     0.074 A 
ATOM     54  C   UNL A   1      44.165  26.967  34.478  1.00  0.00     0.031 C 
ATOM     55  C   UNL A   1      44.508  25.126  32.707  1.00  0.00     0.037 A 
BRANCH  42  56
ATOM     56  C   UNL A   1      43.702  22.669  27.074  1.00  0.00     0.058 A 
ATOM     57  C   UNL A   1      42.951  21.485  26.869  1.00  0.00     0.135 A 
ATOM     58  C   UNL A   1      44.817  22.787  26.216  1.00  0.00     0.135 A 
ATOM     59  F   UNL A   1      41.819  21.249  27.548  1.00  0.00    -0.206 F 
ATOM     60  C   UNL A   1      43.316  20.479  25.965  1.00  0.00     0.059 A 
ATOM     61  C   UNL A   1      45.214  21.786  25.316  1.00  0.00     0.059 A 
ATOM     62  F   UNL A   1      45.562  23.894  26.170  1.00  0.00    -0.206 F 
ATOM     63  C   UNL A   1      44.465  20.627  25.204  1.00  0.00     0.060 A 
BRANCH  63  64
ATOM     64  S   UNL A   1      44.939  19.314  24.061  1.00  0.00     0.124 S 
ATOM     65  O   UNL A   1      44.429  19.815  22.789  1.00  0.00    -0.237 OA
ATOM     66  O   UNL A   1      46.391  19.293  24.200  1.00  0.00    -0.237 OA
ATOM     67  O   UNL A   1      44.249  18.139  24.586  1.00  0.00    -0.744 OA
ENDBRANCH  63  64
ENDBRANCH  42  56
BRANCH  43  68
ATOM     68  C   UNL A   1      41.358  30.354  32.799  1.00  0.00     0.058 A 
ATOM     69  C   UNL A   1      40.242  29.582  33.220  1.00  0.00     0.135 A 
ATOM     70  C   UNL A   1      41.228  31.743  32.946  1.00  0.00     0.135 A 
ATOM     71  F   UNL A   1      40.278  28.242  33.113  1.00  0.00    -0.206 F 
ATOM     72  C   UNL A   1      39.129  30.133  33.856  1.00  0.00     0.059 A 
ATOM     73  C   UNL A   1      40.099  32.324  33.558  1.00  0.00     0.059 A 
ATOM     74  F   UNL A   1      42.223  32.559  32.572  1.00  0.00    -0.206 F 
ATOM     75  C   UNL A   1      39.074  31.508  34.045  1.00  0.00     0.060 A 
BRANCH  75  76
ATOM     76  S   UNL A   1      37.738  32.174  35.081  1.00  0.00     0.124 S 
ATOM     77  O   UNL A   1      36.596  32.115  34.176  1.00  0.00    -0.237 OA
ATOM     78  O   UNL A   1      37.711  31.225  36.193  1.00  0.00    -0.237 OA
ATOM     79  O   UNL A   1      38.211  33.513  35.416  1.00  0.00    -0.744 OA
ENDBRANCH  75  76
ENDBRANCH  43  68
BRANCH  55  80
ATOM     80  C   UNL A   1      45.016  23.985  33.562  1.00  0.00     0.058 A 
ATOM     81  C   UNL A   1      46.329  23.911  34.057  1.00  0.00     0.135 A 
ATOM     82  C   UNL A   1      44.121  23.004  34.064  1.00  0.00     0.135 A 
ATOM     83  F   UNL A   1      47.243  24.847  33.771  1.00  0.00    -0.206 F 
ATOM     84  C   UNL A   1      46.745  22.897  34.916  1.00  0.00     0.059 A 
ATOM     85  C   UNL A   1      44.496  22.035  34.985  1.00  0.00     0.059 A 
ATOM     86  F   UNL A   1      42.832  22.964  33.699  1.00  0.00    -0.206 F 
ATOM     87  C   UNL A   1      45.821  21.968  35.381  1.00  0.00     0.060 A 
BRANCH  87  88
ATOM     88  S   UNL A   1      46.342  20.707  36.550  1.00  0.00     0.124 S 
ATOM     89  O   UNL A   1      45.831  21.251  37.803  1.00  0.00    -0.237 OA
ATOM     90  O   UNL A   1      45.662  19.512  36.056  1.00  0.00    -0.237 OA
ATOM     91  O   UNL A   1      47.794  20.696  36.407  1.00  0.00    -0.744 OA
ENDBRANCH  87  88
ENDBRANCH  55  80
ENDBRANCH  29  30
ENDBRANCH  22  24
ENDBRANCH  21  22
ENDBRANCH  20  21
ENDBRANCH   1  20
TORSDOF 19
ENDMDL
