MODEL 1
REMARK VINA RESULT:     -10.9      0.000      0.000
REMARK SMILES Cc1cc(Br)cnc1Sc1nc(CC(=O)OCCOC(=O)c2ccc(-c3c4nc(c(-c5c(F)cc(S(=O)(=O)[O-])cc5F)c5ccc([nH]5)c(-c5c(F)cc(S(=O)(=O)[O-])cc5F)c5nc(c(-c6c(F)cc(S(=O)(=O)[O-])cc6F)c6ccc3[nH]6)C=C5)C=C4)cc2)cs1
REMARK SMILES IDX 17 1 16 2 14 3 15 4 13 5 12 6 10 7 11 8 89 9 88 10 9 11 8 12
REMARK SMILES IDX 1 13 2 14 3 15 4 16 7 17 5 18 6 19 18 20 19 21 20 22 21 23
REMARK SMILES IDX 22 24 23 25 87 26 24 27 86 28 25 29 26 30 27 31 80 32 28 33
REMARK SMILES IDX 85 34 79 35 81 36 29 37 84 38 78 39 77 40 30 42 64 43 43 44
REMARK SMILES IDX 63 45 44 46 47 47 62 48 82 49 45 50 46 51 61 53 83 54 48 55
REMARK SMILES IDX 31 56 32 57 41 58 33 59 34 60 40 61 42 62 35 63 36 64 37 65
REMARK SMILES IDX 38 66 39 67 65 68 66 69 75 70 67 71 68 72 74 73 76 74 69 75
REMARK SMILES IDX 70 76 71 77 72 78 73 79 49 80 50 81 59 82 51 83 52 84 58 85
REMARK SMILES IDX 60 86 53 87 54 88 55 89 56 90 57 91
REMARK H PARENT 81 41 47 52
REMARK Flexibility Score: inf
ROOT
ATOM      1  C   UNL A   1      35.147  33.581  28.081  1.00  0.00     0.274 C 
ENDROOT
BRANCH   1   2
ATOM      2  O   UNL A   1      34.606  34.876  28.410  1.00  0.00    -0.462 OA
BRANCH   2   3
ATOM      3  C   UNL A   1      33.261  34.924  28.608  1.00  0.00     0.312 C 
ATOM      4  O   UNL A   1      32.455  34.168  28.077  1.00  0.00    -0.252 OA
BRANCH   3   5
ATOM      5  C   UNL A   1      32.825  36.071  29.484  1.00  0.00     0.179 C 
BRANCH   5   6
ATOM      6  C   UNL A   1      33.260  36.019  30.912  1.00  0.00     0.064 A 
ATOM      7  C   UNL A   1      34.172  34.951  32.634  1.00  0.00     0.156 A 
ATOM      8  N   UNL A   1      33.711  34.798  31.413  1.00  0.00    -0.234 NA
ATOM      9  S   UNL A   1      34.000  36.527  33.296  1.00  0.00    -0.116 S 
ATOM     10  C   UNL A   1      33.381  37.072  31.800  1.00  0.00     0.092 A 
BRANCH   7  11
ATOM     11  S   UNL A   1      34.897  33.678  33.566  1.00  0.00    -0.039 SA
BRANCH  11  12
ATOM     12  C   UNL A   1      36.623  33.709  33.133  1.00  0.00     0.106 A 
ATOM     13  C   UNL A   1      37.544  31.888  34.720  1.00  0.00     0.047 C 
ATOM     14  C   UNL A   1      37.662  32.892  33.611  1.00  0.00    -0.017 A 
ATOM     15  C   UNL A   1      38.938  33.026  33.021  1.00  0.00     0.023 A 
ATOM     16  C   UNL A   1      39.136  33.898  31.963  1.00  0.00     0.036 A 
ATOM     17  N   UNL A   1      36.833  34.571  32.095  1.00  0.00    -0.248 NA
ATOM     18  Br  UNL A   1      40.815  34.036  31.120  1.00  0.00    -0.049 Br
ATOM     19  C   UNL A   1      38.061  34.644  31.535  1.00  0.00     0.128 A 
ENDBRANCH  11  12
ENDBRANCH   7  11
ENDBRANCH   5   6
ENDBRANCH   3   5
ENDBRANCH   2   3
ENDBRANCH   1   2
BRANCH   1  20
ATOM     20  C   UNL A   1      35.220  32.676  29.308  1.00  0.00     0.275 C 
BRANCH  20  21
ATOM     21  O   UNL A   1      36.580  32.277  29.559  1.00  0.00    -0.458 OA
BRANCH  21  22
ATOM     22  C   UNL A   1      36.730  31.215  30.378  1.00  0.00     0.338 C 
ATOM     23  O   UNL A   1      35.999  30.870  31.291  1.00  0.00    -0.246 OA
BRANCH  22  24
ATOM     24  C   UNL A   1      37.918  30.446  29.989  1.00  0.00     0.060 A 
ATOM     25  C   UNL A   1      38.853  30.088  30.964  1.00  0.00     0.016 A 
ATOM     26  C   UNL A   1      38.178  30.230  28.635  1.00  0.00     0.016 A 
ATOM     27  C   UNL A   1      40.084  29.558  30.577  1.00  0.00     0.010 A 
ATOM     28  C   UNL A   1      39.397  29.667  28.253  1.00  0.00     0.010 A 
ATOM     29  C   UNL A   1      40.373  29.364  29.217  1.00  0.00    -0.014 A 
BRANCH  29  30
ATOM     30  C   UNL A   1      41.727  28.922  28.800  1.00  0.00     0.031 A 
ATOM     31  C   UNL A   1      42.865  29.904  28.783  1.00  0.00     0.074 A 
ATOM     32  C   UNL A   1      41.936  27.644  28.437  1.00  0.00     0.049 A 
ATOM     33  N   UNL A   1      44.107  29.724  28.414  1.00  0.00    -0.248 NA
ATOM     34  C   UNL A   1      42.563  31.272  29.234  1.00  0.00     0.031 C 
ATOM     35  C   UNL A   1      40.915  26.598  28.406  1.00  0.00     0.029 A 
ATOM     36  N   UNL A   1      43.079  27.014  28.016  1.00  0.00    -0.354 N 
ATOM     37  C   UNL A   1      44.729  30.959  28.559  1.00  0.00     0.074 A 
ATOM     38  C   UNL A   1      43.723  31.882  29.039  1.00  0.00     0.031 C 
ATOM     39  C   UNL A   1      41.479  25.452  27.989  1.00  0.00     0.029 A 
ATOM     40  C   UNL A   1      42.892  25.691  27.702  1.00  0.00     0.049 A 
ATOM     41  H   UNL A   1      43.951  27.467  27.947  1.00  0.00     0.167 HD
ATOM     42  C   UNL A   1      46.020  31.294  28.318  1.00  0.00     0.037 A 
ATOM     43  C   UNL A   1      43.757  24.775  27.226  1.00  0.00     0.037 A 
ATOM     44  C   UNL A   1      47.028  30.375  27.859  1.00  0.00     0.049 A 
ATOM     45  C   UNL A   1      45.192  25.157  26.999  1.00  0.00     0.074 A 
ATOM     46  C   UNL A   1      48.367  30.617  27.604  1.00  0.00     0.029 A 
ATOM     47  N   UNL A   1      46.806  29.033  27.587  1.00  0.00    -0.354 N 
ATOM     48  N   UNL A   1      45.767  26.325  27.157  1.00  0.00    -0.248 NA
ATOM     49  C   UNL A   1      46.097  24.095  26.540  1.00  0.00     0.031 C 
ATOM     50  C   UNL A   1      48.952  29.422  27.164  1.00  0.00     0.029 A 
ATOM     51  C   UNL A   1      47.983  28.433  27.167  1.00  0.00     0.049 A 
ATOM     52  H   UNL A   1      45.941  28.574  27.680  1.00  0.00     0.167 HD
ATOM     53  C   UNL A   1      47.105  26.137  26.827  1.00  0.00     0.074 A 
ATOM     54  C   UNL A   1      47.255  24.740  26.474  1.00  0.00     0.031 C 
ATOM     55  C   UNL A   1      48.116  27.041  26.819  1.00  0.00     0.037 A 
BRANCH  42  56
ATOM     56  C   UNL A   1      46.395  32.734  28.525  1.00  0.00     0.058 A 
ATOM     57  C   UNL A   1      46.852  33.203  29.765  1.00  0.00     0.135 A 
ATOM     58  C   UNL A   1      46.263  33.659  27.478  1.00  0.00     0.135 A 
ATOM     59  F   UNL A   1      46.977  32.360  30.803  1.00  0.00    -0.206 F 
ATOM     60  C   UNL A   1      47.127  34.551  29.975  1.00  0.00     0.059 A 
ATOM     61  C   UNL A   1      46.551  35.008  27.659  1.00  0.00     0.059 A 
ATOM     62  F   UNL A   1      45.827  33.259  26.273  1.00  0.00    -0.206 F 
ATOM     63  C   UNL A   1      46.959  35.449  28.918  1.00  0.00     0.060 A 
BRANCH  63  64
ATOM     64  S   UNL A   1      47.268  37.205  29.203  1.00  0.00     0.124 S 
ATOM     65  O   UNL A   1      46.182  37.816  28.443  1.00  0.00    -0.237 OA
ATOM     66  O   UNL A   1      47.164  37.317  30.655  1.00  0.00    -0.237 OA
ATOM     67  O   UNL A   1      48.608  37.402  28.658  1.00  0.00    -0.744 OA
ENDBRANCH  63  64
ENDBRANCH  42  56
BRANCH  43  68
ATOM     68  C   UNL A   1      43.276  23.399  26.954  1.00  0.00     0.058 A 
ATOM     69  C   UNL A   1      43.129  22.934  25.640  1.00  0.00     0.135 A 
ATOM     70  C   UNL A   1      43.021  22.504  28.004  1.00  0.00     0.135 A 
ATOM     71  F   UNL A   1      43.358  23.760  24.608  1.00  0.00    -0.206 F 
ATOM     72  C   UNL A   1      42.753  21.624  25.373  1.00  0.00     0.059 A 
ATOM     73  C   UNL A   1      42.658  21.184  27.761  1.00  0.00     0.059 A 
ATOM     74  F   UNL A   1      43.162  22.903  29.277  1.00  0.00    -0.206 F 
ATOM     75  C   UNL A   1      42.527  20.753  26.441  1.00  0.00     0.060 A 
BRANCH  75  76
ATOM     76  S   UNL A   1      42.141  19.023  26.090  1.00  0.00     0.124 S 
ATOM     77  O   UNL A   1      42.953  18.776  24.904  1.00  0.00    -0.237 OA
ATOM     78  O   UNL A   1      42.575  18.353  27.311  1.00  0.00    -0.237 OA
ATOM     79  O   UNL A   1      40.696  19.042  25.877  1.00  0.00    -0.744 OA
ENDBRANCH  75  76
ENDBRANCH  43  68
BRANCH  55  80
ATOM     80  C   UNL A   1      49.476  26.536  26.435  1.00  0.00     0.058 A 
ATOM     81  C   UNL A   1      50.299  25.872  27.356  1.00  0.00     0.135 A 
ATOM     82  C   UNL A   1      49.954  26.704  25.125  1.00  0.00     0.135 A 
ATOM     83  F   UNL A   1      49.888  25.692  28.622  1.00  0.00    -0.206 F 
ATOM     84  C   UNL A   1      51.564  25.413  27.001  1.00  0.00     0.059 A 
ATOM     85  C   UNL A   1      51.208  26.238  24.744  1.00  0.00     0.059 A 
ATOM     86  F   UNL A   1      49.200  27.326  24.205  1.00  0.00    -0.206 F 
ATOM     87  C   UNL A   1      52.012  25.608  25.693  1.00  0.00     0.060 A 
BRANCH  87  88
ATOM     88  S   UNL A   1      53.651  25.006  25.230  1.00  0.00     0.124 S 
ATOM     89  O   UNL A   1      54.430  25.334  26.418  1.00  0.00    -0.237 OA
ATOM     90  O   UNL A   1      53.416  23.583  24.999  1.00  0.00    -0.237 OA
ATOM     91  O   UNL A   1      53.966  25.782  24.034  1.00  0.00    -0.744 OA
ENDBRANCH  87  88
ENDBRANCH  55  80
ENDBRANCH  29  30
ENDBRANCH  22  24
ENDBRANCH  21  22
ENDBRANCH  20  21
ENDBRANCH   1  20
TORSDOF 17
ENDMDL
MODEL 2
REMARK VINA RESULT:     -10.2      4.093      5.378
REMARK SMILES Cc1cc(Br)cnc1Sc1nc(CC(=O)OCCOC(=O)c2ccc(-c3c4nc(c(-c5c(F)cc(S(=O)(=O)[O-])cc5F)c5ccc([nH]5)c(-c5c(F)cc(S(=O)(=O)[O-])cc5F)c5nc(c(-c6c(F)cc(S(=O)(=O)[O-])cc6F)c6ccc3[nH]6)C=C5)C=C4)cc2)cs1
REMARK SMILES IDX 17 1 16 2 14 3 15 4 13 5 12 6 10 7 11 8 89 9 88 10 9 11 8 12
REMARK SMILES IDX 1 13 2 14 3 15 4 16 7 17 5 18 6 19 18 20 19 21 20 22 21 23
REMARK SMILES IDX 22 24 23 25 87 26 24 27 86 28 25 29 26 30 27 31 80 32 28 33
REMARK SMILES IDX 85 34 79 35 81 36 29 37 84 38 78 39 77 40 30 42 64 43 43 44
REMARK SMILES IDX 63 45 44 46 47 47 62 48 82 49 45 50 46 51 61 53 83 54 48 55
REMARK SMILES IDX 31 56 32 57 41 58 33 59 34 60 40 61 42 62 35 63 36 64 37 65
REMARK SMILES IDX 38 66 39 67 65 68 66 69 75 70 67 71 68 72 74 73 76 74 69 75
REMARK SMILES IDX 70 76 71 77 72 78 73 79 49 80 50 81 59 82 51 83 52 84 58 85
REMARK SMILES IDX 60 86 53 87 54 88 55 89 56 90 57 91
REMARK H PARENT 81 41 47 52
REMARK Flexibility Score: inf
ROOT
ATOM      1  C   UNL A   1      34.238  32.222  28.154  1.00  0.00     0.274 C 
ENDROOT
BRANCH   1   2
ATOM      2  O   UNL A   1      34.094  31.074  27.294  1.00  0.00    -0.462 OA
BRANCH   2   3
ATOM      3  C   UNL A   1      32.817  30.678  27.042  1.00  0.00     0.312 C 
ATOM      4  O   UNL A   1      31.867  31.442  26.916  1.00  0.00    -0.252 OA
BRANCH   3   5
ATOM      5  C   UNL A   1      32.647  29.181  27.023  1.00  0.00     0.179 C 
BRANCH   5   6
ATOM      6  C   UNL A   1      31.983  28.602  25.816  1.00  0.00     0.064 A 
ATOM      7  C   UNL A   1      31.110  26.886  24.706  1.00  0.00     0.156 A 
ATOM      8  N   UNL A   1      31.819  27.218  25.763  1.00  0.00    -0.234 NA
ATOM      9  S   UNL A   1      30.689  28.183  23.662  1.00  0.00    -0.116 S 
ATOM     10  C   UNL A   1      31.395  29.281  24.764  1.00  0.00     0.092 A 
BRANCH   7  11
ATOM     11  S   UNL A   1      30.623  25.261  24.335  1.00  0.00    -0.039 SA
BRANCH  11  12
ATOM     12  C   UNL A   1      32.141  24.367  24.081  1.00  0.00     0.106 A 
ATOM     13  C   UNL A   1      32.791  25.197  21.721  1.00  0.00     0.047 C 
ATOM     14  C   UNL A   1      33.026  24.434  22.991  1.00  0.00    -0.017 A 
ATOM     15  C   UNL A   1      34.238  23.714  23.075  1.00  0.00     0.023 A 
ATOM     16  C   UNL A   1      34.562  23.013  24.225  1.00  0.00     0.036 A 
ATOM     17  N   UNL A   1      32.468  23.664  25.205  1.00  0.00    -0.248 NA
ATOM     18  Br  UNL A   1      36.206  22.106  24.377  1.00  0.00    -0.049 Br
ATOM     19  C   UNL A   1      33.654  23.018  25.258  1.00  0.00     0.128 A 
ENDBRANCH  11  12
ENDBRANCH   7  11
ENDBRANCH   5   6
ENDBRANCH   3   5
ENDBRANCH   2   3
ENDBRANCH   1   2
BRANCH   1  20
ATOM     20  C   UNL A   1      35.154  31.924  29.338  1.00  0.00     0.275 C 
BRANCH  20  21
ATOM     21  O   UNL A   1      35.701  30.598  29.229  1.00  0.00    -0.458 OA
BRANCH  21  22
ATOM     22  C   UNL A   1      36.448  30.191  30.278  1.00  0.00     0.338 C 
ATOM     23  O   UNL A   1      36.063  29.892  31.394  1.00  0.00    -0.246 OA
BRANCH  22  24
ATOM     24  C   UNL A   1      37.858  30.097  29.882  1.00  0.00     0.060 A 
ATOM     25  C   UNL A   1      38.189  30.051  28.525  1.00  0.00     0.016 A 
ATOM     26  C   UNL A   1      38.829  29.885  30.862  1.00  0.00     0.016 A 
ATOM     27  C   UNL A   1      39.493  29.738  28.143  1.00  0.00     0.010 A 
ATOM     28  C   UNL A   1      40.142  29.607  30.476  1.00  0.00     0.010 A 
ATOM     29  C   UNL A   1      40.474  29.492  29.116  1.00  0.00    -0.014 A 
BRANCH  29  30
ATOM     30  C   UNL A   1      41.826  29.035  28.710  1.00  0.00     0.031 A 
ATOM     31  C   UNL A   1      42.972  30.009  28.690  1.00  0.00     0.074 A 
ATOM     32  C   UNL A   1      42.028  27.752  28.361  1.00  0.00     0.049 A 
ATOM     33  N   UNL A   1      44.215  29.817  28.329  1.00  0.00    -0.248 NA
ATOM     34  C   UNL A   1      42.677  31.383  29.125  1.00  0.00     0.031 C 
ATOM     35  C   UNL A   1      41.000  26.713  28.337  1.00  0.00     0.029 A 
ATOM     36  N   UNL A   1      43.169  27.109  27.953  1.00  0.00    -0.354 N 
ATOM     37  C   UNL A   1      44.844  31.048  28.464  1.00  0.00     0.074 A 
ATOM     38  C   UNL A   1      43.842  31.983  28.930  1.00  0.00     0.031 C 
ATOM     39  C   UNL A   1      41.557  25.559  27.934  1.00  0.00     0.029 A 
ATOM     40  C   UNL A   1      42.973  25.785  27.651  1.00  0.00     0.049 A 
ATOM     41  H   UNL A   1      44.044  27.556  27.884  1.00  0.00     0.167 HD
ATOM     42  C   UNL A   1      46.139  31.371  28.227  1.00  0.00     0.037 A 
ATOM     43  C   UNL A   1      43.835  24.858  27.190  1.00  0.00     0.037 A 
ATOM     44  C   UNL A   1      47.143  30.440  27.782  1.00  0.00     0.049 A 
ATOM     45  C   UNL A   1      45.274  25.227  26.967  1.00  0.00     0.074 A 
ATOM     46  C   UNL A   1      48.485  30.670  27.532  1.00  0.00     0.029 A 
ATOM     47  N   UNL A   1      46.913  29.097  27.523  1.00  0.00    -0.354 N 
ATOM     48  N   UNL A   1      45.856  26.392  27.115  1.00  0.00    -0.248 NA
ATOM     49  C   UNL A   1      46.172  24.154  26.524  1.00  0.00     0.031 C 
ATOM     50  C   UNL A   1      49.063  29.466  27.107  1.00  0.00     0.029 A 
ATOM     51  C   UNL A   1      48.087  28.484  27.116  1.00  0.00     0.049 A 
ATOM     52  H   UNL A   1      46.044  28.646  27.617  1.00  0.00     0.167 HD
ATOM     53  C   UNL A   1      47.194  26.191  26.795  1.00  0.00     0.074 A 
ATOM     54  C   UNL A   1      47.336  24.789  26.457  1.00  0.00     0.031 C 
ATOM     55  C   UNL A   1      48.212  27.088  26.783  1.00  0.00     0.037 A 
BRANCH  42  56
ATOM     56  C   UNL A   1      46.523  32.810  28.421  1.00  0.00     0.058 A 
ATOM     57  C   UNL A   1      46.931  33.300  29.671  1.00  0.00     0.135 A 
ATOM     58  C   UNL A   1      46.450  33.715  27.351  1.00  0.00     0.135 A 
ATOM     59  F   UNL A   1      46.999  32.478  30.730  1.00  0.00    -0.206 F 
ATOM     60  C   UNL A   1      47.215  34.649  29.865  1.00  0.00     0.059 A 
ATOM     61  C   UNL A   1      46.748  35.064  27.517  1.00  0.00     0.059 A 
ATOM     62  F   UNL A   1      46.064  33.295  26.136  1.00  0.00    -0.206 F 
ATOM     63  C   UNL A   1      47.105  35.526  28.784  1.00  0.00     0.060 A 
BRANCH  63  64
ATOM     64  S   UNL A   1      47.425  37.283  29.046  1.00  0.00     0.124 S 
ATOM     65  O   UNL A   1      47.240  37.814  27.699  1.00  0.00    -0.237 OA
ATOM     66  O   UNL A   1      46.399  37.654  30.017  1.00  0.00    -0.237 OA
ATOM     67  O   UNL A   1      48.795  37.304  29.549  1.00  0.00    -0.744 OA
ENDBRANCH  63  64
ENDBRANCH  42  56
BRANCH  43  68
ATOM     68  C   UNL A   1      43.345  23.483  26.930  1.00  0.00     0.058 A 
ATOM     69  C   UNL A   1      43.151  23.023  25.620  1.00  0.00     0.135 A 
ATOM     70  C   UNL A   1      43.128  22.583  27.984  1.00  0.00     0.135 A 
ATOM     71  F   UNL A   1      43.342  23.854  24.583  1.00  0.00    -0.206 F 
ATOM     72  C   UNL A   1      42.766  21.714  25.361  1.00  0.00     0.059 A 
ATOM     73  C   UNL A   1      42.757  21.264  27.749  1.00  0.00     0.059 A 
ATOM     74  F   UNL A   1      43.314  22.977  29.253  1.00  0.00    -0.206 F 
ATOM     75  C   UNL A   1      42.579  20.838  26.432  1.00  0.00     0.060 A 
BRANCH  75  76
ATOM     76  S   UNL A   1      42.182  19.110  26.088  1.00  0.00     0.124 S 
ATOM     77  O   UNL A   1      40.748  19.184  25.835  1.00  0.00    -0.237 OA
ATOM     78  O   UNL A   1      43.020  18.822  24.928  1.00  0.00    -0.237 OA
ATOM     79  O   UNL A   1      42.575  18.427  27.317  1.00  0.00    -0.744 OA
ENDBRANCH  75  76
ENDBRANCH  43  68
BRANCH  55  80
ATOM     80  C   UNL A   1      49.570  26.569  26.411  1.00  0.00     0.058 A 
ATOM     81  C   UNL A   1      50.414  25.975  27.361  1.00  0.00     0.135 A 
ATOM     82  C   UNL A   1      50.025  26.652  25.085  1.00  0.00     0.135 A 
ATOM     83  F   UNL A   1      50.024  25.877  28.642  1.00  0.00    -0.206 F 
ATOM     84  C   UNL A   1      51.677  25.503  27.016  1.00  0.00     0.059 A 
ATOM     85  C   UNL A   1      51.278  26.172  24.715  1.00  0.00     0.059 A 
ATOM     86  F   UNL A   1      49.251  27.205  24.138  1.00  0.00    -0.206 F 
ATOM     87  C   UNL A   1      52.102  25.613  25.691  1.00  0.00     0.060 A 
BRANCH  87  88
ATOM     88  S   UNL A   1      53.739  24.995  25.242  1.00  0.00     0.124 S 
ATOM     89  O   UNL A   1      53.484  23.565  25.109  1.00  0.00    -0.237 OA
ATOM     90  O   UNL A   1      54.021  25.707  23.999  1.00  0.00    -0.237 OA
ATOM     91  O   UNL A   1      54.567  25.384  26.380  1.00  0.00    -0.744 OA
ENDBRANCH  87  88
ENDBRANCH  55  80
ENDBRANCH  29  30
ENDBRANCH  22  24
ENDBRANCH  21  22
ENDBRANCH  20  21
ENDBRANCH   1  20
TORSDOF 17
ENDMDL
MODEL 3
REMARK VINA RESULT:     -10.2      4.780     11.154
REMARK SMILES Cc1cc(Br)cnc1Sc1nc(CC(=O)OCCOC(=O)c2ccc(-c3c4nc(c(-c5c(F)cc(S(=O)(=O)[O-])cc5F)c5ccc([nH]5)c(-c5c(F)cc(S(=O)(=O)[O-])cc5F)c5nc(c(-c6c(F)cc(S(=O)(=O)[O-])cc6F)c6ccc3[nH]6)C=C5)C=C4)cc2)cs1
REMARK SMILES IDX 17 1 16 2 14 3 15 4 13 5 12 6 10 7 11 8 89 9 88 10 9 11 8 12
REMARK SMILES IDX 1 13 2 14 3 15 4 16 7 17 5 18 6 19 18 20 19 21 20 22 21 23
REMARK SMILES IDX 22 24 23 25 87 26 24 27 86 28 25 29 26 30 27 31 80 32 28 33
REMARK SMILES IDX 85 34 79 35 81 36 29 37 84 38 78 39 77 40 30 42 64 43 43 44
REMARK SMILES IDX 63 45 44 46 47 47 62 48 82 49 45 50 46 51 61 53 83 54 48 55
REMARK SMILES IDX 31 56 32 57 41 58 33 59 34 60 40 61 42 62 35 63 36 64 37 65
REMARK SMILES IDX 38 66 39 67 65 68 66 69 75 70 67 71 68 72 74 73 76 74 69 75
REMARK SMILES IDX 70 76 71 77 72 78 73 79 49 80 50 81 59 82 51 83 52 84 58 85
REMARK SMILES IDX 60 86 53 87 54 88 55 89 56 90 57 91
REMARK H PARENT 81 41 47 52
REMARK Flexibility Score: inf
ROOT
ATOM      1  C   UNL A   1      39.227  21.497  26.078  1.00  0.00     0.274 C 
ENDROOT
BRANCH   1   2
ATOM      2  O   UNL A   1      37.928  21.794  25.527  1.00  0.00    -0.462 OA
BRANCH   2   3
ATOM      3  C   UNL A   1      37.613  23.113  25.424  1.00  0.00     0.312 C 
ATOM      4  O   UNL A   1      38.023  23.984  26.184  1.00  0.00    -0.252 OA
BRANCH   3   5
ATOM      5  C   UNL A   1      36.622  23.409  24.330  1.00  0.00     0.179 C 
BRANCH   5   6
ATOM      6  C   UNL A   1      35.234  23.754  24.765  1.00  0.00     0.064 A 
ATOM      7  C   UNL A   1      33.128  23.187  25.189  1.00  0.00     0.156 A 
ATOM      8  N   UNL A   1      34.252  22.770  24.649  1.00  0.00    -0.234 NA
ATOM      9  S   UNL A   1      33.141  24.804  25.768  1.00  0.00    -0.116 S 
ATOM     10  C   UNL A   1      34.803  24.912  25.384  1.00  0.00     0.092 A 
BRANCH   7  11
ATOM     11  S   UNL A   1      31.693  22.217  25.315  1.00  0.00    -0.039 SA
BRANCH  11  12
ATOM     12  C   UNL A   1      32.147  20.627  24.657  1.00  0.00     0.106 A 
ATOM     13  C   UNL A   1      31.911  21.078  22.122  1.00  0.00     0.047 C 
ATOM     14  C   UNL A   1      32.275  20.239  23.312  1.00  0.00    -0.017 A 
ATOM     15  C   UNL A   1      32.772  18.946  23.038  1.00  0.00     0.023 A 
ATOM     16  C   UNL A   1      33.174  18.113  24.070  1.00  0.00     0.036 A 
ATOM     17  N   UNL A   1      32.538  19.793  25.665  1.00  0.00    -0.248 NA
ATOM     18  Br  UNL A   1      33.904  16.413  23.716  1.00  0.00    -0.049 Br
ATOM     19  C   UNL A   1      33.041  18.577  25.359  1.00  0.00     0.128 A 
ENDBRANCH  11  12
ENDBRANCH   7  11
ENDBRANCH   5   6
ENDBRANCH   3   5
ENDBRANCH   2   3
ENDBRANCH   1   2
BRANCH   1  20
ATOM     20  C   UNL A   1      39.582  20.022  25.912  1.00  0.00     0.275 C 
BRANCH  20  21
ATOM     21  O   UNL A   1      40.665  19.664  26.789  1.00  0.00    -0.458 OA
BRANCH  21  22
ATOM     22  C   UNL A   1      41.882  19.595  26.208  1.00  0.00     0.338 C 
ATOM     23  O   UNL A   1      42.332  18.688  25.530  1.00  0.00    -0.246 OA
BRANCH  22  24
ATOM     24  C   UNL A   1      42.627  20.834  26.458  1.00  0.00     0.060 A 
ATOM     25  C   UNL A   1      42.788  21.286  27.770  1.00  0.00     0.016 A 
ATOM     26  C   UNL A   1      43.017  21.625  25.376  1.00  0.00     0.016 A 
ATOM     27  C   UNL A   1      43.295  22.565  28.001  1.00  0.00     0.010 A 
ATOM     28  C   UNL A   1      43.557  22.891  25.612  1.00  0.00     0.010 A 
ATOM     29  C   UNL A   1      43.662  23.385  26.924  1.00  0.00    -0.014 A 
BRANCH  29  30
ATOM     30  C   UNL A   1      44.080  24.788  27.165  1.00  0.00     0.031 A 
ATOM     31  C   UNL A   1      45.512  25.192  26.949  1.00  0.00     0.074 A 
ATOM     32  C   UNL A   1      43.180  25.698  27.576  1.00  0.00     0.049 A 
ATOM     33  N   UNL A   1      46.083  26.353  27.142  1.00  0.00    -0.248 NA
ATOM     34  C   UNL A   1      46.426  24.147  26.460  1.00  0.00     0.031 C 
ATOM     35  C   UNL A   1      41.764  25.432  27.824  1.00  0.00     0.029 A 
ATOM     36  N   UNL A   1      43.329  27.031  27.863  1.00  0.00    -0.354 N 
ATOM     37  C   UNL A   1      47.424  26.175  26.827  1.00  0.00     0.074 A 
ATOM     38  C   UNL A   1      47.585  24.789  26.440  1.00  0.00     0.031 C 
ATOM     39  C   UNL A   1      41.171  26.568  28.228  1.00  0.00     0.029 A 
ATOM     40  C   UNL A   1      42.171  27.633  28.288  1.00  0.00     0.049 A 
ATOM     41  H   UNL A   1      44.184  27.510  27.773  1.00  0.00     0.167 HD
ATOM     42  C   UNL A   1      48.432  27.082  26.852  1.00  0.00     0.037 A 
ATOM     43  C   UNL A   1      41.940  28.898  28.689  1.00  0.00     0.037 A 
ATOM     44  C   UNL A   1      48.273  28.465  27.217  1.00  0.00     0.049 A 
ATOM     45  C   UNL A   1      43.062  29.897  28.676  1.00  0.00     0.074 A 
ATOM     46  C   UNL A   1      49.230  29.465  27.255  1.00  0.00     0.029 A 
ATOM     47  N   UNL A   1      47.074  29.046  27.605  1.00  0.00    -0.354 N 
ATOM     48  N   UNL A   1      44.321  29.716  28.360  1.00  0.00    -0.248 NA
ATOM     49  C   UNL A   1      42.728  31.273  29.065  1.00  0.00     0.031 C 
ATOM     50  C   UNL A   1      48.611  30.648  27.681  1.00  0.00     0.029 A 
ATOM     51  C   UNL A   1      47.266  30.390  27.885  1.00  0.00     0.049 A 
ATOM     52  H   UNL A   1      46.214  28.573  27.671  1.00  0.00     0.167 HD
ATOM     53  C   UNL A   1      44.930  30.958  28.500  1.00  0.00     0.074 A 
ATOM     54  C   UNL A   1      43.897  31.884  28.917  1.00  0.00     0.031 C 
ATOM     55  C   UNL A   1      46.228  31.298  28.300  1.00  0.00     0.037 A 
BRANCH  42  56
ATOM     56  C   UNL A   1      49.802  26.580  26.498  1.00  0.00     0.058 A 
ATOM     57  C   UNL A   1      50.295  26.650  25.187  1.00  0.00     0.135 A 
ATOM     58  C   UNL A   1      50.617  25.993  27.478  1.00  0.00     0.135 A 
ATOM     59  F   UNL A   1      49.545  27.186  24.210  1.00  0.00    -0.206 F 
ATOM     60  C   UNL A   1      51.535  26.117  24.848  1.00  0.00     0.059 A 
ATOM     61  C   UNL A   1      51.869  25.471  27.166  1.00  0.00     0.059 A 
ATOM     62  F   UNL A   1      50.190  25.901  28.747  1.00  0.00    -0.206 F 
ATOM     63  C   UNL A   1      52.309  25.515  25.843  1.00  0.00     0.060 A 
BRANCH  63  64
ATOM     64  S   UNL A   1      53.895  24.781  25.394  1.00  0.00     0.124 S 
ATOM     65  O   UNL A   1      54.658  24.970  26.624  1.00  0.00    -0.237 OA
ATOM     66  O   UNL A   1      53.532  23.401  25.082  1.00  0.00    -0.237 OA
ATOM     67  O   UNL A   1      54.327  25.583  24.255  1.00  0.00    -0.744 OA
ENDBRANCH  63  64
ENDBRANCH  42  56
BRANCH  43  68
ATOM     68  C   UNL A   1      40.574  29.282  29.118  1.00  0.00     0.058 A 
ATOM     69  C   UNL A   1      40.270  29.467  30.474  1.00  0.00     0.135 A 
ATOM     70  C   UNL A   1      39.566  29.538  28.175  1.00  0.00     0.135 A 
ATOM     71  F   UNL A   1      41.203  29.228  31.408  1.00  0.00    -0.206 F 
ATOM     72  C   UNL A   1      39.015  29.900  30.883  1.00  0.00     0.059 A 
ATOM     73  C   UNL A   1      38.308  29.987  28.559  1.00  0.00     0.059 A 
ATOM     74  F   UNL A   1      39.818  29.386  26.866  1.00  0.00    -0.206 F 
ATOM     75  C   UNL A   1      38.042  30.166  29.917  1.00  0.00     0.060 A 
BRANCH  75  76
ATOM     76  S   UNL A   1      36.447  30.830  30.444  1.00  0.00     0.124 S 
ATOM     77  O   UNL A   1      36.079  29.900  31.505  1.00  0.00    -0.237 OA
ATOM     78  O   UNL A   1      36.797  32.180  30.873  1.00  0.00    -0.237 OA
ATOM     79  O   UNL A   1      35.640  30.758  29.230  1.00  0.00    -0.744 OA
ENDBRANCH  75  76
ENDBRANCH  43  68
BRANCH  55  80
ATOM     80  C   UNL A   1      46.593  32.738  28.512  1.00  0.00     0.058 A 
ATOM     81  C   UNL A   1      47.053  33.203  29.753  1.00  0.00     0.135 A 
ATOM     82  C   UNL A   1      46.498  33.660  27.457  1.00  0.00     0.135 A 
ATOM     83  F   UNL A   1      47.156  32.360  30.793  1.00  0.00    -0.206 F 
ATOM     84  C   UNL A   1      47.383  34.541  29.951  1.00  0.00     0.059 A 
ATOM     85  C   UNL A   1      46.838  34.998  27.628  1.00  0.00     0.059 A 
ATOM     86  F   UNL A   1      46.072  33.262  26.248  1.00  0.00    -0.206 F 
ATOM     87  C   UNL A   1      47.264  35.432  28.883  1.00  0.00     0.060 A 
BRANCH  87  88
ATOM     88  S   UNL A   1      47.698  37.167  29.137  1.00  0.00     0.124 S 
ATOM     89  O   UNL A   1      48.849  37.313  28.253  1.00  0.00    -0.237 OA
ATOM     90  O   UNL A   1      46.485  37.865  28.720  1.00  0.00    -0.237 OA
ATOM     91  O   UNL A   1      47.989  37.233  30.567  1.00  0.00    -0.744 OA
ENDBRANCH  87  88
ENDBRANCH  55  80
ENDBRANCH  29  30
ENDBRANCH  22  24
ENDBRANCH  21  22
ENDBRANCH  20  21
ENDBRANCH   1  20
TORSDOF 17
ENDMDL
