MODEL 1
REMARK VINA RESULT:      -9.3      0.000      0.000
REMARK SMILES C=CC[NH2+]CC(=O)N1CCOC[C@@H]1C(=O)OCCOC(=O)c1ccc(-c2c3nc(c(-c4c(F)cc(S(=O)(=O)[O-])cc4F)c4ccc([nH]4)c(-c4c(F)cc(S(=O)(=O)[O-])cc4F)c4nc(c(-c5c(F)cc(S(=O)(=O)[O-])cc5F)c5ccc2[nH]5)C=C4)C=C3)cc1
REMARK SMILES IDX 17 1 16 2 14 3 15 4 13 5 8 6 9 7 10 8 12 9 11 10 6 11 7 12
REMARK SMILES IDX 5 13 4 14 3 17 2 18 1 19 18 20 19 21 20 22 21 23 22 24 23 25
REMARK SMILES IDX 87 26 24 27 86 28 25 29 26 30 27 31 80 32 28 33 85 34 79 35
REMARK SMILES IDX 81 36 29 37 84 38 78 39 77 40 30 42 64 43 43 44 63 45 44 46
REMARK SMILES IDX 47 47 62 48 82 49 45 50 46 51 61 53 83 54 48 55 31 56 32 57
REMARK SMILES IDX 41 58 33 59 34 60 40 61 42 62 35 63 36 64 37 65 38 66 39 67
REMARK SMILES IDX 65 68 66 69 75 70 67 71 68 72 74 73 76 74 69 75 70 76 71 77
REMARK SMILES IDX 72 78 73 79 49 80 50 81 59 82 51 83 52 84 58 85 60 86 53 87
REMARK SMILES IDX 54 88 55 89 56 90 57 91
REMARK H PARENT 4 15 4 16 81 41 47 52
REMARK Flexibility Score: inf
ROOT
ATOM      1  C   UNL A   1      37.320  33.669  33.997  1.00  0.00     0.274 C 
ENDROOT
BRANCH   1   2
ATOM      2  O   UNL A   1      36.387  34.390  33.174  1.00  0.00    -0.460 OA
BRANCH   2   3
ATOM      3  C   UNL A   1      35.082  34.020  33.333  1.00  0.00     0.331 C 
ATOM      4  O   UNL A   1      34.691  33.067  33.998  1.00  0.00    -0.250 OA
BRANCH   3   5
ATOM      5  C   UNL A   1      34.139  34.966  32.586  1.00  0.00     0.221 C 
ATOM      6  N   UNL A   1      33.773  34.702  31.182  1.00  0.00    -0.320 N 
ATOM      7  C   UNL A   1      32.745  35.630  30.709  1.00  0.00     0.149 C 
ATOM      8  C   UNL A   1      33.173  37.087  30.920  1.00  0.00     0.181 C 
ATOM      9  C   UNL A   1      34.599  36.434  32.701  1.00  0.00     0.197 C 
ATOM     10  O   UNL A   1      33.547  37.327  32.285  1.00  0.00    -0.377 OA
BRANCH   6  11
ATOM     11  C   UNL A   1      34.484  33.769  30.450  1.00  0.00     0.278 C 
ATOM     12  O   UNL A   1      34.343  32.561  30.658  1.00  0.00    -0.268 OA
BRANCH  11  13
ATOM     13  C   UNL A   1      35.632  34.225  29.542  1.00  0.00     0.362 C 
BRANCH  13  14
ATOM     14  N   UNL A   1      36.962  34.233  30.157  1.00  0.00    -0.335 N 
ATOM     15  H   UNL A   1      37.138  35.156  30.554  1.00  0.00     0.347 HD
ATOM     16  H   UNL A   1      36.986  33.518  30.884  1.00  0.00     0.347 HD
BRANCH  14  17
ATOM     17  C   UNL A   1      37.995  33.932  29.177  1.00  0.00     0.289 C 
BRANCH  17  18
ATOM     18  C   UNL A   1      39.257  34.642  29.544  1.00  0.00     0.025 C 
ATOM     19  C   UNL A   1      40.302  34.064  30.152  1.00  0.00     0.010 C 
ENDBRANCH  17  18
ENDBRANCH  14  17
ENDBRANCH  13  14
ENDBRANCH  11  13
ENDBRANCH   6  11
ENDBRANCH   3   5
ENDBRANCH   2   3
ENDBRANCH   1   2
BRANCH   1  20
ATOM     20  C   UNL A   1      38.230  32.809  33.122  1.00  0.00     0.275 C 
BRANCH  20  21
ATOM     21  O   UNL A   1      37.452  32.141  32.110  1.00  0.00    -0.458 OA
BRANCH  21  22
ATOM     22  C   UNL A   1      37.505  30.788  32.124  1.00  0.00     0.338 C 
ATOM     23  O   UNL A   1      36.710  30.031  32.652  1.00  0.00    -0.246 OA
BRANCH  22  24
ATOM     24  C   UNL A   1      38.684  30.311  31.373  1.00  0.00     0.060 A 
ATOM     25  C   UNL A   1      39.759  29.703  32.026  1.00  0.00     0.016 A 
ATOM     26  C   UNL A   1      38.768  30.584  30.008  1.00  0.00     0.016 A 
ATOM     27  C   UNL A   1      40.945  29.448  31.339  1.00  0.00     0.010 A 
ATOM     28  C   UNL A   1      39.920  30.234  29.300  1.00  0.00     0.010 A 
ATOM     29  C   UNL A   1      41.034  29.689  29.962  1.00  0.00    -0.014 A 
BRANCH  29  30
ATOM     30  C   UNL A   1      42.280  29.390  29.206  1.00  0.00     0.031 A 
ATOM     31  C   UNL A   1      42.484  28.027  28.598  1.00  0.00     0.074 A 
ATOM     32  C   UNL A   1      43.244  30.325  29.082  1.00  0.00     0.049 A 
ATOM     33  N   UNL A   1      43.574  27.490  28.114  1.00  0.00    -0.248 NA
ATOM     34  C   UNL A   1      41.305  27.148  28.540  1.00  0.00     0.031 C 
ATOM     35  C   UNL A   1      43.163  31.702  29.572  1.00  0.00     0.029 A 
ATOM     36  N   UNL A   1      44.490  30.252  28.508  1.00  0.00    -0.354 N 
ATOM     37  C   UNL A   1      43.229  26.193  27.749  1.00  0.00     0.074 A 
ATOM     38  C   UNL A   1      41.826  26.027  28.063  1.00  0.00     0.031 C 
ATOM     39  C   UNL A   1      44.293  32.351  29.256  1.00  0.00     0.029 A 
ATOM     40  C   UNL A   1      45.214  31.415  28.621  1.00  0.00     0.049 A 
ATOM     41  H   UNL A   1      44.831  29.446  28.060  1.00  0.00     0.167 HD
ATOM     42  C   UNL A   1      44.014  25.231  27.206  1.00  0.00     0.037 A 
ATOM     43  C   UNL A   1      46.492  31.688  28.296  1.00  0.00     0.037 A 
ATOM     44  C   UNL A   1      45.398  25.419  26.853  1.00  0.00     0.049 A 
ATOM     45  C   UNL A   1      47.356  30.597  27.734  1.00  0.00     0.074 A 
ATOM     46  C   UNL A   1      46.280  24.508  26.297  1.00  0.00     0.029 A 
ATOM     47  N   UNL A   1      46.097  26.607  27.008  1.00  0.00    -0.354 N 
ATOM     48  N   UNL A   1      47.040  29.354  27.464  1.00  0.00    -0.248 NA
ATOM     49  C   UNL A   1      48.759  30.938  27.458  1.00  0.00     0.031 C 
ATOM     50  C   UNL A   1      47.519  25.140  26.137  1.00  0.00     0.029 A 
ATOM     51  C   UNL A   1      47.401  26.452  26.563  1.00  0.00     0.049 A 
ATOM     52  H   UNL A   1      45.723  27.439  27.379  1.00  0.00     0.167 HD
ATOM     53  C   UNL A   1      48.200  28.765  26.977  1.00  0.00     0.074 A 
ATOM     54  C   UNL A   1      49.222  29.792  26.978  1.00  0.00     0.031 C 
ATOM     55  C   UNL A   1      48.402  27.488  26.570  1.00  0.00     0.037 A 
BRANCH  42  56
ATOM     56  C   UNL A   1      43.400  23.875  26.999  1.00  0.00     0.058 A 
ATOM     57  C   UNL A   1      42.963  23.442  25.737  1.00  0.00     0.135 A 
ATOM     58  C   UNL A   1      43.253  22.992  28.081  1.00  0.00     0.135 A 
ATOM     59  F   UNL A   1      43.066  24.253  24.672  1.00  0.00    -0.206 F 
ATOM     60  C   UNL A   1      42.368  22.196  25.562  1.00  0.00     0.059 A 
ATOM     61  C   UNL A   1      42.682  21.733  27.926  1.00  0.00     0.059 A 
ATOM     62  F   UNL A   1      43.656  23.356  29.309  1.00  0.00    -0.206 F 
ATOM     63  C   UNL A   1      42.224  21.352  26.665  1.00  0.00     0.060 A 
BRANCH  63  64
ATOM     64  S   UNL A   1      41.430  19.745  26.435  1.00  0.00     0.124 S 
ATOM     65  O   UNL A   1      42.200  19.201  25.320  1.00  0.00    -0.237 OA
ATOM     66  O   UNL A   1      41.644  19.099  27.725  1.00  0.00    -0.237 OA
ATOM     67  O   UNL A   1      40.046  20.092  26.133  1.00  0.00    -0.744 OA
ENDBRANCH  63  64
ENDBRANCH  42  56
BRANCH  43  68
ATOM     68  C   UNL A   1      47.037  33.050  28.533  1.00  0.00     0.058 A 
ATOM     69  C   UNL A   1      47.643  33.377  29.753  1.00  0.00     0.135 A 
ATOM     70  C   UNL A   1      46.993  34.037  27.536  1.00  0.00     0.135 A 
ATOM     71  F   UNL A   1      47.698  32.469  30.739  1.00  0.00    -0.206 F 
ATOM     72  C   UNL A   1      48.186  34.638  29.980  1.00  0.00     0.059 A 
ATOM     73  C   UNL A   1      47.550  35.297  27.731  1.00  0.00     0.059 A 
ATOM     74  F   UNL A   1      46.433  33.768  26.346  1.00  0.00    -0.206 F 
ATOM     75  C   UNL A   1      48.139  35.589  28.961  1.00  0.00     0.060 A 
BRANCH  75  76
ATOM     76  S   UNL A   1      48.906  37.201  29.236  1.00  0.00     0.124 S 
ATOM     77  O   UNL A   1      49.644  36.967  30.471  1.00  0.00    -0.237 OA
ATOM     78  O   UNL A   1      49.714  37.370  28.031  1.00  0.00    -0.237 OA
ATOM     79  O   UNL A   1      47.761  38.102  29.341  1.00  0.00    -0.744 OA
ENDBRANCH  75  76
ENDBRANCH  43  68
BRANCH  55  80
ATOM     80  C   UNL A   1      49.773  27.142  26.066  1.00  0.00     0.058 A 
ATOM     81  C   UNL A   1      50.774  26.671  26.930  1.00  0.00     0.135 A 
ATOM     82  C   UNL A   1      50.078  27.255  24.701  1.00  0.00     0.135 A 
ATOM     83  F   UNL A   1      50.533  26.556  28.245  1.00  0.00    -0.206 F 
ATOM     84  C   UNL A   1      52.040  26.340  26.458  1.00  0.00     0.059 A 
ATOM     85  C   UNL A   1      51.331  26.912  24.205  1.00  0.00     0.059 A 
ATOM     86  F   UNL A   1      49.151  27.696  23.835  1.00  0.00    -0.206 F 
ATOM     87  C   UNL A   1      52.310  26.465  25.094  1.00  0.00     0.060 A 
BRANCH  87  88
ATOM     88  S   UNL A   1      53.946  26.008  24.483  1.00  0.00     0.124 S 
ATOM     89  O   UNL A   1      53.804  26.250  23.051  1.00  0.00    -0.237 OA
ATOM     90  O   UNL A   1      54.821  26.932  25.199  1.00  0.00    -0.237 OA
ATOM     91  O   UNL A   1      54.073  24.607  24.876  1.00  0.00    -0.744 OA
ENDBRANCH  87  88
ENDBRANCH  55  80
ENDBRANCH  29  30
ENDBRANCH  22  24
ENDBRANCH  21  22
ENDBRANCH  20  21
ENDBRANCH   1  20
TORSDOF 19
ENDMDL
MODEL 2
REMARK VINA RESULT:      -9.2      6.512     12.540
REMARK SMILES C=CC[NH2+]CC(=O)N1CCOC[C@@H]1C(=O)OCCOC(=O)c1ccc(-c2c3nc(c(-c4c(F)cc(S(=O)(=O)[O-])cc4F)c4ccc([nH]4)c(-c4c(F)cc(S(=O)(=O)[O-])cc4F)c4nc(c(-c5c(F)cc(S(=O)(=O)[O-])cc5F)c5ccc2[nH]5)C=C4)C=C3)cc1
REMARK SMILES IDX 17 1 16 2 14 3 15 4 13 5 8 6 9 7 10 8 12 9 11 10 6 11 7 12
REMARK SMILES IDX 5 13 4 14 3 17 2 18 1 19 18 20 19 21 20 22 21 23 22 24 23 25
REMARK SMILES IDX 87 26 24 27 86 28 25 29 26 30 27 31 80 32 28 33 85 34 79 35
REMARK SMILES IDX 81 36 29 37 84 38 78 39 77 40 30 42 64 43 43 44 63 45 44 46
REMARK SMILES IDX 47 47 62 48 82 49 45 50 46 51 61 53 83 54 48 55 31 56 32 57
REMARK SMILES IDX 41 58 33 59 34 60 40 61 42 62 35 63 36 64 37 65 38 66 39 67
REMARK SMILES IDX 65 68 66 69 75 70 67 71 68 72 74 73 76 74 69 75 70 76 71 77
REMARK SMILES IDX 72 78 73 79 49 80 50 81 59 82 51 83 52 84 58 85 60 86 53 87
REMARK SMILES IDX 54 88 55 89 56 90 57 91
REMARK H PARENT 4 15 4 16 81 41 47 52
REMARK Flexibility Score: inf
ROOT
ATOM      1  C   UNL A   1      36.873  21.950  23.945  1.00  0.00     0.274 C 
ENDROOT
BRANCH   1   2
ATOM      2  O   UNL A   1      36.403  23.304  23.834  1.00  0.00    -0.460 OA
BRANCH   2   3
ATOM      3  C   UNL A   1      35.079  23.424  23.517  1.00  0.00     0.331 C 
ATOM      4  O   UNL A   1      34.617  23.397  22.381  1.00  0.00    -0.250 OA
BRANCH   3   5
ATOM      5  C   UNL A   1      34.216  23.575  24.772  1.00  0.00     0.221 C 
ATOM      6  N   UNL A   1      33.446  22.430  25.291  1.00  0.00    -0.320 N 
ATOM      7  C   UNL A   1      32.821  22.740  26.577  1.00  0.00     0.149 C 
ATOM      8  C   UNL A   1      31.963  24.008  26.486  1.00  0.00     0.181 C 
ATOM      9  C   UNL A   1      33.272  24.790  24.668  1.00  0.00     0.197 C 
ATOM     10  O   UNL A   1      32.717  25.109  25.960  1.00  0.00    -0.377 OA
BRANCH   6  11
ATOM     11  C   UNL A   1      33.275  21.304  24.507  1.00  0.00     0.278 C 
ATOM     12  O   UNL A   1      32.473  21.303  23.568  1.00  0.00    -0.268 OA
BRANCH  11  13
ATOM     13  C   UNL A   1      33.896  19.970  24.939  1.00  0.00     0.362 C 
BRANCH  13  14
ATOM     14  N   UNL A   1      33.099  19.175  25.876  1.00  0.00    -0.335 N 
ATOM     15  H   UNL A   1      33.646  19.009  26.721  1.00  0.00     0.347 HD
ATOM     16  H   UNL A   1      32.248  19.692  26.096  1.00  0.00     0.347 HD
BRANCH  14  17
ATOM     17  C   UNL A   1      32.726  17.895  25.292  1.00  0.00     0.289 C 
BRANCH  17  18
ATOM     18  C   UNL A   1      33.937  17.236  24.715  1.00  0.00     0.025 C 
ATOM     19  C   UNL A   1      33.990  16.685  23.495  1.00  0.00     0.010 C 
ENDBRANCH  17  18
ENDBRANCH  14  17
ENDBRANCH  13  14
ENDBRANCH  11  13
ENDBRANCH   6  11
ENDBRANCH   3   5
ENDBRANCH   2   3
ENDBRANCH   1   2
BRANCH   1  20
ATOM     20  C   UNL A   1      37.760  21.807  25.181  1.00  0.00     0.275 C 
BRANCH  20  21
ATOM     21  O   UNL A   1      38.135  23.109  25.671  1.00  0.00    -0.458 OA
BRANCH  21  22
ATOM     22  C   UNL A   1      39.414  23.231  26.096  1.00  0.00     0.338 C 
ATOM     23  O   UNL A   1      40.334  22.463  25.877  1.00  0.00    -0.246 OA
BRANCH  22  24
ATOM     24  C   UNL A   1      39.582  24.473  26.879  1.00  0.00     0.060 A 
ATOM     25  C   UNL A   1      40.442  25.487  26.450  1.00  0.00     0.016 A 
ATOM     26  C   UNL A   1      38.961  24.571  28.124  1.00  0.00     0.016 A 
ATOM     27  C   UNL A   1      40.747  26.553  27.294  1.00  0.00     0.010 A 
ATOM     28  C   UNL A   1      39.190  25.692  28.926  1.00  0.00     0.010 A 
ATOM     29  C   UNL A   1      40.109  26.681  28.535  1.00  0.00    -0.014 A 
BRANCH  29  30
ATOM     30  C   UNL A   1      40.396  27.832  29.434  1.00  0.00     0.031 A 
ATOM     31  C   UNL A   1      41.605  27.804  30.331  1.00  0.00     0.074 A 
ATOM     32  C   UNL A   1      39.564  28.893  29.471  1.00  0.00     0.049 A 
ATOM     33  N   UNL A   1      41.904  28.578  31.343  1.00  0.00    -0.248 NA
ATOM     34  C   UNL A   1      42.603  26.757  30.061  1.00  0.00     0.031 C 
ATOM     35  C   UNL A   1      38.386  29.081  28.622  1.00  0.00     0.029 A 
ATOM     36  N   UNL A   1      39.581  30.014  30.264  1.00  0.00    -0.354 N 
ATOM     37  C   UNL A   1      43.092  28.077  31.866  1.00  0.00     0.074 A 
ATOM     38  C   UNL A   1      43.460  26.936  31.056  1.00  0.00     0.031 C 
ATOM     39  C   UNL A   1      37.811  30.256  28.920  1.00  0.00     0.029 A 
ATOM     40  C   UNL A   1      38.524  30.863  30.037  1.00  0.00     0.049 A 
ATOM     41  H   UNL A   1      40.283  30.193  30.930  1.00  0.00     0.167 HD
ATOM     42  C   UNL A   1      43.804  28.527  32.927  1.00  0.00     0.037 A 
ATOM     43  C   UNL A   1      38.139  31.978  30.686  1.00  0.00     0.037 A 
ATOM     44  C   UNL A   1      43.456  29.693  33.700  1.00  0.00     0.049 A 
ATOM     45  C   UNL A   1      38.919  32.437  31.884  1.00  0.00     0.074 A 
ATOM     46  C   UNL A   1      44.113  30.232  34.793  1.00  0.00     0.029 A 
ATOM     47  N   UNL A   1      42.362  30.508  33.449  1.00  0.00    -0.354 N 
ATOM     48  N   UNL A   1      39.996  31.912  32.415  1.00  0.00    -0.248 NA
ATOM     49  C   UNL A   1      38.414  33.624  32.588  1.00  0.00     0.031 C 
ATOM     50  C   UNL A   1      43.401  31.362  35.217  1.00  0.00     0.029 A 
ATOM     51  C   UNL A   1      42.321  31.543  34.369  1.00  0.00     0.049 A 
ATOM     52  H   UNL A   1      41.710  30.371  32.724  1.00  0.00     0.167 HD
ATOM     53  C   UNL A   1      40.306  32.709  33.509  1.00  0.00     0.074 A 
ATOM     54  C   UNL A   1      39.309  33.760  33.557  1.00  0.00     0.031 C 
ATOM     55  C   UNL A   1      41.321  32.580  34.398  1.00  0.00     0.037 A 
BRANCH  42  56
ATOM     56  C   UNL A   1      45.011  27.731  33.336  1.00  0.00     0.058 A 
ATOM     57  C   UNL A   1      44.914  26.618  34.186  1.00  0.00     0.135 A 
ATOM     58  C   UNL A   1      46.286  28.086  32.864  1.00  0.00     0.135 A 
ATOM     59  F   UNL A   1      43.723  26.246  34.678  1.00  0.00    -0.206 F 
ATOM     60  C   UNL A   1      46.043  25.906  34.582  1.00  0.00     0.059 A 
ATOM     61  C   UNL A   1      47.425  27.375  33.229  1.00  0.00     0.059 A 
ATOM     62  F   UNL A   1      46.434  29.141  32.047  1.00  0.00    -0.206 F 
ATOM     63  C   UNL A   1      47.296  26.298  34.105  1.00  0.00     0.060 A 
BRANCH  63  64
ATOM     64  S   UNL A   1      48.758  25.384  34.643  1.00  0.00     0.124 S 
ATOM     65  O   UNL A   1      49.512  26.426  35.333  1.00  0.00    -0.237 OA
ATOM     66  O   UNL A   1      48.187  24.347  35.496  1.00  0.00    -0.237 OA
ATOM     67  O   UNL A   1      49.339  24.911  33.391  1.00  0.00    -0.744 OA
ENDBRANCH  63  64
ENDBRANCH  42  56
BRANCH  43  68
ATOM     68  C   UNL A   1      36.932  32.715  30.231  1.00  0.00     0.058 A 
ATOM     69  C   UNL A   1      35.698  32.534  30.870  1.00  0.00     0.135 A 
ATOM     70  C   UNL A   1      36.995  33.637  29.173  1.00  0.00     0.135 A 
ATOM     71  F   UNL A   1      35.588  31.655  31.878  1.00  0.00    -0.206 F 
ATOM     72  C   UNL A   1      34.565  33.238  30.477  1.00  0.00     0.059 A 
ATOM     73  C   UNL A   1      35.881  34.370  28.778  1.00  0.00     0.059 A 
ATOM     74  F   UNL A   1      38.157  33.854  28.537  1.00  0.00    -0.206 F 
ATOM     75  C   UNL A   1      34.668  34.158  29.432  1.00  0.00     0.060 A 
BRANCH  75  76
ATOM     76  S   UNL A   1      33.211  35.121  28.972  1.00  0.00     0.124 S 
ATOM     77  O   UNL A   1      33.818  36.310  28.387  1.00  0.00    -0.237 OA
ATOM     78  O   UNL A   1      32.530  34.227  28.039  1.00  0.00    -0.237 OA
ATOM     79  O   UNL A   1      32.526  35.319  30.247  1.00  0.00    -0.744 OA
ENDBRANCH  75  76
ENDBRANCH  43  68
BRANCH  55  80
ATOM     80  C   UNL A   1      41.418  33.619  35.477  1.00  0.00     0.058 A 
ATOM     81  C   UNL A   1      40.818  33.430  36.731  1.00  0.00     0.135 A 
ATOM     82  C   UNL A   1      42.145  34.800  35.264  1.00  0.00     0.135 A 
ATOM     83  F   UNL A   1      40.104  32.320  36.980  1.00  0.00    -0.206 F 
ATOM     84  C   UNL A   1      40.920  34.389  37.734  1.00  0.00     0.059 A 
ATOM     85  C   UNL A   1      42.274  35.764  36.259  1.00  0.00     0.059 A 
ATOM     86  F   UNL A   1      42.741  35.023  34.083  1.00  0.00    -0.206 F 
ATOM     87  C   UNL A   1      41.649  35.553  37.488  1.00  0.00     0.060 A 
BRANCH  87  88
ATOM     88  S   UNL A   1      41.800  36.781  38.803  1.00  0.00     0.124 S 
ATOM     89  O   UNL A   1      42.892  37.611  38.306  1.00  0.00    -0.237 OA
ATOM     90  O   UNL A   1      40.480  37.406  38.806  1.00  0.00    -0.237 OA
ATOM     91  O   UNL A   1      42.106  35.977  39.982  1.00  0.00    -0.744 OA
ENDBRANCH  87  88
ENDBRANCH  55  80
ENDBRANCH  29  30
ENDBRANCH  22  24
ENDBRANCH  21  22
ENDBRANCH  20  21
ENDBRANCH   1  20
TORSDOF 19
ENDMDL
MODEL 3
REMARK VINA RESULT:      -9.0      4.376     10.077
REMARK SMILES C=CC[NH2+]CC(=O)N1CCOC[C@@H]1C(=O)OCCOC(=O)c1ccc(-c2c3nc(c(-c4c(F)cc(S(=O)(=O)[O-])cc4F)c4ccc([nH]4)c(-c4c(F)cc(S(=O)(=O)[O-])cc4F)c4nc(c(-c5c(F)cc(S(=O)(=O)[O-])cc5F)c5ccc2[nH]5)C=C4)C=C3)cc1
REMARK SMILES IDX 17 1 16 2 14 3 15 4 13 5 8 6 9 7 10 8 12 9 11 10 6 11 7 12
REMARK SMILES IDX 5 13 4 14 3 17 2 18 1 19 18 20 19 21 20 22 21 23 22 24 23 25
REMARK SMILES IDX 87 26 24 27 86 28 25 29 26 30 27 31 80 32 28 33 85 34 79 35
REMARK SMILES IDX 81 36 29 37 84 38 78 39 77 40 30 42 64 43 43 44 63 45 44 46
REMARK SMILES IDX 47 47 62 48 82 49 45 50 46 51 61 53 83 54 48 55 31 56 32 57
REMARK SMILES IDX 41 58 33 59 34 60 40 61 42 62 35 63 36 64 37 65 38 66 39 67
REMARK SMILES IDX 65 68 66 69 75 70 67 71 68 72 74 73 76 74 69 75 70 76 71 77
REMARK SMILES IDX 72 78 73 79 49 80 50 81 59 82 51 83 52 84 58 85 60 86 53 87
REMARK SMILES IDX 54 88 55 89 56 90 57 91
REMARK H PARENT 4 15 4 16 81 41 47 52
REMARK Flexibility Score: inf
ROOT
ATOM      1  C   UNL A   1      33.055  28.744  27.199  1.00  0.00     0.274 C 
ENDROOT
BRANCH   1   2
ATOM      2  O   UNL A   1      33.320  27.611  26.354  1.00  0.00    -0.460 OA
BRANCH   2   3
ATOM      3  C   UNL A   1      32.221  27.099  25.725  1.00  0.00     0.331 C 
ATOM      4  O   UNL A   1      31.073  27.145  26.154  1.00  0.00    -0.250 OA
BRANCH   3   5
ATOM      5  C   UNL A   1      32.591  26.467  24.381  1.00  0.00     0.221 C 
ATOM      6  N   UNL A   1      32.791  27.311  23.189  1.00  0.00    -0.320 N 
ATOM      7  C   UNL A   1      33.291  26.532  22.055  1.00  0.00     0.149 C 
ATOM      8  C   UNL A   1      32.379  25.336  21.757  1.00  0.00     0.181 C 
ATOM      9  C   UNL A   1      31.629  25.319  24.009  1.00  0.00     0.197 C 
ATOM     10  O   UNL A   1      32.174  24.534  22.930  1.00  0.00    -0.377 OA
BRANCH   6  11
ATOM     11  C   UNL A   1      32.381  28.631  23.204  1.00  0.00     0.278 C 
ATOM     12  O   UNL A   1      33.101  29.511  23.684  1.00  0.00    -0.268 OA
BRANCH  11  13
ATOM     13  C   UNL A   1      30.932  28.985  22.848  1.00  0.00     0.362 C 
BRANCH  13  14
ATOM     14  N   UNL A   1      30.758  29.813  21.653  1.00  0.00    -0.335 N 
ATOM     15  H   UNL A   1      31.512  30.499  21.611  1.00  0.00     0.347 HD
ATOM     16  H   UNL A   1      30.778  29.207  20.833  1.00  0.00     0.347 HD
BRANCH  14  17
ATOM     17  C   UNL A   1      29.481  30.513  21.681  1.00  0.00     0.289 C 
BRANCH  17  18
ATOM     18  C   UNL A   1      29.093  30.790  23.096  1.00  0.00     0.025 C 
ATOM     19  C   UNL A   1      27.828  30.864  23.534  1.00  0.00     0.010 C 
ENDBRANCH  17  18
ENDBRANCH  14  17
ENDBRANCH  13  14
ENDBRANCH  11  13
ENDBRANCH   6  11
ENDBRANCH   3   5
ENDBRANCH   2   3
ENDBRANCH   1   2
BRANCH   1  20
ATOM     20  C   UNL A   1      34.280  29.655  27.248  1.00  0.00     0.275 C 
BRANCH  20  21
ATOM     21  O   UNL A   1      34.945  29.519  28.518  1.00  0.00    -0.458 OA
BRANCH  21  22
ATOM     22  C   UNL A   1      35.883  30.456  28.795  1.00  0.00     0.338 C 
ATOM     23  O   UNL A   1      35.686  31.621  29.091  1.00  0.00    -0.246 OA
BRANCH  22  24
ATOM     24  C   UNL A   1      37.237  29.871  28.712  1.00  0.00     0.060 A 
ATOM     25  C   UNL A   1      37.948  29.530  29.865  1.00  0.00     0.016 A 
ATOM     26  C   UNL A   1      37.853  29.776  27.464  1.00  0.00     0.016 A 
ATOM     27  C   UNL A   1      39.294  29.176  29.781  1.00  0.00     0.010 A 
ATOM     28  C   UNL A   1      39.172  29.324  27.375  1.00  0.00     0.010 A 
ATOM     29  C   UNL A   1      39.918  29.048  28.534  1.00  0.00    -0.014 A 
BRANCH  29  30
ATOM     30  C   UNL A   1      41.344  28.637  28.424  1.00  0.00     0.031 A 
ATOM     31  C   UNL A   1      42.438  29.657  28.596  1.00  0.00     0.074 A 
ATOM     32  C   UNL A   1      41.666  27.357  28.144  1.00  0.00     0.049 A 
ATOM     33  N   UNL A   1      43.711  29.564  28.310  1.00  0.00    -0.248 NA
ATOM     34  C   UNL A   1      42.041  30.962  29.151  1.00  0.00     0.031 C 
ATOM     35  C   UNL A   1      40.716  26.252  28.004  1.00  0.00     0.029 A 
ATOM     36  N   UNL A   1      42.888  26.772  27.920  1.00  0.00    -0.354 N 
ATOM     37  C   UNL A   1      44.257  30.811  28.595  1.00  0.00     0.074 A 
ATOM     38  C   UNL A   1      43.177  31.643  29.080  1.00  0.00     0.031 C 
ATOM     39  C   UNL A   1      41.390  25.121  27.746  1.00  0.00     0.029 A 
ATOM     40  C   UNL A   1      42.808  25.434  27.615  1.00  0.00     0.049 A 
ATOM     41  H   UNL A   1      43.739  27.264  27.974  1.00  0.00     0.167 HD
ATOM     42  C   UNL A   1      45.541  31.223  28.458  1.00  0.00     0.037 A 
ATOM     43  C   UNL A   1      43.759  24.565  27.223  1.00  0.00     0.037 A 
ATOM     44  C   UNL A   1      46.620  30.376  28.018  1.00  0.00     0.049 A 
ATOM     45  C   UNL A   1      45.167  25.052  27.038  1.00  0.00     0.074 A 
ATOM     46  C   UNL A   1      47.956  30.697  27.847  1.00  0.00     0.029 A 
ATOM     47  N   UNL A   1      46.488  29.033  27.695  1.00  0.00    -0.354 N 
ATOM     48  N   UNL A   1      45.656  26.252  27.237  1.00  0.00    -0.248 NA
ATOM     49  C   UNL A   1      46.148  24.072  26.549  1.00  0.00     0.031 C 
ATOM     50  C   UNL A   1      48.627  29.553  27.398  1.00  0.00     0.029 A 
ATOM     51  C   UNL A   1      47.716  28.513  27.321  1.00  0.00     0.049 A 
ATOM     52  H   UNL A   1      45.645  28.525  27.727  1.00  0.00     0.167 HD
ATOM     53  C   UNL A   1      47.003  26.171  26.908  1.00  0.00     0.074 A 
ATOM     54  C   UNL A   1      47.255  24.801  26.508  1.00  0.00     0.031 C 
ATOM     55  C   UNL A   1      47.946  27.145  26.929  1.00  0.00     0.037 A 
BRANCH  42  56
ATOM     56  C   UNL A   1      45.838  32.667  28.751  1.00  0.00     0.058 A 
ATOM     57  C   UNL A   1      45.744  33.660  27.764  1.00  0.00     0.135 A 
ATOM     58  C   UNL A   1      46.217  33.062  30.045  1.00  0.00     0.135 A 
ATOM     59  F   UNL A   1      45.402  33.335  26.508  1.00  0.00    -0.206 F 
ATOM     60  C   UNL A   1      46.050  34.990  28.040  1.00  0.00     0.059 A 
ATOM     61  C   UNL A   1      46.506  34.389  30.349  1.00  0.00     0.059 A 
ATOM     62  F   UNL A   1      46.320  32.152  31.026  1.00  0.00    -0.206 F 
ATOM     63  C   UNL A   1      46.440  35.343  29.334  1.00  0.00     0.060 A 
BRANCH  63  64
ATOM     64  S   UNL A   1      46.858  37.066  29.679  1.00  0.00     0.124 S 
ATOM     65  O   UNL A   1      47.854  37.333  28.645  1.00  0.00    -0.237 OA
ATOM     66  O   UNL A   1      45.577  37.743  29.510  1.00  0.00    -0.237 OA
ATOM     67  O   UNL A   1      47.366  37.024  31.046  1.00  0.00    -0.744 OA
ENDBRANCH  63  64
ENDBRANCH  42  56
BRANCH  43  68
ATOM     68  C   UNL A   1      43.395  23.152  26.944  1.00  0.00     0.058 A 
ATOM     69  C   UNL A   1      43.278  22.688  25.628  1.00  0.00     0.135 A 
ATOM     70  C   UNL A   1      43.191  22.232  27.986  1.00  0.00     0.135 A 
ATOM     71  F   UNL A   1      43.454  23.534  24.601  1.00  0.00    -0.206 F 
ATOM     72  C   UNL A   1      42.968  21.361  25.349  1.00  0.00     0.059 A 
ATOM     73  C   UNL A   1      42.904  20.895  27.732  1.00  0.00     0.059 A 
ATOM     74  F   UNL A   1      43.303  22.626  29.264  1.00  0.00    -0.206 F 
ATOM     75  C   UNL A   1      42.788  20.471  26.409  1.00  0.00     0.060 A 
BRANCH  75  76
ATOM     76  S   UNL A   1      42.455  18.734  26.041  1.00  0.00     0.124 S 
ATOM     77  O   UNL A   1      41.045  18.778  25.672  1.00  0.00    -0.237 OA
ATOM     78  O   UNL A   1      43.392  18.461  24.955  1.00  0.00    -0.237 OA
ATOM     79  O   UNL A   1      42.760  18.063  27.302  1.00  0.00    -0.744 OA
ENDBRANCH  75  76
ENDBRANCH  43  68
BRANCH  55  80
ATOM     80  C   UNL A   1      49.340  26.752  26.536  1.00  0.00     0.058 A 
ATOM     81  C   UNL A   1      49.812  26.935  25.227  1.00  0.00     0.135 A 
ATOM     82  C   UNL A   1      50.222  26.216  27.487  1.00  0.00     0.135 A 
ATOM     83  F   UNL A   1      49.002  27.436  24.281  1.00  0.00    -0.206 F 
ATOM     84  C   UNL A   1      51.108  26.582  24.869  1.00  0.00     0.059 A 
ATOM     85  C   UNL A   1      51.528  25.872  27.154  1.00  0.00     0.059 A 
ATOM     86  F   UNL A   1      49.818  26.027  28.753  1.00  0.00    -0.206 F 
ATOM     87  C   UNL A   1      51.959  26.049  25.840  1.00  0.00     0.060 A 
BRANCH  87  88
ATOM     88  S   UNL A   1      53.650  25.618  25.375  1.00  0.00     0.124 S 
ATOM     89  O   UNL A   1      54.373  26.832  25.738  1.00  0.00    -0.237 OA
ATOM     90  O   UNL A   1      53.918  24.448  26.206  1.00  0.00    -0.237 OA
ATOM     91  O   UNL A   1      53.547  25.349  23.943  1.00  0.00    -0.744 OA
ENDBRANCH  87  88
ENDBRANCH  55  80
ENDBRANCH  29  30
ENDBRANCH  22  24
ENDBRANCH  21  22
ENDBRANCH  20  21
ENDBRANCH   1  20
TORSDOF 19
ENDMDL
