MODEL 1
REMARK VINA RESULT:      -9.7      0.000      0.000
REMARK SMILES C[C@@H](CNC(=O)N(C)CC(C)(C)O)C(=O)OCCOC(=O)c1ccc(-c2c3nc(c(-c4c(F)cc(S(=O)(=O)[O-])cc4F)c4ccc([nH]4)c(-c4c(F)cc(S(=O)(=O)[O-])cc4F)c4nc(c(-c5c(F)cc(S(=O)(=O)[O-])cc5F)c5ccc2[nH]5)C=C4)C=C3)cc1
REMARK SMILES IDX 16 1 14 2 15 3 2 4 1 5 3 6 4 7 5 8 6 10 7 11 8 12 9 13 10 14
REMARK SMILES IDX 11 15 12 16 13 17 17 19 18 20 19 21 20 22 21 23 22 24 23 25
REMARK SMILES IDX 87 26 24 27 86 28 25 29 26 30 27 31 80 32 28 33 85 34 79 35
REMARK SMILES IDX 81 36 29 37 84 38 78 39 77 40 30 42 64 43 43 44 63 45 44 46
REMARK SMILES IDX 47 47 62 48 82 49 45 50 46 51 61 53 83 54 48 55 31 56 32 57
REMARK SMILES IDX 41 58 33 59 34 60 40 61 42 62 35 63 36 64 37 65 38 66 39 67
REMARK SMILES IDX 65 68 66 69 75 70 67 71 68 72 74 73 76 74 69 75 70 76 71 77
REMARK SMILES IDX 72 78 73 79 49 80 50 81 59 82 51 83 52 84 58 85 60 86 53 87
REMARK SMILES IDX 54 88 55 89 56 90 57 91
REMARK H PARENT 4 9 13 18 81 41 47 52
REMARK Flexibility Score: inf
ROOT
ATOM      1  O   UNL A   1      32.956  29.749  26.488  1.00  0.00    -0.462 OA
ENDROOT
BRANCH   1   2
ATOM      2  C   UNL A   1      32.082  28.731  26.711  1.00  0.00     0.310 C 
ATOM      3  O   UNL A   1      31.795  28.288  27.816  1.00  0.00    -0.252 OA
BRANCH   2   4
ATOM      4  C   UNL A   1      31.515  28.156  25.422  1.00  0.00     0.115 C 
ATOM      5  C   UNL A   1      31.645  29.118  24.240  1.00  0.00     0.022 C 
BRANCH   4   6
ATOM      6  C   UNL A   1      32.117  26.784  25.108  1.00  0.00     0.132 C 
BRANCH   6   7
ATOM      7  N   UNL A   1      31.803  25.806  26.129  1.00  0.00    -0.337 N 
ATOM      8  C   UNL A   1      31.630  24.475  26.170  1.00  0.00     0.317 C 
ATOM      9  H   UNL A   1      31.688  26.220  27.014  1.00  0.00     0.165 HD
ATOM     10  O   UNL A   1      31.131  24.060  27.223  1.00  0.00    -0.249 OA
BRANCH   8  11
ATOM     11  N   UNL A   1      32.011  23.624  25.173  1.00  0.00    -0.325 N 
ATOM     12  C   UNL A   1      31.297  23.258  23.955  1.00  0.00     0.148 C 
BRANCH  11  13
ATOM     13  C   UNL A   1      33.385  23.102  25.249  1.00  0.00     0.155 C 
BRANCH  13  14
ATOM     14  C   UNL A   1      33.541  21.798  26.086  1.00  0.00     0.077 C 
ATOM     15  C   UNL A   1      34.390  20.730  25.387  1.00  0.00     0.043 C 
ATOM     16  C   UNL A   1      34.186  22.148  27.431  1.00  0.00     0.043 C 
BRANCH  14  17
ATOM     17  O   UNL A   1      32.246  21.253  26.378  1.00  0.00    -0.389 OA
ATOM     18  H   UNL A   1      32.033  20.562  25.732  1.00  0.00     0.211 HD
ENDBRANCH  14  17
ENDBRANCH  13  14
ENDBRANCH  11  13
ENDBRANCH   8  11
ENDBRANCH   6   7
ENDBRANCH   4   6
ENDBRANCH   2   4
ENDBRANCH   1   2
BRANCH   1  19
ATOM     19  C   UNL A   1      34.259  29.619  27.085  1.00  0.00     0.274 C 
BRANCH  19  20
ATOM     20  C   UNL A   1      34.520  30.713  28.124  1.00  0.00     0.275 C 
BRANCH  20  21
ATOM     21  O   UNL A   1      35.899  31.125  28.125  1.00  0.00    -0.458 OA
BRANCH  21  22
ATOM     22  C   UNL A   1      36.567  30.887  29.275  1.00  0.00     0.338 C 
ATOM     23  O   UNL A   1      36.155  31.044  30.418  1.00  0.00    -0.246 OA
BRANCH  22  24
ATOM     24  C   UNL A   1      37.856  30.251  28.977  1.00  0.00     0.060 A 
ATOM     25  C   UNL A   1      38.795  30.157  30.007  1.00  0.00     0.016 A 
ATOM     26  C   UNL A   1      38.172  29.826  27.686  1.00  0.00     0.016 A 
ATOM     27  C   UNL A   1      40.057  29.635  29.761  1.00  0.00     0.010 A 
ATOM     28  C   UNL A   1      39.447  29.310  27.434  1.00  0.00     0.010 A 
ATOM     29  C   UNL A   1      40.398  29.225  28.467  1.00  0.00    -0.014 A 
BRANCH  29  30
ATOM     30  C   UNL A   1      41.784  28.789  28.192  1.00  0.00     0.031 A 
ATOM     31  C   UNL A   1      42.891  29.803  28.214  1.00  0.00     0.074 A 
ATOM     32  C   UNL A   1      42.048  27.489  27.970  1.00  0.00     0.049 A 
ATOM     33  N   UNL A   1      44.156  29.650  27.932  1.00  0.00    -0.248 NA
ATOM     34  C   UNL A   1      42.520  31.172  28.610  1.00  0.00     0.031 C 
ATOM     35  C   UNL A   1      41.057  26.412  27.986  1.00  0.00     0.029 A 
ATOM     36  N   UNL A   1      43.230  26.854  27.688  1.00  0.00    -0.354 N 
ATOM     37  C   UNL A   1      44.733  30.905  28.090  1.00  0.00     0.074 A 
ATOM     38  C   UNL A   1      43.675  31.810  28.486  1.00  0.00     0.031 C 
ATOM     39  C   UNL A   1      41.673  25.248  27.718  1.00  0.00     0.029 A 
ATOM     40  C   UNL A   1      43.090  25.504  27.472  1.00  0.00     0.049 A 
ATOM     41  H   UNL A   1      44.096  27.320  27.645  1.00  0.00     0.167 HD
ATOM     42  C   UNL A   1      46.026  31.263  27.919  1.00  0.00     0.037 A 
ATOM     43  C   UNL A   1      43.998  24.587  27.090  1.00  0.00     0.037 A 
ATOM     44  C   UNL A   1      47.071  30.349  27.537  1.00  0.00     0.049 A 
ATOM     45  C   UNL A   1      45.421  25.019  26.862  1.00  0.00     0.074 A 
ATOM     46  C   UNL A   1      48.414  30.611  27.335  1.00  0.00     0.029 A 
ATOM     47  N   UNL A   1      46.888  28.994  27.305  1.00  0.00    -0.354 N 
ATOM     48  N   UNL A   1      45.950  26.213  26.991  1.00  0.00    -0.248 NA
ATOM     49  C   UNL A   1      46.370  23.983  26.432  1.00  0.00     0.031 C 
ATOM     50  C   UNL A   1      49.038  29.420  26.949  1.00  0.00     0.029 A 
ATOM     51  C   UNL A   1      48.090  28.408  26.948  1.00  0.00     0.049 A 
ATOM     52  H   UNL A   1      46.029  28.519  27.382  1.00  0.00     0.167 HD
ATOM     53  C   UNL A   1      47.295  26.070  26.673  1.00  0.00     0.074 A 
ATOM     54  C   UNL A   1      47.501  24.670  26.358  1.00  0.00     0.031 C 
ATOM     55  C   UNL A   1      48.271  27.011  26.643  1.00  0.00     0.037 A 
BRANCH  42  56
ATOM     56  C   UNL A   1      46.373  32.713  28.108  1.00  0.00     0.058 A 
ATOM     57  C   UNL A   1      46.229  33.650  27.073  1.00  0.00     0.135 A 
ATOM     58  C   UNL A   1      46.842  33.173  29.348  1.00  0.00     0.135 A 
ATOM     59  F   UNL A   1      45.805  33.258  25.861  1.00  0.00    -0.206 F 
ATOM     60  C   UNL A   1      46.560  34.989  27.254  1.00  0.00     0.059 A 
ATOM     61  C   UNL A   1      47.157  34.511  29.559  1.00  0.00     0.059 A 
ATOM     62  F   UNL A   1      47.002  32.316  30.369  1.00  0.00    -0.206 F 
ATOM     63  C   UNL A   1      47.027  35.410  28.502  1.00  0.00     0.060 A 
BRANCH  63  64
ATOM     64  S   UNL A   1      47.455  37.149  28.725  1.00  0.00     0.124 S 
ATOM     65  O   UNL A   1      46.244  37.668  29.352  1.00  0.00    -0.237 OA
ATOM     66  O   UNL A   1      48.631  37.077  29.586  1.00  0.00    -0.237 OA
ATOM     67  O   UNL A   1      47.707  37.613  27.365  1.00  0.00    -0.744 OA
ENDBRANCH  63  64
ENDBRANCH  42  56
BRANCH  43  68
ATOM     68  C   UNL A   1      43.581  23.177  26.876  1.00  0.00     0.058 A 
ATOM     69  C   UNL A   1      43.294  22.332  27.956  1.00  0.00     0.135 A 
ATOM     70  C   UNL A   1      43.443  22.654  25.580  1.00  0.00     0.135 A 
ATOM     71  F   UNL A   1      43.421  22.785  29.213  1.00  0.00    -0.206 F 
ATOM     72  C   UNL A   1      42.893  21.014  27.763  1.00  0.00     0.059 A 
ATOM     73  C   UNL A   1      43.021  21.347  25.361  1.00  0.00     0.059 A 
ATOM     74  F   UNL A   1      43.696  23.426  24.512  1.00  0.00    -0.206 F 
ATOM     75  C   UNL A   1      42.757  20.531  26.461  1.00  0.00     0.060 A 
BRANCH  75  76
ATOM     76  S   UNL A   1      42.179  18.837  26.216  1.00  0.00     0.124 S 
ATOM     77  O   UNL A   1      42.380  18.264  27.542  1.00  0.00    -0.237 OA
ATOM     78  O   UNL A   1      40.791  19.038  25.811  1.00  0.00    -0.237 OA
ATOM     79  O   UNL A   1      43.061  18.333  25.168  1.00  0.00    -0.744 OA
ENDBRANCH  75  76
ENDBRANCH  43  68
BRANCH  55  80
ATOM     80  C   UNL A   1      49.655  26.550  26.281  1.00  0.00     0.058 A 
ATOM     81  C   UNL A   1      50.160  26.694  24.980  1.00  0.00     0.135 A 
ATOM     82  C   UNL A   1      50.499  26.001  27.259  1.00  0.00     0.135 A 
ATOM     83  F   UNL A   1      49.389  27.208  24.009  1.00  0.00    -0.206 F 
ATOM     84  C   UNL A   1      51.449  26.287  24.655  1.00  0.00     0.059 A 
ATOM     85  C   UNL A   1      51.799  25.607  26.961  1.00  0.00     0.059 A 
ATOM     86  F   UNL A   1      50.065  25.853  28.521  1.00  0.00    -0.206 F 
ATOM     87  C   UNL A   1      52.261  25.743  25.652  1.00  0.00     0.060 A 
BRANCH  87  88
ATOM     88  S   UNL A   1      53.943  25.243  25.228  1.00  0.00     0.124 S 
ATOM     89  O   UNL A   1      54.651  25.507  26.475  1.00  0.00    -0.237 OA
ATOM     90  O   UNL A   1      53.776  23.836  24.878  1.00  0.00    -0.237 OA
ATOM     91  O   UNL A   1      54.285  26.122  24.112  1.00  0.00    -0.744 OA
ENDBRANCH  87  88
ENDBRANCH  55  80
ENDBRANCH  29  30
ENDBRANCH  22  24
ENDBRANCH  21  22
ENDBRANCH  20  21
ENDBRANCH  19  20
ENDBRANCH   1  19
TORSDOF 20
ENDMDL
MODEL 2
REMARK VINA RESULT:      -9.5      1.913      8.744
REMARK SMILES C[C@@H](CNC(=O)N(C)CC(C)(C)O)C(=O)OCCOC(=O)c1ccc(-c2c3nc(c(-c4c(F)cc(S(=O)(=O)[O-])cc4F)c4ccc([nH]4)c(-c4c(F)cc(S(=O)(=O)[O-])cc4F)c4nc(c(-c5c(F)cc(S(=O)(=O)[O-])cc5F)c5ccc2[nH]5)C=C4)C=C3)cc1
REMARK SMILES IDX 16 1 14 2 15 3 2 4 1 5 3 6 4 7 5 8 6 10 7 11 8 12 9 13 10 14
REMARK SMILES IDX 11 15 12 16 13 17 17 19 18 20 19 21 20 22 21 23 22 24 23 25
REMARK SMILES IDX 87 26 24 27 86 28 25 29 26 30 27 31 80 32 28 33 85 34 79 35
REMARK SMILES IDX 81 36 29 37 84 38 78 39 77 40 30 42 64 43 43 44 63 45 44 46
REMARK SMILES IDX 47 47 62 48 82 49 45 50 46 51 61 53 83 54 48 55 31 56 32 57
REMARK SMILES IDX 41 58 33 59 34 60 40 61 42 62 35 63 36 64 37 65 38 66 39 67
REMARK SMILES IDX 65 68 66 69 75 70 67 71 68 72 74 73 76 74 69 75 70 76 71 77
REMARK SMILES IDX 72 78 73 79 49 80 50 81 59 82 51 83 52 84 58 85 60 86 53 87
REMARK SMILES IDX 54 88 55 89 56 90 57 91
REMARK H PARENT 4 9 13 18 81 41 47 52
REMARK Flexibility Score: inf
ROOT
ATOM      1  O   UNL A   1      34.343  30.959  27.407  1.00  0.00    -0.462 OA
ENDROOT
BRANCH   1   2
ATOM      2  C   UNL A   1      33.102  30.599  26.984  1.00  0.00     0.310 C 
ATOM      3  O   UNL A   1      32.103  31.303  27.074  1.00  0.00    -0.252 OA
BRANCH   2   4
ATOM      4  C   UNL A   1      33.065  29.190  26.412  1.00  0.00     0.115 C 
ATOM      5  C   UNL A   1      31.963  28.331  27.033  1.00  0.00     0.022 C 
BRANCH   4   6
ATOM      6  C   UNL A   1      32.979  29.209  24.884  1.00  0.00     0.132 C 
BRANCH   6   7
ATOM      7  N   UNL A   1      31.640  29.499  24.417  1.00  0.00    -0.337 N 
ATOM      8  C   UNL A   1      30.695  28.844  23.723  1.00  0.00     0.317 C 
ATOM      9  H   UNL A   1      31.348  30.405  24.672  1.00  0.00     0.165 HD
ATOM     10  O   UNL A   1      29.766  29.559  23.331  1.00  0.00    -0.249 OA
BRANCH   8  11
ATOM     11  N   UNL A   1      30.708  27.498  23.500  1.00  0.00    -0.325 N 
ATOM     12  C   UNL A   1      30.149  26.426  24.315  1.00  0.00     0.148 C 
BRANCH  11  13
ATOM     13  C   UNL A   1      31.230  27.056  22.196  1.00  0.00     0.155 C 
BRANCH  13  14
ATOM     14  C   UNL A   1      32.608  26.335  22.256  1.00  0.00     0.077 C 
ATOM     15  C   UNL A   1      33.199  26.278  23.669  1.00  0.00     0.043 C 
ATOM     16  C   UNL A   1      32.443  24.907  21.725  1.00  0.00     0.043 C 
BRANCH  14  17
ATOM     17  O   UNL A   1      33.538  26.995  21.384  1.00  0.00    -0.389 OA
ATOM     18  H   UNL A   1      33.370  26.725  20.468  1.00  0.00     0.211 HD
ENDBRANCH  14  17
ENDBRANCH  13  14
ENDBRANCH  11  13
ENDBRANCH   8  11
ENDBRANCH   6   7
ENDBRANCH   4   6
ENDBRANCH   2   4
ENDBRANCH   1   2
BRANCH   1  19
ATOM     19  C   UNL A   1      34.413  32.062  28.328  1.00  0.00     0.274 C 
BRANCH  19  20
ATOM     20  C   UNL A   1      35.317  31.749  29.523  1.00  0.00     0.275 C 
BRANCH  20  21
ATOM     21  O   UNL A   1      35.932  30.454  29.398  1.00  0.00    -0.458 OA
BRANCH  21  22
ATOM     22  C   UNL A   1      36.682  30.071  30.455  1.00  0.00     0.338 C 
ATOM     23  O   UNL A   1      36.284  29.752  31.569  1.00  0.00    -0.246 OA
BRANCH  22  24
ATOM     24  C   UNL A   1      38.085  29.938  30.045  1.00  0.00     0.060 A 
ATOM     25  C   UNL A   1      38.373  29.962  28.678  1.00  0.00     0.016 A 
ATOM     26  C   UNL A   1      39.095  29.710  30.980  1.00  0.00     0.016 A 
ATOM     27  C   UNL A   1      39.672  29.764  28.231  1.00  0.00     0.010 A 
ATOM     28  C   UNL A   1      40.401  29.498  30.531  1.00  0.00     0.010 A 
ATOM     29  C   UNL A   1      40.692  29.512  29.155  1.00  0.00    -0.014 A 
BRANCH  29  30
ATOM     30  C   UNL A   1      42.046  29.178  28.659  1.00  0.00     0.031 A 
ATOM     31  C   UNL A   1      42.337  27.776  28.209  1.00  0.00     0.074 A 
ATOM     32  C   UNL A   1      42.985  30.136  28.574  1.00  0.00     0.049 A 
ATOM     33  N   UNL A   1      43.466  27.255  27.810  1.00  0.00    -0.248 NA
ATOM     34  C   UNL A   1      41.202  26.838  28.204  1.00  0.00     0.031 C 
ATOM     35  C   UNL A   1      42.791  31.543  28.928  1.00  0.00     0.029 A 
ATOM     36  N   UNL A   1      44.292  30.071  28.163  1.00  0.00    -0.354 N 
ATOM     37  C   UNL A   1      43.188  25.922  27.531  1.00  0.00     0.074 A 
ATOM     38  C   UNL A   1      41.784  25.713  27.813  1.00  0.00     0.031 C 
ATOM     39  C   UNL A   1      43.940  32.207  28.724  1.00  0.00     0.029 A 
ATOM     40  C   UNL A   1      44.960  31.266  28.266  1.00  0.00     0.049 A 
ATOM     41  H   UNL A   1      44.710  29.246  27.826  1.00  0.00     0.167 HD
ATOM     42  C   UNL A   1      44.031  24.964  27.082  1.00  0.00     0.037 A 
ATOM     43  C   UNL A   1      46.255  31.560  28.044  1.00  0.00     0.037 A 
ATOM     44  C   UNL A   1      45.424  25.189  26.792  1.00  0.00     0.049 A 
ATOM     45  C   UNL A   1      47.184  30.467  27.588  1.00  0.00     0.074 A 
ATOM     46  C   UNL A   1      46.366  24.285  26.334  1.00  0.00     0.029 A 
ATOM     47  N   UNL A   1      46.072  26.408  26.930  1.00  0.00    -0.354 N 
ATOM     48  N   UNL A   1      46.915  29.205  27.350  1.00  0.00    -0.248 NA
ATOM     49  C   UNL A   1      48.590  30.835  27.375  1.00  0.00     0.031 C 
ATOM     50  C   UNL A   1      47.592  24.951  26.225  1.00  0.00     0.029 A 
ATOM     51  C   UNL A   1      47.405  26.278  26.579  1.00  0.00     0.049 A 
ATOM     52  H   UNL A   1      45.647  27.242  27.234  1.00  0.00     0.167 HD
ATOM     53  C   UNL A   1      48.114  28.631  26.946  1.00  0.00     0.074 A 
ATOM     54  C   UNL A   1      49.106  29.688  26.957  1.00  0.00     0.031 C 
ATOM     55  C   UNL A   1      48.373  27.346  26.596  1.00  0.00     0.037 A 
BRANCH  42  56
ATOM     56  C   UNL A   1      43.476  23.578  26.911  1.00  0.00     0.058 A 
ATOM     57  C   UNL A   1      43.159  23.059  25.647  1.00  0.00     0.135 A 
ATOM     58  C   UNL A   1      43.274  22.754  28.029  1.00  0.00     0.135 A 
ATOM     59  F   UNL A   1      43.314  23.814  24.547  1.00  0.00    -0.206 F 
ATOM     60  C   UNL A   1      42.638  21.777  25.498  1.00  0.00     0.059 A 
ATOM     61  C   UNL A   1      42.776  21.461  27.902  1.00  0.00     0.059 A 
ATOM     62  F   UNL A   1      43.556  23.205  29.261  1.00  0.00    -0.206 F 
ATOM     63  C   UNL A   1      42.447  20.986  26.634  1.00  0.00     0.060 A 
BRANCH  63  64
ATOM     64  S   UNL A   1      41.769  19.326  26.429  1.00  0.00     0.124 S 
ATOM     65  O   UNL A   1      40.372  19.617  26.127  1.00  0.00    -0.237 OA
ATOM     66  O   UNL A   1      42.559  18.797  25.322  1.00  0.00    -0.237 OA
ATOM     67  O   UNL A   1      42.014  18.698  27.723  1.00  0.00    -0.744 OA
ENDBRANCH  63  64
ENDBRANCH  42  56
BRANCH  43  68
ATOM     68  C   UNL A   1      46.751  32.941  28.277  1.00  0.00     0.058 A 
ATOM     69  C   UNL A   1      47.227  33.339  29.533  1.00  0.00     0.135 A 
ATOM     70  C   UNL A   1      46.774  33.885  27.238  1.00  0.00     0.135 A 
ATOM     71  F   UNL A   1      47.216  32.475  30.560  1.00  0.00    -0.206 F 
ATOM     72  C   UNL A   1      47.703  34.628  29.756  1.00  0.00     0.059 A 
ATOM     73  C   UNL A   1      47.267  35.171  27.430  1.00  0.00     0.059 A 
ATOM     74  F   UNL A   1      46.338  33.549  26.014  1.00  0.00    -0.206 F 
ATOM     75  C   UNL A   1      47.722  35.536  28.697  1.00  0.00     0.060 A 
BRANCH  75  76
ATOM     76  S   UNL A   1      48.395  37.189  28.978  1.00  0.00     0.124 S 
ATOM     77  O   UNL A   1      49.034  37.027  30.279  1.00  0.00    -0.237 OA
ATOM     78  O   UNL A   1      49.295  37.355  27.840  1.00  0.00    -0.237 OA
ATOM     79  O   UNL A   1      47.209  38.039  28.957  1.00  0.00    -0.744 OA
ENDBRANCH  75  76
ENDBRANCH  43  68
BRANCH  55  80
ATOM     80  C   UNL A   1      49.777  27.021  26.174  1.00  0.00     0.058 A 
ATOM     81  C   UNL A   1      50.747  26.613  27.102  1.00  0.00     0.135 A 
ATOM     82  C   UNL A   1      50.142  27.074  24.819  1.00  0.00     0.135 A 
ATOM     83  F   UNL A   1      50.448  26.553  28.409  1.00  0.00    -0.206 F 
ATOM     84  C   UNL A   1      52.040  26.291  26.703  1.00  0.00     0.059 A 
ATOM     85  C   UNL A   1      51.422  26.735  24.396  1.00  0.00     0.059 A 
ATOM     86  F   UNL A   1      49.246  27.447  23.892  1.00  0.00    -0.206 F 
ATOM     87  C   UNL A   1      52.369  26.356  25.348  1.00  0.00     0.060 A 
BRANCH  87  88
ATOM     88  S   UNL A   1      54.041  25.910  24.837  1.00  0.00     0.124 S 
ATOM     89  O   UNL A   1      54.104  26.487  23.499  1.00  0.00    -0.237 OA
ATOM     90  O   UNL A   1      54.866  26.562  25.849  1.00  0.00    -0.237 OA
ATOM     91  O   UNL A   1      54.033  24.450  24.893  1.00  0.00    -0.744 OA
ENDBRANCH  87  88
ENDBRANCH  55  80
ENDBRANCH  29  30
ENDBRANCH  22  24
ENDBRANCH  21  22
ENDBRANCH  20  21
ENDBRANCH  19  20
ENDBRANCH   1  19
TORSDOF 20
ENDMDL
MODEL 3
REMARK VINA RESULT:      -9.4      4.353      6.662
REMARK SMILES C[C@@H](CNC(=O)N(C)CC(C)(C)O)C(=O)OCCOC(=O)c1ccc(-c2c3nc(c(-c4c(F)cc(S(=O)(=O)[O-])cc4F)c4ccc([nH]4)c(-c4c(F)cc(S(=O)(=O)[O-])cc4F)c4nc(c(-c5c(F)cc(S(=O)(=O)[O-])cc5F)c5ccc2[nH]5)C=C4)C=C3)cc1
REMARK SMILES IDX 16 1 14 2 15 3 2 4 1 5 3 6 4 7 5 8 6 10 7 11 8 12 9 13 10 14
REMARK SMILES IDX 11 15 12 16 13 17 17 19 18 20 19 21 20 22 21 23 22 24 23 25
REMARK SMILES IDX 87 26 24 27 86 28 25 29 26 30 27 31 80 32 28 33 85 34 79 35
REMARK SMILES IDX 81 36 29 37 84 38 78 39 77 40 30 42 64 43 43 44 63 45 44 46
REMARK SMILES IDX 47 47 62 48 82 49 45 50 46 51 61 53 83 54 48 55 31 56 32 57
REMARK SMILES IDX 41 58 33 59 34 60 40 61 42 62 35 63 36 64 37 65 38 66 39 67
REMARK SMILES IDX 65 68 66 69 75 70 67 71 68 72 74 73 76 74 69 75 70 76 71 77
REMARK SMILES IDX 72 78 73 79 49 80 50 81 59 82 51 83 52 84 58 85 60 86 53 87
REMARK SMILES IDX 54 88 55 89 56 90 57 91
REMARK H PARENT 4 9 13 18 81 41 47 52
REMARK Flexibility Score: inf
ROOT
ATOM      1  O   UNL A   1      33.765  33.825  31.174  1.00  0.00    -0.462 OA
ENDROOT
BRANCH   1   2
ATOM      2  C   UNL A   1      33.403  35.031  31.688  1.00  0.00     0.310 C 
ATOM      3  O   UNL A   1      32.331  35.585  31.479  1.00  0.00    -0.252 OA
BRANCH   2   4
ATOM      4  C   UNL A   1      34.500  35.657  32.535  1.00  0.00     0.115 C 
ATOM      5  C   UNL A   1      34.205  37.113  32.898  1.00  0.00     0.022 C 
BRANCH   4   6
ATOM      6  C   UNL A   1      34.802  34.811  33.775  1.00  0.00     0.132 C 
BRANCH   6   7
ATOM      7  N   UNL A   1      35.074  33.429  33.438  1.00  0.00    -0.337 N 
ATOM      8  C   UNL A   1      36.168  32.656  33.342  1.00  0.00     0.317 C 
ATOM      9  H   UNL A   1      34.251  32.932  33.225  1.00  0.00     0.165 HD
ATOM     10  O   UNL A   1      35.975  31.570  32.783  1.00  0.00    -0.249 OA
BRANCH   8  11
ATOM     11  N   UNL A   1      37.387  32.993  33.853  1.00  0.00    -0.325 N 
ATOM     12  C   UNL A   1      38.427  33.834  33.272  1.00  0.00     0.148 C 
BRANCH  11  13
ATOM     13  C   UNL A   1      37.653  32.574  35.239  1.00  0.00     0.155 C 
BRANCH  13  14
ATOM     14  C   UNL A   1      38.543  31.303  35.376  1.00  0.00     0.077 C 
ATOM     15  C   UNL A   1      38.943  30.697  34.027  1.00  0.00     0.043 C 
ATOM     16  C   UNL A   1      39.810  31.668  36.156  1.00  0.00     0.043 C 
BRANCH  14  17
ATOM     17  O   UNL A   1      37.853  30.311  36.151  1.00  0.00    -0.389 OA
ATOM     18  H   UNL A   1      37.395  29.697  35.557  1.00  0.00     0.211 HD
ENDBRANCH  14  17
ENDBRANCH  13  14
ENDBRANCH  11  13
ENDBRANCH   8  11
ENDBRANCH   6   7
ENDBRANCH   4   6
ENDBRANCH   2   4
ENDBRANCH   1   2
BRANCH   1  19
ATOM     19  C   UNL A   1      34.333  33.835  29.852  1.00  0.00     0.274 C 
BRANCH  19  20
ATOM     20  C   UNL A   1      34.965  32.487  29.494  1.00  0.00     0.275 C 
BRANCH  20  21
ATOM     21  O   UNL A   1      34.552  32.036  28.192  1.00  0.00    -0.458 OA
BRANCH  21  22
ATOM     22  C   UNL A   1      34.546  30.695  28.024  1.00  0.00     0.338 C 
ATOM     23  O   UNL A   1      33.616  30.002  27.628  1.00  0.00    -0.246 OA
BRANCH  22  24
ATOM     24  C   UNL A   1      35.895  30.162  28.246  1.00  0.00     0.060 A 
ATOM     25  C   UNL A   1      36.202  29.663  29.515  1.00  0.00     0.016 A 
ATOM     26  C   UNL A   1      36.871  30.224  27.252  1.00  0.00     0.016 A 
ATOM     27  C   UNL A   1      37.485  29.218  29.802  1.00  0.00     0.010 A 
ATOM     28  C   UNL A   1      38.167  29.787  27.543  1.00  0.00     0.010 A 
ATOM     29  C   UNL A   1      38.481  29.294  28.822  1.00  0.00    -0.014 A 
BRANCH  29  30
ATOM     30  C   UNL A   1      39.871  28.934  29.180  1.00  0.00     0.031 A 
ATOM     31  C   UNL A   1      40.713  29.920  29.936  1.00  0.00     0.074 A 
ATOM     32  C   UNL A   1      40.352  27.718  28.867  1.00  0.00     0.049 A 
ATOM     33  N   UNL A   1      41.969  29.838  30.284  1.00  0.00    -0.248 NA
ATOM     34  C   UNL A   1      40.048  31.164  30.359  1.00  0.00     0.031 C 
ATOM     35  C   UNL A   1      39.599  26.662  28.187  1.00  0.00     0.029 A 
ATOM     36  N   UNL A   1      41.588  27.165  29.079  1.00  0.00    -0.354 N 
ATOM     37  C   UNL A   1      42.257  31.026  30.944  1.00  0.00     0.074 A 
ATOM     38  C   UNL A   1      41.044  31.817  30.941  1.00  0.00     0.031 C 
ATOM     39  C   UNL A   1      40.394  25.590  28.033  1.00  0.00     0.029 A 
ATOM     40  C   UNL A   1      41.719  25.899  28.565  1.00  0.00     0.049 A 
ATOM     41  H   UNL A   1      42.312  27.632  29.556  1.00  0.00     0.167 HD
ATOM     42  C   UNL A   1      43.427  31.418  31.498  1.00  0.00     0.037 A 
ATOM     43  C   UNL A   1      42.796  25.093  28.504  1.00  0.00     0.037 A 
ATOM     44  C   UNL A   1      44.622  30.616  31.506  1.00  0.00     0.049 A 
ATOM     45  C   UNL A   1      44.098  25.569  29.088  1.00  0.00     0.074 A 
ATOM     46  C   UNL A   1      45.861  30.920  32.040  1.00  0.00     0.029 A 
ATOM     47  N   UNL A   1      44.724  29.346  30.955  1.00  0.00    -0.354 N 
ATOM     48  N   UNL A   1      44.365  26.704  29.688  1.00  0.00    -0.248 NA
ATOM     49  C   UNL A   1      45.246  24.658  28.983  1.00  0.00     0.031 C 
ATOM     50  C   UNL A   1      46.723  29.847  31.783  1.00  0.00     0.029 A 
ATOM     51  C   UNL A   1      46.009  28.859  31.124  1.00  0.00     0.049 A 
ATOM     52  H   UNL A   1      43.991  28.864  30.509  1.00  0.00     0.167 HD
ATOM     53  C   UNL A   1      45.706  26.640  30.046  1.00  0.00     0.074 A 
ATOM     54  C   UNL A   1      46.192  25.347  29.606  1.00  0.00     0.031 C 
ATOM     55  C   UNL A   1      46.468  27.566  30.680  1.00  0.00     0.037 A 
BRANCH  42  56
ATOM     56  C   UNL A   1      43.478  32.789  32.111  1.00  0.00     0.058 A 
ATOM     57  C   UNL A   1      43.261  32.996  33.481  1.00  0.00     0.135 A 
ATOM     58  C   UNL A   1      43.762  33.910  31.315  1.00  0.00     0.135 A 
ATOM     59  F   UNL A   1      42.965  31.960  34.283  1.00  0.00    -0.206 F 
ATOM     60  C   UNL A   1      43.304  34.270  34.039  1.00  0.00     0.059 A 
ATOM     61  C   UNL A   1      43.831  35.191  31.854  1.00  0.00     0.059 A 
ATOM     62  F   UNL A   1      43.971  33.767  29.997  1.00  0.00    -0.206 F 
ATOM     63  C   UNL A   1      43.586  35.363  33.215  1.00  0.00     0.060 A 
BRANCH  63  64
ATOM     64  S   UNL A   1      43.636  37.011  33.949  1.00  0.00     0.124 S 
ATOM     65  O   UNL A   1      44.182  37.802  32.852  1.00  0.00    -0.237 OA
ATOM     66  O   UNL A   1      42.233  37.257  34.269  1.00  0.00    -0.237 OA
ATOM     67  O   UNL A   1      44.516  36.842  35.101  1.00  0.00    -0.744 OA
ENDBRANCH  63  64
ENDBRANCH  42  56
BRANCH  43  68
ATOM     68  C   UNL A   1      42.691  23.766  27.843  1.00  0.00     0.058 A 
ATOM     69  C   UNL A   1      42.811  23.636  26.453  1.00  0.00     0.135 A 
ATOM     70  C   UNL A   1      42.485  22.598  28.595  1.00  0.00     0.135 A 
ATOM     71  F   UNL A   1      42.999  24.725  25.691  1.00  0.00    -0.206 F 
ATOM     72  C   UNL A   1      42.724  22.396  25.827  1.00  0.00     0.059 A 
ATOM     73  C   UNL A   1      42.418  21.345  27.995  1.00  0.00     0.059 A 
ATOM     74  F   UNL A   1      42.373  22.669  29.931  1.00  0.00    -0.206 F 
ATOM     75  C   UNL A   1      42.530  21.256  26.608  1.00  0.00     0.060 A 
BRANCH  75  76
ATOM     76  S   UNL A   1      42.477  19.643  25.796  1.00  0.00     0.124 S 
ATOM     77  O   UNL A   1      43.435  19.829  24.712  1.00  0.00    -0.237 OA
ATOM     78  O   UNL A   1      42.892  18.742  26.867  1.00  0.00    -0.237 OA
ATOM     79  O   UNL A   1      41.079  19.519  25.392  1.00  0.00    -0.744 OA
ENDBRANCH  75  76
ENDBRANCH  43  68
BRANCH  55  80
ATOM     80  C   UNL A   1      47.899  27.202  30.957  1.00  0.00     0.058 A 
ATOM     81  C   UNL A   1      48.273  26.544  32.139  1.00  0.00     0.135 A 
ATOM     82  C   UNL A   1      48.898  27.475  30.009  1.00  0.00     0.135 A 
ATOM     83  F   UNL A   1      47.355  26.267  33.078  1.00  0.00    -0.206 F 
ATOM     84  C   UNL A   1      49.596  26.189  32.381  1.00  0.00     0.059 A 
ATOM     85  C   UNL A   1      50.222  27.109  30.222  1.00  0.00     0.059 A 
ATOM     86  F   UNL A   1      48.587  28.093  28.859  1.00  0.00    -0.206 F 
ATOM     87  C   UNL A   1      50.564  26.477  31.417  1.00  0.00     0.060 A 
BRANCH  87  88
ATOM     88  S   UNL A   1      52.273  25.988  31.728  1.00  0.00     0.124 S 
ATOM     89  O   UNL A   1      52.119  24.576  32.063  1.00  0.00    -0.237 OA
ATOM     90  O   UNL A   1      52.921  26.270  30.450  1.00  0.00    -0.237 OA
ATOM     91  O   UNL A   1      52.677  26.855  32.832  1.00  0.00    -0.744 OA
ENDBRANCH  87  88
ENDBRANCH  55  80
ENDBRANCH  29  30
ENDBRANCH  22  24
ENDBRANCH  21  22
ENDBRANCH  20  21
ENDBRANCH  19  20
ENDBRANCH   1  19
TORSDOF 20
ENDMDL
