MODEL 1
REMARK VINA RESULT:     -12.9      0.000      0.000
REMARK SMILES CCn1nc(C)c(NS(=O)(=O)c2cc(C(=O)OCCOC(=O)c3ccc(-c4c5nc(c(-c6c(F)cc(S(=O)(=O)[O-])cc6F)c6ccc([nH]6)c(-c6c(F)cc(S(=O)(=O)[O-])cc6F)c6nc(c(-c7c(F)cc(S(=O)(=O)[O-])cc7F)c7ccc4[nH]7)C=C6)C=C5)cc3)cc(F)c2C)c1C
REMARK SMILES IDX 18 1 17 2 15 3 16 4 14 5 12 6 13 7 92 8 90 9 93 10 89 11
REMARK SMILES IDX 91 12 9 13 10 14 11 15 8 16 7 18 3 19 4 20 94 21 5 22 95 23
REMARK SMILES IDX 6 24 2 25 1 26 19 27 20 28 21 29 22 30 23 31 24 32 88 33
REMARK SMILES IDX 25 34 87 35 26 36 27 37 28 38 81 39 29 40 86 41 80 42 82 43
REMARK SMILES IDX 30 44 85 45 79 46 78 47 31 49 65 50 44 51 64 52 45 53 48 54
REMARK SMILES IDX 63 55 83 56 46 57 47 58 62 60 84 61 49 62 32 63 33 64 42 65
REMARK SMILES IDX 34 66 35 67 41 68 43 69 36 70 37 71 38 72 39 73 40 74 66 75
REMARK SMILES IDX 67 76 76 77 68 78 69 79 75 80 77 81 70 82 71 83 72 84 73 85
REMARK SMILES IDX 74 86 50 87 51 88 60 89 52 90 53 91 59 92 61 93 54 94 55 95
REMARK SMILES IDX 56 96 57 97 58 98
REMARK H PARENT 8 17 82 48 48 59
REMARK Flexibility Score: inf
ROOT
ATOM      1  C   UNL A   1      33.964  29.605  27.305  1.00  0.00     0.275 C 
ENDROOT
BRANCH   1   2
ATOM      2  O   UNL A   1      32.551  29.738  27.057  1.00  0.00    -0.458 OA
BRANCH   2   3
ATOM      3  C   UNL A   1      31.805  28.604  27.081  1.00  0.00     0.338 C 
ATOM      4  O   UNL A   1      31.187  28.160  28.042  1.00  0.00    -0.246 OA
BRANCH   3   5
ATOM      5  C   UNL A   1      31.734  27.999  25.729  1.00  0.00     0.064 A 
ATOM      6  C   UNL A   1      31.651  26.076  24.255  1.00  0.00     0.094 A 
ATOM      7  C   UNL A   1      31.786  26.624  25.547  1.00  0.00     0.038 A 
ATOM      8  C   UNL A   1      31.647  26.895  23.114  1.00  0.00     0.005 A 
ATOM      9  C   UNL A   1      31.593  28.276  23.332  1.00  0.00     0.128 A 
ATOM     10  C   UNL A   1      31.691  26.412  21.696  1.00  0.00     0.049 C 
ATOM     11  C   UNL A   1      31.558  28.819  24.616  1.00  0.00     0.055 A 
ATOM     12  F   UNL A   1      31.486  29.109  22.285  1.00  0.00    -0.207 F 
BRANCH   6  13
ATOM     13  S   UNL A   1      31.266  24.357  24.230  1.00  0.00     0.262 S 
ATOM     14  O   UNL A   1      30.325  24.109  23.156  1.00  0.00    -0.201 OA
ATOM     15  O   UNL A   1      30.980  23.914  25.578  1.00  0.00    -0.201 OA
BRANCH  13  16
ATOM     16  N   UNL A   1      32.644  23.521  23.816  1.00  0.00    -0.276 N 
ATOM     17  H   UNL A   1      33.174  23.988  23.131  1.00  0.00     0.180 HD
BRANCH  16  18
ATOM     18  C   UNL A   1      33.228  22.315  24.208  1.00  0.00     0.093 A 
ATOM     19  N   UNL A   1      33.326  20.125  24.380  1.00  0.00    -0.268 N 
ATOM     20  N   UNL A   1      34.268  20.560  25.230  1.00  0.00    -0.176 NA
ATOM     21  C   UNL A   1      32.822  21.132  23.607  1.00  0.00     0.060 A 
ATOM     22  C   UNL A   1      34.226  21.899  25.135  1.00  0.00     0.084 A 
ATOM     23  C   UNL A   1      31.991  20.955  22.391  1.00  0.00     0.069 C 
ATOM     24  C   UNL A   1      35.171  22.638  25.999  1.00  0.00     0.071 C 
BRANCH  19  25
ATOM     25  C   UNL A   1      32.874  18.752  24.520  1.00  0.00     0.141 C 
ATOM     26  C   UNL A   1      33.944  17.685  24.387  1.00  0.00     0.029 C 
ENDBRANCH  19  25
ENDBRANCH  16  18
ENDBRANCH  13  16
ENDBRANCH   6  13
ENDBRANCH   3   5
ENDBRANCH   2   3
ENDBRANCH   1   2
BRANCH   1  27
ATOM     27  C   UNL A   1      34.662  30.935  27.604  1.00  0.00     0.275 C 
BRANCH  27  28
ATOM     28  O   UNL A   1      35.481  30.864  28.780  1.00  0.00    -0.458 OA
BRANCH  28  29
ATOM     29  C   UNL A   1      36.793  30.917  28.466  1.00  0.00     0.338 C 
ATOM     30  O   UNL A   1      37.452  31.918  28.245  1.00  0.00    -0.246 OA
BRANCH  29  31
ATOM     31  C   UNL A   1      37.373  29.610  28.183  1.00  0.00     0.060 A 
ATOM     32  C   UNL A   1      37.327  28.715  29.263  1.00  0.00     0.016 A 
ATOM     33  C   UNL A   1      38.441  29.647  27.294  1.00  0.00     0.016 A 
ATOM     34  C   UNL A   1      38.479  28.072  29.652  1.00  0.00     0.010 A 
ATOM     35  C   UNL A   1      39.588  28.995  27.675  1.00  0.00     0.010 A 
ATOM     36  C   UNL A   1      39.617  28.293  28.891  1.00  0.00    -0.014 A 
BRANCH  36  37
ATOM     37  C   UNL A   1      40.880  27.696  29.234  1.00  0.00     0.031 A 
ATOM     38  C   UNL A   1      41.136  26.332  28.744  1.00  0.00     0.074 A 
ATOM     39  C   UNL A   1      41.821  28.426  29.865  1.00  0.00     0.049 A 
ATOM     40  N   UNL A   1      41.990  25.526  29.267  1.00  0.00    -0.248 NA
ATOM     41  C   UNL A   1      40.369  25.740  27.646  1.00  0.00     0.031 C 
ATOM     42  C   UNL A   1      43.248  28.164  29.832  1.00  0.00     0.029 A 
ATOM     43  N   UNL A   1      41.673  29.469  30.786  1.00  0.00    -0.354 N 
ATOM     44  C   UNL A   1      42.123  24.472  28.394  1.00  0.00     0.074 A 
ATOM     45  C   UNL A   1      41.017  24.584  27.473  1.00  0.00     0.031 C 
ATOM     46  C   UNL A   1      43.830  28.826  30.842  1.00  0.00     0.029 A 
ATOM     47  C   UNL A   1      42.768  29.390  31.660  1.00  0.00     0.049 A 
ATOM     48  H   UNL A   1      40.944  30.130  30.814  1.00  0.00     0.167 HD
ATOM     49  C   UNL A   1      43.263  23.730  28.419  1.00  0.00     0.037 A 
ATOM     50  C   UNL A   1      42.707  29.277  33.019  1.00  0.00     0.037 A 
ATOM     51  C   UNL A   1      44.184  24.233  29.429  1.00  0.00     0.049 A 
ATOM     52  C   UNL A   1      43.436  28.059  33.527  1.00  0.00     0.074 A 
ATOM     53  C   UNL A   1      45.203  25.169  29.343  1.00  0.00     0.029 A 
ATOM     54  N   UNL A   1      43.916  24.056  30.779  1.00  0.00    -0.354 N 
ATOM     55  N   UNL A   1      43.671  27.013  32.789  1.00  0.00    -0.248 NA
ATOM     56  C   UNL A   1      43.935  27.907  34.890  1.00  0.00     0.031 C 
ATOM     57  C   UNL A   1      45.547  25.565  30.651  1.00  0.00     0.029 A 
ATOM     58  C   UNL A   1      44.736  24.872  31.534  1.00  0.00     0.049 A 
ATOM     59  H   UNL A   1      43.241  23.440  31.144  1.00  0.00     0.167 HD
ATOM     60  C   UNL A   1      44.325  26.066  33.531  1.00  0.00     0.074 A 
ATOM     61  C   UNL A   1      44.471  26.674  34.839  1.00  0.00     0.031 C 
ATOM     62  C   UNL A   1      44.688  24.866  32.986  1.00  0.00     0.037 A 
BRANCH  49  63
ATOM     63  C   UNL A   1      43.676  22.810  27.301  1.00  0.00     0.058 A 
ATOM     64  C   UNL A   1      42.983  21.601  27.080  1.00  0.00     0.135 A 
ATOM     65  C   UNL A   1      44.758  23.050  26.430  1.00  0.00     0.135 A 
ATOM     66  F   UNL A   1      41.904  21.262  27.796  1.00  0.00    -0.206 F 
ATOM     67  C   UNL A   1      43.372  20.668  26.124  1.00  0.00     0.059 A 
ATOM     68  C   UNL A   1      45.194  22.108  25.491  1.00  0.00     0.059 A 
ATOM     69  F   UNL A   1      45.412  24.221  26.448  1.00  0.00    -0.206 F 
ATOM     70  C   UNL A   1      44.492  20.917  25.347  1.00  0.00     0.060 A 
BRANCH  70  71
ATOM     71  S   UNL A   1      44.990  19.664  24.155  1.00  0.00     0.124 S 
ATOM     72  O   UNL A   1      46.438  19.619  24.342  1.00  0.00    -0.237 OA
ATOM     73  O   UNL A   1      44.255  18.494  24.621  1.00  0.00    -0.237 OA
ATOM     74  O   UNL A   1      44.549  20.215  22.877  1.00  0.00    -0.744 OA
ENDBRANCH  70  71
ENDBRANCH  49  63
BRANCH  50  75
ATOM     75  C   UNL A   1      41.510  29.856  33.663  1.00  0.00     0.058 A 
ATOM     76  C   UNL A   1      41.522  31.225  33.972  1.00  0.00     0.135 A 
ATOM     77  C   UNL A   1      40.272  29.202  33.594  1.00  0.00     0.135 A 
ATOM     78  F   UNL A   1      42.689  31.880  34.083  1.00  0.00    -0.206 F 
ATOM     79  C   UNL A   1      40.345  31.957  34.050  1.00  0.00     0.059 A 
ATOM     80  C   UNL A   1      39.080  29.918  33.655  1.00  0.00     0.059 A 
ATOM     81  F   UNL A   1      40.213  27.894  33.307  1.00  0.00    -0.206 F 
ATOM     82  C   UNL A   1      39.135  31.303  33.826  1.00  0.00     0.060 A 
BRANCH  82  83
ATOM     83  S   UNL A   1      37.669  32.323  33.560  1.00  0.00     0.124 S 
ATOM     84  O   UNL A   1      38.255  33.571  33.087  1.00  0.00    -0.237 OA
ATOM     85  O   UNL A   1      36.936  31.551  32.560  1.00  0.00    -0.237 OA
ATOM     86  O   UNL A   1      37.074  32.376  34.887  1.00  0.00    -0.744 OA
ENDBRANCH  82  83
ENDBRANCH  50  75
BRANCH  62  87
ATOM     87  C   UNL A   1      45.161  23.640  33.729  1.00  0.00     0.058 A 
ATOM     88  C   UNL A   1      46.483  23.441  34.157  1.00  0.00     0.135 A 
ATOM     89  C   UNL A   1      44.231  22.660  34.163  1.00  0.00     0.135 A 
ATOM     90  F   UNL A   1      47.439  24.352  33.926  1.00  0.00    -0.206 F 
ATOM     91  C   UNL A   1      46.872  22.316  34.885  1.00  0.00     0.059 A 
ATOM     92  C   UNL A   1      44.586  21.563  34.940  1.00  0.00     0.059 A 
ATOM     93  F   UNL A   1      42.927  22.740  33.858  1.00  0.00    -0.206 F 
ATOM     94  C   UNL A   1      45.919  21.379  35.269  1.00  0.00     0.060 A 
BRANCH  94  95
ATOM     95  S   UNL A   1      46.412  19.949  36.242  1.00  0.00     0.124 S 
ATOM     96  O   UNL A   1      45.893  20.303  37.560  1.00  0.00    -0.237 OA
ATOM     97  O   UNL A   1      45.726  18.849  35.570  1.00  0.00    -0.237 OA
ATOM     98  O   UNL A   1      47.865  19.941  36.115  1.00  0.00    -0.744 OA
ENDBRANCH  94  95
ENDBRANCH  62  87
ENDBRANCH  36  37
ENDBRANCH  29  31
ENDBRANCH  28  29
ENDBRANCH  27  28
ENDBRANCH   1  27
TORSDOF 18
ENDMDL
MODEL 2
REMARK VINA RESULT:     -12.9      1.772      2.320
REMARK SMILES CCn1nc(C)c(NS(=O)(=O)c2cc(C(=O)OCCOC(=O)c3ccc(-c4c5nc(c(-c6c(F)cc(S(=O)(=O)[O-])cc6F)c6ccc([nH]6)c(-c6c(F)cc(S(=O)(=O)[O-])cc6F)c6nc(c(-c7c(F)cc(S(=O)(=O)[O-])cc7F)c7ccc4[nH]7)C=C6)C=C5)cc3)cc(F)c2C)c1C
REMARK SMILES IDX 18 1 17 2 15 3 16 4 14 5 12 6 13 7 92 8 90 9 93 10 89 11
REMARK SMILES IDX 91 12 9 13 10 14 11 15 8 16 7 18 3 19 4 20 94 21 5 22 95 23
REMARK SMILES IDX 6 24 2 25 1 26 19 27 20 28 21 29 22 30 23 31 24 32 88 33
REMARK SMILES IDX 25 34 87 35 26 36 27 37 28 38 81 39 29 40 86 41 80 42 82 43
REMARK SMILES IDX 30 44 85 45 79 46 78 47 31 49 65 50 44 51 64 52 45 53 48 54
REMARK SMILES IDX 63 55 83 56 46 57 47 58 62 60 84 61 49 62 32 63 33 64 42 65
REMARK SMILES IDX 34 66 35 67 41 68 43 69 36 70 37 71 38 72 39 73 40 74 66 75
REMARK SMILES IDX 67 76 76 77 68 78 69 79 75 80 77 81 70 82 71 83 72 84 73 85
REMARK SMILES IDX 74 86 50 87 51 88 60 89 52 90 53 91 59 92 61 93 54 94 55 95
REMARK SMILES IDX 56 96 57 97 58 98
REMARK H PARENT 8 17 82 48 48 59
REMARK Flexibility Score: inf
ROOT
ATOM      1  C   UNL A   1      32.647  30.448  26.734  1.00  0.00     0.275 C 
ENDROOT
BRANCH   1   2
ATOM      2  O   UNL A   1      33.007  29.115  27.146  1.00  0.00    -0.458 OA
BRANCH   2   3
ATOM      3  C   UNL A   1      32.038  28.166  27.101  1.00  0.00     0.338 C 
ATOM      4  O   UNL A   1      31.224  27.915  27.982  1.00  0.00    -0.246 OA
BRANCH   3   5
ATOM      5  C   UNL A   1      32.008  27.517  25.768  1.00  0.00     0.064 A 
ATOM      6  C   UNL A   1      32.937  26.016  24.107  1.00  0.00     0.094 A 
ATOM      7  C   UNL A   1      33.025  26.670  25.352  1.00  0.00     0.038 A 
ATOM      8  C   UNL A   1      31.927  26.340  23.185  1.00  0.00     0.005 A 
ATOM      9  C   UNL A   1      30.916  27.196  23.636  1.00  0.00     0.128 A 
ATOM     10  C   UNL A   1      31.846  25.845  21.774  1.00  0.00     0.049 C 
ATOM     11  C   UNL A   1      30.912  27.715  24.930  1.00  0.00     0.055 A 
ATOM     12  F   UNL A   1      29.871  27.465  22.838  1.00  0.00    -0.207 F 
BRANCH   6  13
ATOM     13  S   UNL A   1      34.028  24.646  23.924  1.00  0.00     0.262 S 
ATOM     14  O   UNL A   1      35.055  24.733  24.944  1.00  0.00    -0.201 OA
ATOM     15  O   UNL A   1      34.386  24.505  22.529  1.00  0.00    -0.201 OA
BRANCH  13  16
ATOM     16  N   UNL A   1      33.180  23.254  24.264  1.00  0.00    -0.276 N 
ATOM     17  H   UNL A   1      32.230  23.431  24.449  1.00  0.00     0.180 HD
BRANCH  16  18
ATOM     18  C   UNL A   1      33.494  21.897  24.348  1.00  0.00     0.093 A 
ATOM     19  N   UNL A   1      33.115  19.753  24.041  1.00  0.00    -0.268 N 
ATOM     20  N   UNL A   1      34.146  19.781  24.898  1.00  0.00    -0.176 NA
ATOM     21  C   UNL A   1      32.827  20.990  23.538  1.00  0.00     0.060 A 
ATOM     22  C   UNL A   1      34.396  21.086  25.094  1.00  0.00     0.084 A 
ATOM     23  C   UNL A   1      31.953  21.266  22.371  1.00  0.00     0.069 C 
ATOM     24  C   UNL A   1      35.498  21.399  26.030  1.00  0.00     0.071 C 
BRANCH  19  25
ATOM     25  C   UNL A   1      32.377  18.508  23.915  1.00  0.00     0.141 C 
ATOM     26  C   UNL A   1      33.086  17.389  23.177  1.00  0.00     0.029 C 
ENDBRANCH  19  25
ENDBRANCH  16  18
ENDBRANCH  13  16
ENDBRANCH   6  13
ENDBRANCH   3   5
ENDBRANCH   2   3
ENDBRANCH   1   2
BRANCH   1  27
ATOM     27  C   UNL A   1      33.211  31.545  27.642  1.00  0.00     0.275 C 
BRANCH  27  28
ATOM     28  O   UNL A   1      34.608  31.774  27.410  1.00  0.00    -0.458 OA
BRANCH  28  29
ATOM     29  C   UNL A   1      35.337  31.508  28.514  1.00  0.00     0.338 C 
ATOM     30  O   UNL A   1      35.581  32.272  29.432  1.00  0.00    -0.246 OA
BRANCH  29  31
ATOM     31  C   UNL A   1      36.041  30.233  28.448  1.00  0.00     0.060 A 
ATOM     32  C   UNL A   1      36.246  29.624  29.696  1.00  0.00     0.016 A 
ATOM     33  C   UNL A   1      36.977  30.156  27.423  1.00  0.00     0.016 A 
ATOM     34  C   UNL A   1      37.510  29.208  30.042  1.00  0.00     0.010 A 
ATOM     35  C   UNL A   1      38.236  29.728  27.763  1.00  0.00     0.010 A 
ATOM     36  C   UNL A   1      38.506  29.346  29.086  1.00  0.00    -0.014 A 
BRANCH  36  37
ATOM     37  C   UNL A   1      39.869  28.973  29.360  1.00  0.00     0.031 A 
ATOM     38  C   UNL A   1      40.304  27.639  28.916  1.00  0.00     0.074 A 
ATOM     39  C   UNL A   1      40.722  29.876  29.882  1.00  0.00     0.049 A 
ATOM     40  N   UNL A   1      41.309  27.008  29.410  1.00  0.00    -0.248 NA
ATOM     41  C   UNL A   1      39.568  26.873  27.909  1.00  0.00     0.031 C 
ATOM     42  C   UNL A   1      42.168  29.838  29.753  1.00  0.00     0.029 A 
ATOM     43  N   UNL A   1      40.473  30.936  30.761  1.00  0.00    -0.354 N 
ATOM     44  C   UNL A   1      41.548  25.938  28.580  1.00  0.00     0.074 A 
ATOM     45  C   UNL A   1      40.379  25.823  27.742  1.00  0.00     0.031 C 
ATOM     46  C   UNL A   1      42.704  30.639  30.683  1.00  0.00     0.029 A 
ATOM     47  C   UNL A   1      41.624  31.078  31.553  1.00  0.00     0.049 A 
ATOM     48  H   UNL A   1      39.653  31.477  30.814  1.00  0.00     0.167 HD
ATOM     49  C   UNL A   1      42.791  25.385  28.553  1.00  0.00     0.037 A 
ATOM     50  C   UNL A   1      41.674  31.038  32.915  1.00  0.00     0.037 A 
ATOM     51  C   UNL A   1      43.687  26.083  29.465  1.00  0.00     0.049 A 
ATOM     52  C   UNL A   1      42.620  29.979  33.424  1.00  0.00     0.074 A 
ATOM     53  C   UNL A   1      44.536  27.158  29.258  1.00  0.00     0.029 A 
ATOM     54  N   UNL A   1      43.543  25.946  30.838  1.00  0.00    -0.354 N 
ATOM     55  N   UNL A   1      42.968  28.940  32.720  1.00  0.00    -0.248 NA
ATOM     56  C   UNL A   1      43.229  29.986  34.750  1.00  0.00     0.031 C 
ATOM     57  C   UNL A   1      44.901  27.678  30.515  1.00  0.00     0.029 A 
ATOM     58  C   UNL A   1      44.272  26.922  31.489  1.00  0.00     0.049 A 
ATOM     59  H   UNL A   1      43.001  25.254  31.282  1.00  0.00     0.167 HD
ATOM     60  C   UNL A   1      43.814  28.151  33.454  1.00  0.00     0.074 A 
ATOM     61  C   UNL A   1      43.950  28.850  34.716  1.00  0.00     0.031 C 
ATOM     62  C   UNL A   1      44.324  26.993  32.939  1.00  0.00     0.037 A 
BRANCH  49  63
ATOM     63  C   UNL A   1      43.268  24.476  27.451  1.00  0.00     0.058 A 
ATOM     64  C   UNL A   1      43.040  23.085  27.524  1.00  0.00     0.135 A 
ATOM     65  C   UNL A   1      43.975  24.909  26.311  1.00  0.00     0.135 A 
ATOM     66  F   UNL A   1      42.339  22.535  28.523  1.00  0.00    -0.206 F 
ATOM     67  C   UNL A   1      43.534  22.185  26.586  1.00  0.00     0.059 A 
ATOM     68  C   UNL A   1      44.519  24.019  25.378  1.00  0.00     0.059 A 
ATOM     69  F   UNL A   1      44.139  26.216  26.055  1.00  0.00    -0.206 F 
ATOM     70  C   UNL A   1      44.293  22.656  25.526  1.00  0.00     0.060 A 
BRANCH  70  71
ATOM     71  S   UNL A   1      44.954  21.455  24.360  1.00  0.00     0.124 S 
ATOM     72  O   UNL A   1      44.194  20.253  24.693  1.00  0.00    -0.237 OA
ATOM     73  O   UNL A   1      44.634  22.071  23.077  1.00  0.00    -0.237 OA
ATOM     74  O   UNL A   1      46.374  21.402  24.694  1.00  0.00    -0.744 OA
ENDBRANCH  70  71
ENDBRANCH  49  63
BRANCH  50  75
ATOM     75  C   UNL A   1      40.447  31.460  33.621  1.00  0.00     0.058 A 
ATOM     76  C   UNL A   1      39.532  30.467  34.008  1.00  0.00     0.135 A 
ATOM     77  C   UNL A   1      40.376  32.709  34.253  1.00  0.00     0.135 A 
ATOM     78  F   UNL A   1      39.543  29.269  33.402  1.00  0.00    -0.206 F 
ATOM     79  C   UNL A   1      38.684  30.651  35.091  1.00  0.00     0.059 A 
ATOM     80  C   UNL A   1      39.545  32.910  35.351  1.00  0.00     0.059 A 
ATOM     81  F   UNL A   1      41.227  33.688  33.913  1.00  0.00    -0.206 F 
ATOM     82  C   UNL A   1      38.747  31.852  35.794  1.00  0.00     0.060 A 
BRANCH  82  83
ATOM     83  S   UNL A   1      37.926  31.928  37.399  1.00  0.00     0.124 S 
ATOM     84  O   UNL A   1      36.893  32.929  37.159  1.00  0.00    -0.237 OA
ATOM     85  O   UNL A   1      37.449  30.557  37.565  1.00  0.00    -0.237 OA
ATOM     86  O   UNL A   1      39.002  32.342  38.288  1.00  0.00    -0.744 OA
ENDBRANCH  82  83
ENDBRANCH  50  75
BRANCH  62  87
ATOM     87  C   UNL A   1      45.035  25.900  33.700  1.00  0.00     0.058 A 
ATOM     88  C   UNL A   1      46.403  25.612  33.570  1.00  0.00     0.135 A 
ATOM     89  C   UNL A   1      44.361  25.177  34.718  1.00  0.00     0.135 A 
ATOM     90  F   UNL A   1      47.189  26.309  32.735  1.00  0.00    -0.206 F 
ATOM     91  C   UNL A   1      47.037  24.627  34.327  1.00  0.00     0.059 A 
ATOM     92  C   UNL A   1      44.986  24.234  35.526  1.00  0.00     0.059 A 
ATOM     93  F   UNL A   1      43.060  25.375  34.980  1.00  0.00    -0.206 F 
ATOM     94  C   UNL A   1      46.320  23.939  35.301  1.00  0.00     0.060 A 
BRANCH  94  95
ATOM     95  S   UNL A   1      47.144  22.695  36.306  1.00  0.00     0.124 S 
ATOM     96  O   UNL A   1      46.299  22.680  37.496  1.00  0.00    -0.237 OA
ATOM     97  O   UNL A   1      47.073  21.503  35.467  1.00  0.00    -0.237 OA
ATOM     98  O   UNL A   1      48.484  23.244  36.487  1.00  0.00    -0.744 OA
ENDBRANCH  94  95
ENDBRANCH  62  87
ENDBRANCH  36  37
ENDBRANCH  29  31
ENDBRANCH  28  29
ENDBRANCH  27  28
ENDBRANCH   1  27
TORSDOF 18
ENDMDL
MODEL 3
REMARK VINA RESULT:     -12.8      1.570      2.360
REMARK SMILES CCn1nc(C)c(NS(=O)(=O)c2cc(C(=O)OCCOC(=O)c3ccc(-c4c5nc(c(-c6c(F)cc(S(=O)(=O)[O-])cc6F)c6ccc([nH]6)c(-c6c(F)cc(S(=O)(=O)[O-])cc6F)c6nc(c(-c7c(F)cc(S(=O)(=O)[O-])cc7F)c7ccc4[nH]7)C=C6)C=C5)cc3)cc(F)c2C)c1C
REMARK SMILES IDX 18 1 17 2 15 3 16 4 14 5 12 6 13 7 92 8 90 9 93 10 89 11
REMARK SMILES IDX 91 12 9 13 10 14 11 15 8 16 7 18 3 19 4 20 94 21 5 22 95 23
REMARK SMILES IDX 6 24 2 25 1 26 19 27 20 28 21 29 22 30 23 31 24 32 88 33
REMARK SMILES IDX 25 34 87 35 26 36 27 37 28 38 81 39 29 40 86 41 80 42 82 43
REMARK SMILES IDX 30 44 85 45 79 46 78 47 31 49 65 50 44 51 64 52 45 53 48 54
REMARK SMILES IDX 63 55 83 56 46 57 47 58 62 60 84 61 49 62 32 63 33 64 42 65
REMARK SMILES IDX 34 66 35 67 41 68 43 69 36 70 37 71 38 72 39 73 40 74 66 75
REMARK SMILES IDX 67 76 76 77 68 78 69 79 75 80 77 81 70 82 71 83 72 84 73 85
REMARK SMILES IDX 74 86 50 87 51 88 60 89 52 90 53 91 59 92 61 93 54 94 55 95
REMARK SMILES IDX 56 96 57 97 58 98
REMARK H PARENT 8 17 82 48 48 59
REMARK Flexibility Score: inf
ROOT
ATOM      1  C   UNL A   1      32.576  30.399  27.238  1.00  0.00     0.275 C 
ENDROOT
BRANCH   1   2
ATOM      2  O   UNL A   1      32.771  29.151  26.543  1.00  0.00    -0.458 OA
BRANCH   2   3
ATOM      3  C   UNL A   1      32.110  28.064  27.018  1.00  0.00     0.338 C 
ATOM      4  O   UNL A   1      31.372  28.032  27.996  1.00  0.00    -0.246 OA
BRANCH   3   5
ATOM      5  C   UNL A   1      32.307  26.902  26.118  1.00  0.00     0.064 A 
ATOM      6  C   UNL A   1      32.118  24.538  25.618  1.00  0.00     0.094 A 
ATOM      7  C   UNL A   1      31.981  25.614  26.518  1.00  0.00     0.038 A 
ATOM      8  C   UNL A   1      32.751  24.705  24.375  1.00  0.00     0.005 A 
ATOM      9  C   UNL A   1      33.065  26.016  24.001  1.00  0.00     0.128 A 
ATOM     10  C   UNL A   1      33.110  23.602  23.427  1.00  0.00     0.049 C 
ATOM     11  C   UNL A   1      32.778  27.106  24.823  1.00  0.00     0.055 A 
ATOM     12  F   UNL A   1      33.580  26.254  22.785  1.00  0.00    -0.207 F 
BRANCH   6  13
ATOM     13  S   UNL A   1      31.244  23.082  26.086  1.00  0.00     0.262 S 
ATOM     14  O   UNL A   1      30.632  22.509  24.902  1.00  0.00    -0.201 OA
ATOM     15  O   UNL A   1      30.451  23.360  27.264  1.00  0.00    -0.201 OA
BRANCH  13  16
ATOM     16  N   UNL A   1      32.352  21.953  26.604  1.00  0.00    -0.276 N 
ATOM     17  H   UNL A   1      32.219  21.703  27.547  1.00  0.00     0.180 HD
BRANCH  16  18
ATOM     18  C   UNL A   1      33.423  21.275  26.021  1.00  0.00     0.093 A 
ATOM     19  N   UNL A   1      35.458  21.118  25.201  1.00  0.00    -0.268 N 
ATOM     20  N   UNL A   1      34.862  19.982  24.811  1.00  0.00    -0.176 NA
ATOM     21  C   UNL A   1      34.696  21.823  26.090  1.00  0.00     0.060 A 
ATOM     22  C   UNL A   1      33.617  20.058  25.309  1.00  0.00     0.084 A 
ATOM     23  C   UNL A   1      35.168  22.956  26.924  1.00  0.00     0.069 C 
ATOM     24  C   UNL A   1      32.728  18.916  25.003  1.00  0.00     0.071 C 
BRANCH  19  25
ATOM     25  C   UNL A   1      36.682  21.504  24.522  1.00  0.00     0.141 C 
ATOM     26  C   UNL A   1      36.575  22.693  23.587  1.00  0.00     0.029 C 
ENDBRANCH  19  25
ENDBRANCH  16  18
ENDBRANCH  13  16
ENDBRANCH   6  13
ENDBRANCH   3   5
ENDBRANCH   2   3
ENDBRANCH   1   2
BRANCH   1  27
ATOM     27  C   UNL A   1      33.829  31.280  27.280  1.00  0.00     0.275 C 
BRANCH  27  28
ATOM     28  O   UNL A   1      34.219  31.601  28.623  1.00  0.00    -0.458 OA
BRANCH  28  29
ATOM     29  C   UNL A   1      35.562  31.673  28.738  1.00  0.00     0.338 C 
ATOM     30  O   UNL A   1      36.241  32.684  28.761  1.00  0.00    -0.246 OA
BRANCH  29  31
ATOM     31  C   UNL A   1      36.221  30.378  28.616  1.00  0.00     0.060 A 
ATOM     32  C   UNL A   1      36.351  29.683  29.829  1.00  0.00     0.016 A 
ATOM     33  C   UNL A   1      37.197  30.332  27.627  1.00  0.00     0.016 A 
ATOM     34  C   UNL A   1      37.584  29.197  30.197  1.00  0.00     0.010 A 
ATOM     35  C   UNL A   1      38.424  29.835  27.988  1.00  0.00     0.010 A 
ATOM     36  C   UNL A   1      38.624  29.358  29.293  1.00  0.00    -0.014 A 
BRANCH  36  37
ATOM     37  C   UNL A   1      39.960  28.917  29.596  1.00  0.00     0.031 A 
ATOM     38  C   UNL A   1      40.362  27.594  29.092  1.00  0.00     0.074 A 
ATOM     39  C   UNL A   1      40.825  29.754  30.202  1.00  0.00     0.049 A 
ATOM     40  N   UNL A   1      41.322  26.896  29.586  1.00  0.00    -0.248 NA
ATOM     41  C   UNL A   1      39.639  26.916  28.015  1.00  0.00     0.031 C 
ATOM     42  C   UNL A   1      42.272  29.665  30.126  1.00  0.00     0.029 A 
ATOM     43  N   UNL A   1      40.581  30.771  31.131  1.00  0.00    -0.354 N 
ATOM     44  C   UNL A   1      41.554  25.866  28.704  1.00  0.00     0.074 A 
ATOM     45  C   UNL A   1      40.416  25.846  27.817  1.00  0.00     0.031 C 
ATOM     46  C   UNL A   1      42.800  30.391  31.121  1.00  0.00     0.029 A 
ATOM     47  C   UNL A   1      41.703  30.822  31.973  1.00  0.00     0.049 A 
ATOM     48  H   UNL A   1      39.779  31.340  31.184  1.00  0.00     0.167 HD
ATOM     49  C   UNL A   1      42.775  25.266  28.693  1.00  0.00     0.037 A 
ATOM     50  C   UNL A   1      41.697  30.702  33.332  1.00  0.00     0.037 A 
ATOM     51  C   UNL A   1      43.660  25.875  29.677  1.00  0.00     0.049 A 
ATOM     52  C   UNL A   1      42.582  29.580  33.813  1.00  0.00     0.074 A 
ATOM     53  C   UNL A   1      44.555  26.927  29.565  1.00  0.00     0.029 A 
ATOM     54  N   UNL A   1      43.455  25.666  31.033  1.00  0.00    -0.354 N 
ATOM     55  N   UNL A   1      42.918  28.570  33.063  1.00  0.00    -0.248 NA
ATOM     56  C   UNL A   1      43.136  29.487  35.159  1.00  0.00     0.031 C 
ATOM     57  C   UNL A   1      44.889  27.359  30.864  1.00  0.00     0.029 A 
ATOM     58  C   UNL A   1      44.194  26.574  31.767  1.00  0.00     0.049 A 
ATOM     59  H   UNL A   1      42.870  24.973  31.415  1.00  0.00     0.167 HD
ATOM     60  C   UNL A   1      43.703  27.707  33.781  1.00  0.00     0.074 A 
ATOM     61  C   UNL A   1      43.815  28.327  35.087  1.00  0.00     0.031 C 
ATOM     62  C   UNL A   1      44.190  26.561  33.220  1.00  0.00     0.037 A 
BRANCH  49  63
ATOM     63  C   UNL A   1      43.262  24.403  27.558  1.00  0.00     0.058 A 
ATOM     64  C   UNL A   1      42.919  23.035  27.505  1.00  0.00     0.135 A 
ATOM     65  C   UNL A   1      44.086  24.857  26.509  1.00  0.00     0.135 A 
ATOM     66  F   UNL A   1      42.102  22.475  28.405  1.00  0.00    -0.206 F 
ATOM     67  C   UNL A   1      43.411  22.168  26.535  1.00  0.00     0.059 A 
ATOM     68  C   UNL A   1      44.628  23.995  25.548  1.00  0.00     0.059 A 
ATOM     69  F   UNL A   1      44.373  26.161  26.370  1.00  0.00    -0.206 F 
ATOM     70  C   UNL A   1      44.283  22.649  25.572  1.00  0.00     0.060 A 
BRANCH  70  71
ATOM     71  S   UNL A   1      44.934  21.484  24.363  1.00  0.00     0.124 S 
ATOM     72  O   UNL A   1      46.354  21.452  24.702  1.00  0.00    -0.237 OA
ATOM     73  O   UNL A   1      44.181  20.274  24.674  1.00  0.00    -0.237 OA
ATOM     74  O   UNL A   1      44.618  22.110  23.083  1.00  0.00    -0.744 OA
ENDBRANCH  70  71
ENDBRANCH  49  63
BRANCH  50  75
ATOM     75  C   UNL A   1      40.459  31.132  34.014  1.00  0.00     0.058 A 
ATOM     76  C   UNL A   1      40.393  32.449  34.495  1.00  0.00     0.135 A 
ATOM     77  C   UNL A   1      39.259  30.431  33.832  1.00  0.00     0.135 A 
ATOM     78  F   UNL A   1      41.521  33.142  34.718  1.00  0.00    -0.206 F 
ATOM     79  C   UNL A   1      39.177  33.105  34.636  1.00  0.00     0.059 A 
ATOM     80  C   UNL A   1      38.030  31.073  33.953  1.00  0.00     0.059 A 
ATOM     81  F   UNL A   1      39.275  29.170  33.379  1.00  0.00    -0.206 F 
ATOM     82  C   UNL A   1      38.008  32.426  34.300  1.00  0.00     0.060 A 
BRANCH  82  83
ATOM     83  S   UNL A   1      36.496  33.396  34.130  1.00  0.00     0.124 S 
ATOM     84  O   UNL A   1      35.725  32.585  33.194  1.00  0.00    -0.237 OA
ATOM     85  O   UNL A   1      35.994  33.425  35.501  1.00  0.00    -0.237 OA
ATOM     86  O   UNL A   1      36.986  34.661  33.602  1.00  0.00    -0.744 OA
ENDBRANCH  82  83
ENDBRANCH  50  75
BRANCH  62  87
ATOM     87  C   UNL A   1      44.829  25.399  33.943  1.00  0.00     0.058 A 
ATOM     88  C   UNL A   1      44.107  24.382  34.587  1.00  0.00     0.135 A 
ATOM     89  C   UNL A   1      46.232  25.200  33.886  1.00  0.00     0.135 A 
ATOM     90  F   UNL A   1      42.766  24.377  34.605  1.00  0.00    -0.206 F 
ATOM     91  C   UNL A   1      44.731  23.296  35.203  1.00  0.00     0.059 A 
ATOM     92  C   UNL A   1      46.870  24.095  34.439  1.00  0.00     0.059 A 
ATOM     93  F   UNL A   1      47.044  26.073  33.270  1.00  0.00    -0.206 F 
ATOM     94  C   UNL A   1      46.113  23.162  35.128  1.00  0.00     0.060 A 
BRANCH  94  95
ATOM     95  S   UNL A   1      46.916  21.742  35.886  1.00  0.00     0.124 S 
ATOM     96  O   UNL A   1      46.784  20.739  34.833  1.00  0.00    -0.237 OA
ATOM     97  O   UNL A   1      48.272  22.228  36.126  1.00  0.00    -0.237 OA
ATOM     98  O   UNL A   1      46.121  21.508  37.087  1.00  0.00    -0.744 OA
ENDBRANCH  94  95
ENDBRANCH  62  87
ENDBRANCH  36  37
ENDBRANCH  29  31
ENDBRANCH  28  29
ENDBRANCH  27  28
ENDBRANCH   1  27
TORSDOF 18
ENDMDL
