MODEL 1
REMARK VINA RESULT:     -11.7      0.000      0.000
REMARK SMILES Cc1[nH]c2ccccc2c1[C@@H](C(=O)OCCOC(=O)c1ccc(-c2c3nc(c(-c4c(F)cc(S(=O)(=O)[O-])cc4F)c4ccc([nH]4)c(-c4c(F)cc(S(=O)(=O)[O-])cc4F)c4nc(c(-c5c(F)cc(S(=O)(=O)[O-])cc5F)c5ccc2[nH]5)C=C4)C=C3)cc1)[NH+]1CCCC1
REMARK SMILES IDX 16 1 15 2 14 3 12 4 13 5 11 6 10 7 1 8 2 9 3 10 4 11 9 13
REMARK SMILES IDX 5 14 8 15 6 16 7 17 86 18 87 19 90 20 88 22 89 23 17 24
REMARK SMILES IDX 18 25 19 26 20 27 21 28 85 29 22 30 84 31 23 32 24 33 25 34
REMARK SMILES IDX 78 35 26 36 83 37 77 38 79 39 27 40 82 41 76 42 75 43 28 45
REMARK SMILES IDX 62 46 41 47 61 48 42 49 45 50 60 51 80 52 43 53 44 54 59 56
REMARK SMILES IDX 81 57 46 58 29 59 30 60 39 61 31 62 32 63 38 64 40 65 33 66
REMARK SMILES IDX 34 67 35 68 36 69 37 70 63 71 64 72 73 73 65 74 66 75 72 76
REMARK SMILES IDX 74 77 67 78 68 79 69 80 70 81 71 82 47 83 48 84 57 85 49 86
REMARK SMILES IDX 50 87 56 88 58 89 51 90 52 91 53 92 54 93 55 94
REMARK H PARENT 3 12 86 21 79 44 45 55
REMARK Flexibility Score: inf
ROOT
ATOM      1  C   UNL A   1      34.082  31.199  27.679  1.00  0.00     0.275 C 
ENDROOT
BRANCH   1   2
ATOM      2  C   UNL A   1      32.827  30.471  27.201  1.00  0.00     0.274 C 
BRANCH   2   3
ATOM      3  O   UNL A   1      33.018  29.041  27.167  1.00  0.00    -0.457 OA
BRANCH   3   4
ATOM      4  C   UNL A   1      31.888  28.305  26.944  1.00  0.00     0.370 C 
ATOM      5  O   UNL A   1      31.154  27.921  27.854  1.00  0.00    -0.245 OA
BRANCH   4   6
ATOM      6  C   UNL A   1      31.726  27.835  25.488  1.00  0.00     0.328 C 
BRANCH   6   7
ATOM      7  C   UNL A   1      31.110  26.471  25.243  1.00  0.00     0.049 A 
ATOM      8  C   UNL A   1      29.132  27.179  23.660  1.00  0.00     0.065 C 
ATOM      9  C   UNL A   1      30.013  26.245  24.412  1.00  0.00     0.022 A 
ATOM     10  N   UNL A   1      29.837  24.891  24.299  1.00  0.00    -0.358 N 
ATOM     11  C   UNL A   1      30.750  24.218  25.067  1.00  0.00     0.046 A 
ATOM     12  H   UNL A   1      29.149  24.461  23.742  1.00  0.00     0.166 HD
ATOM     13  C   UNL A   1      31.503  25.175  25.749  1.00  0.00     0.009 A 
ATOM     14  C   UNL A   1      30.957  22.839  25.194  1.00  0.00     0.027 A 
ATOM     15  C   UNL A   1      32.462  24.703  26.674  1.00  0.00     0.011 A 
ATOM     16  C   UNL A   1      31.960  22.409  26.062  1.00  0.00     0.002 A 
ATOM     17  C   UNL A   1      32.692  23.326  26.807  1.00  0.00     0.001 A 
ENDBRANCH   6   7
BRANCH   6  18
ATOM     18  N   UNL A   1      32.915  28.154  24.655  1.00  0.00    -0.319 N 
ATOM     19  C   UNL A   1      32.626  28.837  23.395  1.00  0.00     0.263 C 
ATOM     20  C   UNL A   1      33.839  27.083  24.306  1.00  0.00     0.263 C 
ATOM     21  H   UNL A   1      33.370  28.762  25.336  1.00  0.00     0.349 HD
ATOM     22  C   UNL A   1      32.652  27.766  22.318  1.00  0.00     0.067 C 
ATOM     23  C   UNL A   1      33.537  26.664  22.875  1.00  0.00     0.067 C 
ENDBRANCH   6  18
ENDBRANCH   4   6
ENDBRANCH   3   4
ENDBRANCH   2   3
ENDBRANCH   1   2
BRANCH   1  24
ATOM     24  O   UNL A   1      34.953  30.273  28.345  1.00  0.00    -0.458 OA
BRANCH  24  25
ATOM     25  C   UNL A   1      35.904  30.813  29.144  1.00  0.00     0.338 C 
ATOM     26  O   UNL A   1      35.741  31.714  29.950  1.00  0.00    -0.246 OA
BRANCH  25  27
ATOM     27  C   UNL A   1      37.203  30.116  28.956  1.00  0.00     0.060 A 
ATOM     28  C   UNL A   1      37.944  29.645  30.037  1.00  0.00     0.016 A 
ATOM     29  C   UNL A   1      37.750  30.032  27.673  1.00  0.00     0.016 A 
ATOM     30  C   UNL A   1      39.255  29.202  29.852  1.00  0.00     0.010 A 
ATOM     31  C   UNL A   1      39.033  29.497  27.483  1.00  0.00     0.010 A 
ATOM     32  C   UNL A   1      39.828  29.118  28.577  1.00  0.00    -0.014 A 
BRANCH  32  33
ATOM     33  C   UNL A   1      41.253  28.691  28.397  1.00  0.00     0.031 A 
ATOM     34  C   UNL A   1      42.385  29.673  28.605  1.00  0.00     0.074 A 
ATOM     35  C   UNL A   1      41.563  27.418  28.068  1.00  0.00     0.049 A 
ATOM     36  N   UNL A   1      43.648  29.565  28.272  1.00  0.00    -0.248 NA
ATOM     37  C   UNL A   1      42.052  30.952  29.254  1.00  0.00     0.031 C 
ATOM     38  C   UNL A   1      40.604  26.330  27.869  1.00  0.00     0.029 A 
ATOM     39  N   UNL A   1      42.784  26.818  27.860  1.00  0.00    -0.354 N 
ATOM     40  C   UNL A   1      44.235  30.787  28.582  1.00  0.00     0.074 A 
ATOM     41  C   UNL A   1      43.196  31.617  29.155  1.00  0.00     0.031 C 
ATOM     42  C   UNL A   1      41.269  25.188  27.645  1.00  0.00     0.029 A 
ATOM     43  C   UNL A   1      42.696  25.478  27.565  1.00  0.00     0.049 A 
ATOM     44  H   UNL A   1      43.639  27.302  27.918  1.00  0.00     0.167 HD
ATOM     45  C   UNL A   1      45.518  31.184  28.397  1.00  0.00     0.037 A 
ATOM     46  C   UNL A   1      43.641  24.581  27.219  1.00  0.00     0.037 A 
ATOM     47  C   UNL A   1      46.577  30.327  27.922  1.00  0.00     0.049 A 
ATOM     48  C   UNL A   1      45.063  25.029  27.058  1.00  0.00     0.074 A 
ATOM     49  C   UNL A   1      47.912  30.638  27.716  1.00  0.00     0.029 A 
ATOM     50  N   UNL A   1      46.435  28.982  27.619  1.00  0.00    -0.354 N 
ATOM     51  N   UNL A   1      45.573  26.224  27.228  1.00  0.00    -0.248 NA
ATOM     52  C   UNL A   1      46.031  24.013  26.621  1.00  0.00     0.031 C 
ATOM     53  C   UNL A   1      48.572  29.486  27.271  1.00  0.00     0.029 A 
ATOM     54  C   UNL A   1      47.655  28.449  27.233  1.00  0.00     0.049 A 
ATOM     55  H   UNL A   1      45.590  28.478  27.669  1.00  0.00     0.167 HD
ATOM     56  C   UNL A   1      46.919  26.109  26.904  1.00  0.00     0.074 A 
ATOM     57  C   UNL A   1      47.152  24.720  26.563  1.00  0.00     0.031 C 
ATOM     58  C   UNL A   1      47.872  27.071  26.877  1.00  0.00     0.037 A 
BRANCH  45  59
ATOM     59  C   UNL A   1      45.859  32.624  28.671  1.00  0.00     0.058 A 
ATOM     60  C   UNL A   1      46.287  33.068  29.930  1.00  0.00     0.135 A 
ATOM     61  C   UNL A   1      45.814  33.563  27.626  1.00  0.00     0.135 A 
ATOM     62  F   UNL A   1      46.330  32.218  30.968  1.00  0.00    -0.206 F 
ATOM     63  C   UNL A   1      46.646  34.396  30.149  1.00  0.00     0.059 A 
ATOM     64  C   UNL A   1      46.192  34.889  27.816  1.00  0.00     0.059 A 
ATOM     65  F   UNL A   1      45.414  33.191  26.400  1.00  0.00    -0.206 F 
ATOM     66  C   UNL A   1      46.597  35.298  29.085  1.00  0.00     0.060 A 
BRANCH  66  67
ATOM     67  S   UNL A   1      47.093  37.012  29.371  1.00  0.00     0.124 S 
ATOM     68  O   UNL A   1      47.384  36.995  30.801  1.00  0.00    -0.237 OA
ATOM     69  O   UNL A   1      48.249  37.157  28.491  1.00  0.00    -0.237 OA
ATOM     70  O   UNL A   1      45.914  37.777  28.977  1.00  0.00    -0.744 OA
ENDBRANCH  66  67
ENDBRANCH  45  59
BRANCH  46  71
ATOM     71  C   UNL A   1      43.248  23.173  26.949  1.00  0.00     0.058 A 
ATOM     72  C   UNL A   1      43.221  22.673  25.640  1.00  0.00     0.135 A 
ATOM     73  C   UNL A   1      42.945  22.290  27.997  1.00  0.00     0.135 A 
ATOM     74  F   UNL A   1      43.485  23.485  24.605  1.00  0.00    -0.206 F 
ATOM     75  C   UNL A   1      42.921  21.340  25.378  1.00  0.00     0.059 A 
ATOM     76  C   UNL A   1      42.670  20.948  27.762  1.00  0.00     0.059 A 
ATOM     77  F   UNL A   1      42.966  22.721  29.267  1.00  0.00    -0.206 F 
ATOM     78  C   UNL A   1      42.658  20.482  26.448  1.00  0.00     0.060 A 
BRANCH  78  79
ATOM     79  S   UNL A   1      42.375  18.729  26.119  1.00  0.00     0.124 S 
ATOM     80  O   UNL A   1      43.335  18.473  25.052  1.00  0.00    -0.237 OA
ATOM     81  O   UNL A   1      42.676  18.115  27.410  1.00  0.00    -0.237 OA
ATOM     82  O   UNL A   1      40.968  18.689  25.731  1.00  0.00    -0.744 OA
ENDBRANCH  78  79
ENDBRANCH  46  71
BRANCH  58  83
ATOM     83  C   UNL A   1      49.253  26.646  26.467  1.00  0.00     0.058 A 
ATOM     84  C   UNL A   1      49.689  26.767  25.138  1.00  0.00     0.135 A 
ATOM     85  C   UNL A   1      50.141  26.098  27.404  1.00  0.00     0.135 A 
ATOM     86  F   UNL A   1      48.873  27.279  24.203  1.00  0.00    -0.206 F 
ATOM     87  C   UNL A   1      50.947  26.323  24.744  1.00  0.00     0.059 A 
ATOM     88  C   UNL A   1      51.412  25.666  27.036  1.00  0.00     0.059 A 
ATOM     89  F   UNL A   1      49.774  25.969  28.689  1.00  0.00    -0.206 F 
ATOM     90  C   UNL A   1      51.797  25.764  25.699  1.00  0.00     0.060 A 
BRANCH  90  91
ATOM     91  S   UNL A   1      53.421  25.169  25.179  1.00  0.00     0.124 S 
ATOM     92  O   UNL A   1      53.478  25.643  23.800  1.00  0.00    -0.237 OA
ATOM     93  O   UNL A   1      54.319  25.837  26.116  1.00  0.00    -0.237 OA
ATOM     94  O   UNL A   1      53.319  23.722  25.342  1.00  0.00    -0.744 OA
ENDBRANCH  90  91
ENDBRANCH  58  83
ENDBRANCH  32  33
ENDBRANCH  25  27
ENDBRANCH  24  25
ENDBRANCH   1  24
TORSDOF 16
ENDMDL
MODEL 2
REMARK VINA RESULT:     -11.7      1.045      2.560
REMARK SMILES Cc1[nH]c2ccccc2c1[C@@H](C(=O)OCCOC(=O)c1ccc(-c2c3nc(c(-c4c(F)cc(S(=O)(=O)[O-])cc4F)c4ccc([nH]4)c(-c4c(F)cc(S(=O)(=O)[O-])cc4F)c4nc(c(-c5c(F)cc(S(=O)(=O)[O-])cc5F)c5ccc2[nH]5)C=C4)C=C3)cc1)[NH+]1CCCC1
REMARK SMILES IDX 16 1 15 2 14 3 12 4 13 5 11 6 10 7 1 8 2 9 3 10 4 11 9 13
REMARK SMILES IDX 5 14 8 15 6 16 7 17 86 18 87 19 90 20 88 22 89 23 17 24
REMARK SMILES IDX 18 25 19 26 20 27 21 28 85 29 22 30 84 31 23 32 24 33 25 34
REMARK SMILES IDX 78 35 26 36 83 37 77 38 79 39 27 40 82 41 76 42 75 43 28 45
REMARK SMILES IDX 62 46 41 47 61 48 42 49 45 50 60 51 80 52 43 53 44 54 59 56
REMARK SMILES IDX 81 57 46 58 29 59 30 60 39 61 31 62 32 63 38 64 40 65 33 66
REMARK SMILES IDX 34 67 35 68 36 69 37 70 63 71 64 72 73 73 65 74 66 75 72 76
REMARK SMILES IDX 74 77 67 78 68 79 69 80 70 81 71 82 47 83 48 84 57 85 49 86
REMARK SMILES IDX 50 87 56 88 58 89 51 90 52 91 53 92 54 93 55 94
REMARK H PARENT 3 12 86 21 79 44 45 55
REMARK Flexibility Score: inf
ROOT
ATOM      1  C   UNL A   1      34.160  29.274  27.798  1.00  0.00     0.275 C 
ENDROOT
BRANCH   1   2
ATOM      2  C   UNL A   1      34.049  28.640  26.412  1.00  0.00     0.274 C 
BRANCH   2   3
ATOM      3  O   UNL A   1      33.452  27.328  26.470  1.00  0.00    -0.457 OA
BRANCH   3   4
ATOM      4  C   UNL A   1      32.165  27.250  26.016  1.00  0.00     0.370 C 
ATOM      5  O   UNL A   1      31.192  27.264  26.769  1.00  0.00    -0.245 OA
BRANCH   4   6
ATOM      6  C   UNL A   1      32.050  26.943  24.513  1.00  0.00     0.328 C 
BRANCH   6   7
ATOM      7  C   UNL A   1      31.645  28.070  23.583  1.00  0.00     0.049 A 
ATOM      8  C   UNL A   1      34.029  28.804  22.747  1.00  0.00     0.065 C 
ATOM      9  C   UNL A   1      32.542  28.814  22.817  1.00  0.00     0.022 A 
ATOM     10  N   UNL A   1      31.818  29.623  21.982  1.00  0.00    -0.358 N 
ATOM     11  C   UNL A   1      30.475  29.475  22.208  1.00  0.00     0.046 A 
ATOM     12  H   UNL A   1      32.210  30.229  21.312  1.00  0.00     0.166 HD
ATOM     13  C   UNL A   1      30.330  28.582  23.270  1.00  0.00     0.009 A 
ATOM     14  C   UNL A   1      29.394  30.066  21.542  1.00  0.00     0.027 A 
ATOM     15  C   UNL A   1      29.017  28.341  23.736  1.00  0.00     0.011 A 
ATOM     16  C   UNL A   1      28.109  29.750  21.982  1.00  0.00     0.002 A 
ATOM     17  C   UNL A   1      27.921  28.913  23.075  1.00  0.00     0.001 A 
ENDBRANCH   6   7
BRANCH   6  18
ATOM     18  N   UNL A   1      31.391  25.636  24.252  1.00  0.00    -0.319 N 
ATOM     19  C   UNL A   1      31.908  24.513  25.032  1.00  0.00     0.263 C 
ATOM     20  C   UNL A   1      31.315  25.146  22.882  1.00  0.00     0.263 C 
ATOM     21  H   UNL A   1      30.456  25.920  24.544  1.00  0.00     0.349 HD
ATOM     22  C   UNL A   1      32.863  23.765  24.117  1.00  0.00     0.067 C 
ATOM     23  C   UNL A   1      32.404  24.098  22.707  1.00  0.00     0.067 C 
ENDBRANCH   6  18
ENDBRANCH   4   6
ENDBRANCH   3   4
ENDBRANCH   2   3
ENDBRANCH   1   2
BRANCH   1  24
ATOM     24  O   UNL A   1      35.010  30.430  27.732  1.00  0.00    -0.458 OA
BRANCH  24  25
ATOM     25  C   UNL A   1      35.800  30.653  28.809  1.00  0.00     0.338 C 
ATOM     26  O   UNL A   1      35.495  31.280  29.810  1.00  0.00    -0.246 OA
BRANCH  25  27
ATOM     27  C   UNL A   1      37.110  29.971  28.647  1.00  0.00     0.060 A 
ATOM     28  C   UNL A   1      37.817  29.474  29.739  1.00  0.00     0.016 A 
ATOM     29  C   UNL A   1      37.701  29.926  27.382  1.00  0.00     0.016 A 
ATOM     30  C   UNL A   1      39.137  29.045  29.588  1.00  0.00     0.010 A 
ATOM     31  C   UNL A   1      38.994  29.405  27.221  1.00  0.00     0.010 A 
ATOM     32  C   UNL A   1      39.754  29.001  28.330  1.00  0.00    -0.014 A 
BRANCH  32  33
ATOM     33  C   UNL A   1      41.187  28.589  28.188  1.00  0.00     0.031 A 
ATOM     34  C   UNL A   1      42.303  29.590  28.402  1.00  0.00     0.074 A 
ATOM     35  C   UNL A   1      41.520  27.315  27.889  1.00  0.00     0.049 A 
ATOM     36  N   UNL A   1      43.573  29.491  28.096  1.00  0.00    -0.248 NA
ATOM     37  C   UNL A   1      41.941  30.875  29.021  1.00  0.00     0.031 C 
ATOM     38  C   UNL A   1      40.579  26.212  27.689  1.00  0.00     0.029 A 
ATOM     39  N   UNL A   1      42.752  26.726  27.717  1.00  0.00    -0.354 N 
ATOM     40  C   UNL A   1      44.139  30.726  28.397  1.00  0.00     0.074 A 
ATOM     41  C   UNL A   1      43.078  31.553  28.933  1.00  0.00     0.031 C 
ATOM     42  C   UNL A   1      41.263  25.074  27.500  1.00  0.00     0.029 A 
ATOM     43  C   UNL A   1      42.687  25.381  27.445  1.00  0.00     0.049 A 
ATOM     44  H   UNL A   1      43.600  27.222  27.783  1.00  0.00     0.167 HD
ATOM     45  C   UNL A   1      45.421  31.136  28.231  1.00  0.00     0.037 A 
ATOM     46  C   UNL A   1      43.650  24.490  27.134  1.00  0.00     0.037 A 
ATOM     47  C   UNL A   1      46.500  30.284  27.794  1.00  0.00     0.049 A 
ATOM     48  C   UNL A   1      45.070  24.953  26.994  1.00  0.00     0.074 A 
ATOM     49  C   UNL A   1      47.835  30.608  27.610  1.00  0.00     0.029 A 
ATOM     50  N   UNL A   1      46.381  28.933  27.512  1.00  0.00    -0.354 N 
ATOM     51  N   UNL A   1      45.561  26.157  27.154  1.00  0.00    -0.248 NA
ATOM     52  C   UNL A   1      46.059  23.942  26.595  1.00  0.00     0.031 C 
ATOM     53  C   UNL A   1      48.518  29.457  27.199  1.00  0.00     0.029 A 
ATOM     54  C   UNL A   1      47.615  28.409  27.161  1.00  0.00     0.049 A 
ATOM     55  H   UNL A   1      45.542  28.419  27.554  1.00  0.00     0.167 HD
ATOM     56  C   UNL A   1      46.915  26.053  26.859  1.00  0.00     0.074 A 
ATOM     57  C   UNL A   1      47.172  24.661  26.548  1.00  0.00     0.031 C 
ATOM     58  C   UNL A   1      47.857  27.027  26.834  1.00  0.00     0.037 A 
BRANCH  45  59
ATOM     59  C   UNL A   1      45.738  32.585  28.485  1.00  0.00     0.058 A 
ATOM     60  C   UNL A   1      45.605  33.568  27.494  1.00  0.00     0.135 A 
ATOM     61  C   UNL A   1      46.119  33.001  29.772  1.00  0.00     0.135 A 
ATOM     62  F   UNL A   1      45.261  33.223  26.243  1.00  0.00    -0.206 F 
ATOM     63  C   UNL A   1      45.853  34.911  27.764  1.00  0.00     0.059 A 
ATOM     64  C   UNL A   1      46.350  34.341  30.071  1.00  0.00     0.059 A 
ATOM     65  F   UNL A   1      46.259  32.102  30.759  1.00  0.00    -0.206 F 
ATOM     66  C   UNL A   1      46.224  35.288  29.056  1.00  0.00     0.060 A 
BRANCH  66  67
ATOM     67  S   UNL A   1      46.516  37.037  29.406  1.00  0.00     0.124 S 
ATOM     68  O   UNL A   1      47.561  37.355  28.438  1.00  0.00    -0.237 OA
ATOM     69  O   UNL A   1      45.209  37.633  29.146  1.00  0.00    -0.237 OA
ATOM     70  O   UNL A   1      46.932  37.038  30.805  1.00  0.00    -0.744 OA
ENDBRANCH  66  67
ENDBRANCH  45  59
BRANCH  46  71
ATOM     71  C   UNL A   1      43.280  23.073  26.881  1.00  0.00     0.058 A 
ATOM     72  C   UNL A   1      43.271  22.553  25.579  1.00  0.00     0.135 A 
ATOM     73  C   UNL A   1      42.983  22.200  27.940  1.00  0.00     0.135 A 
ATOM     74  F   UNL A   1      43.530  23.354  24.535  1.00  0.00    -0.206 F 
ATOM     75  C   UNL A   1      42.992  21.213  25.334  1.00  0.00     0.059 A 
ATOM     76  C   UNL A   1      42.730  20.850  27.722  1.00  0.00     0.059 A 
ATOM     77  F   UNL A   1      42.988  22.650  29.203  1.00  0.00    -0.206 F 
ATOM     78  C   UNL A   1      42.734  20.366  26.415  1.00  0.00     0.060 A 
BRANCH  78  79
ATOM     79  S   UNL A   1      42.481  18.604  26.109  1.00  0.00     0.124 S 
ATOM     80  O   UNL A   1      43.415  18.358  25.018  1.00  0.00    -0.237 OA
ATOM     81  O   UNL A   1      42.830  18.009  27.396  1.00  0.00    -0.237 OA
ATOM     82  O   UNL A   1      41.064  18.531  25.761  1.00  0.00    -0.744 OA
ENDBRANCH  78  79
ENDBRANCH  46  71
BRANCH  58  83
ATOM     83  C   UNL A   1      49.251  26.612  26.461  1.00  0.00     0.058 A 
ATOM     84  C   UNL A   1      49.739  26.786  25.156  1.00  0.00     0.135 A 
ATOM     85  C   UNL A   1      50.100  26.022  27.408  1.00  0.00     0.135 A 
ATOM     86  F   UNL A   1      48.961  27.340  24.212  1.00  0.00    -0.206 F 
ATOM     87  C   UNL A   1      51.010  26.352  24.793  1.00  0.00     0.059 A 
ATOM     88  C   UNL A   1      51.383  25.600  27.072  1.00  0.00     0.059 A 
ATOM     89  F   UNL A   1      49.683  25.842  28.671  1.00  0.00    -0.206 F 
ATOM     90  C   UNL A   1      51.820  25.750  25.756  1.00  0.00     0.060 A 
BRANCH  90  91
ATOM     91  S   UNL A   1      53.461  25.169  25.275  1.00  0.00     0.124 S 
ATOM     92  O   UNL A   1      54.307  25.837  26.257  1.00  0.00    -0.237 OA
ATOM     93  O   UNL A   1      53.341  23.721  25.422  1.00  0.00    -0.237 OA
ATOM     94  O   UNL A   1      53.598  25.643  23.901  1.00  0.00    -0.744 OA
ENDBRANCH  90  91
ENDBRANCH  58  83
ENDBRANCH  32  33
ENDBRANCH  25  27
ENDBRANCH  24  25
ENDBRANCH   1  24
TORSDOF 16
ENDMDL
MODEL 3
REMARK VINA RESULT:     -11.4      5.156     10.591
REMARK SMILES Cc1[nH]c2ccccc2c1[C@@H](C(=O)OCCOC(=O)c1ccc(-c2c3nc(c(-c4c(F)cc(S(=O)(=O)[O-])cc4F)c4ccc([nH]4)c(-c4c(F)cc(S(=O)(=O)[O-])cc4F)c4nc(c(-c5c(F)cc(S(=O)(=O)[O-])cc5F)c5ccc2[nH]5)C=C4)C=C3)cc1)[NH+]1CCCC1
REMARK SMILES IDX 16 1 15 2 14 3 12 4 13 5 11 6 10 7 1 8 2 9 3 10 4 11 9 13
REMARK SMILES IDX 5 14 8 15 6 16 7 17 86 18 87 19 90 20 88 22 89 23 17 24
REMARK SMILES IDX 18 25 19 26 20 27 21 28 85 29 22 30 84 31 23 32 24 33 25 34
REMARK SMILES IDX 78 35 26 36 83 37 77 38 79 39 27 40 82 41 76 42 75 43 28 45
REMARK SMILES IDX 62 46 41 47 61 48 42 49 45 50 60 51 80 52 43 53 44 54 59 56
REMARK SMILES IDX 81 57 46 58 29 59 30 60 39 61 31 62 32 63 38 64 40 65 33 66
REMARK SMILES IDX 34 67 35 68 36 69 37 70 63 71 64 72 73 73 65 74 66 75 72 76
REMARK SMILES IDX 74 77 67 78 68 79 69 80 70 81 71 82 47 83 48 84 57 85 49 86
REMARK SMILES IDX 50 87 56 88 58 89 51 90 52 91 53 92 54 93 55 94
REMARK H PARENT 3 12 86 21 79 44 45 55
REMARK Flexibility Score: inf
ROOT
ATOM      1  C   UNL A   1      37.394  21.804  24.713  1.00  0.00     0.275 C 
ENDROOT
BRANCH   1   2
ATOM      2  C   UNL A   1      36.758  22.514  23.520  1.00  0.00     0.274 C 
BRANCH   2   3
ATOM      3  O   UNL A   1      35.792  23.502  23.936  1.00  0.00    -0.457 OA
BRANCH   3   4
ATOM      4  C   UNL A   1      34.506  23.266  23.539  1.00  0.00     0.370 C 
ATOM      5  O   UNL A   1      34.141  23.373  22.369  1.00  0.00    -0.245 OA
BRANCH   4   6
ATOM      6  C   UNL A   1      33.521  23.055  24.701  1.00  0.00     0.328 C 
BRANCH   6   7
ATOM      7  C   UNL A   1      33.441  21.678  25.329  1.00  0.00     0.049 A 
ATOM      8  C   UNL A   1      34.043  22.311  27.812  1.00  0.00     0.065 C 
ATOM      9  C   UNL A   1      33.639  21.423  26.687  1.00  0.00     0.022 A 
ATOM     10  N   UNL A   1      33.330  20.110  26.922  1.00  0.00    -0.358 N 
ATOM     11  C   UNL A   1      32.984  19.477  25.757  1.00  0.00     0.046 A 
ATOM     12  H   UNL A   1      33.355  19.680  27.807  1.00  0.00     0.166 HD
ATOM     13  C   UNL A   1      33.134  20.402  24.723  1.00  0.00     0.009 A 
ATOM     14  C   UNL A   1      32.546  18.162  25.559  1.00  0.00     0.027 A 
ATOM     15  C   UNL A   1      32.909  19.940  23.407  1.00  0.00     0.011 A 
ATOM     16  C   UNL A   1      32.264  17.760  24.254  1.00  0.00     0.002 A 
ATOM     17  C   UNL A   1      32.459  18.630  23.188  1.00  0.00     0.001 A 
ENDBRANCH   6   7
BRANCH   6  18
ATOM     18  N   UNL A   1      32.213  23.721  24.462  1.00  0.00    -0.319 N 
ATOM     19  C   UNL A   1      32.186  25.156  24.736  1.00  0.00     0.263 C 
ATOM     20  C   UNL A   1      31.021  23.186  25.108  1.00  0.00     0.263 C 
ATOM     21  H   UNL A   1      32.159  23.510  23.465  1.00  0.00     0.349 HD
ATOM     22  C   UNL A   1      31.565  25.313  26.113  1.00  0.00     0.067 C 
ATOM     23  C   UNL A   1      30.715  24.068  26.309  1.00  0.00     0.067 C 
ENDBRANCH   6  18
ENDBRANCH   4   6
ENDBRANCH   3   4
ENDBRANCH   2   3
ENDBRANCH   1   2
BRANCH   1  24
ATOM     24  O   UNL A   1      37.690  22.761  25.742  1.00  0.00    -0.458 OA
BRANCH  24  25
ATOM     25  C   UNL A   1      38.999  22.924  26.049  1.00  0.00     0.338 C 
ATOM     26  O   UNL A   1      39.906  22.158  25.767  1.00  0.00    -0.246 OA
BRANCH  25  27
ATOM     27  C   UNL A   1      39.217  24.220  26.742  1.00  0.00     0.060 A 
ATOM     28  C   UNL A   1      40.048  25.204  26.212  1.00  0.00     0.016 A 
ATOM     29  C   UNL A   1      38.667  24.412  28.012  1.00  0.00     0.016 A 
ATOM     30  C   UNL A   1      40.413  26.308  26.984  1.00  0.00     0.010 A 
ATOM     31  C   UNL A   1      38.962  25.570  28.745  1.00  0.00     0.010 A 
ATOM     32  C   UNL A   1      39.882  26.517  28.263  1.00  0.00    -0.014 A 
BRANCH  32  33
ATOM     33  C   UNL A   1      40.321  27.677  29.102  1.00  0.00     0.031 A 
ATOM     34  C   UNL A   1      41.682  27.679  29.765  1.00  0.00     0.074 A 
ATOM     35  C   UNL A   1      39.528  28.758  29.268  1.00  0.00     0.049 A 
ATOM     36  N   UNL A   1      42.143  28.465  30.707  1.00  0.00    -0.248 NA
ATOM     37  C   UNL A   1      42.641  26.651  29.329  1.00  0.00     0.031 C 
ATOM     38  C   UNL A   1      38.205  28.945  28.671  1.00  0.00     0.029 A 
ATOM     39  N   UNL A   1      39.730  29.918  29.981  1.00  0.00    -0.354 N 
ATOM     40  C   UNL A   1      43.402  27.971  31.038  1.00  0.00     0.074 A 
ATOM     41  C   UNL A   1      43.643  26.831  30.180  1.00  0.00     0.031 C 
ATOM     42  C   UNL A   1      37.749  30.168  28.976  1.00  0.00     0.029 A 
ATOM     43  C   UNL A   1      38.689  30.811  29.887  1.00  0.00     0.049 A 
ATOM     44  H   UNL A   1      40.543  30.091  30.508  1.00  0.00     0.167 HD
ATOM     45  C   UNL A   1      44.269  28.421  31.978  1.00  0.00     0.037 A 
ATOM     46  C   UNL A   1      38.477  31.994  30.496  1.00  0.00     0.037 A 
ATOM     47  C   UNL A   1      44.075  29.616  32.763  1.00  0.00     0.049 A 
ATOM     48  C   UNL A   1      39.467  32.496  31.504  1.00  0.00     0.074 A 
ATOM     49  C   UNL A   1      44.907  30.158  33.730  1.00  0.00     0.029 A 
ATOM     50  N   UNL A   1      42.996  30.477  32.645  1.00  0.00    -0.354 N 
ATOM     51  N   UNL A   1      40.588  31.945  31.901  1.00  0.00    -0.248 NA
ATOM     52  C   UNL A   1      39.144  33.763  32.175  1.00  0.00     0.031 C 
ATOM     53  C   UNL A   1      44.322  31.336  34.208  1.00  0.00     0.029 A 
ATOM     54  C   UNL A   1      43.142  31.546  33.515  1.00  0.00     0.049 A 
ATOM     55  H   UNL A   1      42.236  30.349  32.032  1.00  0.00     0.167 HD
ATOM     56  C   UNL A   1      41.098  32.789  32.879  1.00  0.00     0.074 A 
ATOM     57  C   UNL A   1      40.182  33.907  32.988  1.00  0.00     0.031 C 
ATOM     58  C   UNL A   1      42.216  32.643  33.630  1.00  0.00     0.037 A 
BRANCH  45  59
ATOM     59  C   UNL A   1      45.502  27.603  32.250  1.00  0.00     0.058 A 
ATOM     60  C   UNL A   1      46.754  27.929  31.707  1.00  0.00     0.135 A 
ATOM     61  C   UNL A   1      45.434  26.506  33.126  1.00  0.00     0.135 A 
ATOM     62  F   UNL A   1      46.873  28.955  30.851  1.00  0.00    -0.206 F 
ATOM     63  C   UNL A   1      47.893  27.188  32.013  1.00  0.00     0.059 A 
ATOM     64  C   UNL A   1      46.564  25.767  33.464  1.00  0.00     0.059 A 
ATOM     65  F   UNL A   1      44.262  26.152  33.675  1.00  0.00    -0.206 F 
ATOM     66  C   UNL A   1      47.788  26.110  32.893  1.00  0.00     0.060 A 
BRANCH  66  67
ATOM     67  S   UNL A   1      49.277  25.173  33.307  1.00  0.00     0.124 S 
ATOM     68  O   UNL A   1      48.719  24.072  34.086  1.00  0.00    -0.237 OA
ATOM     69  O   UNL A   1      49.800  24.816  31.992  1.00  0.00    -0.237 OA
ATOM     70  O   UNL A   1      50.083  26.130  34.058  1.00  0.00    -0.744 OA
ENDBRANCH  66  67
ENDBRANCH  45  59
BRANCH  46  71
ATOM     71  C   UNL A   1      37.236  32.756  30.200  1.00  0.00     0.058 A 
ATOM     72  C   UNL A   1      37.184  33.657  29.127  1.00  0.00     0.135 A 
ATOM     73  C   UNL A   1      36.065  32.556  30.948  1.00  0.00     0.135 A 
ATOM     74  F   UNL A   1      38.283  33.894  28.395  1.00  0.00    -0.206 F 
ATOM     75  C   UNL A   1      36.009  34.325  28.797  1.00  0.00     0.059 A 
ATOM     76  C   UNL A   1      34.873  33.191  30.619  1.00  0.00     0.059 A 
ATOM     77  F   UNL A   1      36.064  31.697  31.978  1.00  0.00    -0.206 F 
ATOM     78  C   UNL A   1      34.855  34.077  29.543  1.00  0.00     0.060 A 
BRANCH  78  79
ATOM     79  S   UNL A   1      33.304  34.859  29.049  1.00  0.00     0.124 S 
ATOM     80  O   UNL A   1      33.777  36.119  28.489  1.00  0.00    -0.237 OA
ATOM     81  O   UNL A   1      32.759  33.899  28.092  1.00  0.00    -0.237 OA
ATOM     82  O   UNL A   1      32.571  34.958  30.308  1.00  0.00    -0.744 OA
ENDBRANCH  78  79
ENDBRANCH  46  71
BRANCH  58  83
ATOM     83  C   UNL A   1      42.507  33.725  34.631  1.00  0.00     0.058 A 
ATOM     84  C   UNL A   1      43.275  34.849  34.288  1.00  0.00     0.135 A 
ATOM     85  C   UNL A   1      42.028  33.630  35.945  1.00  0.00     0.135 A 
ATOM     86  F   UNL A   1      43.761  34.982  33.044  1.00  0.00    -0.206 F 
ATOM     87  C   UNL A   1      43.591  35.825  35.228  1.00  0.00     0.059 A 
ATOM     88  C   UNL A   1      42.315  34.605  36.896  1.00  0.00     0.059 A 
ATOM     89  F   UNL A   1      41.281  32.579  36.319  1.00  0.00    -0.206 F 
ATOM     90  C   UNL A   1      43.115  35.688  36.532  1.00  0.00     0.060 A 
BRANCH  90  91
ATOM     91  S   UNL A   1      43.547  36.946  37.754  1.00  0.00     0.124 S 
ATOM     92  O   UNL A   1      42.265  37.160  38.417  1.00  0.00    -0.237 OA
ATOM     93  O   UNL A   1      44.569  36.275  38.552  1.00  0.00    -0.237 OA
ATOM     94  O   UNL A   1      44.027  38.058  36.939  1.00  0.00    -0.744 OA
ENDBRANCH  90  91
ENDBRANCH  58  83
ENDBRANCH  32  33
ENDBRANCH  25  27
ENDBRANCH  24  25
ENDBRANCH   1  24
TORSDOF 16
ENDMDL
