MODEL 1
REMARK VINA RESULT:     -11.1      0.000      0.000
REMARK SMILES C[C@@H](C(=O)OCCOC(=O)c1ccc(-c2c3nc(c(-c4c(F)cc(S(=O)(=O)[O-])cc4F)c4ccc([nH]4)c(-c4c(F)cc(S(=O)(=O)[O-])cc4F)c4nc(c(-c5c(F)cc(S(=O)(=O)[O-])cc5F)c5ccc2[nH]5)C=C4)C=C3)cc1)c1ccc(C[C@H]2CCCC2=O)cc1[N+](=O)[O-]
REMARK SMILES IDX 6 1 5 2 3 3 4 4 2 5 1 6 77 7 78 8 89 9 79 10 88 11 80 12
REMARK SMILES IDX 90 13 91 14 92 15 81 16 82 17 83 18 86 19 84 20 85 21 87 22
REMARK SMILES IDX 7 23 8 24 9 25 10 26 11 27 12 28 76 29 13 30 75 31 14 32
REMARK SMILES IDX 15 33 16 34 69 35 17 36 74 37 68 38 70 39 18 40 73 41 67 42
REMARK SMILES IDX 66 43 19 45 53 46 32 47 52 48 33 49 36 50 51 51 71 52 34 53
REMARK SMILES IDX 35 54 50 56 72 57 37 58 20 59 21 60 30 61 22 62 23 63 29 64
REMARK SMILES IDX 31 65 24 66 25 67 26 68 27 69 28 70 54 71 55 72 64 73 56 74
REMARK SMILES IDX 57 75 63 76 65 77 58 78 59 79 60 80 61 81 62 82 38 83 39 84
REMARK SMILES IDX 48 85 40 86 41 87 47 88 49 89 42 90 43 91 44 92 45 93 46 94
REMARK H PARENT 70 44 36 55
REMARK Flexibility Score: inf
ROOT
ATOM      1  C   UNL A   1      37.276  22.950  24.798  1.00  0.00     0.274 C 
ENDROOT
BRANCH   1   2
ATOM      2  O   UNL A   1      35.857  22.829  25.032  1.00  0.00    -0.462 OA
BRANCH   2   3
ATOM      3  C   UNL A   1      35.044  23.014  23.955  1.00  0.00     0.313 C 
ATOM      4  O   UNL A   1      35.450  23.108  22.801  1.00  0.00    -0.252 OA
BRANCH   3   5
ATOM      5  C   UNL A   1      33.562  23.162  24.338  1.00  0.00     0.133 C 
ATOM      6  C   UNL A   1      32.616  22.503  23.336  1.00  0.00     0.025 C 
BRANCH   5   7
ATOM      7  C   UNL A   1      33.236  24.577  24.830  1.00  0.00     0.044 A 
ATOM      8  C   UNL A   1      33.902  25.630  24.161  1.00  0.00     0.012 A 
ATOM      9  C   UNL A   1      32.311  24.977  25.816  1.00  0.00     0.273 A 
ATOM     10  C   UNL A   1      33.645  26.979  24.437  1.00  0.00     0.004 A 
ATOM     11  C   UNL A   1      32.046  26.334  26.102  1.00  0.00     0.089 A 
ATOM     12  C   UNL A   1      32.708  27.347  25.405  1.00  0.00    -0.040 A 
BRANCH   9  13
ATOM     13  N   UNL A   1      31.548  24.038  26.613  1.00  0.00     0.063 N 
ATOM     14  O   UNL A   1      32.178  23.342  27.416  1.00  0.00    -0.258 OA
ATOM     15  O   UNL A   1      30.334  23.963  26.382  1.00  0.00    -0.258 OA
ENDBRANCH   9  13
BRANCH  12  16
ATOM     16  C   UNL A   1      32.392  28.805  25.656  1.00  0.00     0.047 C 
BRANCH  16  17
ATOM     17  C   UNL A   1      32.687  29.334  27.060  1.00  0.00     0.060 C 
ATOM     18  C   UNL A   1      34.058  28.960  27.635  1.00  0.00     0.012 C 
ATOM     19  C   UNL A   1      32.721  30.845  27.118  1.00  0.00     0.136 C 
ATOM     20  C   UNL A   1      34.963  30.158  27.374  1.00  0.00     0.009 C 
ATOM     21  C   UNL A   1      34.066  31.374  27.539  1.00  0.00     0.076 C 
ATOM     22  O   UNL A   1      31.769  31.570  26.857  1.00  0.00    -0.299 OA
ENDBRANCH  16  17
ENDBRANCH  12  16
ENDBRANCH   5   7
ENDBRANCH   3   5
ENDBRANCH   2   3
ENDBRANCH   1   2
BRANCH   1  23
ATOM     23  C   UNL A   1      38.021  23.104  26.119  1.00  0.00     0.275 C 
BRANCH  23  24
ATOM     24  O   UNL A   1      38.632  24.404  26.158  1.00  0.00    -0.458 OA
BRANCH  24  25
ATOM     25  C   UNL A   1      39.934  24.433  26.529  1.00  0.00     0.338 C 
ATOM     26  O   UNL A   1      40.845  23.790  26.039  1.00  0.00    -0.246 OA
BRANCH  25  27
ATOM     27  C   UNL A   1      40.104  25.374  27.656  1.00  0.00     0.060 A 
ATOM     28  C   UNL A   1      39.223  25.357  28.736  1.00  0.00     0.016 A 
ATOM     29  C   UNL A   1      41.095  26.354  27.586  1.00  0.00     0.016 A 
ATOM     30  C   UNL A   1      39.279  26.374  29.690  1.00  0.00     0.010 A 
ATOM     31  C   UNL A   1      41.201  27.318  28.598  1.00  0.00     0.010 A 
ATOM     32  C   UNL A   1      40.261  27.375  29.641  1.00  0.00    -0.014 A 
BRANCH  32  33
ATOM     33  C   UNL A   1      40.264  28.500  30.629  1.00  0.00     0.031 A 
ATOM     34  C   UNL A   1      41.314  28.568  31.716  1.00  0.00     0.074 A 
ATOM     35  C   UNL A   1      39.364  29.504  30.551  1.00  0.00     0.049 A 
ATOM     36  N   UNL A   1      41.368  29.349  32.767  1.00  0.00    -0.248 NA
ATOM     37  C   UNL A   1      42.449  27.636  31.614  1.00  0.00     0.031 C 
ATOM     38  C   UNL A   1      38.314  29.629  29.538  1.00  0.00     0.029 A 
ATOM     39  N   UNL A   1      39.199  30.626  31.329  1.00  0.00    -0.354 N 
ATOM     40  C   UNL A   1      42.484  28.945  33.493  1.00  0.00     0.074 A 
ATOM     41  C   UNL A   1      43.100  27.868  32.746  1.00  0.00     0.031 C 
ATOM     42  C   UNL A   1      37.666  30.790  29.713  1.00  0.00     0.029 A 
ATOM     43  C   UNL A   1      38.173  31.442  30.915  1.00  0.00     0.049 A 
ATOM     44  H   UNL A   1      39.765  30.827  32.111  1.00  0.00     0.167 HD
ATOM     45  C   UNL A   1      42.947  29.419  34.676  1.00  0.00     0.037 A 
ATOM     46  C   UNL A   1      37.651  32.561  31.456  1.00  0.00     0.037 A 
ATOM     47  C   UNL A   1      42.386  30.538  35.388  1.00  0.00     0.049 A 
ATOM     48  C   UNL A   1      38.181  33.075  32.762  1.00  0.00     0.074 A 
ATOM     49  C   UNL A   1      42.796  31.084  36.594  1.00  0.00     0.029 A 
ATOM     50  N   UNL A   1      41.318  31.304  34.950  1.00  0.00    -0.354 N 
ATOM     51  N   UNL A   1      39.163  32.604  33.492  1.00  0.00    -0.248 NA
ATOM     52  C   UNL A   1      37.509  34.248  33.336  1.00  0.00     0.031 C 
ATOM     53  C   UNL A   1      41.963  32.170  36.892  1.00  0.00     0.029 A 
ATOM     54  C   UNL A   1      41.055  32.318  35.858  1.00  0.00     0.049 A 
ATOM     55  H   UNL A   1      40.818  31.150  34.115  1.00  0.00     0.167 HD
ATOM     56  C   UNL A   1      39.211  33.410  34.623  1.00  0.00     0.074 A 
ATOM     57  C   UNL A   1      38.186  34.420  34.465  1.00  0.00     0.031 C 
ATOM     58  C   UNL A   1      40.023  33.308  35.704  1.00  0.00     0.037 A 
BRANCH  45  59
ATOM     59  C   UNL A   1      44.106  28.701  35.308  1.00  0.00     0.058 A 
ATOM     60  C   UNL A   1      45.438  29.046  35.031  1.00  0.00     0.135 A 
ATOM     61  C   UNL A   1      43.874  27.689  36.255  1.00  0.00     0.135 A 
ATOM     62  F   UNL A   1      45.713  29.995  34.122  1.00  0.00    -0.206 F 
ATOM     63  C   UNL A   1      46.499  28.403  35.660  1.00  0.00     0.059 A 
ATOM     64  C   UNL A   1      44.919  27.046  36.910  1.00  0.00     0.059 A 
ATOM     65  F   UNL A   1      42.618  27.323  36.556  1.00  0.00    -0.206 F 
ATOM     66  C   UNL A   1      46.230  27.403  36.598  1.00  0.00     0.060 A 
BRANCH  66  67
ATOM     67  S   UNL A   1      47.613  26.590  37.425  1.00  0.00     0.124 S 
ATOM     68  O   UNL A   1      48.081  27.647  38.317  1.00  0.00    -0.237 OA
ATOM     69  O   UNL A   1      46.969  25.452  38.075  1.00  0.00    -0.237 OA
ATOM     70  O   UNL A   1      48.513  26.251  36.326  1.00  0.00    -0.744 OA
ENDBRANCH  66  67
ENDBRANCH  45  59
BRANCH  46  71
ATOM     71  C   UNL A   1      36.510  33.233  30.783  1.00  0.00     0.058 A 
ATOM     72  C   UNL A   1      35.216  33.165  31.315  1.00  0.00     0.135 A 
ATOM     73  C   UNL A   1      36.703  33.996  29.621  1.00  0.00     0.135 A 
ATOM     74  F   UNL A   1      34.980  32.430  32.413  1.00  0.00    -0.206 F 
ATOM     75  C   UNL A   1      34.152  33.843  30.729  1.00  0.00     0.059 A 
ATOM     76  C   UNL A   1      35.662  34.703  29.031  1.00  0.00     0.059 A 
ATOM     77  F   UNL A   1      37.926  34.096  29.078  1.00  0.00    -0.206 F 
ATOM     78  C   UNL A   1      34.388  34.619  29.592  1.00  0.00     0.060 A 
BRANCH  78  79
ATOM     79  S   UNL A   1      33.035  35.586  28.887  1.00  0.00     0.124 S 
ATOM     80  O   UNL A   1      32.256  35.910  30.076  1.00  0.00    -0.237 OA
ATOM     81  O   UNL A   1      33.737  36.702  28.260  1.00  0.00    -0.237 OA
ATOM     82  O   UNL A   1      32.413  34.649  27.956  1.00  0.00    -0.744 OA
ENDBRANCH  78  79
ENDBRANCH  46  71
BRANCH  58  83
ATOM     83  C   UNL A   1      39.830  34.313  36.802  1.00  0.00     0.058 A 
ATOM     84  C   UNL A   1      39.043  34.018  37.927  1.00  0.00     0.135 A 
ATOM     85  C   UNL A   1      40.450  35.570  36.743  1.00  0.00     0.135 A 
ATOM     86  F   UNL A   1      38.424  32.831  38.025  1.00  0.00    -0.206 F 
ATOM     87  C   UNL A   1      38.860  34.945  38.948  1.00  0.00     0.059 A 
ATOM     88  C   UNL A   1      40.293  36.507  37.761  1.00  0.00     0.059 A 
ATOM     89  F   UNL A   1      41.217  35.896  35.692  1.00  0.00    -0.206 F 
ATOM     90  C   UNL A   1      39.484  36.189  38.853  1.00  0.00     0.060 A 
BRANCH  90  91
ATOM     91  S   UNL A   1      39.252  37.384  40.188  1.00  0.00     0.124 S 
ATOM     92  O   UNL A   1      40.631  37.751  40.495  1.00  0.00    -0.237 OA
ATOM     93  O   UNL A   1      38.448  38.421  39.548  1.00  0.00    -0.237 OA
ATOM     94  O   UNL A   1      38.563  36.610  41.217  1.00  0.00    -0.744 OA
ENDBRANCH  90  91
ENDBRANCH  58  83
ENDBRANCH  32  33
ENDBRANCH  25  27
ENDBRANCH  24  25
ENDBRANCH  23  24
ENDBRANCH   1  23
TORSDOF 18
ENDMDL
MODEL 2
REMARK VINA RESULT:     -11.0      6.385     11.908
REMARK SMILES C[C@@H](C(=O)OCCOC(=O)c1ccc(-c2c3nc(c(-c4c(F)cc(S(=O)(=O)[O-])cc4F)c4ccc([nH]4)c(-c4c(F)cc(S(=O)(=O)[O-])cc4F)c4nc(c(-c5c(F)cc(S(=O)(=O)[O-])cc5F)c5ccc2[nH]5)C=C4)C=C3)cc1)c1ccc(C[C@H]2CCCC2=O)cc1[N+](=O)[O-]
REMARK SMILES IDX 6 1 5 2 3 3 4 4 2 5 1 6 77 7 78 8 89 9 79 10 88 11 80 12
REMARK SMILES IDX 90 13 91 14 92 15 81 16 82 17 83 18 86 19 84 20 85 21 87 22
REMARK SMILES IDX 7 23 8 24 9 25 10 26 11 27 12 28 76 29 13 30 75 31 14 32
REMARK SMILES IDX 15 33 16 34 69 35 17 36 74 37 68 38 70 39 18 40 73 41 67 42
REMARK SMILES IDX 66 43 19 45 53 46 32 47 52 48 33 49 36 50 51 51 71 52 34 53
REMARK SMILES IDX 35 54 50 56 72 57 37 58 20 59 21 60 30 61 22 62 23 63 29 64
REMARK SMILES IDX 31 65 24 66 25 67 26 68 27 69 28 70 54 71 55 72 64 73 56 74
REMARK SMILES IDX 57 75 63 76 65 77 58 78 59 79 60 80 61 81 62 82 38 83 39 84
REMARK SMILES IDX 48 85 40 86 41 87 47 88 49 89 42 90 43 91 44 92 45 93 46 94
REMARK H PARENT 70 44 36 55
REMARK Flexibility Score: inf
ROOT
ATOM      1  C   UNL A   1      32.972  31.053  26.994  1.00  0.00     0.274 C 
ENDROOT
BRANCH   1   2
ATOM      2  O   UNL A   1      33.235  29.769  26.386  1.00  0.00    -0.462 OA
BRANCH   2   3
ATOM      3  C   UNL A   1      32.219  29.217  25.668  1.00  0.00     0.313 C 
ATOM      4  O   UNL A   1      31.766  29.705  24.637  1.00  0.00    -0.252 OA
BRANCH   3   5
ATOM      5  C   UNL A   1      31.643  27.947  26.317  1.00  0.00     0.133 C 
ATOM      6  C   UNL A   1      31.470  28.075  27.830  1.00  0.00     0.025 C 
BRANCH   5   7
ATOM      7  C   UNL A   1      32.293  26.674  25.761  1.00  0.00     0.044 A 
ATOM      8  C   UNL A   1      33.666  26.773  25.441  1.00  0.00     0.012 A 
ATOM      9  C   UNL A   1      31.722  25.397  25.587  1.00  0.00     0.273 A 
ATOM     10  C   UNL A   1      34.418  25.675  25.004  1.00  0.00     0.004 A 
ATOM     11  C   UNL A   1      32.471  24.284  25.146  1.00  0.00     0.089 A 
ATOM     12  C   UNL A   1      33.832  24.415  24.860  1.00  0.00    -0.040 A 
BRANCH   9  13
ATOM     13  N   UNL A   1      30.326  25.111  25.850  1.00  0.00     0.063 N 
ATOM     14  O   UNL A   1      29.497  25.605  25.079  1.00  0.00    -0.258 OA
ATOM     15  O   UNL A   1      30.071  24.446  26.863  1.00  0.00    -0.258 OA
ENDBRANCH   9  13
BRANCH  12  16
ATOM     16  C   UNL A   1      34.664  23.222  24.446  1.00  0.00     0.047 C 
BRANCH  16  17
ATOM     17  C   UNL A   1      35.367  22.458  25.570  1.00  0.00     0.060 C 
ATOM     18  C   UNL A   1      35.351  20.931  25.444  1.00  0.00     0.012 C 
ATOM     19  C   UNL A   1      36.849  22.755  25.637  1.00  0.00     0.136 C 
ATOM     20  C   UNL A   1      36.688  20.547  24.822  1.00  0.00     0.009 C 
ATOM     21  C   UNL A   1      37.691  21.530  25.405  1.00  0.00     0.076 C 
ATOM     22  O   UNL A   1      37.324  23.862  25.857  1.00  0.00    -0.299 OA
ENDBRANCH  16  17
ENDBRANCH  12  16
ENDBRANCH   5   7
ENDBRANCH   3   5
ENDBRANCH   2   3
ENDBRANCH   1   2
BRANCH   1  23
ATOM     23  C   UNL A   1      34.229  31.587  27.671  1.00  0.00     0.275 C 
BRANCH  23  24
ATOM     24  O   UNL A   1      34.960  30.483  28.229  1.00  0.00    -0.458 OA
BRANCH  24  25
ATOM     25  C   UNL A   1      35.806  30.787  29.241  1.00  0.00     0.338 C 
ATOM     26  O   UNL A   1      35.573  31.510  30.193  1.00  0.00    -0.246 OA
BRANCH  25  27
ATOM     27  C   UNL A   1      37.101  30.110  29.020  1.00  0.00     0.060 A 
ATOM     28  C   UNL A   1      37.823  29.587  30.092  1.00  0.00     0.016 A 
ATOM     29  C   UNL A   1      37.651  30.085  27.737  1.00  0.00     0.016 A 
ATOM     30  C   UNL A   1      39.126  29.129  29.891  1.00  0.00     0.010 A 
ATOM     31  C   UNL A   1      38.925  29.539  27.530  1.00  0.00     0.010 A 
ATOM     32  C   UNL A   1      39.705  29.099  28.613  1.00  0.00    -0.014 A 
BRANCH  32  33
ATOM     33  C   UNL A   1      41.129  28.674  28.423  1.00  0.00     0.031 A 
ATOM     34  C   UNL A   1      42.260  29.656  28.634  1.00  0.00     0.074 A 
ATOM     35  C   UNL A   1      41.443  27.400  28.105  1.00  0.00     0.049 A 
ATOM     36  N   UNL A   1      43.531  29.531  28.336  1.00  0.00    -0.248 NA
ATOM     37  C   UNL A   1      41.923  30.948  29.255  1.00  0.00     0.031 C 
ATOM     38  C   UNL A   1      40.486  26.308  27.915  1.00  0.00     0.029 A 
ATOM     39  N   UNL A   1      42.665  26.799  27.905  1.00  0.00    -0.354 N 
ATOM     40  C   UNL A   1      44.123  30.750  28.648  1.00  0.00     0.074 A 
ATOM     41  C   UNL A   1      43.079  31.595  29.188  1.00  0.00     0.031 C 
ATOM     42  C   UNL A   1      41.154  25.166  27.699  1.00  0.00     0.029 A 
ATOM     43  C   UNL A   1      42.581  25.456  27.620  1.00  0.00     0.049 A 
ATOM     44  H   UNL A   1      43.520  27.285  27.962  1.00  0.00     0.167 HD
ATOM     45  C   UNL A   1      45.413  31.136  28.489  1.00  0.00     0.037 A 
ATOM     46  C   UNL A   1      43.527  24.558  27.280  1.00  0.00     0.037 A 
ATOM     47  C   UNL A   1      46.473  30.279  28.023  1.00  0.00     0.049 A 
ATOM     48  C   UNL A   1      44.951  25.000  27.116  1.00  0.00     0.074 A 
ATOM     49  C   UNL A   1      47.811  30.590  27.834  1.00  0.00     0.029 A 
ATOM     50  N   UNL A   1      46.329  28.939  27.703  1.00  0.00    -0.354 N 
ATOM     51  N   UNL A   1      45.468  26.190  27.301  1.00  0.00    -0.248 NA
ATOM     52  C   UNL A   1      45.913  23.988  26.660  1.00  0.00     0.031 C 
ATOM     53  C   UNL A   1      48.471  29.441  27.383  1.00  0.00     0.029 A 
ATOM     54  C   UNL A   1      47.552  28.408  27.320  1.00  0.00     0.049 A 
ATOM     55  H   UNL A   1      45.483  28.437  27.742  1.00  0.00     0.167 HD
ATOM     56  C   UNL A   1      46.810  26.075  26.962  1.00  0.00     0.074 A 
ATOM     57  C   UNL A   1      47.036  24.692  26.598  1.00  0.00     0.031 C 
ATOM     58  C   UNL A   1      47.766  27.037  26.941  1.00  0.00     0.037 A 
BRANCH  45  59
ATOM     59  C   UNL A   1      45.754  32.569  28.784  1.00  0.00     0.058 A 
ATOM     60  C   UNL A   1      46.168  32.990  30.057  1.00  0.00     0.135 A 
ATOM     61  C   UNL A   1      45.723  33.525  27.755  1.00  0.00     0.135 A 
ATOM     62  F   UNL A   1      46.199  32.118  31.078  1.00  0.00    -0.206 F 
ATOM     63  C   UNL A   1      46.525  34.311  30.303  1.00  0.00     0.059 A 
ATOM     64  C   UNL A   1      46.093  34.848  27.973  1.00  0.00     0.059 A 
ATOM     65  F   UNL A   1      45.335  33.173  26.519  1.00  0.00    -0.206 F 
ATOM     66  C   UNL A   1      46.484  35.234  29.254  1.00  0.00     0.060 A 
BRANCH  66  67
ATOM     67  S   UNL A   1      46.970  36.943  29.578  1.00  0.00     0.124 S 
ATOM     68  O   UNL A   1      48.424  36.852  29.490  1.00  0.00    -0.237 OA
ATOM     69  O   UNL A   1      46.314  37.669  28.496  1.00  0.00    -0.237 OA
ATOM     70  O   UNL A   1      46.436  37.199  30.913  1.00  0.00    -0.744 OA
ENDBRANCH  66  67
ENDBRANCH  45  59
BRANCH  46  71
ATOM     71  C   UNL A   1      43.133  23.152  27.007  1.00  0.00     0.058 A 
ATOM     72  C   UNL A   1      43.059  22.664  25.695  1.00  0.00     0.135 A 
ATOM     73  C   UNL A   1      42.870  22.257  28.056  1.00  0.00     0.135 A 
ATOM     74  F   UNL A   1      43.281  23.489  24.660  1.00  0.00    -0.206 F 
ATOM     75  C   UNL A   1      42.754  21.333  25.430  1.00  0.00     0.059 A 
ATOM     76  C   UNL A   1      42.587  20.917  27.817  1.00  0.00     0.059 A 
ATOM     77  F   UNL A   1      42.934  22.676  29.329  1.00  0.00    -0.206 F 
ATOM     78  C   UNL A   1      42.529  20.465  26.500  1.00  0.00     0.060 A 
BRANCH  78  79
ATOM     79  S   UNL A   1      42.236  18.713  26.168  1.00  0.00     0.124 S 
ATOM     80  O   UNL A   1      40.827  18.718  25.793  1.00  0.00    -0.237 OA
ATOM     81  O   UNL A   1      43.182  18.432  25.092  1.00  0.00    -0.237 OA
ATOM     82  O   UNL A   1      42.551  18.081  27.445  1.00  0.00    -0.744 OA
ENDBRANCH  78  79
ENDBRANCH  46  71
BRANCH  58  83
ATOM     83  C   UNL A   1      49.140  26.625  26.501  1.00  0.00     0.058 A 
ATOM     84  C   UNL A   1      49.522  26.690  25.151  1.00  0.00     0.135 A 
ATOM     85  C   UNL A   1      50.091  26.185  27.434  1.00  0.00     0.135 A 
ATOM     86  F   UNL A   1      48.644  27.098  24.221  1.00  0.00    -0.206 F 
ATOM     87  C   UNL A   1      50.794  26.309  24.737  1.00  0.00     0.059 A 
ATOM     88  C   UNL A   1      51.375  25.814  27.044  1.00  0.00     0.059 A 
ATOM     89  F   UNL A   1      49.777  26.112  28.736  1.00  0.00    -0.206 F 
ATOM     90  C   UNL A   1      51.713  25.867  25.691  1.00  0.00     0.060 A 
BRANCH  90  91
ATOM     91  S   UNL A   1      53.367  25.386  25.148  1.00  0.00     0.124 S 
ATOM     92  O   UNL A   1      53.325  25.741  23.733  1.00  0.00    -0.237 OA
ATOM     93  O   UNL A   1      54.228  26.216  25.985  1.00  0.00    -0.237 OA
ATOM     94  O   UNL A   1      53.414  23.955  25.437  1.00  0.00    -0.744 OA
ENDBRANCH  90  91
ENDBRANCH  58  83
ENDBRANCH  32  33
ENDBRANCH  25  27
ENDBRANCH  24  25
ENDBRANCH  23  24
ENDBRANCH   1  23
TORSDOF 18
ENDMDL
MODEL 3
REMARK VINA RESULT:     -10.6      6.468     12.031
REMARK SMILES C[C@@H](C(=O)OCCOC(=O)c1ccc(-c2c3nc(c(-c4c(F)cc(S(=O)(=O)[O-])cc4F)c4ccc([nH]4)c(-c4c(F)cc(S(=O)(=O)[O-])cc4F)c4nc(c(-c5c(F)cc(S(=O)(=O)[O-])cc5F)c5ccc2[nH]5)C=C4)C=C3)cc1)c1ccc(C[C@H]2CCCC2=O)cc1[N+](=O)[O-]
REMARK SMILES IDX 6 1 5 2 3 3 4 4 2 5 1 6 77 7 78 8 89 9 79 10 88 11 80 12
REMARK SMILES IDX 90 13 91 14 92 15 81 16 82 17 83 18 86 19 84 20 85 21 87 22
REMARK SMILES IDX 7 23 8 24 9 25 10 26 11 27 12 28 76 29 13 30 75 31 14 32
REMARK SMILES IDX 15 33 16 34 69 35 17 36 74 37 68 38 70 39 18 40 73 41 67 42
REMARK SMILES IDX 66 43 19 45 53 46 32 47 52 48 33 49 36 50 51 51 71 52 34 53
REMARK SMILES IDX 35 54 50 56 72 57 37 58 20 59 21 60 30 61 22 62 23 63 29 64
REMARK SMILES IDX 31 65 24 66 25 67 26 68 27 69 28 70 54 71 55 72 64 73 56 74
REMARK SMILES IDX 57 75 63 76 65 77 58 78 59 79 60 80 61 81 62 82 38 83 39 84
REMARK SMILES IDX 48 85 40 86 41 87 47 88 49 89 42 90 43 91 44 92 45 93 46 94
REMARK H PARENT 70 44 36 55
REMARK Flexibility Score: inf
ROOT
ATOM      1  C   UNL A   1      33.192  28.814  26.841  1.00  0.00     0.274 C 
ENDROOT
BRANCH   1   2
ATOM      2  O   UNL A   1      33.198  27.409  26.509  1.00  0.00    -0.462 OA
BRANCH   2   3
ATOM      3  C   UNL A   1      33.007  27.093  25.198  1.00  0.00     0.313 C 
ATOM      4  O   UNL A   1      33.740  27.470  24.290  1.00  0.00    -0.252 OA
BRANCH   3   5
ATOM      5  C   UNL A   1      31.733  26.266  24.959  1.00  0.00     0.133 C 
ATOM      6  C   UNL A   1      30.718  26.389  26.094  1.00  0.00     0.025 C 
BRANCH   5   7
ATOM      7  C   UNL A   1      32.050  24.869  24.410  1.00  0.00     0.044 A 
ATOM      8  C   UNL A   1      31.929  23.804  25.333  1.00  0.00     0.012 A 
ATOM      9  C   UNL A   1      32.383  24.494  23.093  1.00  0.00     0.273 A 
ATOM     10  C   UNL A   1      32.101  22.465  24.961  1.00  0.00     0.004 A 
ATOM     11  C   UNL A   1      32.560  23.146  22.710  1.00  0.00     0.089 A 
ATOM     12  C   UNL A   1      32.410  22.119  23.644  1.00  0.00    -0.040 A 
BRANCH   9  13
ATOM     13  N   UNL A   1      32.563  25.449  22.019  1.00  0.00     0.063 N 
ATOM     14  O   UNL A   1      31.547  25.994  21.576  1.00  0.00    -0.258 OA
ATOM     15  O   UNL A   1      33.714  25.598  21.587  1.00  0.00    -0.258 OA
ENDBRANCH   9  13
BRANCH  12  16
ATOM     16  C   UNL A   1      32.536  20.667  23.238  1.00  0.00     0.047 C 
BRANCH  16  17
ATOM     17  C   UNL A   1      32.791  19.664  24.364  1.00  0.00     0.060 C 
ATOM     18  C   UNL A   1      32.301  18.235  24.103  1.00  0.00     0.012 C 
ATOM     19  C   UNL A   1      34.265  19.450  24.629  1.00  0.00     0.136 C 
ATOM     20  C   UNL A   1      33.516  17.459  23.610  1.00  0.00     0.009 C 
ATOM     21  C   UNL A   1      34.691  18.026  24.390  1.00  0.00     0.076 C 
ATOM     22  O   UNL A   1      35.036  20.326  25.000  1.00  0.00    -0.299 OA
ENDBRANCH  16  17
ENDBRANCH  12  16
ENDBRANCH   5   7
ENDBRANCH   3   5
ENDBRANCH   2   3
ENDBRANCH   1   2
BRANCH   1  23
ATOM     23  C   UNL A   1      34.616  29.314  27.057  1.00  0.00     0.275 C 
BRANCH  23  24
ATOM     24  O   UNL A   1      34.815  29.555  28.459  1.00  0.00    -0.458 OA
BRANCH  24  25
ATOM     25  C   UNL A   1      35.793  30.438  28.773  1.00  0.00     0.338 C 
ATOM     26  O   UNL A   1      35.643  31.594  29.126  1.00  0.00    -0.246 OA
BRANCH  25  27
ATOM     27  C   UNL A   1      37.111  29.791  28.612  1.00  0.00     0.060 A 
ATOM     28  C   UNL A   1      37.736  29.169  29.692  1.00  0.00     0.016 A 
ATOM     29  C   UNL A   1      37.779  29.892  27.391  1.00  0.00     0.016 A 
ATOM     30  C   UNL A   1      39.058  28.738  29.573  1.00  0.00     0.010 A 
ATOM     31  C   UNL A   1      39.075  29.374  27.255  1.00  0.00     0.010 A 
ATOM     32  C   UNL A   1      39.755  28.834  28.358  1.00  0.00    -0.014 A 
BRANCH  32  33
ATOM     33  C   UNL A   1      41.196  28.435  28.265  1.00  0.00     0.031 A 
ATOM     34  C   UNL A   1      42.293  29.435  28.558  1.00  0.00     0.074 A 
ATOM     35  C   UNL A   1      41.554  27.169  27.963  1.00  0.00     0.049 A 
ATOM     36  N   UNL A   1      43.582  29.334  28.348  1.00  0.00    -0.248 NA
ATOM     37  C   UNL A   1      41.890  30.717  29.161  1.00  0.00     0.031 C 
ATOM     38  C   UNL A   1      40.632  26.062  27.702  1.00  0.00     0.029 A 
ATOM     39  N   UNL A   1      42.797  26.590  27.844  1.00  0.00    -0.354 N 
ATOM     40  C   UNL A   1      44.130  30.562  28.706  1.00  0.00     0.074 A 
ATOM     41  C   UNL A   1      43.036  31.385  29.178  1.00  0.00     0.031 C 
ATOM     42  C   UNL A   1      41.333  24.933  27.526  1.00  0.00     0.029 A 
ATOM     43  C   UNL A   1      42.757  25.248  27.546  1.00  0.00     0.049 A 
ATOM     44  H   UNL A   1      43.637  27.091  27.962  1.00  0.00     0.167 HD
ATOM     45  C   UNL A   1      45.421  30.970  28.638  1.00  0.00     0.037 A 
ATOM     46  C   UNL A   1      43.740  24.369  27.268  1.00  0.00     0.037 A 
ATOM     47  C   UNL A   1      46.526  30.136  28.242  1.00  0.00     0.049 A 
ATOM     48  C   UNL A   1      45.164  24.837  27.204  1.00  0.00     0.074 A 
ATOM     49  C   UNL A   1      47.867  30.471  28.147  1.00  0.00     0.029 A 
ATOM     50  N   UNL A   1      46.428  28.795  27.906  1.00  0.00    -0.354 N 
ATOM     51  N   UNL A   1      45.645  26.035  27.431  1.00  0.00    -0.248 NA
ATOM     52  C   UNL A   1      46.172  23.844  26.810  1.00  0.00     0.031 C 
ATOM     53  C   UNL A   1      48.578  29.336  27.736  1.00  0.00     0.029 A 
ATOM     54  C   UNL A   1      47.683  28.288  27.605  1.00  0.00     0.049 A 
ATOM     55  H   UNL A   1      45.590  28.278  27.884  1.00  0.00     0.167 HD
ATOM     56  C   UNL A   1      47.009  25.945  27.185  1.00  0.00     0.074 A 
ATOM     57  C   UNL A   1      47.284  24.569  26.829  1.00  0.00     0.031 C 
ATOM     58  C   UNL A   1      47.947  26.923  27.234  1.00  0.00     0.037 A 
BRANCH  45  59
ATOM     59  C   UNL A   1      45.715  32.408  28.965  1.00  0.00     0.058 A 
ATOM     60  C   UNL A   1      45.638  33.422  27.999  1.00  0.00     0.135 A 
ATOM     61  C   UNL A   1      46.022  32.780  30.285  1.00  0.00     0.135 A 
ATOM     62  F   UNL A   1      45.364  33.117  26.721  1.00  0.00    -0.206 F 
ATOM     63  C   UNL A   1      45.868  34.754  28.327  1.00  0.00     0.059 A 
ATOM     64  C   UNL A   1      46.238  34.107  30.639  1.00  0.00     0.059 A 
ATOM     65  F   UNL A   1      46.108  31.847  31.245  1.00  0.00    -0.206 F 
ATOM     66  C   UNL A   1      46.168  35.087  29.651  1.00  0.00     0.060 A 
BRANCH  66  67
ATOM     67  S   UNL A   1      46.444  36.822  30.071  1.00  0.00     0.124 S 
ATOM     68  O   UNL A   1      47.898  36.865  30.187  1.00  0.00    -0.237 OA
ATOM     69  O   UNL A   1      45.879  37.520  28.921  1.00  0.00    -0.237 OA
ATOM     70  O   UNL A   1      45.710  36.988  31.322  1.00  0.00    -0.744 OA
ENDBRANCH  66  67
ENDBRANCH  45  59
BRANCH  46  71
ATOM     71  C   UNL A   1      43.390  22.958  26.960  1.00  0.00     0.058 A 
ATOM     72  C   UNL A   1      43.530  22.446  25.663  1.00  0.00     0.135 A 
ATOM     73  C   UNL A   1      42.956  22.083  27.969  1.00  0.00     0.135 A 
ATOM     74  F   UNL A   1      43.921  23.250  24.663  1.00  0.00    -0.206 F 
ATOM     75  C   UNL A   1      43.267  21.110  25.377  1.00  0.00     0.059 A 
ATOM     76  C   UNL A   1      42.712  20.739  27.713  1.00  0.00     0.059 A 
ATOM     77  F   UNL A   1      42.814  22.527  29.227  1.00  0.00    -0.206 F 
ATOM     78  C   UNL A   1      42.868  20.262  26.413  1.00  0.00     0.060 A 
BRANCH  78  79
ATOM     79  S   UNL A   1      42.627  18.505  26.071  1.00  0.00     0.124 S 
ATOM     80  O   UNL A   1      43.561  18.289  24.971  1.00  0.00    -0.237 OA
ATOM     81  O   UNL A   1      42.983  17.883  27.343  1.00  0.00    -0.237 OA
ATOM     82  O   UNL A   1      41.211  18.430  25.723  1.00  0.00    -0.744 OA
ENDBRANCH  78  79
ENDBRANCH  46  71
BRANCH  58  83
ATOM     83  C   UNL A   1      49.356  26.538  26.888  1.00  0.00     0.058 A 
ATOM     84  C   UNL A   1      49.826  26.614  25.567  1.00  0.00     0.135 A 
ATOM     85  C   UNL A   1      50.250  26.114  27.882  1.00  0.00     0.135 A 
ATOM     86  F   UNL A   1      49.006  27.008  24.580  1.00  0.00    -0.206 F 
ATOM     87  C   UNL A   1      51.131  26.258  25.239  1.00  0.00     0.059 A 
ATOM     88  C   UNL A   1      51.564  25.769  27.579  1.00  0.00     0.059 A 
ATOM     89  F   UNL A   1      49.850  26.032  29.160  1.00  0.00    -0.206 F 
ATOM     90  C   UNL A   1      51.991  25.831  26.252  1.00  0.00     0.060 A 
BRANCH  90  91
ATOM     91  S   UNL A   1      53.687  25.382  25.822  1.00  0.00     0.124 S 
ATOM     92  O   UNL A   1      53.471  24.261  24.913  1.00  0.00    -0.237 OA
ATOM     93  O   UNL A   1      54.193  26.607  25.209  1.00  0.00    -0.237 OA
ATOM     94  O   UNL A   1      54.283  25.042  27.111  1.00  0.00    -0.744 OA
ENDBRANCH  90  91
ENDBRANCH  58  83
ENDBRANCH  32  33
ENDBRANCH  25  27
ENDBRANCH  24  25
ENDBRANCH  23  24
ENDBRANCH   1  23
TORSDOF 18
ENDMDL
