MODEL 1
REMARK VINA RESULT:     -11.2      0.000      0.000
REMARK SMILES Cc1coc2cc3c(cc12)[C@@H](C)[C@H](CCC(=O)N[C@@H](Cc1c[nH]c2ccccc12)C(=O)OCCOC(=O)c1ccc(-c2c4nc(c(-c5c(F)cc(S(=O)(=O)[O-])cc5F)c5ccc([nH]5)c(-c5c(F)cc(S(=O)(=O)[O-])cc5F)c5nc(c(-c6c(F)cc(S(=O)(=O)[O-])cc6F)c6ccc2[nH]6)C=C5)C=C4)cc1)C(=O)O3
REMARK SMILES IDX 33 1 32 2 30 3 31 4 19 5 18 6 16 7 17 8 15 10 14 11 13 12
REMARK SMILES IDX 1 13 2 14 3 15 10 16 4 17 5 18 9 19 6 20 8 21 7 22 11 23
REMARK SMILES IDX 106 24 12 25 104 26 105 27 20 28 21 29 22 30 29 31 23 32
REMARK SMILES IDX 24 33 28 34 25 36 27 37 26 38 34 39 35 40 36 41 37 42 38 43
REMARK SMILES IDX 39 44 103 45 40 46 102 47 41 48 42 49 43 50 96 51 44 52
REMARK SMILES IDX 101 53 95 54 97 55 45 56 100 57 94 58 93 59 46 61 80 62
REMARK SMILES IDX 59 63 79 64 60 65 63 66 78 67 98 68 61 69 62 70 77 72 99 73
REMARK SMILES IDX 64 74 47 75 48 76 57 77 49 78 50 79 56 80 58 81 51 82 52 83
REMARK SMILES IDX 53 84 54 85 55 86 81 87 82 88 91 89 83 90 84 91 90 92 92 93
REMARK SMILES IDX 85 94 86 95 87 96 88 97 89 98 65 99 66 100 75 101 67 102
REMARK SMILES IDX 68 103 74 104 76 105 69 106 70 107 71 108 72 109 73 110
REMARK H PARENT 18 9 23 35 97 60 63 71
REMARK Flexibility Score: inf
ROOT
ATOM      1  C   UNL A   1      42.066  19.420  26.380  1.00  0.00     0.274 C 
ENDROOT
BRANCH   1   2
ATOM      2  O   UNL A   1      40.920  20.268  26.091  1.00  0.00    -0.461 OA
BRANCH   2   3
ATOM      3  C   UNL A   1      40.738  21.269  26.988  1.00  0.00     0.329 C 
ATOM      4  O   UNL A   1      40.733  21.087  28.205  1.00  0.00    -0.250 OA
BRANCH   3   5
ATOM      5  C   UNL A   1      40.470  22.672  26.409  1.00  0.00     0.196 C 
BRANCH   5   6
ATOM      6  N   UNL A   1      39.191  23.398  26.319  1.00  0.00    -0.342 N 
ATOM      7  C   UNL A   1      37.967  22.973  25.819  1.00  0.00     0.220 C 
ATOM      8  O   UNL A   1      37.115  23.847  25.623  1.00  0.00    -0.275 OA
ATOM      9  H   UNL A   1      39.206  24.321  26.664  1.00  0.00     0.164 HD
BRANCH   7  10
ATOM     10  C   UNL A   1      37.561  21.465  25.695  1.00  0.00     0.101 C 
BRANCH  10  11
ATOM     11  C   UNL A   1      36.371  20.907  24.774  1.00  0.00     0.026 C 
BRANCH  11  12
ATOM     12  C   UNL A   1      34.884  20.827  25.336  1.00  0.00     0.107 C 
ATOM     13  C   UNL A   1      32.371  28.443  26.858  1.00  0.00     0.048 C 
ATOM     14  C   UNL A   1      31.815  27.268  26.006  1.00  0.00    -0.005 A 
ATOM     15  C   UNL A   1      30.652  27.712  24.636  1.00  0.00     0.199 A 
ATOM     16  C   UNL A   1      31.952  25.228  25.988  1.00  0.00     0.024 A 
ATOM     17  O   UNL A   1      29.976  26.030  24.010  1.00  0.00    -0.464 OA
ATOM     18  C   UNL A   1      30.892  24.548  24.729  1.00  0.00     0.137 A 
ATOM     19  C   UNL A   1      32.897  24.104  26.128  1.00  0.00     0.020 A 
ATOM     20  C   UNL A   1      31.091  23.148  24.297  1.00  0.00     0.095 A 
ATOM     21  C   UNL A   1      33.127  22.802  25.630  1.00  0.00    -0.001 A 
ATOM     22  C   UNL A   1      32.229  22.340  24.740  1.00  0.00     0.138 A 
ATOM     23  C   UNL A   1      34.455  22.133  25.967  1.00  0.00     0.034 C 
ATOM     24  O   UNL A   1      32.560  21.025  24.252  1.00  0.00    -0.426 OA
ATOM     25  C   UNL A   1      34.631  21.831  27.422  1.00  0.00     0.014 C 
ATOM     26  C   UNL A   1      33.696  20.211  24.591  1.00  0.00     0.314 C 
ATOM     27  O   UNL A   1      33.693  19.000  24.367  1.00  0.00    -0.251 OA
ENDBRANCH  11  12
ENDBRANCH  10  11
ENDBRANCH   7  10
ENDBRANCH   5   6
BRANCH   5  28
ATOM     28  C   UNL A   1      41.599  23.576  26.946  1.00  0.00     0.074 C 
BRANCH  28  29
ATOM     29  C   UNL A   1      41.632  25.001  26.518  1.00  0.00    -0.020 A 
ATOM     30  C   UNL A   1      42.169  25.554  25.373  1.00  0.00     0.087 A 
ATOM     31  C   UNL A   1      40.907  26.043  27.173  1.00  0.00     0.003 A 
ATOM     32  N   UNL A   1      41.941  26.902  25.402  1.00  0.00    -0.361 N 
ATOM     33  C   UNL A   1      41.169  27.227  26.491  1.00  0.00     0.046 A 
ATOM     34  C   UNL A   1      40.023  26.069  28.270  1.00  0.00     0.010 A 
ATOM     35  H   UNL A   1      42.280  27.546  24.739  1.00  0.00     0.166 HD
ATOM     36  C   UNL A   1      40.654  28.458  26.901  1.00  0.00     0.026 A 
ATOM     37  C   UNL A   1      39.463  27.283  28.668  1.00  0.00     0.001 A 
ATOM     38  C   UNL A   1      39.795  28.462  28.005  1.00  0.00     0.002 A 
ENDBRANCH  28  29
ENDBRANCH   5  28
ENDBRANCH   3   5
ENDBRANCH   2   3
ENDBRANCH   1   2
BRANCH   1  39
ATOM     39  C   UNL A   1      43.195  19.631  25.369  1.00  0.00     0.275 C 
BRANCH  39  40
ATOM     40  O   UNL A   1      43.348  21.031  25.085  1.00  0.00    -0.458 OA
BRANCH  40  41
ATOM     41  C   UNL A   1      44.423  21.365  24.331  1.00  0.00     0.338 C 
ATOM     42  O   UNL A   1      44.529  21.283  23.120  1.00  0.00    -0.246 OA
BRANCH  41  43
ATOM     43  C   UNL A   1      45.215  22.269  25.184  1.00  0.00     0.060 A 
ATOM     44  C   UNL A   1      45.267  22.197  26.583  1.00  0.00     0.016 A 
ATOM     45  C   UNL A   1      45.656  23.399  24.528  1.00  0.00     0.016 A 
ATOM     46  C   UNL A   1      45.590  23.342  27.333  1.00  0.00     0.010 A 
ATOM     47  C   UNL A   1      45.883  24.528  25.283  1.00  0.00     0.010 A 
ATOM     48  C   UNL A   1      45.776  24.553  26.676  1.00  0.00    -0.014 A 
BRANCH  48  49
ATOM     49  C   UNL A   1      46.308  25.801  27.291  1.00  0.00     0.031 A 
ATOM     50  C   UNL A   1      44.720  26.449  27.956  1.00  0.00     0.074 A 
ATOM     51  C   UNL A   1      47.781  25.923  27.637  1.00  0.00     0.049 A 
ATOM     52  N   UNL A   1      44.143  27.582  27.729  1.00  0.00    -0.248 NA
ATOM     53  C   UNL A   1      43.896  25.940  29.135  1.00  0.00     0.031 C 
ATOM     54  C   UNL A   1      48.832  24.862  27.400  1.00  0.00     0.029 A 
ATOM     55  N   UNL A   1      48.660  26.728  28.546  1.00  0.00    -0.354 N 
ATOM     56  C   UNL A   1      43.855  28.249  29.008  1.00  0.00     0.074 A 
ATOM     57  C   UNL A   1      43.384  27.062  29.728  1.00  0.00     0.031 C 
ATOM     58  C   UNL A   1      49.864  24.889  28.318  1.00  0.00     0.029 A 
ATOM     59  C   UNL A   1      49.807  26.052  29.212  1.00  0.00     0.049 A 
ATOM     60  H   UNL A   1      48.482  27.684  28.700  1.00  0.00     0.167 HD
ATOM     61  C   UNL A   1      44.659  29.497  29.572  1.00  0.00     0.037 A 
ATOM     62  C   UNL A   1      50.613  26.380  30.350  1.00  0.00     0.037 A 
ATOM     63  C   UNL A   1      46.445  30.319  28.819  1.00  0.00     0.049 A 
ATOM     64  C   UNL A   1      50.652  27.841  30.413  1.00  0.00     0.074 A 
ATOM     65  C   UNL A   1      46.868  31.064  27.481  1.00  0.00     0.029 A 
ATOM     66  N   UNL A   1      47.793  30.706  29.287  1.00  0.00    -0.354 N 
ATOM     67  N   UNL A   1      51.307  28.576  29.571  1.00  0.00    -0.248 NA
ATOM     68  C   UNL A   1      49.943  28.550  31.465  1.00  0.00     0.031 C 
ATOM     69  C   UNL A   1      48.044  30.458  27.097  1.00  0.00     0.029 A 
ATOM     70  C   UNL A   1      48.729  30.446  28.274  1.00  0.00     0.049 A 
ATOM     71  H   UNL A   1      48.002  31.086  30.171  1.00  0.00     0.167 HD
ATOM     72  C   UNL A   1      50.576  29.723  29.599  1.00  0.00     0.074 A 
ATOM     73  C   UNL A   1      49.920  29.753  30.899  1.00  0.00     0.031 C 
ATOM     74  C   UNL A   1      50.119  30.145  28.404  1.00  0.00     0.037 A 
BRANCH  61  75
ATOM     75  C   UNL A   1      43.671  30.157  30.904  1.00  0.00     0.058 A 
ATOM     76  C   UNL A   1      43.858  29.690  32.249  1.00  0.00     0.135 A 
ATOM     77  C   UNL A   1      42.386  30.666  30.647  1.00  0.00     0.135 A 
ATOM     78  F   UNL A   1      45.073  29.380  32.726  1.00  0.00    -0.206 F 
ATOM     79  C   UNL A   1      42.788  29.382  33.094  1.00  0.00     0.059 A 
ATOM     80  C   UNL A   1      41.307  30.446  31.525  1.00  0.00     0.059 A 
ATOM     81  F   UNL A   1      42.124  31.298  29.495  1.00  0.00    -0.206 F 
ATOM     82  C   UNL A   1      41.503  29.712  32.697  1.00  0.00     0.060 A 
BRANCH  82  83
ATOM     83  S   UNL A   1      40.121  29.191  33.746  1.00  0.00     0.124 S 
ATOM     84  O   UNL A   1      39.233  30.346  33.675  1.00  0.00    -0.237 OA
ATOM     85  O   UNL A   1      39.647  27.989  33.063  1.00  0.00    -0.237 OA
ATOM     86  O   UNL A   1      40.755  28.958  35.039  1.00  0.00    -0.744 OA
ENDBRANCH  82  83
ENDBRANCH  61  75
BRANCH  62  87
ATOM     87  C   UNL A   1      51.584  25.861  31.549  1.00  0.00     0.058 A 
ATOM     88  C   UNL A   1      51.101  25.087  32.683  1.00  0.00     0.135 A 
ATOM     89  C   UNL A   1      52.968  25.679  31.367  1.00  0.00     0.135 A 
ATOM     90  F   UNL A   1      49.799  25.094  33.011  1.00  0.00    -0.206 F 
ATOM     91  C   UNL A   1      51.890  24.211  33.491  1.00  0.00     0.059 A 
ATOM     92  C   UNL A   1      53.782  24.813  32.173  1.00  0.00     0.059 A 
ATOM     93  F   UNL A   1      53.579  26.274  30.335  1.00  0.00    -0.206 F 
ATOM     94  C   UNL A   1      53.239  24.064  33.220  1.00  0.00     0.060 A 
BRANCH  94  95
ATOM     95  S   UNL A   1      54.243  22.860  34.179  1.00  0.00     0.124 S 
ATOM     96  O   UNL A   1      53.463  22.697  35.403  1.00  0.00    -0.237 OA
ATOM     97  O   UNL A   1      54.278  21.692  33.304  1.00  0.00    -0.237 OA
ATOM     98  O   UNL A   1      55.523  23.543  34.353  1.00  0.00    -0.744 OA
ENDBRANCH  94  95
ENDBRANCH  62  87
BRANCH  74  99
ATOM     99  C   UNL A   1      50.908  29.891  27.106  1.00  0.00     0.058 A 
ATOM    100  C   UNL A   1      50.714  28.824  26.201  1.00  0.00     0.135 A 
ATOM    101  C   UNL A   1      51.752  30.922  26.649  1.00  0.00     0.135 A 
ATOM    102  F   UNL A   1      49.864  27.826  26.456  1.00  0.00    -0.206 F 
ATOM    103  C   UNL A   1      51.344  28.765  24.951  1.00  0.00     0.059 A 
ATOM    104  C   UNL A   1      52.366  30.900  25.393  1.00  0.00     0.059 A 
ATOM    105  F   UNL A   1      51.927  32.022  27.400  1.00  0.00    -0.206 F 
ATOM    106  C   UNL A   1      52.173  29.806  24.554  1.00  0.00     0.060 A 
BRANCH 106 107
ATOM    107  S   UNL A   1      52.976  29.721  22.939  1.00  0.00     0.124 S 
ATOM    108  O   UNL A   1      53.614  28.409  22.982  1.00  0.00    -0.237 OA
ATOM    109  O   UNL A   1      51.852  29.849  22.016  1.00  0.00    -0.237 OA
ATOM    110  O   UNL A   1      53.892  30.859  22.953  1.00  0.00    -0.744 OA
ENDBRANCH 106 107
ENDBRANCH  74  99
ENDBRANCH  48  49
ENDBRANCH  41  43
ENDBRANCH  40  41
ENDBRANCH  39  40
ENDBRANCH   1  39
TORSDOF 20
ENDMDL
MODEL 2
REMARK VINA RESULT:     -11.1      5.886     12.406
REMARK SMILES Cc1coc2cc3c(cc12)[C@@H](C)[C@H](CCC(=O)N[C@@H](Cc1c[nH]c2ccccc12)C(=O)OCCOC(=O)c1ccc(-c2c4nc(c(-c5c(F)cc(S(=O)(=O)[O-])cc5F)c5ccc([nH]5)c(-c5c(F)cc(S(=O)(=O)[O-])cc5F)c5nc(c(-c6c(F)cc(S(=O)(=O)[O-])cc6F)c6ccc2[nH]6)C=C5)C=C4)cc1)C(=O)O3
REMARK SMILES IDX 33 1 32 2 30 3 31 4 19 5 18 6 16 7 17 8 15 10 14 11 13 12
REMARK SMILES IDX 1 13 2 14 3 15 10 16 4 17 5 18 9 19 6 20 8 21 7 22 11 23
REMARK SMILES IDX 106 24 12 25 104 26 105 27 20 28 21 29 22 30 29 31 23 32
REMARK SMILES IDX 24 33 28 34 25 36 27 37 26 38 34 39 35 40 36 41 37 42 38 43
REMARK SMILES IDX 39 44 103 45 40 46 102 47 41 48 42 49 43 50 96 51 44 52
REMARK SMILES IDX 101 53 95 54 97 55 45 56 100 57 94 58 93 59 46 61 80 62
REMARK SMILES IDX 59 63 79 64 60 65 63 66 78 67 98 68 61 69 62 70 77 72 99 73
REMARK SMILES IDX 64 74 47 75 48 76 57 77 49 78 50 79 56 80 58 81 51 82 52 83
REMARK SMILES IDX 53 84 54 85 55 86 81 87 82 88 91 89 83 90 84 91 90 92 92 93
REMARK SMILES IDX 85 94 86 95 87 96 88 97 89 98 65 99 66 100 75 101 67 102
REMARK SMILES IDX 68 103 74 104 76 105 69 106 70 107 71 108 72 109 73 110
REMARK H PARENT 18 9 23 35 97 60 63 71
REMARK Flexibility Score: inf
ROOT
ATOM      1  C   UNL A   1      35.678  33.145  31.817  1.00  0.00     0.274 C 
ENDROOT
BRANCH   1   2
ATOM      2  O   UNL A   1      35.975  32.171  32.854  1.00  0.00    -0.461 OA
BRANCH   2   3
ATOM      3  C   UNL A   1      37.221  32.287  33.376  1.00  0.00     0.329 C 
ATOM      4  O   UNL A   1      37.645  31.555  34.270  1.00  0.00    -0.250 OA
BRANCH   3   5
ATOM      5  C   UNL A   1      38.089  33.440  32.836  1.00  0.00     0.196 C 
BRANCH   5   6
ATOM      6  N   UNL A   1      38.498  34.679  33.522  1.00  0.00    -0.342 N 
ATOM      7  C   UNL A   1      39.175  34.841  34.723  1.00  0.00     0.220 C 
ATOM      8  O   UNL A   1      39.178  35.979  35.208  1.00  0.00    -0.275 OA
ATOM      9  H   UNL A   1      38.257  35.515  33.059  1.00  0.00     0.164 HD
BRANCH   7  10
ATOM     10  C   UNL A   1      40.079  33.733  35.363  1.00  0.00     0.101 C 
BRANCH  10  11
ATOM     11  C   UNL A   1      41.181  33.991  36.501  1.00  0.00     0.026 C 
BRANCH  11  12
ATOM     12  C   UNL A   1      40.739  34.311  37.996  1.00  0.00     0.107 C 
ATOM     13  C   UNL A   1      43.785  41.613  40.001  1.00  0.00     0.048 C 
ATOM     14  C   UNL A   1      42.359  40.995  40.006  1.00  0.00    -0.005 A 
ATOM     15  C   UNL A   1      40.939  42.181  39.951  1.00  0.00     0.199 A 
ATOM     16  C   UNL A   1      41.530  39.130  40.126  1.00  0.00     0.024 A 
ATOM     17  O   UNL A   1      39.388  41.094  40.250  1.00  0.00    -0.464 OA
ATOM     18  C   UNL A   1      39.754  39.246  40.192  1.00  0.00     0.137 A 
ATOM     19  C   UNL A   1      41.654  37.746  39.631  1.00  0.00     0.020 A 
ATOM     20  C   UNL A   1      38.942  38.040  39.924  1.00  0.00     0.095 A 
ATOM     21  C   UNL A   1      40.855  36.634  39.286  1.00  0.00    -0.001 A 
ATOM     22  C   UNL A   1      39.526  36.786  39.443  1.00  0.00     0.138 A 
ATOM     23  C   UNL A   1      41.527  35.464  38.577  1.00  0.00     0.034 C 
ATOM     24  O   UNL A   1      38.783  35.623  39.029  1.00  0.00    -0.426 OA
ATOM     25  C   UNL A   1      42.532  34.741  39.418  1.00  0.00     0.014 C 
ATOM     26  C   UNL A   1      39.289  34.392  38.483  1.00  0.00     0.314 C 
ATOM     27  O   UNL A   1      38.598  33.373  38.480  1.00  0.00    -0.251 OA
ENDBRANCH  11  12
ENDBRANCH  10  11
ENDBRANCH   7  10
ENDBRANCH   5   6
BRANCH   5  28
ATOM     28  C   UNL A   1      39.277  32.774  32.111  1.00  0.00     0.074 C 
BRANCH  28  29
ATOM     29  C   UNL A   1      40.100  33.603  31.187  1.00  0.00    -0.020 A 
ATOM     30  C   UNL A   1      39.698  34.363  30.109  1.00  0.00     0.087 A 
ATOM     31  C   UNL A   1      41.480  33.901  31.406  1.00  0.00     0.003 A 
ATOM     32  N   UNL A   1      40.805  34.966  29.576  1.00  0.00    -0.361 N 
ATOM     33  C   UNL A   1      41.906  34.702  30.352  1.00  0.00     0.046 A 
ATOM     34  C   UNL A   1      42.391  33.582  32.433  1.00  0.00     0.010 A 
ATOM     35  H   UNL A   1      40.810  35.511  28.755  1.00  0.00     0.166 HD
ATOM     36  C   UNL A   1      43.227  35.137  30.228  1.00  0.00     0.026 A 
ATOM     37  C   UNL A   1      43.704  34.044  32.349  1.00  0.00     0.001 A 
ATOM     38  C   UNL A   1      44.119  34.791  31.249  1.00  0.00     0.002 A 
ENDBRANCH  28  29
ENDBRANCH   5  28
ENDBRANCH   3   5
ENDBRANCH   2   3
ENDBRANCH   1   2
BRANCH   1  39
ATOM     39  C   UNL A   1      34.538  32.676  30.909  1.00  0.00     0.275 C 
BRANCH  39  40
ATOM     40  O   UNL A   1      34.912  32.826  29.531  1.00  0.00    -0.458 OA
BRANCH  40  41
ATOM     41  C   UNL A   1      34.664  31.758  28.734  1.00  0.00     0.338 C 
ATOM     42  O   UNL A   1      33.742  31.621  27.949  1.00  0.00    -0.246 OA
BRANCH  41  43
ATOM     43  C   UNL A   1      35.950  31.042  28.652  1.00  0.00     0.060 A 
ATOM     44  C   UNL A   1      36.099  29.657  28.813  1.00  0.00     0.016 A 
ATOM     45  C   UNL A   1      37.049  31.873  28.721  1.00  0.00     0.016 A 
ATOM     46  C   UNL A   1      37.332  29.128  29.233  1.00  0.00     0.010 A 
ATOM     47  C   UNL A   1      38.220  31.343  29.215  1.00  0.00     0.010 A 
ATOM     48  C   UNL A   1      38.368  29.997  29.558  1.00  0.00    -0.014 A 
BRANCH  48  49
ATOM     49  C   UNL A   1      39.778  29.603  29.827  1.00  0.00     0.031 A 
ATOM     50  C   UNL A   1      39.575  29.130  31.593  1.00  0.00     0.074 A 
ATOM     51  C   UNL A   1      40.705  29.229  28.684  1.00  0.00     0.049 A 
ATOM     52  N   UNL A   1      40.189  29.585  32.635  1.00  0.00    -0.248 NA
ATOM     53  C   UNL A   1      38.875  27.911  32.184  1.00  0.00     0.031 C 
ATOM     54  C   UNL A   1      40.337  29.225  27.217  1.00  0.00     0.029 A 
ATOM     55  N   UNL A   1      41.969  28.451  28.469  1.00  0.00    -0.354 N 
ATOM     56  C   UNL A   1      40.771  28.463  33.387  1.00  0.00     0.074 A 
ATOM     57  C   UNL A   1      39.626  27.555  33.271  1.00  0.00     0.031 C 
ATOM     58  C   UNL A   1      41.030  28.289  26.475  1.00  0.00     0.029 A 
ATOM     59  C   UNL A   1      42.098  27.628  27.236  1.00  0.00     0.049 A 
ATOM     60  H   UNL A   1      42.697  28.483  29.130  1.00  0.00     0.167 HD
ATOM     61  C   UNL A   1      42.319  28.109  33.417  1.00  0.00     0.037 A 
ATOM     62  C   UNL A   1      42.954  26.540  26.867  1.00  0.00     0.037 A 
ATOM     63  C   UNL A   1      43.847  28.932  32.226  1.00  0.00     0.049 A 
ATOM     64  C   UNL A   1      44.208  26.747  27.592  1.00  0.00     0.074 A 
ATOM     65  C   UNL A   1      44.512  30.367  32.075  1.00  0.00     0.029 A 
ATOM     66  N   UNL A   1      44.948  28.491  31.341  1.00  0.00    -0.354 N 
ATOM     67  N   UNL A   1      45.055  27.684  27.303  1.00  0.00    -0.248 NA
ATOM     68  C   UNL A   1      44.573  25.871  28.694  1.00  0.00     0.031 C 
ATOM     69  C   UNL A   1      44.572  30.586  30.717  1.00  0.00     0.029 A 
ATOM     70  C   UNL A   1      45.084  29.402  30.282  1.00  0.00     0.049 A 
ATOM     71  H   UNL A   1      45.498  27.686  31.473  1.00  0.00     0.167 HD
ATOM     72  C   UNL A   1      45.634  27.896  28.515  1.00  0.00     0.074 A 
ATOM     73  C   UNL A   1      45.492  26.650  29.256  1.00  0.00     0.031 C 
ATOM     74  C   UNL A   1      45.583  29.166  28.965  1.00  0.00     0.037 A 
BRANCH  61  75
ATOM     75  C   UNL A   1      42.534  26.961  34.767  1.00  0.00     0.058 A 
ATOM     76  C   UNL A   1      42.358  27.393  36.125  1.00  0.00     0.135 A 
ATOM     77  C   UNL A   1      43.386  25.851  34.624  1.00  0.00     0.135 A 
ATOM     78  F   UNL A   1      41.416  28.286  36.464  1.00  0.00    -0.206 F 
ATOM     79  C   UNL A   1      43.240  27.037  37.148  1.00  0.00     0.059 A 
ATOM     80  C   UNL A   1      44.224  25.415  35.669  1.00  0.00     0.059 A 
ATOM     81  F   UNL A   1      43.500  25.230  33.442  1.00  0.00    -0.206 F 
ATOM     82  C   UNL A   1      44.213  26.085  36.894  1.00  0.00     0.060 A 
BRANCH  82  83
ATOM     83  S   UNL A   1      45.426  25.731  38.192  1.00  0.00     0.124 S 
ATOM     84  O   UNL A   1      46.679  25.726  37.444  1.00  0.00    -0.237 OA
ATOM     85  O   UNL A   1      45.243  26.855  39.106  1.00  0.00    -0.237 OA
ATOM     86  O   UNL A   1      44.992  24.437  38.708  1.00  0.00    -0.744 OA
ENDBRANCH  82  83
ENDBRANCH  61  75
BRANCH  62  87
ATOM     87  C   UNL A   1      43.195  25.229  25.933  1.00  0.00     0.058 A 
ATOM     88  C   UNL A   1      44.386  25.044  25.117  1.00  0.00     0.135 A 
ATOM     89  C   UNL A   1      42.566  23.997  26.193  1.00  0.00     0.135 A 
ATOM     90  F   UNL A   1      45.154  26.092  24.780  1.00  0.00    -0.206 F 
ATOM     91  C   UNL A   1      44.902  23.789  24.668  1.00  0.00     0.059 A 
ATOM     92  C   UNL A   1      43.060  22.726  25.744  1.00  0.00     0.059 A 
ATOM     93  F   UNL A   1      41.480  23.966  26.976  1.00  0.00    -0.206 F 
ATOM     94  C   UNL A   1      44.238  22.620  25.000  1.00  0.00     0.060 A 
BRANCH  94  95
ATOM     95  S   UNL A   1      44.947  20.993  24.524  1.00  0.00     0.124 S 
ATOM     96  O   UNL A   1      44.252  20.068  25.416  1.00  0.00    -0.237 OA
ATOM     97  O   UNL A   1      44.591  20.881  23.112  1.00  0.00    -0.237 OA
ATOM     98  O   UNL A   1      46.374  21.149  24.794  1.00  0.00    -0.744 OA
ENDBRANCH  94  95
ENDBRANCH  62  87
BRANCH  74  99
ATOM     99  C   UNL A   1      45.609  30.363  27.996  1.00  0.00     0.058 A 
ATOM    100  C   UNL A   1      44.487  31.014  27.438  1.00  0.00     0.135 A 
ATOM    101  C   UNL A   1      46.840  31.020  27.813  1.00  0.00     0.135 A 
ATOM    102  F   UNL A   1      43.244  30.561  27.618  1.00  0.00    -0.206 F 
ATOM    103  C   UNL A   1      44.586  32.210  26.716  1.00  0.00     0.059 A 
ATOM    104  C   UNL A   1      46.959  32.231  27.123  1.00  0.00     0.059 A 
ATOM    105  F   UNL A   1      47.952  30.526  28.383  1.00  0.00    -0.206 F 
ATOM    106  C   UNL A   1      45.828  32.812  26.558  1.00  0.00     0.060 A 
BRANCH 106 107
ATOM    107  S   UNL A   1      45.944  34.355  25.628  1.00  0.00     0.124 S 
ATOM    108  O   UNL A   1      45.014  34.121  24.528  1.00  0.00    -0.237 OA
ATOM    109  O   UNL A   1      45.524  35.353  26.609  1.00  0.00    -0.237 OA
ATOM    110  O   UNL A   1      47.353  34.421  25.248  1.00  0.00    -0.744 OA
ENDBRANCH 106 107
ENDBRANCH  74  99
ENDBRANCH  48  49
ENDBRANCH  41  43
ENDBRANCH  40  41
ENDBRANCH  39  40
ENDBRANCH   1  39
TORSDOF 20
ENDMDL
MODEL 3
REMARK VINA RESULT:     -11.0      5.331     13.669
REMARK SMILES Cc1coc2cc3c(cc12)[C@@H](C)[C@H](CCC(=O)N[C@@H](Cc1c[nH]c2ccccc12)C(=O)OCCOC(=O)c1ccc(-c2c4nc(c(-c5c(F)cc(S(=O)(=O)[O-])cc5F)c5ccc([nH]5)c(-c5c(F)cc(S(=O)(=O)[O-])cc5F)c5nc(c(-c6c(F)cc(S(=O)(=O)[O-])cc6F)c6ccc2[nH]6)C=C5)C=C4)cc1)C(=O)O3
REMARK SMILES IDX 33 1 32 2 30 3 31 4 19 5 18 6 16 7 17 8 15 10 14 11 13 12
REMARK SMILES IDX 1 13 2 14 3 15 10 16 4 17 5 18 9 19 6 20 8 21 7 22 11 23
REMARK SMILES IDX 106 24 12 25 104 26 105 27 20 28 21 29 22 30 29 31 23 32
REMARK SMILES IDX 24 33 28 34 25 36 27 37 26 38 34 39 35 40 36 41 37 42 38 43
REMARK SMILES IDX 39 44 103 45 40 46 102 47 41 48 42 49 43 50 96 51 44 52
REMARK SMILES IDX 101 53 95 54 97 55 45 56 100 57 94 58 93 59 46 61 80 62
REMARK SMILES IDX 59 63 79 64 60 65 63 66 78 67 98 68 61 69 62 70 77 72 99 73
REMARK SMILES IDX 64 74 47 75 48 76 57 77 49 78 50 79 56 80 58 81 51 82 52 83
REMARK SMILES IDX 53 84 54 85 55 86 81 87 82 88 91 89 83 90 84 91 90 92 92 93
REMARK SMILES IDX 85 94 86 95 87 96 88 97 89 98 65 99 66 100 75 101 67 102
REMARK SMILES IDX 68 103 74 104 76 105 69 106 70 107 71 108 72 109 73 110
REMARK H PARENT 18 9 23 35 97 60 63 71
REMARK Flexibility Score: inf
ROOT
ATOM      1  C   UNL A   1      48.207  24.731  39.084  1.00  0.00     0.274 C 
ENDROOT
BRANCH   1   2
ATOM      2  O   UNL A   1      48.381  23.386  38.559  1.00  0.00    -0.461 OA
BRANCH   2   3
ATOM      3  C   UNL A   1      48.990  22.535  39.420  1.00  0.00     0.329 C 
ATOM      4  O   UNL A   1      49.204  22.813  40.600  1.00  0.00    -0.250 OA
BRANCH   3   5
ATOM      5  C   UNL A   1      49.473  21.192  38.837  1.00  0.00     0.196 C 
BRANCH   5   6
ATOM      6  N   UNL A   1      48.849  19.863  38.956  1.00  0.00    -0.342 N 
ATOM      7  C   UNL A   1      47.622  19.417  38.484  1.00  0.00     0.220 C 
ATOM      8  O   UNL A   1      47.216  18.337  38.929  1.00  0.00    -0.275 OA
ATOM      9  H   UNL A   1      49.382  19.191  39.442  1.00  0.00     0.164 HD
BRANCH   7  10
ATOM     10  C   UNL A   1      46.853  20.095  37.299  1.00  0.00     0.101 C 
BRANCH  10  11
ATOM     11  C   UNL A   1      46.643  19.444  35.848  1.00  0.00     0.026 C 
BRANCH  11  12
ATOM     12  C   UNL A   1      47.094  20.228  34.538  1.00  0.00     0.107 C 
ATOM     13  C   UNL A   1      49.436  27.716  36.787  1.00  0.00     0.048 C 
ATOM     14  C   UNL A   1      50.109  26.564  35.992  1.00  0.00    -0.005 A 
ATOM     15  C   UNL A   1      51.959  26.569  35.926  1.00  0.00     0.199 A 
ATOM     16  C   UNL A   1      49.511  24.965  34.866  1.00  0.00     0.024 A 
ATOM     17  O   UNL A   1      52.403  25.200  34.659  1.00  0.00    -0.464 OA
ATOM     18  C   UNL A   1      50.924  24.144  34.157  1.00  0.00     0.137 A 
ATOM     19  C   UNL A   1      48.544  23.852  34.812  1.00  0.00     0.020 A 
ATOM     20  C   UNL A   1      50.766  22.779  33.612  1.00  0.00     0.095 A 
ATOM     21  C   UNL A   1      48.443  22.514  34.371  1.00  0.00    -0.001 A 
ATOM     22  C   UNL A   1      49.537  22.001  33.775  1.00  0.00     0.138 A 
ATOM     23  C   UNL A   1      47.216  21.714  34.792  1.00  0.00     0.034 C 
ATOM     24  O   UNL A   1      49.364  20.622  33.396  1.00  0.00    -0.426 OA
ATOM     25  C   UNL A   1      45.933  22.219  34.209  1.00  0.00     0.014 C 
ATOM     26  C   UNL A   1      48.212  19.783  33.591  1.00  0.00     0.314 C 
ATOM     27  O   UNL A   1      48.069  18.747  32.940  1.00  0.00    -0.251 OA
ENDBRANCH  11  12
ENDBRANCH  10  11
ENDBRANCH   7  10
ENDBRANCH   5   6
BRANCH   5  28
ATOM     28  C   UNL A   1      49.901  21.490  37.384  1.00  0.00     0.074 C 
BRANCH  28  29
ATOM     29  C   UNL A   1      50.895  20.590  36.738  1.00  0.00    -0.020 A 
ATOM     30  C   UNL A   1      50.716  19.323  36.221  1.00  0.00     0.087 A 
ATOM     31  C   UNL A   1      52.212  21.000  36.368  1.00  0.00     0.003 A 
ATOM     32  N   UNL A   1      51.911  18.898  35.709  1.00  0.00    -0.361 N 
ATOM     33  C   UNL A   1      52.842  19.905  35.784  1.00  0.00     0.046 A 
ATOM     34  C   UNL A   1      52.907  22.223  36.450  1.00  0.00     0.010 A 
ATOM     35  H   UNL A   1      52.079  18.000  35.341  1.00  0.00     0.166 HD
ATOM     36  C   UNL A   1      54.168  19.947  35.350  1.00  0.00     0.026 A 
ATOM     37  C   UNL A   1      54.219  22.296  35.981  1.00  0.00     0.001 A 
ATOM     38  C   UNL A   1      54.845  21.166  35.461  1.00  0.00     0.002 A 
ENDBRANCH  28  29
ENDBRANCH   5  28
ENDBRANCH   3   5
ENDBRANCH   2   3
ENDBRANCH   1   2
BRANCH   1  39
ATOM     39  C   UNL A   1      46.730  25.129  39.141  1.00  0.00     0.275 C 
BRANCH  39  40
ATOM     40  O   UNL A   1      46.259  25.465  37.827  1.00  0.00    -0.458 OA
BRANCH  40  41
ATOM     41  C   UNL A   1      45.652  24.464  37.146  1.00  0.00     0.338 C 
ATOM     42  O   UNL A   1      45.313  23.376  37.578  1.00  0.00    -0.246 OA
BRANCH  41  43
ATOM     43  C   UNL A   1      45.065  25.116  35.961  1.00  0.00     0.060 A 
ATOM     44  C   UNL A   1      43.822  24.781  35.405  1.00  0.00     0.016 A 
ATOM     45  C   UNL A   1      45.970  25.868  35.241  1.00  0.00     0.016 A 
ATOM     46  C   UNL A   1      43.565  25.046  34.048  1.00  0.00     0.010 A 
ATOM     47  C   UNL A   1      45.731  26.037  33.895  1.00  0.00     0.010 A 
ATOM     48  C   UNL A   1      44.582  25.566  33.255  1.00  0.00    -0.014 A 
BRANCH  48  49
ATOM     49  C   UNL A   1      44.421  26.080  31.867  1.00  0.00     0.031 A 
ATOM     50  C   UNL A   1      44.577  24.473  30.985  1.00  0.00     0.074 A 
ATOM     51  C   UNL A   1      43.750  27.417  31.612  1.00  0.00     0.049 A 
ATOM     52  N   UNL A   1      45.414  24.126  30.063  1.00  0.00    -0.248 NA
ATOM     53  C   UNL A   1      43.587  23.314  30.921  1.00  0.00     0.031 C 
ATOM     54  C   UNL A   1      43.207  28.346  32.675  1.00  0.00     0.029 A 
ATOM     55  N   UNL A   1      43.051  28.131  30.494  1.00  0.00    -0.354 N 
ATOM     56  C   UNL A   1      44.675  23.609  28.902  1.00  0.00     0.074 A 
ATOM     57  C   UNL A   1      43.693  22.818  29.651  1.00  0.00     0.031 C 
ATOM     58  C   UNL A   1      42.131  29.101  32.253  1.00  0.00     0.029 A 
ATOM     59  C   UNL A   1      41.864  28.969  30.815  1.00  0.00     0.049 A 
ATOM     60  H   UNL A   1      43.370  28.046  29.567  1.00  0.00     0.167 HD
ATOM     61  C   UNL A   1      44.479  24.397  27.537  1.00  0.00     0.037 A 
ATOM     62  C   UNL A   1      40.788  29.491  30.026  1.00  0.00     0.037 A 
ATOM     63  C   UNL A   1      44.958  26.408  27.137  1.00  0.00     0.049 A 
ATOM     64  C   UNL A   1      41.335  29.703  28.685  1.00  0.00     0.074 A 
ATOM     65  C   UNL A   1      46.300  27.254  27.056  1.00  0.00     0.029 A 
ATOM     66  N   UNL A   1      44.328  27.629  26.590  1.00  0.00    -0.354 N 
ATOM     67  N   UNL A   1      42.179  30.643  28.397  1.00  0.00    -0.248 NA
ATOM     68  C   UNL A   1      40.930  28.847  27.582  1.00  0.00     0.031 C 
ATOM     69  C   UNL A   1      46.037  28.400  27.775  1.00  0.00     0.029 A 
ATOM     70  C   UNL A   1      44.822  28.752  27.273  1.00  0.00     0.049 A 
ATOM     71  H   UNL A   1      43.666  27.652  25.862  1.00  0.00     0.167 HD
ATOM     72  C   UNL A   1      42.845  30.086  27.350  1.00  0.00     0.074 A 
ATOM     73  C   UNL A   1      41.928  29.128  26.750  1.00  0.00     0.031 C 
ATOM     74  C   UNL A   1      44.184  30.010  27.493  1.00  0.00     0.037 A 
BRANCH  61  75
ATOM     75  C   UNL A   1      43.893  23.195  26.355  1.00  0.00     0.058 A 
ATOM     76  C   UNL A   1      42.561  22.668  26.452  1.00  0.00     0.135 A 
ATOM     77  C   UNL A   1      44.802  22.342  25.704  1.00  0.00     0.135 A 
ATOM     78  F   UNL A   1      41.527  23.431  26.840  1.00  0.00    -0.206 F 
ATOM     79  C   UNL A   1      42.277  21.308  26.302  1.00  0.00     0.059 A 
ATOM     80  C   UNL A   1      44.507  20.986  25.460  1.00  0.00     0.059 A 
ATOM     81  F   UNL A   1      46.029  22.773  25.382  1.00  0.00    -0.206 F 
ATOM     82  C   UNL A   1      43.277  20.459  25.859  1.00  0.00     0.060 A 
BRANCH  82  83
ATOM     83  S   UNL A   1      42.927  18.683  25.793  1.00  0.00     0.124 S 
ATOM     84  O   UNL A   1      43.447  18.223  27.076  1.00  0.00    -0.237 OA
ATOM     85  O   UNL A   1      41.473  18.656  25.657  1.00  0.00    -0.237 OA
ATOM     86  O   UNL A   1      43.667  18.242  24.616  1.00  0.00    -0.744 OA
ENDBRANCH  82  83
ENDBRANCH  61  75
BRANCH  62  87
ATOM     87  C   UNL A   1      39.259  30.045  29.971  1.00  0.00     0.058 A 
ATOM     88  C   UNL A   1      38.927  31.462  29.951  1.00  0.00     0.135 A 
ATOM     89  C   UNL A   1      38.200  29.272  29.457  1.00  0.00     0.135 A 
ATOM     90  F   UNL A   1      39.815  32.378  30.370  1.00  0.00    -0.206 F 
ATOM     91  C   UNL A   1      37.719  32.028  29.438  1.00  0.00     0.059 A 
ATOM     92  C   UNL A   1      36.974  29.819  28.946  1.00  0.00     0.059 A 
ATOM     93  F   UNL A   1      38.347  27.946  29.348  1.00  0.00    -0.206 F 
ATOM     94  C   UNL A   1      36.743  31.196  28.917  1.00  0.00     0.060 A 
BRANCH  94  95
ATOM     95  S   UNL A   1      35.234  31.916  28.155  1.00  0.00     0.124 S 
ATOM     96  O   UNL A   1      35.755  33.092  27.464  1.00  0.00    -0.237 OA
ATOM     97  O   UNL A   1      34.763  30.841  27.286  1.00  0.00    -0.237 OA
ATOM     98  O   UNL A   1      34.377  32.208  29.301  1.00  0.00    -0.744 OA
ENDBRANCH  94  95
ENDBRANCH  62  87
BRANCH  74  99
ATOM     99  C   UNL A   1      44.967  31.066  28.294  1.00  0.00     0.058 A 
ATOM    100  C   UNL A   1      45.409  30.948  29.630  1.00  0.00     0.135 A 
ATOM    101  C   UNL A   1      45.491  32.162  27.582  1.00  0.00     0.135 A 
ATOM    102  F   UNL A   1      45.076  29.906  30.396  1.00  0.00    -0.206 F 
ATOM    103  C   UNL A   1      46.276  31.872  30.228  1.00  0.00     0.059 A 
ATOM    104  C   UNL A   1      46.382  33.080  28.147  1.00  0.00     0.059 A 
ATOM    105  F   UNL A   1      45.200  32.310  26.278  1.00  0.00    -0.206 F 
ATOM    106  C   UNL A   1      46.756  32.940  29.480  1.00  0.00     0.060 A 
BRANCH 106 107
ATOM    107  S   UNL A   1      47.875  34.124  30.259  1.00  0.00     0.124 S 
ATOM    108  O   UNL A   1      48.508  34.754  29.104  1.00  0.00    -0.237 OA
ATOM    109  O   UNL A   1      46.963  34.972  31.021  1.00  0.00    -0.237 OA
ATOM    110  O   UNL A   1      48.754  33.283  31.068  1.00  0.00    -0.744 OA
ENDBRANCH 106 107
ENDBRANCH  74  99
ENDBRANCH  48  49
ENDBRANCH  41  43
ENDBRANCH  40  41
ENDBRANCH  39  40
ENDBRANCH   1  39
TORSDOF 20
ENDMDL
