MODEL 1
REMARK VINA RESULT:     -11.2      0.000      0.000
REMARK SMILES O=C(OCCOC(=O)[C@H]1[C@@H](C(=O)Nc2cc(F)ccc2F)[C@@H]2C=C[C@H]1O2)c1ccc(-c2c3nc(c(-c4c(F)cc(S(=O)(=O)[O-])cc4F)c4ccc([nH]4)c(-c4c(F)cc(S(=O)(=O)[O-])cc4F)c4nc(c(-c5c(F)cc(S(=O)(=O)[O-])cc5F)c5ccc2[nH]5)C=C4)C=C3)cc1
REMARK SMILES IDX 4 1 3 2 2 3 1 4 27 5 28 6 92 7 29 8 91 9 30 10 31 11 32 12
REMARK SMILES IDX 85 13 33 14 90 15 84 16 86 17 34 18 89 19 83 20 82 21 35 23
REMARK SMILES IDX 69 24 48 25 68 26 49 27 52 28 67 29 87 30 50 31 51 32 66 34
REMARK SMILES IDX 88 35 53 36 36 37 37 38 46 39 38 40 39 41 45 42 47 43 40 44
REMARK SMILES IDX 41 45 42 46 43 47 44 48 70 49 71 50 80 51 72 52 73 53 79 54
REMARK SMILES IDX 81 55 74 56 75 57 76 58 77 59 78 60 54 61 55 62 64 63 56 64
REMARK SMILES IDX 57 65 63 66 65 67 58 68 59 69 60 70 61 71 62 72 5 73 6 74
REMARK SMILES IDX 7 75 8 76 9 77 10 78 25 79 22 80 24 81 26 82 23 83 11 84
REMARK SMILES IDX 12 85 13 86 14 88 15 89 20 90 16 91 19 92 21 93 17 94 18 95
REMARK H PARENT 86 22 52 33 13 87
REMARK Flexibility Score: inf
ROOT
ATOM      1  C   UNL A   1      32.323  30.140  26.822  1.00  0.00     0.275 C 
ENDROOT
BRANCH   1   2
ATOM      2  O   UNL A   1      33.755  30.183  26.852  1.00  0.00    -0.458 OA
BRANCH   2   3
ATOM      3  C   UNL A   1      34.570  30.901  27.661  1.00  0.00     0.338 C 
ATOM      4  O   UNL A   1      34.250  32.055  27.943  1.00  0.00    -0.246 OA
BRANCH   3   5
ATOM      5  C   UNL A   1      35.891  30.389  28.145  1.00  0.00     0.060 A 
ATOM      6  C   UNL A   1      37.115  30.466  27.468  1.00  0.00     0.016 A 
ATOM      7  C   UNL A   1      35.878  29.755  29.391  1.00  0.00     0.016 A 
ATOM      8  C   UNL A   1      38.316  30.056  28.070  1.00  0.00     0.010 A 
ATOM      9  C   UNL A   1      37.073  29.341  29.990  1.00  0.00     0.010 A 
ATOM     10  C   UNL A   1      38.315  29.521  29.356  1.00  0.00    -0.014 A 
BRANCH  10  11
ATOM     11  C   UNL A   1      39.556  29.027  30.015  1.00  0.00     0.031 A 
ATOM     12  C   UNL A   1      40.098  29.841  31.155  1.00  0.00     0.074 A 
ATOM     13  C   UNL A   1      40.235  27.941  29.584  1.00  0.00     0.049 A 
ATOM     14  N   UNL A   1      41.215  29.705  31.817  1.00  0.00    -0.248 NA
ATOM     15  C   UNL A   1      39.275  30.984  31.591  1.00  0.00     0.031 C 
ATOM     16  C   UNL A   1      39.822  27.038  28.511  1.00  0.00     0.029 A 
ATOM     17  N   UNL A   1      41.456  27.433  29.969  1.00  0.00    -0.354 N 
ATOM     18  C   UNL A   1      41.214  30.736  32.745  1.00  0.00     0.074 A 
ATOM     19  C   UNL A   1      40.074  31.574  32.460  1.00  0.00     0.031 C 
ATOM     20  C   UNL A   1      40.810  26.166  28.245  1.00  0.00     0.029 A 
ATOM     21  C   UNL A   1      41.913  26.408  29.168  1.00  0.00     0.049 A 
ATOM     22  H   UNL A   1      41.957  27.770  30.746  1.00  0.00     0.167 HD
ATOM     23  C   UNL A   1      42.030  30.921  33.807  1.00  0.00     0.037 A 
ATOM     24  C   UNL A   1      43.081  25.733  29.182  1.00  0.00     0.037 A 
ATOM     25  C   UNL A   1      43.134  30.060  34.109  1.00  0.00     0.049 A 
ATOM     26  C   UNL A   1      44.037  25.991  30.317  1.00  0.00     0.074 A 
ATOM     27  C   UNL A   1      43.985  30.094  35.195  1.00  0.00     0.029 A 
ATOM     28  N   UNL A   1      43.539  29.004  33.306  1.00  0.00    -0.354 N 
ATOM     29  N   UNL A   1      43.951  26.887  31.273  1.00  0.00    -0.248 NA
ATOM     30  C   UNL A   1      45.210  25.113  30.423  1.00  0.00     0.031 C 
ATOM     31  C   UNL A   1      44.933  29.078  35.029  1.00  0.00     0.029 A 
ATOM     32  C   UNL A   1      44.644  28.387  33.860  1.00  0.00     0.049 A 
ATOM     33  H   UNL A   1      43.104  28.734  32.464  1.00  0.00     0.167 HD
ATOM     34  C   UNL A   1      45.015  26.636  32.130  1.00  0.00     0.074 A 
ATOM     35  C   UNL A   1      45.749  25.522  31.565  1.00  0.00     0.031 C 
ATOM     36  C   UNL A   1      45.337  27.255  33.293  1.00  0.00     0.037 A 
BRANCH  23  37
ATOM     37  C   UNL A   1      41.695  32.076  34.706  1.00  0.00     0.058 A 
ATOM     38  C   UNL A   1      40.787  31.927  35.771  1.00  0.00     0.135 A 
ATOM     39  C   UNL A   1      42.187  33.360  34.438  1.00  0.00     0.135 A 
ATOM     40  F   UNL A   1      40.269  30.720  36.055  1.00  0.00    -0.206 F 
ATOM     41  C   UNL A   1      40.312  33.022  36.479  1.00  0.00     0.059 A 
ATOM     42  C   UNL A   1      41.752  34.468  35.161  1.00  0.00     0.059 A 
ATOM     43  F   UNL A   1      43.057  33.557  33.436  1.00  0.00    -0.206 F 
ATOM     44  C   UNL A   1      40.788  34.293  36.153  1.00  0.00     0.060 A 
BRANCH  44  45
ATOM     45  S   UNL A   1      40.101  35.713  37.029  1.00  0.00     0.124 S 
ATOM     46  O   UNL A   1      39.719  36.581  35.919  1.00  0.00    -0.237 OA
ATOM     47  O   UNL A   1      39.007  35.123  37.781  1.00  0.00    -0.237 OA
ATOM     48  O   UNL A   1      41.230  36.187  37.834  1.00  0.00    -0.744 OA
ENDBRANCH  44  45
ENDBRANCH  23  37
BRANCH  24  49
ATOM     49  C   UNL A   1      43.381  24.708  28.142  1.00  0.00     0.058 A 
ATOM     50  C   UNL A   1      42.959  23.377  28.282  1.00  0.00     0.135 A 
ATOM     51  C   UNL A   1      44.098  25.040  26.981  1.00  0.00     0.135 A 
ATOM     52  F   UNL A   1      42.275  23.004  29.374  1.00  0.00    -0.206 F 
ATOM     53  C   UNL A   1      43.249  22.410  27.321  1.00  0.00     0.059 A 
ATOM     54  C   UNL A   1      44.390  24.094  25.999  1.00  0.00     0.059 A 
ATOM     55  F   UNL A   1      44.515  26.301  26.786  1.00  0.00    -0.206 F 
ATOM     56  C   UNL A   1      43.965  22.778  26.181  1.00  0.00     0.060 A 
BRANCH  56  57
ATOM     57  S   UNL A   1      44.294  21.521  24.923  1.00  0.00     0.124 S 
ATOM     58  O   UNL A   1      43.280  20.519  25.231  1.00  0.00    -0.237 OA
ATOM     59  O   UNL A   1      44.095  22.271  23.688  1.00  0.00    -0.237 OA
ATOM     60  O   UNL A   1      45.673  21.127  25.193  1.00  0.00    -0.744 OA
ENDBRANCH  56  57
ENDBRANCH  24  49
BRANCH  36  61
ATOM     61  C   UNL A   1      46.494  26.716  34.080  1.00  0.00     0.058 A 
ATOM     62  C   UNL A   1      46.332  25.680  35.009  1.00  0.00     0.135 A 
ATOM     63  C   UNL A   1      47.799  27.148  33.789  1.00  0.00     0.135 A 
ATOM     64  F   UNL A   1      45.104  25.242  35.327  1.00  0.00    -0.206 F 
ATOM     65  C   UNL A   1      47.428  25.076  35.613  1.00  0.00     0.059 A 
ATOM     66  C   UNL A   1      48.910  26.541  34.361  1.00  0.00     0.059 A 
ATOM     67  F   UNL A   1      48.002  28.135  32.901  1.00  0.00    -0.206 F 
ATOM     68  C   UNL A   1      48.714  25.502  35.269  1.00  0.00     0.060 A 
BRANCH  68  69
ATOM     69  S   UNL A   1      50.130  24.632  35.973  1.00  0.00     0.124 S 
ATOM     70  O   UNL A   1      50.369  25.397  37.193  1.00  0.00    -0.237 OA
ATOM     71  O   UNL A   1      49.603  23.284  36.163  1.00  0.00    -0.237 OA
ATOM     72  O   UNL A   1      51.154  24.759  34.941  1.00  0.00    -0.744 OA
ENDBRANCH  68  69
ENDBRANCH  36  61
ENDBRANCH  10  11
ENDBRANCH   3   5
ENDBRANCH   2   3
ENDBRANCH   1   2
BRANCH   1  73
ATOM     73  C   UNL A   1      31.708  28.787  27.173  1.00  0.00     0.274 C 
BRANCH  73  74
ATOM     74  O   UNL A   1      31.546  27.873  26.072  1.00  0.00    -0.462 OA
BRANCH  74  75
ATOM     75  C   UNL A   1      32.547  26.965  25.907  1.00  0.00     0.312 C 
ATOM     76  O   UNL A   1      32.854  26.132  26.756  1.00  0.00    -0.252 OA
BRANCH  75  77
ATOM     77  C   UNL A   1      33.402  27.180  24.665  1.00  0.00     0.147 C 
ATOM     78  C   UNL A   1      33.287  26.069  23.577  1.00  0.00     0.129 C 
ATOM     79  C   UNL A   1      33.047  28.415  23.853  1.00  0.00     0.157 C 
ATOM     80  C   UNL A   1      32.792  26.854  22.358  1.00  0.00     0.155 C 
ATOM     81  C   UNL A   1      34.068  28.683  22.783  1.00  0.00     0.004 C 
ATOM     82  O   UNL A   1      32.019  27.862  23.020  1.00  0.00    -0.365 OA
ATOM     83  C   UNL A   1      33.898  27.734  21.853  1.00  0.00     0.004 C 
BRANCH  78  84
ATOM     84  C   UNL A   1      32.343  24.931  23.928  1.00  0.00     0.231 C 
ATOM     85  O   UNL A   1      31.140  24.973  23.680  1.00  0.00    -0.274 OA
ATOM     86  N   UNL A   1      32.865  23.786  24.488  1.00  0.00    -0.323 N 
ATOM     87  H   UNL A   1      32.233  23.142  24.880  1.00  0.00     0.170 HD
BRANCH  86  88
ATOM     88  C   UNL A   1      34.232  23.466  24.539  1.00  0.00     0.080 A 
ATOM     89  C   UNL A   1      35.021  23.735  25.659  1.00  0.00     0.068 A 
ATOM     90  C   UNL A   1      34.836  23.030  23.361  1.00  0.00     0.146 A 
ATOM     91  C   UNL A   1      36.404  23.738  25.529  1.00  0.00     0.125 A 
ATOM     92  C   UNL A   1      36.222  23.028  23.236  1.00  0.00     0.044 A 
ATOM     93  F   UNL A   1      34.082  22.735  22.292  1.00  0.00    -0.205 F 
ATOM     94  F   UNL A   1      37.160  24.109  26.570  1.00  0.00    -0.207 F 
ATOM     95  C   UNL A   1      37.009  23.419  24.319  1.00  0.00     0.042 A 
ENDBRANCH  86  88
ENDBRANCH  78  84
ENDBRANCH  75  77
ENDBRANCH  74  75
ENDBRANCH  73  74
ENDBRANCH   1  73
TORSDOF 16
ENDMDL
MODEL 2
REMARK VINA RESULT:     -11.2      1.172      1.961
REMARK SMILES O=C(OCCOC(=O)[C@H]1[C@@H](C(=O)Nc2cc(F)ccc2F)[C@@H]2C=C[C@H]1O2)c1ccc(-c2c3nc(c(-c4c(F)cc(S(=O)(=O)[O-])cc4F)c4ccc([nH]4)c(-c4c(F)cc(S(=O)(=O)[O-])cc4F)c4nc(c(-c5c(F)cc(S(=O)(=O)[O-])cc5F)c5ccc2[nH]5)C=C4)C=C3)cc1
REMARK SMILES IDX 4 1 3 2 2 3 1 4 27 5 28 6 92 7 29 8 91 9 30 10 31 11 32 12
REMARK SMILES IDX 85 13 33 14 90 15 84 16 86 17 34 18 89 19 83 20 82 21 35 23
REMARK SMILES IDX 69 24 48 25 68 26 49 27 52 28 67 29 87 30 50 31 51 32 66 34
REMARK SMILES IDX 88 35 53 36 36 37 37 38 46 39 38 40 39 41 45 42 47 43 40 44
REMARK SMILES IDX 41 45 42 46 43 47 44 48 70 49 71 50 80 51 72 52 73 53 79 54
REMARK SMILES IDX 81 55 74 56 75 57 76 58 77 59 78 60 54 61 55 62 64 63 56 64
REMARK SMILES IDX 57 65 63 66 65 67 58 68 59 69 60 70 61 71 62 72 5 73 6 74
REMARK SMILES IDX 7 75 8 76 9 77 10 78 25 79 22 80 24 81 26 82 23 83 11 84
REMARK SMILES IDX 12 85 13 86 14 88 15 89 20 90 16 91 19 92 21 93 17 94 18 95
REMARK H PARENT 86 22 52 33 13 87
REMARK Flexibility Score: inf
ROOT
ATOM      1  C   UNL A   1      32.484  29.428  27.231  1.00  0.00     0.275 C 
ENDROOT
BRANCH   1   2
ATOM      2  O   UNL A   1      33.705  30.062  26.831  1.00  0.00    -0.458 OA
BRANCH   2   3
ATOM      3  C   UNL A   1      34.558  30.812  27.568  1.00  0.00     0.338 C 
ATOM      4  O   UNL A   1      34.274  31.992  27.775  1.00  0.00    -0.246 OA
BRANCH   3   5
ATOM      5  C   UNL A   1      35.876  30.300  28.059  1.00  0.00     0.060 A 
ATOM      6  C   UNL A   1      37.096  30.344  27.372  1.00  0.00     0.016 A 
ATOM      7  C   UNL A   1      35.864  29.701  29.322  1.00  0.00     0.016 A 
ATOM      8  C   UNL A   1      38.297  29.939  27.978  1.00  0.00     0.010 A 
ATOM      9  C   UNL A   1      37.059  29.291  29.925  1.00  0.00     0.010 A 
ATOM     10  C   UNL A   1      38.299  29.440  29.277  1.00  0.00    -0.014 A 
BRANCH  10  11
ATOM     11  C   UNL A   1      39.538  28.951  29.943  1.00  0.00     0.031 A 
ATOM     12  C   UNL A   1      40.063  29.759  31.095  1.00  0.00     0.074 A 
ATOM     13  C   UNL A   1      40.231  27.875  29.507  1.00  0.00     0.049 A 
ATOM     14  N   UNL A   1      41.176  29.627  31.765  1.00  0.00    -0.248 NA
ATOM     15  C   UNL A   1      39.226  30.890  31.535  1.00  0.00     0.031 C 
ATOM     16  C   UNL A   1      39.835  26.979  28.423  1.00  0.00     0.029 A 
ATOM     17  N   UNL A   1      41.453  27.375  29.898  1.00  0.00    -0.354 N 
ATOM     18  C   UNL A   1      41.157  30.649  32.703  1.00  0.00     0.074 A 
ATOM     19  C   UNL A   1      40.012  31.479  32.416  1.00  0.00     0.031 C 
ATOM     20  C   UNL A   1      40.834  26.118  28.157  1.00  0.00     0.029 A 
ATOM     21  C   UNL A   1      41.927  26.362  29.091  1.00  0.00     0.049 A 
ATOM     22  H   UNL A   1      41.944  27.709  30.682  1.00  0.00     0.167 HD
ATOM     23  C   UNL A   1      41.963  30.832  33.774  1.00  0.00     0.037 A 
ATOM     24  C   UNL A   1      43.101  25.698  29.109  1.00  0.00     0.037 A 
ATOM     25  C   UNL A   1      43.072  29.978  34.077  1.00  0.00     0.049 A 
ATOM     26  C   UNL A   1      44.045  25.954  30.254  1.00  0.00     0.074 A 
ATOM     27  C   UNL A   1      43.914  30.009  35.170  1.00  0.00     0.029 A 
ATOM     28  N   UNL A   1      43.494  28.933  33.267  1.00  0.00    -0.354 N 
ATOM     29  N   UNL A   1      43.942  26.839  31.218  1.00  0.00    -0.248 NA
ATOM     30  C   UNL A   1      45.225  25.085  30.362  1.00  0.00     0.031 C 
ATOM     31  C   UNL A   1      44.872  29.003  35.002  1.00  0.00     0.029 A 
ATOM     32  C   UNL A   1      44.599  28.321  33.825  1.00  0.00     0.049 A 
ATOM     33  H   UNL A   1      43.069  28.667  32.419  1.00  0.00     0.167 HD
ATOM     34  C   UNL A   1      45.002  26.590  32.081  1.00  0.00     0.074 A 
ATOM     35  C   UNL A   1      45.751  25.488  31.513  1.00  0.00     0.031 C 
ATOM     36  C   UNL A   1      45.308  27.201  33.253  1.00  0.00     0.037 A 
BRANCH  23  37
ATOM     37  C   UNL A   1      41.610  31.974  34.681  1.00  0.00     0.058 A 
ATOM     38  C   UNL A   1      40.670  31.815  35.717  1.00  0.00     0.135 A 
ATOM     39  C   UNL A   1      42.117  33.259  34.447  1.00  0.00     0.135 A 
ATOM     40  F   UNL A   1      40.137  30.607  35.967  1.00  0.00    -0.206 F 
ATOM     41  C   UNL A   1      40.182  32.903  36.428  1.00  0.00     0.059 A 
ATOM     42  C   UNL A   1      41.669  34.359  35.175  1.00  0.00     0.059 A 
ATOM     43  F   UNL A   1      43.017  33.466  33.474  1.00  0.00    -0.206 F 
ATOM     44  C   UNL A   1      40.676  34.175  36.136  1.00  0.00     0.060 A 
BRANCH  44  45
ATOM     45  S   UNL A   1      39.973  35.586  37.014  1.00  0.00     0.124 S 
ATOM     46  O   UNL A   1      38.819  34.974  37.668  1.00  0.00    -0.237 OA
ATOM     47  O   UNL A   1      41.060  35.988  37.890  1.00  0.00    -0.237 OA
ATOM     48  O   UNL A   1      39.656  36.526  35.937  1.00  0.00    -0.744 OA
ENDBRANCH  44  45
ENDBRANCH  23  37
BRANCH  24  49
ATOM     49  C   UNL A   1      43.419  24.685  28.062  1.00  0.00     0.058 A 
ATOM     50  C   UNL A   1      42.997  23.352  28.179  1.00  0.00     0.135 A 
ATOM     51  C   UNL A   1      44.155  25.032  26.917  1.00  0.00     0.135 A 
ATOM     52  F   UNL A   1      42.294  22.966  29.255  1.00  0.00    -0.206 F 
ATOM     53  C   UNL A   1      43.303  22.397  27.211  1.00  0.00     0.059 A 
ATOM     54  C   UNL A   1      44.464  24.098  25.928  1.00  0.00     0.059 A 
ATOM     55  F   UNL A   1      44.574  26.296  26.744  1.00  0.00    -0.206 F 
ATOM     56  C   UNL A   1      44.037  22.780  26.088  1.00  0.00     0.060 A 
BRANCH  56  57
ATOM     57  S   UNL A   1      44.388  21.538  24.821  1.00  0.00     0.124 S 
ATOM     58  O   UNL A   1      45.773  21.192  25.118  1.00  0.00    -0.237 OA
ATOM     59  O   UNL A   1      43.395  20.512  25.121  1.00  0.00    -0.237 OA
ATOM     60  O   UNL A   1      44.173  22.261  23.570  1.00  0.00    -0.744 OA
ENDBRANCH  56  57
ENDBRANCH  24  49
BRANCH  36  61
ATOM     61  C   UNL A   1      46.463  26.665  34.045  1.00  0.00     0.058 A 
ATOM     62  C   UNL A   1      47.743  27.225  33.948  1.00  0.00     0.135 A 
ATOM     63  C   UNL A   1      46.244  25.674  35.016  1.00  0.00     0.135 A 
ATOM     64  F   UNL A   1      48.003  28.166  33.027  1.00  0.00    -0.206 F 
ATOM     65  C   UNL A   1      48.768  26.833  34.802  1.00  0.00     0.059 A 
ATOM     66  C   UNL A   1      47.245  25.285  35.897  1.00  0.00     0.059 A 
ATOM     67  F   UNL A   1      45.030  25.113  35.149  1.00  0.00    -0.206 F 
ATOM     68  C   UNL A   1      48.504  25.874  35.784  1.00  0.00     0.060 A 
BRANCH  68  69
ATOM     69  S   UNL A   1      49.809  25.458  36.959  1.00  0.00     0.124 S 
ATOM     70  O   UNL A   1      50.324  26.779  37.306  1.00  0.00    -0.237 OA
ATOM     71  O   UNL A   1      49.071  24.768  38.012  1.00  0.00    -0.237 OA
ATOM     72  O   UNL A   1      50.712  24.617  36.180  1.00  0.00    -0.744 OA
ENDBRANCH  68  69
ENDBRANCH  36  61
ENDBRANCH  10  11
ENDBRANCH   3   5
ENDBRANCH   2   3
ENDBRANCH   1   2
BRANCH   1  73
ATOM     73  C   UNL A   1      31.817  28.572  26.156  1.00  0.00     0.274 C 
BRANCH  73  74
ATOM     74  O   UNL A   1      31.837  27.151  26.392  1.00  0.00    -0.462 OA
BRANCH  74  75
ATOM     75  C   UNL A   1      32.877  26.475  25.831  1.00  0.00     0.312 C 
ATOM     76  O   UNL A   1      34.055  26.732  26.060  1.00  0.00    -0.252 OA
BRANCH  75  77
ATOM     77  C   UNL A   1      32.481  25.495  24.735  1.00  0.00     0.147 C 
ATOM     78  C   UNL A   1      32.394  24.002  25.175  1.00  0.00     0.129 C 
ATOM     79  C   UNL A   1      31.087  25.707  24.163  1.00  0.00     0.157 C 
ATOM     80  C   UNL A   1      30.935  23.653  24.866  1.00  0.00     0.155 C 
ATOM     81  C   UNL A   1      30.857  24.859  22.944  1.00  0.00     0.004 C 
ATOM     82  O   UNL A   1      30.328  24.929  25.099  1.00  0.00    -0.365 OA
ATOM     83  C   UNL A   1      30.743  23.597  23.378  1.00  0.00     0.004 C 
BRANCH  78  84
ATOM     84  C   UNL A   1      32.731  23.750  26.635  1.00  0.00     0.231 C 
ATOM     85  O   UNL A   1      31.938  23.986  27.544  1.00  0.00    -0.274 OA
ATOM     86  N   UNL A   1      33.945  23.177  26.946  1.00  0.00    -0.323 N 
ATOM     87  H   UNL A   1      34.227  23.193  27.888  1.00  0.00     0.170 HD
BRANCH  86  88
ATOM     88  C   UNL A   1      34.809  22.571  26.020  1.00  0.00     0.080 A 
ATOM     89  C   UNL A   1      34.669  21.239  25.626  1.00  0.00     0.068 A 
ATOM     90  C   UNL A   1      35.941  23.288  25.630  1.00  0.00     0.146 A 
ATOM     91  C   UNL A   1      35.735  20.598  25.008  1.00  0.00     0.125 A 
ATOM     92  C   UNL A   1      37.005  22.644  25.007  1.00  0.00     0.044 A 
ATOM     93  F   UNL A   1      36.066  24.578  25.974  1.00  0.00    -0.205 F 
ATOM     94  F   UNL A   1      35.645  19.291  24.735  1.00  0.00    -0.207 F 
ATOM     95  C   UNL A   1      36.913  21.281  24.726  1.00  0.00     0.042 A 
ENDBRANCH  86  88
ENDBRANCH  78  84
ENDBRANCH  75  77
ENDBRANCH  74  75
ENDBRANCH  73  74
ENDBRANCH   1  73
TORSDOF 16
ENDMDL
MODEL 3
REMARK VINA RESULT:     -11.2      2.683      3.524
REMARK SMILES O=C(OCCOC(=O)[C@H]1[C@@H](C(=O)Nc2cc(F)ccc2F)[C@@H]2C=C[C@H]1O2)c1ccc(-c2c3nc(c(-c4c(F)cc(S(=O)(=O)[O-])cc4F)c4ccc([nH]4)c(-c4c(F)cc(S(=O)(=O)[O-])cc4F)c4nc(c(-c5c(F)cc(S(=O)(=O)[O-])cc5F)c5ccc2[nH]5)C=C4)C=C3)cc1
REMARK SMILES IDX 4 1 3 2 2 3 1 4 27 5 28 6 92 7 29 8 91 9 30 10 31 11 32 12
REMARK SMILES IDX 85 13 33 14 90 15 84 16 86 17 34 18 89 19 83 20 82 21 35 23
REMARK SMILES IDX 69 24 48 25 68 26 49 27 52 28 67 29 87 30 50 31 51 32 66 34
REMARK SMILES IDX 88 35 53 36 36 37 37 38 46 39 38 40 39 41 45 42 47 43 40 44
REMARK SMILES IDX 41 45 42 46 43 47 44 48 70 49 71 50 80 51 72 52 73 53 79 54
REMARK SMILES IDX 81 55 74 56 75 57 76 58 77 59 78 60 54 61 55 62 64 63 56 64
REMARK SMILES IDX 57 65 63 66 65 67 58 68 59 69 60 70 61 71 62 72 5 73 6 74
REMARK SMILES IDX 7 75 8 76 9 77 10 78 25 79 22 80 24 81 26 82 23 83 11 84
REMARK SMILES IDX 12 85 13 86 14 88 15 89 20 90 16 91 19 92 21 93 17 94 18 95
REMARK H PARENT 86 22 52 33 13 87
REMARK Flexibility Score: inf
ROOT
ATOM      1  C   UNL A   1      32.369  29.793  27.031  1.00  0.00     0.275 C 
ENDROOT
BRANCH   1   2
ATOM      2  O   UNL A   1      33.775  29.697  27.288  1.00  0.00    -0.458 OA
BRANCH   2   3
ATOM      3  C   UNL A   1      34.556  30.484  28.067  1.00  0.00     0.338 C 
ATOM      4  O   UNL A   1      34.133  31.594  28.391  1.00  0.00    -0.246 OA
BRANCH   3   5
ATOM      5  C   UNL A   1      35.948  30.107  28.467  1.00  0.00     0.060 A 
ATOM      6  C   UNL A   1      36.379  29.744  29.749  1.00  0.00     0.016 A 
ATOM      7  C   UNL A   1      36.906  30.149  27.449  1.00  0.00     0.016 A 
ATOM      8  C   UNL A   1      37.689  29.296  29.986  1.00  0.00     0.010 A 
ATOM      9  C   UNL A   1      38.213  29.708  27.684  1.00  0.00     0.010 A 
ATOM     10  C   UNL A   1      38.614  29.237  28.948  1.00  0.00    -0.014 A 
BRANCH  10  11
ATOM     11  C   UNL A   1      40.027  28.817  29.160  1.00  0.00     0.031 A 
ATOM     12  C   UNL A   1      41.009  29.884  29.550  1.00  0.00     0.074 A 
ATOM     13  C   UNL A   1      40.459  27.555  28.943  1.00  0.00     0.049 A 
ATOM     14  N   UNL A   1      42.307  29.814  29.678  1.00  0.00    -0.248 NA
ATOM     15  C   UNL A   1      40.450  31.223  29.810  1.00  0.00     0.031 C 
ATOM     16  C   UNL A   1      39.624  26.409  28.588  1.00  0.00     0.029 A 
ATOM     17  N   UNL A   1      41.732  27.027  28.944  1.00  0.00    -0.354 N 
ATOM     18  C   UNL A   1      42.705  31.093  30.039  1.00  0.00     0.074 A 
ATOM     19  C   UNL A   1      41.544  31.947  29.958  1.00  0.00     0.031 C 
ATOM     20  C   UNL A   1      40.403  25.353  28.293  1.00  0.00     0.029 A 
ATOM     21  C   UNL A   1      41.798  25.726  28.493  1.00  0.00     0.049 A 
ATOM     22  H   UNL A   1      42.522  27.533  29.240  1.00  0.00     0.167 HD
ATOM     23  C   UNL A   1      43.908  31.510  30.495  1.00  0.00     0.037 A 
ATOM     24  C   UNL A   1      42.860  24.923  28.277  1.00  0.00     0.037 A 
ATOM     25  C   UNL A   1      45.044  30.646  30.615  1.00  0.00     0.049 A 
ATOM     26  C   UNL A   1      44.219  25.409  28.706  1.00  0.00     0.074 A 
ATOM     27  C   UNL A   1      46.292  30.926  31.135  1.00  0.00     0.029 A 
ATOM     28  N   UNL A   1      45.064  29.323  30.195  1.00  0.00    -0.354 N 
ATOM     29  N   UNL A   1      44.556  26.587  29.178  1.00  0.00    -0.248 NA
ATOM     30  C   UNL A   1      45.330  24.450  28.641  1.00  0.00     0.031 C 
ATOM     31  C   UNL A   1      47.081  29.779  30.995  1.00  0.00     0.029 A 
ATOM     32  C   UNL A   1      46.310  28.775  30.426  1.00  0.00     0.049 A 
ATOM     33  H   UNL A   1      44.302  28.846  29.793  1.00  0.00     0.167 HD
ATOM     34  C   UNL A   1      45.895  26.489  29.531  1.00  0.00     0.074 A 
ATOM     35  C   UNL A   1      46.317  25.145  29.193  1.00  0.00     0.031 C 
ATOM     36  C   UNL A   1      46.694  27.420  30.110  1.00  0.00     0.037 A 
BRANCH  23  37
ATOM     37  C   UNL A   1      43.992  32.946  30.925  1.00  0.00     0.058 A 
ATOM     38  C   UNL A   1      44.452  33.941  30.043  1.00  0.00     0.135 A 
ATOM     39  C   UNL A   1      43.726  33.314  32.250  1.00  0.00     0.135 A 
ATOM     40  F   UNL A   1      44.743  33.634  28.767  1.00  0.00    -0.206 F 
ATOM     41  C   UNL A   1      44.729  35.229  30.482  1.00  0.00     0.059 A 
ATOM     42  C   UNL A   1      43.961  34.610  32.702  1.00  0.00     0.059 A 
ATOM     43  F   UNL A   1      43.282  32.405  33.131  1.00  0.00    -0.206 F 
ATOM     44  C   UNL A   1      44.497  35.548  31.821  1.00  0.00     0.060 A 
BRANCH  44  45
ATOM     45  S   UNL A   1      44.937  37.202  32.393  1.00  0.00     0.124 S 
ATOM     46  O   UNL A   1      46.269  37.363  31.815  1.00  0.00    -0.237 OA
ATOM     47  O   UNL A   1      43.890  38.027  31.815  1.00  0.00    -0.237 OA
ATOM     48  O   UNL A   1      44.900  37.073  33.851  1.00  0.00    -0.744 OA
ENDBRANCH  44  45
ENDBRANCH  23  37
BRANCH  24  49
ATOM     49  C   UNL A   1      42.679  23.561  27.696  1.00  0.00     0.058 A 
ATOM     50  C   UNL A   1      42.703  23.345  26.311  1.00  0.00     0.135 A 
ATOM     51  C   UNL A   1      42.477  22.442  28.521  1.00  0.00     0.135 A 
ATOM     52  F   UNL A   1      42.887  24.380  25.476  1.00  0.00    -0.206 F 
ATOM     53  C   UNL A   1      42.520  22.078  25.761  1.00  0.00     0.059 A 
ATOM     54  C   UNL A   1      42.305  21.161  27.997  1.00  0.00     0.059 A 
ATOM     55  F   UNL A   1      42.458  22.585  29.856  1.00  0.00    -0.206 F 
ATOM     56  C   UNL A   1      42.322  20.990  26.613  1.00  0.00     0.060 A 
BRANCH  56  57
ATOM     57  S   UNL A   1      42.130  19.346  25.885  1.00  0.00     0.124 S 
ATOM     58  O   UNL A   1      42.653  18.489  26.942  1.00  0.00    -0.237 OA
ATOM     59  O   UNL A   1      40.689  19.280  25.664  1.00  0.00    -0.237 OA
ATOM     60  O   UNL A   1      42.940  19.417  24.672  1.00  0.00    -0.744 OA
ENDBRANCH  56  57
ENDBRANCH  24  49
BRANCH  36  61
ATOM     61  C   UNL A   1      48.091  27.017  30.479  1.00  0.00     0.058 A 
ATOM     62  C   UNL A   1      49.189  27.353  29.678  1.00  0.00     0.135 A 
ATOM     63  C   UNL A   1      48.337  26.414  31.724  1.00  0.00     0.135 A 
ATOM     64  F   UNL A   1      49.002  27.921  28.476  1.00  0.00    -0.206 F 
ATOM     65  C   UNL A   1      50.491  27.122  30.106  1.00  0.00     0.059 A 
ATOM     66  C   UNL A   1      49.630  26.196  32.183  1.00  0.00     0.059 A 
ATOM     67  F   UNL A   1      47.315  26.079  32.528  1.00  0.00    -0.206 F 
ATOM     68  C   UNL A   1      50.702  26.558  31.368  1.00  0.00     0.060 A 
BRANCH  68  69
ATOM     69  S   UNL A   1      52.396  26.369  31.958  1.00  0.00     0.124 S 
ATOM     70  O   UNL A   1      53.060  25.824  30.779  1.00  0.00    -0.237 OA
ATOM     71  O   UNL A   1      52.756  27.738  32.313  1.00  0.00    -0.237 OA
ATOM     72  O   UNL A   1      52.263  25.451  33.085  1.00  0.00    -0.744 OA
ENDBRANCH  68  69
ENDBRANCH  36  61
ENDBRANCH  10  11
ENDBRANCH   3   5
ENDBRANCH   2   3
ENDBRANCH   1   2
BRANCH   1  73
ATOM     73  C   UNL A   1      31.589  28.492  27.203  1.00  0.00     0.274 C 
BRANCH  73  74
ATOM     74  O   UNL A   1      31.484  27.669  26.027  1.00  0.00    -0.462 OA
BRANCH  74  75
ATOM     75  C   UNL A   1      32.493  26.775  25.840  1.00  0.00     0.312 C 
ATOM     76  O   UNL A   1      32.822  25.939  26.677  1.00  0.00    -0.252 OA
BRANCH  75  77
ATOM     77  C   UNL A   1      33.330  27.012  24.589  1.00  0.00     0.147 C 
ATOM     78  C   UNL A   1      33.237  25.895  23.505  1.00  0.00     0.129 C 
ATOM     79  C   UNL A   1      32.930  28.234  23.777  1.00  0.00     0.157 C 
ATOM     80  C   UNL A   1      32.707  26.662  22.289  1.00  0.00     0.155 C 
ATOM     81  C   UNL A   1      33.932  28.530  22.697  1.00  0.00     0.004 C 
ATOM     82  O   UNL A   1      31.911  27.648  22.956  1.00  0.00    -0.365 OA
ATOM     83  C   UNL A   1      33.781  27.573  21.771  1.00  0.00     0.004 C 
BRANCH  78  84
ATOM     84  C   UNL A   1      32.332  24.731  23.868  1.00  0.00     0.231 C 
ATOM     85  O   UNL A   1      31.129  24.728  23.614  1.00  0.00    -0.274 OA
ATOM     86  N   UNL A   1      32.890  23.612  24.446  1.00  0.00    -0.323 N 
ATOM     87  H   UNL A   1      32.279  22.952  24.845  1.00  0.00     0.170 HD
BRANCH  86  88
ATOM     88  C   UNL A   1      34.267  23.341  24.508  1.00  0.00     0.080 A 
ATOM     89  C   UNL A   1      35.011  23.508  25.677  1.00  0.00     0.068 A 
ATOM     90  C   UNL A   1      34.924  23.066  23.309  1.00  0.00     0.146 A 
ATOM     91  C   UNL A   1      36.395  23.578  25.597  1.00  0.00     0.125 A 
ATOM     92  C   UNL A   1      36.311  23.131  23.232  1.00  0.00     0.044 A 
ATOM     93  F   UNL A   1      34.215  22.868  22.188  1.00  0.00    -0.205 F 
ATOM     94  F   UNL A   1      37.104  23.855  26.698  1.00  0.00    -0.207 F 
ATOM     95  C   UNL A   1      37.049  23.424  24.379  1.00  0.00     0.042 A 
ENDBRANCH  86  88
ENDBRANCH  78  84
ENDBRANCH  75  77
ENDBRANCH  74  75
ENDBRANCH  73  74
ENDBRANCH   1  73
TORSDOF 16
ENDMDL
