MODEL 1
REMARK VINA RESULT:     -10.7      0.000      0.000
REMARK SMILES O=C(OCCOC(=O)c1cc2ccccc2cc1OCCO)c1ccc(-c2c3nc(c(-c4c(F)cc(S(=O)(=O)[O-])cc4F)c4ccc([nH]4)c(-c4c(F)cc(S(=O)(=O)[O-])cc4F)c4nc(c(-c5c(F)cc(S(=O)(=O)[O-])cc5F)c5ccc2[nH]5)C=C4)C=C3)cc1
REMARK SMILES IDX 5 1 4 2 3 3 2 4 1 5 23 6 24 7 88 8 25 9 87 10 26 11 27 12
REMARK SMILES IDX 28 13 81 14 29 15 86 16 80 17 82 18 30 19 85 20 79 21 78 22
REMARK SMILES IDX 31 24 65 25 44 26 64 27 45 28 48 29 63 30 83 31 46 32 47 33
REMARK SMILES IDX 62 35 84 36 49 37 32 38 33 39 42 40 34 41 35 42 41 43 43 44
REMARK SMILES IDX 36 45 37 46 38 47 39 48 40 49 66 50 67 51 76 52 68 53 69 54
REMARK SMILES IDX 75 55 77 56 70 57 71 58 72 59 73 60 74 61 50 62 51 63 60 64
REMARK SMILES IDX 52 65 53 66 59 67 61 68 54 69 55 70 56 71 57 72 58 73 6 74
REMARK SMILES IDX 7 75 8 76 9 77 10 78 18 79 11 80 17 81 12 82 16 83 13 84
REMARK SMILES IDX 15 85 14 86 19 87 20 88 21 89 22 90
REMARK H PARENT 82 23 48 34 22 91
REMARK Flexibility Score: inf
ROOT
ATOM      1  C   UNL A   1      33.667  27.919  26.364  1.00  0.00     0.275 C 
ENDROOT
BRANCH   1   2
ATOM      2  C   UNL A   1      32.894  28.693  27.429  1.00  0.00     0.275 C 
BRANCH   2   3
ATOM      3  O   UNL A   1      33.249  30.092  27.447  1.00  0.00    -0.458 OA
BRANCH   3   4
ATOM      4  C   UNL A   1      34.245  30.766  28.068  1.00  0.00     0.338 C 
ATOM      5  O   UNL A   1      34.001  31.921  28.425  1.00  0.00    -0.246 OA
BRANCH   4   6
ATOM      6  C   UNL A   1      35.626  30.239  28.354  1.00  0.00     0.060 A 
ATOM      7  C   UNL A   1      36.096  29.754  29.573  1.00  0.00     0.016 A 
ATOM      8  C   UNL A   1      36.528  30.209  27.270  1.00  0.00     0.016 A 
ATOM      9  C   UNL A   1      37.388  29.238  29.717  1.00  0.00     0.010 A 
ATOM     10  C   UNL A   1      37.820  29.675  27.399  1.00  0.00     0.010 A 
ATOM     11  C   UNL A   1      38.263  29.198  28.636  1.00  0.00    -0.014 A 
BRANCH  11  12
ATOM     12  C   UNL A   1      39.687  28.861  28.875  1.00  0.00     0.031 A 
ATOM     13  C   UNL A   1      40.543  29.904  29.525  1.00  0.00     0.074 A 
ATOM     14  C   UNL A   1      40.184  27.632  28.643  1.00  0.00     0.049 A 
ATOM     15  N   UNL A   1      41.805  29.850  29.850  1.00  0.00    -0.248 NA
ATOM     16  C   UNL A   1      39.872  31.161  29.897  1.00  0.00     0.031 C 
ATOM     17  C   UNL A   1      39.398  26.492  28.194  1.00  0.00     0.029 A 
ATOM     18  N   UNL A   1      41.452  27.122  28.759  1.00  0.00    -0.354 N 
ATOM     19  C   UNL A   1      42.078  31.062  30.468  1.00  0.00     0.074 A 
ATOM     20  C   UNL A   1      40.864  31.846  30.439  1.00  0.00     0.031 C 
ATOM     21  C   UNL A   1      40.199  25.431  28.004  1.00  0.00     0.029 A 
ATOM     22  C   UNL A   1      41.563  25.815  28.339  1.00  0.00     0.049 A 
ATOM     23  H   UNL A   1      42.211  27.642  29.110  1.00  0.00     0.167 HD
ATOM     24  C   UNL A   1      43.236  31.474  31.030  1.00  0.00     0.037 A 
ATOM     25  C   UNL A   1      42.645  25.018  28.241  1.00  0.00     0.037 A 
ATOM     26  C   UNL A   1      44.435  30.683  31.048  1.00  0.00     0.049 A 
ATOM     27  C   UNL A   1      43.959  25.548  28.743  1.00  0.00     0.074 A 
ATOM     28  C   UNL A   1      45.681  31.017  31.544  1.00  0.00     0.029 A 
ATOM     29  N   UNL A   1      44.536  29.395  30.535  1.00  0.00    -0.354 N 
ATOM     30  N   UNL A   1      44.214  26.712  29.293  1.00  0.00    -0.248 NA
ATOM     31  C   UNL A   1      45.122  24.658  28.643  1.00  0.00     0.031 C 
ATOM     32  C   UNL A   1      46.546  29.947  31.294  1.00  0.00     0.029 A 
ATOM     33  C   UNL A   1      45.828  28.926  30.687  1.00  0.00     0.049 A 
ATOM     34  H   UNL A   1      43.797  28.892  30.125  1.00  0.00     0.167 HD
ATOM     35  C   UNL A   1      45.554  26.675  29.657  1.00  0.00     0.074 A 
ATOM     36  C   UNL A   1      46.057  25.376  29.251  1.00  0.00     0.031 C 
ATOM     37  C   UNL A   1      46.295  27.621  30.286  1.00  0.00     0.037 A 
BRANCH  24  38
ATOM     38  C   UNL A   1      43.245  32.862  31.596  1.00  0.00     0.058 A 
ATOM     39  C   UNL A   1      43.634  33.975  30.831  1.00  0.00     0.135 A 
ATOM     40  C   UNL A   1      42.942  33.068  32.950  1.00  0.00     0.135 A 
ATOM     41  F   UNL A   1      43.970  33.824  29.539  1.00  0.00    -0.206 F 
ATOM     42  C   UNL A   1      43.769  35.236  31.403  1.00  0.00     0.059 A 
ATOM     43  C   UNL A   1      43.045  34.324  33.536  1.00  0.00     0.059 A 
ATOM     44  F   UNL A   1      42.580  32.035  33.726  1.00  0.00    -0.206 F 
ATOM     45  C   UNL A   1      43.483  35.396  32.760  1.00  0.00     0.060 A 
BRANCH  45  46
ATOM     46  S   UNL A   1      43.713  37.024  33.505  1.00  0.00     0.124 S 
ATOM     47  O   UNL A   1      43.742  37.882  32.325  1.00  0.00    -0.237 OA
ATOM     48  O   UNL A   1      42.533  37.151  34.352  1.00  0.00    -0.237 OA
ATOM     49  O   UNL A   1      44.981  36.893  34.218  1.00  0.00    -0.744 OA
ENDBRANCH  45  46
ENDBRANCH  24  38
BRANCH  25  50
ATOM     50  C   UNL A   1      42.527  23.642  27.681  1.00  0.00     0.058 A 
ATOM     51  C   UNL A   1      42.395  22.522  28.515  1.00  0.00     0.135 A 
ATOM     52  C   UNL A   1      42.546  23.419  26.295  1.00  0.00     0.135 A 
ATOM     53  F   UNL A   1      42.371  22.678  29.848  1.00  0.00    -0.206 F 
ATOM     54  C   UNL A   1      42.308  21.231  27.999  1.00  0.00     0.059 A 
ATOM     55  C   UNL A   1      42.441  22.140  25.753  1.00  0.00     0.059 A 
ATOM     56  F   UNL A   1      42.654  24.455  25.449  1.00  0.00    -0.206 F 
ATOM     57  C   UNL A   1      42.332  21.050  26.615  1.00  0.00     0.060 A 
BRANCH  57  58
ATOM     58  S   UNL A   1      42.185  19.372  25.960  1.00  0.00     0.124 S 
ATOM     59  O   UNL A   1      43.049  19.438  24.785  1.00  0.00    -0.237 OA
ATOM     60  O   UNL A   1      42.681  18.567  27.072  1.00  0.00    -0.237 OA
ATOM     61  O   UNL A   1      40.758  19.241  25.686  1.00  0.00    -0.744 OA
ENDBRANCH  57  58
ENDBRANCH  25  50
BRANCH  37  62
ATOM     62  C   UNL A   1      47.711  27.263  30.628  1.00  0.00     0.058 A 
ATOM     63  C   UNL A   1      48.057  26.711  31.870  1.00  0.00     0.135 A 
ATOM     64  C   UNL A   1      48.726  27.429  29.672  1.00  0.00     0.135 A 
ATOM     65  F   UNL A   1      47.122  26.542  32.818  1.00  0.00    -0.206 F 
ATOM     66  C   UNL A   1      49.368  26.354  32.161  1.00  0.00     0.059 A 
ATOM     67  C   UNL A   1      50.038  27.053  29.931  1.00  0.00     0.059 A 
ATOM     68  F   UNL A   1      48.442  27.944  28.465  1.00  0.00    -0.206 F 
ATOM     69  C   UNL A   1      50.351  26.528  31.184  1.00  0.00     0.060 A 
BRANCH  69  70
ATOM     70  S   UNL A   1      52.044  26.027  31.559  1.00  0.00     0.124 S 
ATOM     71  O   UNL A   1      51.871  24.608  31.851  1.00  0.00    -0.237 OA
ATOM     72  O   UNL A   1      52.745  26.339  30.318  1.00  0.00    -0.237 OA
ATOM     73  O   UNL A   1      52.399  26.867  32.700  1.00  0.00    -0.744 OA
ENDBRANCH  69  70
ENDBRANCH  37  62
ENDBRANCH  11  12
ENDBRANCH   4   6
ENDBRANCH   3   4
ENDBRANCH   2   3
ENDBRANCH   1   2
BRANCH   1  74
ATOM     74  O   UNL A   1      33.595  28.611  25.110  1.00  0.00    -0.458 OA
BRANCH  74  75
ATOM     75  C   UNL A   1      33.318  27.878  24.008  1.00  0.00     0.342 C 
ATOM     76  O   UNL A   1      34.078  27.178  23.377  1.00  0.00    -0.246 OA
BRANCH  75  77
ATOM     77  C   UNL A   1      31.860  27.912  23.807  1.00  0.00     0.102 A 
ATOM     78  C   UNL A   1      31.300  29.209  23.909  1.00  0.00     0.028 A 
ATOM     79  C   UNL A   1      31.044  26.813  23.548  1.00  0.00     0.134 A 
ATOM     80  C   UNL A   1      29.934  29.443  23.671  1.00  0.00    -0.017 A 
ATOM     81  C   UNL A   1      29.658  27.051  23.452  1.00  0.00     0.056 A 
ATOM     82  C   UNL A   1      29.390  30.739  23.611  1.00  0.00     0.009 A 
ATOM     83  C   UNL A   1      29.100  28.340  23.436  1.00  0.00    -0.015 A 
ATOM     84  C   UNL A   1      28.045  30.936  23.284  1.00  0.00     0.001 A 
ATOM     85  C   UNL A   1      27.742  28.548  23.137  1.00  0.00     0.009 A 
ATOM     86  C   UNL A   1      27.222  29.840  23.045  1.00  0.00     0.001 A 
BRANCH  79  87
ATOM     87  O   UNL A   1      31.315  25.490  23.379  1.00  0.00    -0.490 OA
BRANCH  87  88
ATOM     88  C   UNL A   1      31.948  24.897  22.247  1.00  0.00     0.257 C 
BRANCH  88  89
ATOM     89  C   UNL A   1      31.973  25.835  21.031  1.00  0.00     0.197 C 
BRANCH  89  90
ATOM     90  O   UNL A   1      33.296  26.022  20.525  1.00  0.00    -0.393 OA
ATOM     91  H   UNL A   1      33.839  25.248  20.744  1.00  0.00     0.210 HD
ENDBRANCH  89  90
ENDBRANCH  88  89
ENDBRANCH  87  88
ENDBRANCH  79  87
ENDBRANCH  75  77
ENDBRANCH  74  75
ENDBRANCH   1  74
TORSDOF 18
ENDMDL
MODEL 2
REMARK VINA RESULT:     -10.6      4.092      6.845
REMARK SMILES O=C(OCCOC(=O)c1cc2ccccc2cc1OCCO)c1ccc(-c2c3nc(c(-c4c(F)cc(S(=O)(=O)[O-])cc4F)c4ccc([nH]4)c(-c4c(F)cc(S(=O)(=O)[O-])cc4F)c4nc(c(-c5c(F)cc(S(=O)(=O)[O-])cc5F)c5ccc2[nH]5)C=C4)C=C3)cc1
REMARK SMILES IDX 5 1 4 2 3 3 2 4 1 5 23 6 24 7 88 8 25 9 87 10 26 11 27 12
REMARK SMILES IDX 28 13 81 14 29 15 86 16 80 17 82 18 30 19 85 20 79 21 78 22
REMARK SMILES IDX 31 24 65 25 44 26 64 27 45 28 48 29 63 30 83 31 46 32 47 33
REMARK SMILES IDX 62 35 84 36 49 37 32 38 33 39 42 40 34 41 35 42 41 43 43 44
REMARK SMILES IDX 36 45 37 46 38 47 39 48 40 49 66 50 67 51 76 52 68 53 69 54
REMARK SMILES IDX 75 55 77 56 70 57 71 58 72 59 73 60 74 61 50 62 51 63 60 64
REMARK SMILES IDX 52 65 53 66 59 67 61 68 54 69 55 70 56 71 57 72 58 73 6 74
REMARK SMILES IDX 7 75 8 76 9 77 10 78 18 79 11 80 17 81 12 82 16 83 13 84
REMARK SMILES IDX 15 85 14 86 19 87 20 88 21 89 22 90
REMARK H PARENT 82 23 48 34 22 91
REMARK Flexibility Score: inf
ROOT
ATOM      1  C   UNL A   1      33.637  34.478  28.663  1.00  0.00     0.275 C 
ENDROOT
BRANCH   1   2
ATOM      2  C   UNL A   1      33.265  33.416  27.631  1.00  0.00     0.275 C 
BRANCH   2   3
ATOM      3  O   UNL A   1      34.357  32.511  27.368  1.00  0.00    -0.458 OA
BRANCH   3   4
ATOM      4  C   UNL A   1      34.530  31.196  27.638  1.00  0.00     0.338 C 
ATOM      5  O   UNL A   1      33.595  30.440  27.361  1.00  0.00    -0.246 OA
BRANCH   4   6
ATOM      6  C   UNL A   1      35.753  30.572  28.255  1.00  0.00     0.060 A 
ATOM      7  C   UNL A   1      35.778  29.560  29.213  1.00  0.00     0.016 A 
ATOM      8  C   UNL A   1      37.002  31.042  27.798  1.00  0.00     0.016 A 
ATOM      9  C   UNL A   1      36.976  29.015  29.684  1.00  0.00     0.010 A 
ATOM     10  C   UNL A   1      38.210  30.488  28.249  1.00  0.00     0.010 A 
ATOM     11  C   UNL A   1      38.202  29.475  29.213  1.00  0.00    -0.014 A 
BRANCH  11  12
ATOM     12  C   UNL A   1      39.445  29.040  29.894  1.00  0.00     0.031 A 
ATOM     13  C   UNL A   1      39.791  29.706  31.189  1.00  0.00     0.074 A 
ATOM     14  C   UNL A   1      40.182  28.004  29.452  1.00  0.00     0.049 A 
ATOM     15  N   UNL A   1      40.808  29.498  31.979  1.00  0.00    -0.248 NA
ATOM     16  C   UNL A   1      38.836  30.714  31.681  1.00  0.00     0.031 C 
ATOM     17  C   UNL A   1      39.835  27.165  28.315  1.00  0.00     0.029 A 
ATOM     18  N   UNL A   1      41.361  27.465  29.900  1.00  0.00    -0.354 N 
ATOM     19  C   UNL A   1      40.614  30.343  33.061  1.00  0.00     0.074 A 
ATOM     20  C   UNL A   1      39.405  31.095  32.812  1.00  0.00     0.031 C 
ATOM     21  C   UNL A   1      40.802  26.259  28.103  1.00  0.00     0.029 A 
ATOM     22  C   UNL A   1      41.838  26.443  29.109  1.00  0.00     0.049 A 
ATOM     23  H   UNL A   1      41.822  27.779  30.711  1.00  0.00     0.167 HD
ATOM     24  C   UNL A   1      41.368  30.464  34.176  1.00  0.00     0.037 A 
ATOM     25  C   UNL A   1      42.980  25.733  29.193  1.00  0.00     0.037 A 
ATOM     26  C   UNL A   1      42.569  29.711  34.408  1.00  0.00     0.049 A 
ATOM     27  C   UNL A   1      43.881  25.984  30.371  1.00  0.00     0.074 A 
ATOM     28  C   UNL A   1      43.441  29.785  35.476  1.00  0.00     0.029 A 
ATOM     29  N   UNL A   1      43.071  28.745  33.544  1.00  0.00    -0.354 N 
ATOM     30  N   UNL A   1      43.705  26.814  31.372  1.00  0.00    -0.248 NA
ATOM     31  C   UNL A   1      45.112  25.189  30.453  1.00  0.00     0.031 C 
ATOM     32  C   UNL A   1      44.493  28.894  35.239  1.00  0.00     0.029 A 
ATOM     33  C   UNL A   1      44.250  28.227  34.047  1.00  0.00     0.049 A 
ATOM     34  H   UNL A   1      42.648  28.470  32.698  1.00  0.00     0.167 HD
ATOM     35  C   UNL A   1      44.774  26.603  32.233  1.00  0.00     0.074 A 
ATOM     36  C   UNL A   1      45.598  25.575  31.625  1.00  0.00     0.031 C 
ATOM     37  C   UNL A   1      45.040  27.192  33.425  1.00  0.00     0.037 A 
BRANCH  24  38
ATOM     38  C   UNL A   1      40.928  31.498  35.169  1.00  0.00     0.058 A 
ATOM     39  C   UNL A   1      41.582  32.736  35.293  1.00  0.00     0.135 A 
ATOM     40  C   UNL A   1      39.891  31.209  36.067  1.00  0.00     0.135 A 
ATOM     41  F   UNL A   1      42.606  33.045  34.480  1.00  0.00    -0.206 F 
ATOM     42  C   UNL A   1      41.253  33.630  36.306  1.00  0.00     0.059 A 
ATOM     43  C   UNL A   1      39.528  32.099  37.072  1.00  0.00     0.059 A 
ATOM     44  F   UNL A   1      39.246  30.034  35.999  1.00  0.00    -0.206 F 
ATOM     45  C   UNL A   1      40.232  33.296  37.198  1.00  0.00     0.060 A 
BRANCH  45  46
ATOM     46  S   UNL A   1      39.850  34.437  38.542  1.00  0.00     0.124 S 
ATOM     47  O   UNL A   1      40.987  34.227  39.433  1.00  0.00    -0.237 OA
ATOM     48  O   UNL A   1      39.810  35.725  37.859  1.00  0.00    -0.237 OA
ATOM     49  O   UNL A   1      38.565  33.955  39.040  1.00  0.00    -0.744 OA
ENDBRANCH  45  46
ENDBRANCH  24  38
BRANCH  25  50
ATOM     50  C   UNL A   1      43.317  24.711  28.163  1.00  0.00     0.058 A 
ATOM     51  C   UNL A   1      42.953  23.366  28.322  1.00  0.00     0.135 A 
ATOM     52  C   UNL A   1      44.015  25.060  26.995  1.00  0.00     0.135 A 
ATOM     53  F   UNL A   1      42.285  22.977  29.418  1.00  0.00    -0.206 F 
ATOM     54  C   UNL A   1      43.286  22.400  27.374  1.00  0.00     0.059 A 
ATOM     55  C   UNL A   1      44.343  24.117  26.023  1.00  0.00     0.059 A 
ATOM     56  F   UNL A   1      44.375  26.336  26.784  1.00  0.00    -0.206 F 
ATOM     57  C   UNL A   1      43.981  22.786  26.227  1.00  0.00     0.060 A 
BRANCH  57  58
ATOM     58  S   UNL A   1      44.377  21.529  24.990  1.00  0.00     0.124 S 
ATOM     59  O   UNL A   1      45.768  21.228  25.311  1.00  0.00    -0.237 OA
ATOM     60  O   UNL A   1      43.409  20.482  25.302  1.00  0.00    -0.237 OA
ATOM     61  O   UNL A   1      44.157  22.221  23.724  1.00  0.00    -0.744 OA
ENDBRANCH  57  58
ENDBRANCH  25  50
BRANCH  37  62
ATOM     62  C   UNL A   1      46.238  26.696  34.179  1.00  0.00     0.058 A 
ATOM     63  C   UNL A   1      47.500  27.292  34.041  1.00  0.00     0.135 A 
ATOM     64  C   UNL A   1      46.103  25.640  35.094  1.00  0.00     0.135 A 
ATOM     65  F   UNL A   1      47.680  28.300  33.173  1.00  0.00    -0.206 F 
ATOM     66  C   UNL A   1      48.594  26.843  34.770  1.00  0.00     0.059 A 
ATOM     67  C   UNL A   1      47.176  25.193  35.854  1.00  0.00     0.059 A 
ATOM     68  F   UNL A   1      44.912  25.044  35.269  1.00  0.00    -0.206 F 
ATOM     69  C   UNL A   1      48.422  25.794  35.676  1.00  0.00     0.060 A 
BRANCH  69  70
ATOM     70  S   UNL A   1      49.841  25.243  36.644  1.00  0.00     0.124 S 
ATOM     71  O   UNL A   1      49.334  25.373  38.006  1.00  0.00    -0.237 OA
ATOM     72  O   UNL A   1      50.035  23.877  36.167  1.00  0.00    -0.237 OA
ATOM     73  O   UNL A   1      50.892  26.185  36.270  1.00  0.00    -0.744 OA
ENDBRANCH  69  70
ENDBRANCH  37  62
ENDBRANCH  11  12
ENDBRANCH   4   6
ENDBRANCH   3   4
ENDBRANCH   2   3
ENDBRANCH   1   2
BRANCH   1  74
ATOM     74  O   UNL A   1      34.895  34.151  29.268  1.00  0.00    -0.458 OA
BRANCH  74  75
ATOM     75  C   UNL A   1      34.867  33.545  30.477  1.00  0.00     0.342 C 
ATOM     76  O   UNL A   1      34.028  32.782  30.901  1.00  0.00    -0.246 OA
BRANCH  75  77
ATOM     77  C   UNL A   1      36.156  33.814  31.137  1.00  0.00     0.102 A 
ATOM     78  C   UNL A   1      37.279  33.606  30.300  1.00  0.00     0.028 A 
ATOM     79  C   UNL A   1      36.329  34.227  32.456  1.00  0.00     0.134 A 
ATOM     80  C   UNL A   1      38.586  33.886  30.737  1.00  0.00    -0.017 A 
ATOM     81  C   UNL A   1      37.653  34.367  32.916  1.00  0.00     0.056 A 
ATOM     82  C   UNL A   1      39.697  33.838  29.875  1.00  0.00     0.009 A 
ATOM     83  C   UNL A   1      38.773  34.277  32.072  1.00  0.00    -0.015 A 
ATOM     84  C   UNL A   1      40.967  34.209  30.325  1.00  0.00     0.001 A 
ATOM     85  C   UNL A   1      40.060  34.620  32.520  1.00  0.00     0.009 A 
ATOM     86  C   UNL A   1      41.148  34.602  31.647  1.00  0.00     0.001 A 
BRANCH  79  87
ATOM     87  O   UNL A   1      35.444  34.519  33.448  1.00  0.00    -0.490 OA
BRANCH  87  88
ATOM     88  C   UNL A   1      34.723  35.740  33.602  1.00  0.00     0.257 C 
BRANCH  88  89
ATOM     89  C   UNL A   1      33.466  35.793  32.721  1.00  0.00     0.197 C 
BRANCH  89  90
ATOM     90  O   UNL A   1      32.653  34.628  32.877  1.00  0.00    -0.393 OA
ATOM     91  H   UNL A   1      32.733  34.296  33.784  1.00  0.00     0.210 HD
ENDBRANCH  89  90
ENDBRANCH  88  89
ENDBRANCH  87  88
ENDBRANCH  79  87
ENDBRANCH  75  77
ENDBRANCH  74  75
ENDBRANCH   1  74
TORSDOF 18
ENDMDL
MODEL 3
REMARK VINA RESULT:     -10.5      5.282      9.933
REMARK SMILES O=C(OCCOC(=O)c1cc2ccccc2cc1OCCO)c1ccc(-c2c3nc(c(-c4c(F)cc(S(=O)(=O)[O-])cc4F)c4ccc([nH]4)c(-c4c(F)cc(S(=O)(=O)[O-])cc4F)c4nc(c(-c5c(F)cc(S(=O)(=O)[O-])cc5F)c5ccc2[nH]5)C=C4)C=C3)cc1
REMARK SMILES IDX 5 1 4 2 3 3 2 4 1 5 23 6 24 7 88 8 25 9 87 10 26 11 27 12
REMARK SMILES IDX 28 13 81 14 29 15 86 16 80 17 82 18 30 19 85 20 79 21 78 22
REMARK SMILES IDX 31 24 65 25 44 26 64 27 45 28 48 29 63 30 83 31 46 32 47 33
REMARK SMILES IDX 62 35 84 36 49 37 32 38 33 39 42 40 34 41 35 42 41 43 43 44
REMARK SMILES IDX 36 45 37 46 38 47 39 48 40 49 66 50 67 51 76 52 68 53 69 54
REMARK SMILES IDX 75 55 77 56 70 57 71 58 72 59 73 60 74 61 50 62 51 63 60 64
REMARK SMILES IDX 52 65 53 66 59 67 61 68 54 69 55 70 56 71 57 72 58 73 6 74
REMARK SMILES IDX 7 75 8 76 9 77 10 78 18 79 11 80 17 81 12 82 16 83 13 84
REMARK SMILES IDX 15 85 14 86 19 87 20 88 21 89 22 90
REMARK H PARENT 82 23 48 34 22 91
REMARK Flexibility Score: inf
ROOT
ATOM      1  C   UNL A   1      38.203  22.356  25.512  1.00  0.00     0.275 C 
ENDROOT
BRANCH   1   2
ATOM      2  C   UNL A   1      38.897  23.239  26.546  1.00  0.00     0.275 C 
BRANCH   2   3
ATOM      3  O   UNL A   1      39.254  24.528  26.005  1.00  0.00    -0.458 OA
BRANCH   3   4
ATOM      4  C   UNL A   1      40.205  25.426  26.353  1.00  0.00     0.338 C 
ATOM      5  O   UNL A   1      41.140  25.585  25.565  1.00  0.00    -0.246 OA
BRANCH   4   6
ATOM      6  C   UNL A   1      40.231  26.241  27.618  1.00  0.00     0.060 A 
ATOM      7  C   UNL A   1      39.370  26.116  28.707  1.00  0.00     0.016 A 
ATOM      8  C   UNL A   1      41.247  27.214  27.723  1.00  0.00     0.016 A 
ATOM      9  C   UNL A   1      39.515  26.894  29.860  1.00  0.00     0.010 A 
ATOM     10  C   UNL A   1      41.413  27.986  28.884  1.00  0.00     0.010 A 
ATOM     11  C   UNL A   1      40.532  27.838  29.958  1.00  0.00    -0.014 A 
BRANCH  11  12
ATOM     12  C   UNL A   1      40.517  28.796  31.090  1.00  0.00     0.031 A 
ATOM     13  C   UNL A   1      39.522  29.914  31.035  1.00  0.00     0.074 A 
ATOM     14  C   UNL A   1      41.270  28.620  32.192  1.00  0.00     0.049 A 
ATOM     15  N   UNL A   1      39.303  30.867  31.898  1.00  0.00    -0.248 NA
ATOM     16  C   UNL A   1      38.624  29.932  29.868  1.00  0.00     0.031 C 
ATOM     17  C   UNL A   1      42.128  27.469  32.433  1.00  0.00     0.029 A 
ATOM     18  N   UNL A   1      41.434  29.384  33.318  1.00  0.00    -0.354 N 
ATOM     19  C   UNL A   1      38.241  31.595  31.381  1.00  0.00     0.074 A 
ATOM     20  C   UNL A   1      37.884  30.999  30.113  1.00  0.00     0.031 C 
ATOM     21  C   UNL A   1      42.783  27.623  33.595  1.00  0.00     0.029 A 
ATOM     22  C   UNL A   1      42.374  28.886  34.194  1.00  0.00     0.049 A 
ATOM     23  H   UNL A   1      40.926  30.212  33.486  1.00  0.00     0.167 HD
ATOM     24  C   UNL A   1      37.605  32.654  31.929  1.00  0.00     0.037 A 
ATOM     25  C   UNL A   1      42.845  29.391  35.351  1.00  0.00     0.037 A 
ATOM     26  C   UNL A   1      37.974  33.236  33.189  1.00  0.00     0.049 A 
ATOM     27  C   UNL A   1      42.220  30.653  35.875  1.00  0.00     0.074 A 
ATOM     28  C   UNL A   1      37.435  34.341  33.820  1.00  0.00     0.029 A 
ATOM     29  N   UNL A   1      38.989  32.758  34.010  1.00  0.00    -0.354 N 
ATOM     30  N   UNL A   1      41.238  31.355  35.358  1.00  0.00    -0.248 NA
ATOM     31  C   UNL A   1      42.736  31.178  37.145  1.00  0.00     0.031 C 
ATOM     32  C   UNL A   1      38.151  34.556  35.002  1.00  0.00     0.029 A 
ATOM     33  C   UNL A   1      39.104  33.555  35.134  1.00  0.00     0.049 A 
ATOM     34  H   UNL A   1      39.543  31.967  33.819  1.00  0.00     0.167 HD
ATOM     35  C   UNL A   1      40.980  32.373  36.267  1.00  0.00     0.074 A 
ATOM     36  C   UNL A   1      41.919  32.201  37.359  1.00  0.00     0.031 C 
ATOM     37  C   UNL A   1      40.040  33.349  36.212  1.00  0.00     0.037 A 
BRANCH  24  38
ATOM     38  C   UNL A   1      36.504  33.264  31.115  1.00  0.00     0.058 A 
ATOM     39  C   UNL A   1      36.766  34.048  29.978  1.00  0.00     0.135 A 
ATOM     40  C   UNL A   1      35.171  33.134  31.531  1.00  0.00     0.135 A 
ATOM     41  F   UNL A   1      38.029  34.234  29.561  1.00  0.00    -0.206 F 
ATOM     42  C   UNL A   1      35.747  34.720  29.311  1.00  0.00     0.059 A 
ATOM     43  C   UNL A   1      34.134  33.776  30.864  1.00  0.00     0.059 A 
ATOM     44  F   UNL A   1      34.870  32.409  32.620  1.00  0.00    -0.206 F 
ATOM     45  C   UNL A   1      34.436  34.586  29.770  1.00  0.00     0.060 A 
BRANCH  45  46
ATOM     46  S   UNL A   1      33.128  35.505  28.932  1.00  0.00     0.124 S 
ATOM     47  O   UNL A   1      32.477  34.448  28.165  1.00  0.00    -0.237 OA
ATOM     48  O   UNL A   1      32.358  36.044  30.048  1.00  0.00    -0.237 OA
ATOM     49  O   UNL A   1      33.860  36.493  28.145  1.00  0.00    -0.744 OA
ENDBRANCH  45  46
ENDBRANCH  24  38
BRANCH  25  50
ATOM     50  C   UNL A   1      43.930  28.694  36.097  1.00  0.00     0.058 A 
ATOM     51  C   UNL A   1      43.659  27.600  36.931  1.00  0.00     0.135 A 
ATOM     52  C   UNL A   1      45.267  29.114  35.992  1.00  0.00     0.135 A 
ATOM     53  F   UNL A   1      42.399  27.157  37.068  1.00  0.00    -0.206 F 
ATOM     54  C   UNL A   1      44.666  26.960  37.650  1.00  0.00     0.059 A 
ATOM     55  C   UNL A   1      46.294  28.479  36.686  1.00  0.00     0.059 A 
ATOM     56  F   UNL A   1      45.587  30.147  35.197  1.00  0.00    -0.206 F 
ATOM     57  C   UNL A   1      45.982  27.407  37.521  1.00  0.00     0.060 A 
BRANCH  57  58
ATOM     58  S   UNL A   1      47.282  26.546  38.435  1.00  0.00     0.124 S 
ATOM     59  O   UNL A   1      46.813  26.680  39.810  1.00  0.00    -0.237 OA
ATOM     60  O   UNL A   1      47.215  25.204  37.865  1.00  0.00    -0.237 OA
ATOM     61  O   UNL A   1      48.485  27.303  38.102  1.00  0.00    -0.744 OA
ENDBRANCH  57  58
ENDBRANCH  25  50
BRANCH  37  62
ATOM     62  C   UNL A   1      39.941  34.269  37.393  1.00  0.00     0.058 A 
ATOM     63  C   UNL A   1      40.563  35.526  37.407  1.00  0.00     0.135 A 
ATOM     64  C   UNL A   1      39.165  33.903  38.504  1.00  0.00     0.135 A 
ATOM     65  F   UNL A   1      41.322  35.916  36.371  1.00  0.00    -0.206 F 
ATOM     66  C   UNL A   1      40.436  36.382  38.495  1.00  0.00     0.059 A 
ATOM     67  C   UNL A   1      39.002  34.753  39.590  1.00  0.00     0.059 A 
ATOM     68  F   UNL A   1      38.542  32.714  38.532  1.00  0.00    -0.206 F 
ATOM     69  C   UNL A   1      39.652  35.987  39.581  1.00  0.00     0.060 A 
BRANCH  69  70
ATOM     70  S   UNL A   1      39.464  37.120  40.972  1.00  0.00     0.124 S 
ATOM     71  O   UNL A   1      40.842  37.549  41.187  1.00  0.00    -0.237 OA
ATOM     72  O   UNL A   1      38.562  38.133  40.432  1.00  0.00    -0.237 OA
ATOM     73  O   UNL A   1      38.895  36.278  42.020  1.00  0.00    -0.744 OA
ENDBRANCH  69  70
ENDBRANCH  37  62
ENDBRANCH  11  12
ENDBRANCH   4   6
ENDBRANCH   3   4
ENDBRANCH   2   3
ENDBRANCH   1   2
BRANCH   1  74
ATOM     74  O   UNL A   1      36.785  22.553  25.574  1.00  0.00    -0.458 OA
BRANCH  74  75
ATOM     75  C   UNL A   1      36.196  23.186  24.535  1.00  0.00     0.342 C 
ATOM     76  O   UNL A   1      36.575  23.228  23.385  1.00  0.00    -0.246 OA
BRANCH  75  77
ATOM     77  C   UNL A   1      34.881  23.665  24.994  1.00  0.00     0.102 A 
ATOM     78  C   UNL A   1      34.861  25.039  25.335  1.00  0.00     0.028 A 
ATOM     79  C   UNL A   1      33.727  22.894  25.116  1.00  0.00     0.134 A 
ATOM     80  C   UNL A   1      33.674  25.686  25.720  1.00  0.00    -0.017 A 
ATOM     81  C   UNL A   1      32.582  23.530  25.637  1.00  0.00     0.056 A 
ATOM     82  C   UNL A   1      33.600  27.079  25.909  1.00  0.00     0.009 A 
ATOM     83  C   UNL A   1      32.513  24.913  25.871  1.00  0.00    -0.015 A 
ATOM     84  C   UNL A   1      32.382  27.696  26.205  1.00  0.00     0.001 A 
ATOM     85  C   UNL A   1      31.299  25.542  26.198  1.00  0.00     0.009 A 
ATOM     86  C   UNL A   1      31.231  26.928  26.348  1.00  0.00     0.001 A 
BRANCH  79  87
ATOM     87  O   UNL A   1      33.464  21.587  24.841  1.00  0.00    -0.490 OA
BRANCH  87  88
ATOM     88  C   UNL A   1      33.768  20.472  25.677  1.00  0.00     0.257 C 
BRANCH  88  89
ATOM     89  C   UNL A   1      32.908  19.242  25.349  1.00  0.00     0.197 C 
BRANCH  89  90
ATOM     90  O   UNL A   1      32.570  18.497  26.520  1.00  0.00    -0.393 OA
ATOM     91  H   UNL A   1      33.345  17.998  26.822  1.00  0.00     0.210 HD
ENDBRANCH  89  90
ENDBRANCH  88  89
ENDBRANCH  87  88
ENDBRANCH  79  87
ENDBRANCH  75  77
ENDBRANCH  74  75
ENDBRANCH   1  74
TORSDOF 18
ENDMDL
