MODEL 1
REMARK VINA RESULT:     -11.4      0.000      0.000
REMARK SMILES CCOC(=O)c1c(NC(=O)[C@@H]2[C@@H]3CC[C@@H](C3)[C@@H]2C(=O)OCCOC(=O)c2ccc(-c3c4nc(c(-c5c(F)cc(S(=O)(=O)[O-])cc5F)c5ccc([nH]5)c(-c5c(F)cc(S(=O)(=O)[O-])cc5F)c5nc(c(-c6c(F)cc(S(=O)(=O)[O-])cc6F)c6ccc3[nH]6)C=C5)C=C4)cc2)sc2c1CCCC2
REMARK SMILES IDX 21 1 20 2 18 3 19 4 17 5 11 6 12 7 13 8 16 9 15 10 14 11
REMARK SMILES IDX 9 12 8 13 10 15 7 16 6 17 94 18 92 19 93 20 95 21 98 22
REMARK SMILES IDX 96 23 97 24 4 25 5 26 3 27 2 28 1 29 22 30 23 31 24 32 25 33
REMARK SMILES IDX 26 34 27 35 91 36 28 37 90 38 29 39 30 40 31 41 84 42 32 43
REMARK SMILES IDX 89 44 83 45 85 46 33 47 88 48 82 49 81 50 34 52 68 53 47 54
REMARK SMILES IDX 67 55 48 56 51 57 66 58 86 59 49 60 50 61 65 63 87 64 52 65
REMARK SMILES IDX 35 66 36 67 45 68 37 69 38 70 44 71 46 72 39 73 40 74 41 75
REMARK SMILES IDX 42 76 43 77 69 78 70 79 79 80 71 81 72 82 78 83 80 84 73 85
REMARK SMILES IDX 74 86 75 87 76 88 77 89 53 90 54 91 63 92 55 93 56 94 62 95
REMARK SMILES IDX 64 96 57 97 58 98 59 99 60 100 61 101
REMARK H PARENT 8 14 85 51 51 62
REMARK Flexibility Score: inf
ROOT
ATOM      1  C   UNL A   1      35.370  23.611  23.639  1.00  0.00     0.274 C 
ENDROOT
BRANCH   1   2
ATOM      2  O   UNL A   1      35.021  24.794  24.392  1.00  0.00    -0.462 OA
BRANCH   2   3
ATOM      3  C   UNL A   1      33.826  25.361  24.048  1.00  0.00     0.310 C 
ATOM      4  O   UNL A   1      33.539  25.650  22.896  1.00  0.00    -0.252 OA
BRANCH   3   5
ATOM      5  C   UNL A   1      33.073  25.852  25.268  1.00  0.00     0.115 C 
ATOM      6  C   UNL A   1      31.514  26.022  25.433  1.00  0.00     0.096 C 
ATOM      7  C   UNL A   1      31.432  27.513  25.714  1.00  0.00     0.003 C 
ATOM      8  C   UNL A   1      31.745  28.297  24.439  1.00  0.00     0.005 C 
ATOM      9  C   UNL A   1      32.628  27.742  26.630  1.00  0.00     0.009 C 
ATOM     10  C   UNL A   1      33.611  27.298  25.571  1.00  0.00     0.004 C 
ATOM     11  C   UNL A   1      33.266  28.328  24.468  1.00  0.00     0.005 C 
BRANCH   6  12
ATOM     12  C   UNL A   1      30.484  25.358  24.521  1.00  0.00     0.229 C 
ATOM     13  N   UNL A   1      30.541  24.097  23.987  1.00  0.00    -0.317 N 
ATOM     14  H   UNL A   1      29.857  23.936  23.297  1.00  0.00     0.170 HD
ATOM     15  O   UNL A   1      29.534  26.062  24.150  1.00  0.00    -0.274 OA
BRANCH  13  16
ATOM     16  C   UNL A   1      31.356  23.004  24.212  1.00  0.00     0.110 A 
ATOM     17  C   UNL A   1      31.891  22.271  25.266  1.00  0.00     0.098 A 
ATOM     18  C   UNL A   1      32.166  20.917  24.788  1.00  0.00    -0.017 A 
ATOM     19  S   UNL A   1      31.955  22.390  22.726  1.00  0.00    -0.122 S 
ATOM     20  C   UNL A   1      32.177  20.856  23.408  1.00  0.00     0.011 A 
ATOM     21  C   UNL A   1      32.352  19.667  25.607  1.00  0.00     0.038 C 
ATOM     22  C   UNL A   1      32.419  19.635  22.571  1.00  0.00     0.047 C 
ATOM     23  C   UNL A   1      33.019  18.543  24.799  1.00  0.00     0.005 C 
ATOM     24  C   UNL A   1      32.360  18.358  23.425  1.00  0.00     0.006 C 
BRANCH  17  25
ATOM     25  C   UNL A   1      32.019  22.707  26.660  1.00  0.00     0.341 C 
ATOM     26  O   UNL A   1      31.052  22.851  27.414  1.00  0.00    -0.246 OA
BRANCH  25  27
ATOM     27  O   UNL A   1      33.290  23.053  27.012  1.00  0.00    -0.462 OA
BRANCH  27  28
ATOM     28  C   UNL A   1      34.040  21.996  27.623  1.00  0.00     0.230 C 
ATOM     29  C   UNL A   1      35.207  21.653  26.717  1.00  0.00     0.049 C 
ENDBRANCH  27  28
ENDBRANCH  25  27
ENDBRANCH  17  25
ENDBRANCH  13  16
ENDBRANCH   6  12
ENDBRANCH   3   5
ENDBRANCH   2   3
ENDBRANCH   1   2
BRANCH   1  30
ATOM     30  C   UNL A   1      36.798  23.159  23.931  1.00  0.00     0.275 C 
BRANCH  30  31
ATOM     31  O   UNL A   1      37.330  23.857  25.074  1.00  0.00    -0.458 OA
BRANCH  31  32
ATOM     32  C   UNL A   1      38.395  23.259  25.666  1.00  0.00     0.338 C 
ATOM     33  O   UNL A   1      38.744  22.101  25.508  1.00  0.00    -0.246 OA
BRANCH  32  34
ATOM     34  C   UNL A   1      39.094  24.188  26.584  1.00  0.00     0.060 A 
ATOM     35  C   UNL A   1      38.889  24.131  27.957  1.00  0.00     0.016 A 
ATOM     36  C   UNL A   1      39.802  25.265  26.057  1.00  0.00     0.016 A 
ATOM     37  C   UNL A   1      39.252  25.201  28.771  1.00  0.00     0.010 A 
ATOM     38  C   UNL A   1      40.286  26.277  26.906  1.00  0.00     0.010 A 
ATOM     39  C   UNL A   1      39.970  26.296  28.276  1.00  0.00    -0.014 A 
BRANCH  39  40
ATOM     40  C   UNL A   1      40.301  27.462  29.168  1.00  0.00     0.031 A 
ATOM     41  C   UNL A   1      41.649  27.555  29.855  1.00  0.00     0.074 A 
ATOM     42  C   UNL A   1      39.456  28.509  29.312  1.00  0.00     0.049 A 
ATOM     43  N   UNL A   1      42.035  28.362  30.815  1.00  0.00    -0.248 NA
ATOM     44  C   UNL A   1      42.696  26.620  29.416  1.00  0.00     0.031 C 
ATOM     45  C   UNL A   1      38.160  28.657  28.649  1.00  0.00     0.029 A 
ATOM     46  N   UNL A   1      39.588  29.686  30.017  1.00  0.00    -0.354 N 
ATOM     47  C   UNL A   1      43.318  27.958  31.169  1.00  0.00     0.074 A 
ATOM     48  C   UNL A   1      43.664  26.860  30.292  1.00  0.00     0.031 C 
ATOM     49  C   UNL A   1      37.684  29.888  28.870  1.00  0.00     0.029 A 
ATOM     50  C   UNL A   1      38.543  30.562  29.837  1.00  0.00     0.049 A 
ATOM     51  H   UNL A   1      40.360  29.881  30.597  1.00  0.00     0.167 HD
ATOM     52  C   UNL A   1      44.120  28.440  32.153  1.00  0.00     0.037 A 
ATOM     53  C   UNL A   1      38.249  31.742  30.422  1.00  0.00     0.037 A 
ATOM     54  C   UNL A   1      43.807  29.592  32.965  1.00  0.00     0.049 A 
ATOM     55  C   UNL A   1      39.128  32.248  31.530  1.00  0.00     0.074 A 
ATOM     56  C   UNL A   1      44.542  30.134  34.007  1.00  0.00     0.029 A 
ATOM     57  N   UNL A   1      42.688  30.396  32.814  1.00  0.00    -0.354 N 
ATOM     58  N   UNL A   1      40.260  31.758  31.974  1.00  0.00    -0.248 NA
ATOM     59  C   UNL A   1      38.659  33.436  32.258  1.00  0.00     0.031 C 
ATOM     60  C   UNL A   1      43.841  31.232  34.519  1.00  0.00     0.029 A 
ATOM     61  C   UNL A   1      42.700  31.414  33.756  1.00  0.00     0.049 A 
ATOM     62  H   UNL A   1      41.985  30.262  32.137  1.00  0.00     0.167 HD
ATOM     63  C   UNL A   1      40.628  32.565  33.044  1.00  0.00     0.074 A 
ATOM     64  C   UNL A   1      39.622  33.602  33.154  1.00  0.00     0.031 C 
ATOM     65  C   UNL A   1      41.696  32.443  33.873  1.00  0.00     0.037 A 
BRANCH  52  66
ATOM     66  C   UNL A   1      45.372  27.665  32.479  1.00  0.00     0.058 A 
ATOM     67  C   UNL A   1      46.595  27.870  31.826  1.00  0.00     0.135 A 
ATOM     68  C   UNL A   1      45.336  26.701  33.504  1.00  0.00     0.135 A 
ATOM     69  F   UNL A   1      46.689  28.768  30.832  1.00  0.00    -0.206 F 
ATOM     70  C   UNL A   1      47.727  27.121  32.146  1.00  0.00     0.059 A 
ATOM     71  C   UNL A   1      46.460  25.965  33.864  1.00  0.00     0.059 A 
ATOM     72  F   UNL A   1      44.195  26.466  34.172  1.00  0.00    -0.206 F 
ATOM     73  C   UNL A   1      47.647  26.166  33.163  1.00  0.00     0.060 A 
BRANCH  73  74
ATOM     74  S   UNL A   1      49.111  25.183  33.551  1.00  0.00     0.124 S 
ATOM     75  O   UNL A   1      49.697  24.999  32.228  1.00  0.00    -0.237 OA
ATOM     76  O   UNL A   1      49.849  26.062  34.454  1.00  0.00    -0.237 OA
ATOM     77  O   UNL A   1      48.561  23.978  34.166  1.00  0.00    -0.744 OA
ENDBRANCH  73  74
ENDBRANCH  52  66
BRANCH  53  78
ATOM     78  C   UNL A   1      37.008  32.474  30.037  1.00  0.00     0.058 A 
ATOM     79  C   UNL A   1      35.779  32.192  30.649  1.00  0.00     0.135 A 
ATOM     80  C   UNL A   1      37.036  33.496  29.073  1.00  0.00     0.135 A 
ATOM     81  F   UNL A   1      35.689  31.209  31.558  1.00  0.00    -0.206 F 
ATOM     82  C   UNL A   1      34.626  32.907  30.331  1.00  0.00     0.059 A 
ATOM     83  C   UNL A   1      35.910  34.254  28.773  1.00  0.00     0.059 A 
ATOM     84  F   UNL A   1      38.184  33.805  28.450  1.00  0.00    -0.206 F 
ATOM     85  C   UNL A   1      34.707  33.947  29.404  1.00  0.00     0.060 A 
BRANCH  85  86
ATOM     86  S   UNL A   1      33.237  34.945  29.077  1.00  0.00     0.124 S 
ATOM     87  O   UNL A   1      32.610  34.982  30.392  1.00  0.00    -0.237 OA
ATOM     88  O   UNL A   1      33.817  36.201  28.609  1.00  0.00    -0.237 OA
ATOM     89  O   UNL A   1      32.530  34.174  28.058  1.00  0.00    -0.744 OA
ENDBRANCH  85  86
ENDBRANCH  53  78
BRANCH  65  90
ATOM     90  C   UNL A   1      41.845  33.463  34.969  1.00  0.00     0.058 A 
ATOM     91  C   UNL A   1      41.336  33.240  36.259  1.00  0.00     0.135 A 
ATOM     92  C   UNL A   1      42.539  34.661  34.741  1.00  0.00     0.135 A 
ATOM     93  F   UNL A   1      40.655  32.115  36.533  1.00  0.00    -0.206 F 
ATOM     94  C   UNL A   1      41.487  34.180  37.275  1.00  0.00     0.059 A 
ATOM     95  C   UNL A   1      42.728  35.602  35.749  1.00  0.00     0.059 A 
ATOM     96  F   UNL A   1      43.054  34.924  33.529  1.00  0.00    -0.206 F 
ATOM     97  C   UNL A   1      42.186  35.358  37.011  1.00  0.00     0.060 A 
BRANCH  97  98
ATOM     98  S   UNL A   1      42.396  36.559  38.343  1.00  0.00     0.124 S 
ATOM     99  O   UNL A   1      43.385  37.466  37.770  1.00  0.00    -0.237 OA
ATOM    100  O   UNL A   1      41.049  37.100  38.490  1.00  0.00    -0.237 OA
ATOM    101  O   UNL A   1      42.864  35.748  39.463  1.00  0.00    -0.744 OA
ENDBRANCH  97  98
ENDBRANCH  65  90
ENDBRANCH  39  40
ENDBRANCH  32  34
ENDBRANCH  31  32
ENDBRANCH  30  31
ENDBRANCH   1  30
TORSDOF 19
ENDMDL
MODEL 2
REMARK VINA RESULT:     -11.1      1.273      3.640
REMARK SMILES CCOC(=O)c1c(NC(=O)[C@@H]2[C@@H]3CC[C@@H](C3)[C@@H]2C(=O)OCCOC(=O)c2ccc(-c3c4nc(c(-c5c(F)cc(S(=O)(=O)[O-])cc5F)c5ccc([nH]5)c(-c5c(F)cc(S(=O)(=O)[O-])cc5F)c5nc(c(-c6c(F)cc(S(=O)(=O)[O-])cc6F)c6ccc3[nH]6)C=C5)C=C4)cc2)sc2c1CCCC2
REMARK SMILES IDX 21 1 20 2 18 3 19 4 17 5 11 6 12 7 13 8 16 9 15 10 14 11
REMARK SMILES IDX 9 12 8 13 10 15 7 16 6 17 94 18 92 19 93 20 95 21 98 22
REMARK SMILES IDX 96 23 97 24 4 25 5 26 3 27 2 28 1 29 22 30 23 31 24 32 25 33
REMARK SMILES IDX 26 34 27 35 91 36 28 37 90 38 29 39 30 40 31 41 84 42 32 43
REMARK SMILES IDX 89 44 83 45 85 46 33 47 88 48 82 49 81 50 34 52 68 53 47 54
REMARK SMILES IDX 67 55 48 56 51 57 66 58 86 59 49 60 50 61 65 63 87 64 52 65
REMARK SMILES IDX 35 66 36 67 45 68 37 69 38 70 44 71 46 72 39 73 40 74 41 75
REMARK SMILES IDX 42 76 43 77 69 78 70 79 79 80 71 81 72 82 78 83 80 84 73 85
REMARK SMILES IDX 74 86 75 87 76 88 77 89 53 90 54 91 63 92 55 93 56 94 62 95
REMARK SMILES IDX 64 96 57 97 58 98 59 99 60 100 61 101
REMARK H PARENT 8 14 85 51 51 62
REMARK Flexibility Score: inf
ROOT
ATOM      1  C   UNL A   1      36.777  20.887  24.623  1.00  0.00     0.274 C 
ENDROOT
BRANCH   1   2
ATOM      2  O   UNL A   1      35.470  21.491  24.750  1.00  0.00    -0.462 OA
BRANCH   2   3
ATOM      3  C   UNL A   1      34.461  20.617  25.042  1.00  0.00     0.310 C 
ATOM      4  O   UNL A   1      34.438  19.470  24.624  1.00  0.00    -0.252 OA
BRANCH   3   5
ATOM      5  C   UNL A   1      33.273  21.328  25.658  1.00  0.00     0.115 C 
ATOM      6  C   UNL A   1      32.584  22.658  25.164  1.00  0.00     0.096 C 
ATOM      7  C   UNL A   1      32.787  23.539  26.385  1.00  0.00     0.003 C 
ATOM      8  C   UNL A   1      34.263  23.922  26.507  1.00  0.00     0.005 C 
ATOM      9  C   UNL A   1      32.527  22.572  27.535  1.00  0.00     0.009 C 
ATOM     10  C   UNL A   1      33.680  21.680  27.134  1.00  0.00     0.004 C 
ATOM     11  C   UNL A   1      34.832  22.709  27.228  1.00  0.00     0.005 C 
BRANCH   6  12
ATOM     12  C   UNL A   1      32.765  23.240  23.763  1.00  0.00     0.229 C 
ATOM     13  N   UNL A   1      32.575  24.542  23.375  1.00  0.00    -0.317 N 
ATOM     14  H   UNL A   1      32.586  24.661  22.398  1.00  0.00     0.170 HD
ATOM     15  O   UNL A   1      33.028  22.437  22.856  1.00  0.00    -0.274 OA
BRANCH  13  16
ATOM     16  C   UNL A   1      32.371  25.720  24.067  1.00  0.00     0.110 A 
ATOM     17  C   UNL A   1      31.432  26.321  24.899  1.00  0.00     0.098 A 
ATOM     18  C   UNL A   1      32.121  27.307  25.729  1.00  0.00    -0.017 A 
ATOM     19  S   UNL A   1      33.645  26.825  23.751  1.00  0.00    -0.122 S 
ATOM     20  C   UNL A   1      33.366  27.623  25.219  1.00  0.00     0.011 A 
ATOM     21  C   UNL A   1      31.657  27.908  27.029  1.00  0.00     0.038 C 
ATOM     22  C   UNL A   1      34.352  28.588  25.806  1.00  0.00     0.047 C 
ATOM     23  C   UNL A   1      32.438  29.183  27.386  1.00  0.00     0.005 C 
ATOM     24  C   UNL A   1      33.952  28.987  27.235  1.00  0.00     0.006 C 
BRANCH  17  25
ATOM     25  C   UNL A   1      30.025  25.939  25.049  1.00  0.00     0.341 C 
ATOM     26  O   UNL A   1      29.549  25.518  26.108  1.00  0.00    -0.246 OA
BRANCH  25  27
ATOM     27  O   UNL A   1      29.318  25.981  23.884  1.00  0.00    -0.462 OA
BRANCH  27  28
ATOM     28  C   UNL A   1      28.362  27.046  23.813  1.00  0.00     0.230 C 
ATOM     29  C   UNL A   1      29.017  28.231  23.130  1.00  0.00     0.049 C 
ENDBRANCH  27  28
ENDBRANCH  25  27
ENDBRANCH  17  25
ENDBRANCH  13  16
ENDBRANCH   6  12
ENDBRANCH   3   5
ENDBRANCH   2   3
ENDBRANCH   1   2
BRANCH   1  30
ATOM     30  C   UNL A   1      37.717  21.339  25.737  1.00  0.00     0.275 C 
BRANCH  30  31
ATOM     31  O   UNL A   1      38.387  22.563  25.374  1.00  0.00    -0.458 OA
BRANCH  31  32
ATOM     32  C   UNL A   1      39.544  22.802  26.040  1.00  0.00     0.338 C 
ATOM     33  O   UNL A   1      40.503  22.050  26.102  1.00  0.00    -0.246 OA
BRANCH  32  34
ATOM     34  C   UNL A   1      39.505  24.108  26.738  1.00  0.00     0.060 A 
ATOM     35  C   UNL A   1      40.298  25.169  26.321  1.00  0.00     0.016 A 
ATOM     36  C   UNL A   1      38.824  24.216  27.948  1.00  0.00     0.016 A 
ATOM     37  C   UNL A   1      40.529  26.253  27.165  1.00  0.00     0.010 A 
ATOM     38  C   UNL A   1      38.955  25.376  28.732  1.00  0.00     0.010 A 
ATOM     39  C   UNL A   1      39.858  26.396  28.385  1.00  0.00    -0.014 A 
BRANCH  39  40
ATOM     40  C   UNL A   1      40.168  27.551  29.300  1.00  0.00     0.031 A 
ATOM     41  C   UNL A   1      41.490  27.625  30.036  1.00  0.00     0.074 A 
ATOM     42  C   UNL A   1      39.327  28.605  29.422  1.00  0.00     0.049 A 
ATOM     43  N   UNL A   1      41.848  28.420  31.016  1.00  0.00    -0.248 NA
ATOM     44  C   UNL A   1      42.544  26.683  29.627  1.00  0.00     0.031 C 
ATOM     45  C   UNL A   1      38.058  28.771  28.714  1.00  0.00     0.029 A 
ATOM     46  N   UNL A   1      39.444  29.774  30.143  1.00  0.00    -0.354 N 
ATOM     47  C   UNL A   1      43.114  28.000  31.413  1.00  0.00     0.074 A 
ATOM     48  C   UNL A   1      43.481  26.906  30.539  1.00  0.00     0.031 C 
ATOM     49  C   UNL A   1      37.586  30.005  28.929  1.00  0.00     0.029 A 
ATOM     50  C   UNL A   1      38.415  30.662  29.932  1.00  0.00     0.049 A 
ATOM     51  H   UNL A   1      40.196  29.956  30.752  1.00  0.00     0.167 HD
ATOM     52  C   UNL A   1      43.883  28.465  32.430  1.00  0.00     0.037 A 
ATOM     53  C   UNL A   1      38.111  31.839  30.517  1.00  0.00     0.037 A 
ATOM     54  C   UNL A   1      43.553  29.612  33.241  1.00  0.00     0.049 A 
ATOM     55  C   UNL A   1      38.953  32.327  31.661  1.00  0.00     0.074 A 
ATOM     56  C   UNL A   1      44.254  30.139  34.314  1.00  0.00     0.029 A 
ATOM     57  N   UNL A   1      42.447  30.429  33.056  1.00  0.00    -0.354 N 
ATOM     58  N   UNL A   1      40.064  31.822  32.141  1.00  0.00    -0.248 NA
ATOM     59  C   UNL A   1      38.469  33.512  32.383  1.00  0.00     0.031 C 
ATOM     60  C   UNL A   1      43.545  31.238  34.810  1.00  0.00     0.029 A 
ATOM     61  C   UNL A   1      42.435  31.438  34.007  1.00  0.00     0.049 A 
ATOM     62  H   UNL A   1      41.768  30.308  32.353  1.00  0.00     0.167 HD
ATOM     63  C   UNL A   1      40.401  32.616  33.232  1.00  0.00     0.074 A 
ATOM     64  C   UNL A   1      39.401  33.661  33.315  1.00  0.00     0.031 C 
ATOM     65  C   UNL A   1      41.436  32.475  34.097  1.00  0.00     0.037 A 
BRANCH  52  66
ATOM     66  C   UNL A   1      45.116  27.675  32.794  1.00  0.00     0.058 A 
ATOM     67  C   UNL A   1      45.096  26.579  33.669  1.00  0.00     0.135 A 
ATOM     68  C   UNL A   1      46.352  28.026  32.221  1.00  0.00     0.135 A 
ATOM     69  F   UNL A   1      43.949  26.203  34.256  1.00  0.00    -0.206 F 
ATOM     70  C   UNL A   1      46.261  25.885  33.993  1.00  0.00     0.059 A 
ATOM     71  C   UNL A   1      47.521  27.328  32.503  1.00  0.00     0.059 A 
ATOM     72  F   UNL A   1      46.433  29.062  31.370  1.00  0.00    -0.206 F 
ATOM     73  C   UNL A   1      47.470  26.271  33.409  1.00  0.00     0.060 A 
BRANCH  73  74
ATOM     74  S   UNL A   1      48.977  25.383  33.857  1.00  0.00     0.124 S 
ATOM     75  O   UNL A   1      49.671  26.378  34.667  1.00  0.00    -0.237 OA
ATOM     76  O   UNL A   1      48.456  24.228  34.582  1.00  0.00    -0.237 OA
ATOM     77  O   UNL A   1      49.594  25.083  32.568  1.00  0.00    -0.744 OA
ENDBRANCH  73  74
ENDBRANCH  52  66
BRANCH  53  78
ATOM     78  C   UNL A   1      36.892  32.586  30.095  1.00  0.00     0.058 A 
ATOM     79  C   UNL A   1      35.636  32.304  30.651  1.00  0.00     0.135 A 
ATOM     80  C   UNL A   1      36.966  33.625  29.150  1.00  0.00     0.135 A 
ATOM     81  F   UNL A   1      35.503  31.306  31.538  1.00  0.00    -0.206 F 
ATOM     82  C   UNL A   1      34.503  33.031  30.298  1.00  0.00     0.059 A 
ATOM     83  C   UNL A   1      35.858  34.395  28.817  1.00  0.00     0.059 A 
ATOM     84  F   UNL A   1      38.141  33.935  28.581  1.00  0.00    -0.206 F 
ATOM     85  C   UNL A   1      34.628  34.087  29.393  1.00  0.00     0.060 A 
BRANCH  85  86
ATOM     86  S   UNL A   1      33.180  35.101  29.023  1.00  0.00     0.124 S 
ATOM     87  O   UNL A   1      32.539  35.184  30.330  1.00  0.00    -0.237 OA
ATOM     88  O   UNL A   1      33.787  36.333  28.528  1.00  0.00    -0.237 OA
ATOM     89  O   UNL A   1      32.470  34.315  28.018  1.00  0.00    -0.744 OA
ENDBRANCH  85  86
ENDBRANCH  53  78
BRANCH  65  90
ATOM     90  C   UNL A   1      41.555  33.484  35.208  1.00  0.00     0.058 A 
ATOM     91  C   UNL A   1      42.296  34.667  35.055  1.00  0.00     0.135 A 
ATOM     92  C   UNL A   1      40.888  33.287  36.428  1.00  0.00     0.135 A 
ATOM     93  F   UNL A   1      42.962  34.906  33.914  1.00  0.00    -0.206 F 
ATOM     94  C   UNL A   1      42.393  35.604  36.081  1.00  0.00     0.059 A 
ATOM     95  C   UNL A   1      40.947  34.223  37.456  1.00  0.00     0.059 A 
ATOM     96  F   UNL A   1      40.158  32.177  36.627  1.00  0.00    -0.206 F 
ATOM     97  C   UNL A   1      41.714  35.374  37.277  1.00  0.00     0.060 A 
BRANCH  97  98
ATOM     98  S   UNL A   1      41.828  36.608  38.590  1.00  0.00     0.124 S 
ATOM     99  O   UNL A   1      42.850  37.506  38.062  1.00  0.00    -0.237 OA
ATOM    100  O   UNL A   1      40.472  37.146  38.631  1.00  0.00    -0.237 OA
ATOM    101  O   UNL A   1      42.222  35.828  39.759  1.00  0.00    -0.744 OA
ENDBRANCH  97  98
ENDBRANCH  65  90
ENDBRANCH  39  40
ENDBRANCH  32  34
ENDBRANCH  31  32
ENDBRANCH  30  31
ENDBRANCH   1  30
TORSDOF 19
ENDMDL
MODEL 3
REMARK VINA RESULT:     -11.0      3.324      4.940
REMARK SMILES CCOC(=O)c1c(NC(=O)[C@@H]2[C@@H]3CC[C@@H](C3)[C@@H]2C(=O)OCCOC(=O)c2ccc(-c3c4nc(c(-c5c(F)cc(S(=O)(=O)[O-])cc5F)c5ccc([nH]5)c(-c5c(F)cc(S(=O)(=O)[O-])cc5F)c5nc(c(-c6c(F)cc(S(=O)(=O)[O-])cc6F)c6ccc3[nH]6)C=C5)C=C4)cc2)sc2c1CCCC2
REMARK SMILES IDX 21 1 20 2 18 3 19 4 17 5 11 6 12 7 13 8 16 9 15 10 14 11
REMARK SMILES IDX 9 12 8 13 10 15 7 16 6 17 94 18 92 19 93 20 95 21 98 22
REMARK SMILES IDX 96 23 97 24 4 25 5 26 3 27 2 28 1 29 22 30 23 31 24 32 25 33
REMARK SMILES IDX 26 34 27 35 91 36 28 37 90 38 29 39 30 40 31 41 84 42 32 43
REMARK SMILES IDX 89 44 83 45 85 46 33 47 88 48 82 49 81 50 34 52 68 53 47 54
REMARK SMILES IDX 67 55 48 56 51 57 66 58 86 59 49 60 50 61 65 63 87 64 52 65
REMARK SMILES IDX 35 66 36 67 45 68 37 69 38 70 44 71 46 72 39 73 40 74 41 75
REMARK SMILES IDX 42 76 43 77 69 78 70 79 79 80 71 81 72 82 78 83 80 84 73 85
REMARK SMILES IDX 74 86 75 87 76 88 77 89 53 90 54 91 63 92 55 93 56 94 62 95
REMARK SMILES IDX 64 96 57 97 58 98 59 99 60 100 61 101
REMARK H PARENT 8 14 85 51 51 62
REMARK Flexibility Score: inf
ROOT
ATOM      1  C   UNL A   1      36.033  21.060  25.668  1.00  0.00     0.274 C 
ENDROOT
BRANCH   1   2
ATOM      2  O   UNL A   1      34.995  20.409  24.902  1.00  0.00    -0.462 OA
BRANCH   2   3
ATOM      3  C   UNL A   1      33.876  21.166  24.695  1.00  0.00     0.310 C 
ATOM      4  O   UNL A   1      32.805  20.683  24.361  1.00  0.00    -0.252 OA
BRANCH   3   5
ATOM      5  C   UNL A   1      34.209  22.642  24.625  1.00  0.00     0.115 C 
ATOM      6  C   UNL A   1      33.375  23.846  25.211  1.00  0.00     0.096 C 
ATOM      7  C   UNL A   1      33.086  24.621  23.937  1.00  0.00     0.003 C 
ATOM      8  C   UNL A   1      32.068  23.859  23.088  1.00  0.00     0.005 C 
ATOM      9  C   UNL A   1      34.404  24.512  23.179  1.00  0.00     0.009 C 
ATOM     10  C   UNL A   1      34.311  23.005  23.100  1.00  0.00     0.004 C 
ATOM     11  C   UNL A   1      32.966  22.880  22.344  1.00  0.00     0.005 C 
BRANCH   6  12
ATOM     12  C   UNL A   1      32.290  23.691  26.274  1.00  0.00     0.229 C 
ATOM     13  N   UNL A   1      31.373  24.633  26.667  1.00  0.00    -0.317 N 
ATOM     14  H   UNL A   1      30.879  24.378  27.479  1.00  0.00     0.170 HD
ATOM     15  O   UNL A   1      32.287  22.631  26.917  1.00  0.00    -0.274 OA
BRANCH  13  16
ATOM     16  C   UNL A   1      30.998  25.863  26.164  1.00  0.00     0.110 A 
ATOM     17  C   UNL A   1      31.369  27.202  26.231  1.00  0.00     0.098 A 
ATOM     18  C   UNL A   1      30.926  27.862  25.004  1.00  0.00    -0.017 A 
ATOM     19  S   UNL A   1      29.588  25.708  25.200  1.00  0.00    -0.122 S 
ATOM     20  C   UNL A   1      29.982  27.108  24.332  1.00  0.00     0.011 A 
ATOM     21  C   UNL A   1      31.423  29.156  24.418  1.00  0.00     0.038 C 
ATOM     22  C   UNL A   1      29.311  27.465  23.040  1.00  0.00     0.047 C 
ATOM     23  C   UNL A   1      30.455  29.723  23.368  1.00  0.00     0.005 C 
ATOM     24  C   UNL A   1      30.012  28.653  22.362  1.00  0.00     0.006 C 
BRANCH  17  25
ATOM     25  C   UNL A   1      32.197  27.830  27.265  1.00  0.00     0.341 C 
ATOM     26  O   UNL A   1      31.778  28.097  28.396  1.00  0.00    -0.246 OA
BRANCH  25  27
ATOM     27  O   UNL A   1      33.434  28.199  26.827  1.00  0.00    -0.462 OA
BRANCH  27  28
ATOM     28  C   UNL A   1      33.834  29.515  27.231  1.00  0.00     0.230 C 
ATOM     29  C   UNL A   1      35.237  29.435  27.800  1.00  0.00     0.049 C 
ENDBRANCH  27  28
ENDBRANCH  25  27
ENDBRANCH  17  25
ENDBRANCH  13  16
ENDBRANCH   6  12
ENDBRANCH   3   5
ENDBRANCH   2   3
ENDBRANCH   1   2
BRANCH   1  30
ATOM     30  C   UNL A   1      37.394  20.942  24.986  1.00  0.00     0.275 C 
BRANCH  30  31
ATOM     31  O   UNL A   1      38.196  22.111  25.246  1.00  0.00    -0.458 OA
BRANCH  31  32
ATOM     32  C   UNL A   1      39.221  21.921  26.114  1.00  0.00     0.338 C 
ATOM     33  O   UNL A   1      39.802  20.866  26.316  1.00  0.00    -0.246 OA
BRANCH  32  34
ATOM     34  C   UNL A   1      39.550  23.168  26.842  1.00  0.00     0.060 A 
ATOM     35  C   UNL A   1      38.967  24.379  26.492  1.00  0.00     0.016 A 
ATOM     36  C   UNL A   1      40.606  23.172  27.749  1.00  0.00     0.016 A 
ATOM     37  C   UNL A   1      39.523  25.582  26.920  1.00  0.00     0.010 A 
ATOM     38  C   UNL A   1      41.076  24.385  28.284  1.00  0.00     0.010 A 
ATOM     39  C   UNL A   1      40.581  25.622  27.835  1.00  0.00    -0.014 A 
BRANCH  39  40
ATOM     40  C   UNL A   1      41.196  26.936  28.239  1.00  0.00     0.031 A 
ATOM     41  C   UNL A   1      42.654  27.231  27.948  1.00  0.00     0.074 A 
ATOM     42  C   UNL A   1      40.456  27.930  28.781  1.00  0.00     0.049 A 
ATOM     43  N   UNL A   1      43.407  28.206  28.401  1.00  0.00    -0.248 NA
ATOM     44  C   UNL A   1      43.361  26.315  27.040  1.00  0.00     0.031 C 
ATOM     45  C   UNL A   1      39.017  27.878  29.040  1.00  0.00     0.029 A 
ATOM     46  N   UNL A   1      40.801  29.210  29.159  1.00  0.00    -0.354 N 
ATOM     47  C   UNL A   1      44.692  27.954  27.929  1.00  0.00     0.074 A 
ATOM     48  C   UNL A   1      44.609  26.758  27.119  1.00  0.00     0.031 C 
ATOM     49  C   UNL A   1      38.585  29.093  29.401  1.00  0.00     0.029 A 
ATOM     50  C   UNL A   1      39.735  29.970  29.582  1.00  0.00     0.049 A 
ATOM     51  H   UNL A   1      41.725  29.549  29.127  1.00  0.00     0.167 HD
ATOM     52  C   UNL A   1      45.836  28.642  28.174  1.00  0.00     0.037 A 
ATOM     53  C   UNL A   1      39.673  31.205  30.124  1.00  0.00     0.037 A 
ATOM     54  C   UNL A   1      45.899  29.883  28.909  1.00  0.00     0.049 A 
ATOM     55  C   UNL A   1      40.948  31.941  30.418  1.00  0.00     0.074 A 
ATOM     56  C   UNL A   1      47.016  30.634  29.235  1.00  0.00     0.029 A 
ATOM     57  N   UNL A   1      44.803  30.571  29.407  1.00  0.00    -0.354 N 
ATOM     58  N   UNL A   1      42.180  31.608  30.116  1.00  0.00    -0.248 NA
ATOM     59  C   UNL A   1      40.831  33.192  31.179  1.00  0.00     0.031 C 
ATOM     60  C   UNL A   1      46.600  31.747  29.975  1.00  0.00     0.029 A 
ATOM     61  C   UNL A   1      45.219  31.725  30.056  1.00  0.00     0.049 A 
ATOM     62  H   UNL A   1      43.866  30.283  29.315  1.00  0.00     0.167 HD
ATOM     63  C   UNL A   1      42.985  32.599  30.667  1.00  0.00     0.074 A 
ATOM     64  C   UNL A   1      42.100  33.567  31.282  1.00  0.00     0.031 C 
ATOM     65  C   UNL A   1      44.339  32.685  30.677  1.00  0.00     0.037 A 
BRANCH  52  66
ATOM     66  C   UNL A   1      47.136  28.019  27.730  1.00  0.00     0.058 A 
ATOM     67  C   UNL A   1      47.841  27.081  28.498  1.00  0.00     0.135 A 
ATOM     68  C   UNL A   1      47.673  28.367  26.477  1.00  0.00     0.135 A 
ATOM     69  F   UNL A   1      47.386  26.717  29.707  1.00  0.00    -0.206 F 
ATOM     70  C   UNL A   1      49.049  26.541  28.059  1.00  0.00     0.059 A 
ATOM     71  C   UNL A   1      48.859  27.816  26.003  1.00  0.00     0.059 A 
ATOM     72  F   UNL A   1      47.039  29.254  25.693  1.00  0.00    -0.206 F 
ATOM     73  C   UNL A   1      49.552  26.919  26.811  1.00  0.00     0.060 A 
BRANCH  73  74
ATOM     74  S   UNL A   1      51.131  26.234  26.264  1.00  0.00     0.124 S 
ATOM     75  O   UNL A   1      50.976  26.269  24.814  1.00  0.00    -0.237 OA
ATOM     76  O   UNL A   1      52.093  27.180  26.822  1.00  0.00    -0.237 OA
ATOM     77  O   UNL A   1      51.150  24.901  26.860  1.00  0.00    -0.744 OA
ENDBRANCH  73  74
ENDBRANCH  52  66
BRANCH  53  78
ATOM     78  C   UNL A   1      38.353  31.777  30.519  1.00  0.00     0.058 A 
ATOM     79  C   UNL A   1      37.797  31.520  31.780  1.00  0.00     0.135 A 
ATOM     80  C   UNL A   1      37.639  32.622  29.653  1.00  0.00     0.135 A 
ATOM     81  F   UNL A   1      38.424  30.700  32.638  1.00  0.00    -0.206 F 
ATOM     82  C   UNL A   1      36.590  32.092  32.174  1.00  0.00     0.059 A 
ATOM     83  C   UNL A   1      36.456  33.241  30.041  1.00  0.00     0.059 A 
ATOM     84  F   UNL A   1      38.120  32.897  28.431  1.00  0.00    -0.206 F 
ATOM     85  C   UNL A   1      35.937  32.965  31.304  1.00  0.00     0.060 A 
BRANCH  85  86
ATOM     86  S   UNL A   1      34.431  33.794  31.860  1.00  0.00     0.124 S 
ATOM     87  O   UNL A   1      34.976  34.920  32.607  1.00  0.00    -0.237 OA
ATOM     88  O   UNL A   1      33.776  34.120  30.596  1.00  0.00    -0.237 OA
ATOM     89  O   UNL A   1      33.761  32.769  32.656  1.00  0.00    -0.744 OA
ENDBRANCH  85  86
ENDBRANCH  53  78
BRANCH  65  90
ATOM     90  C   UNL A   1      44.955  33.874  31.364  1.00  0.00     0.058 A 
ATOM     91  C   UNL A   1      45.333  33.831  32.716  1.00  0.00     0.135 A 
ATOM     92  C   UNL A   1      45.207  35.059  30.655  1.00  0.00     0.135 A 
ATOM     93  F   UNL A   1      45.109  32.727  33.447  1.00  0.00    -0.206 F 
ATOM     94  C   UNL A   1      45.915  34.929  33.346  1.00  0.00     0.059 A 
ATOM     95  C   UNL A   1      45.814  36.158  31.255  1.00  0.00     0.059 A 
ATOM     96  F   UNL A   1      44.873  35.154  29.357  1.00  0.00    -0.206 F 
ATOM     97  C   UNL A   1      46.152  36.088  32.606  1.00  0.00     0.060 A 
BRANCH  97  98
ATOM     98  S   UNL A   1      46.929  37.496  33.428  1.00  0.00     0.124 S 
ATOM     99  O   UNL A   1      48.259  36.971  33.717  1.00  0.00    -0.237 OA
ATOM    100  O   UNL A   1      46.865  38.531  32.401  1.00  0.00    -0.237 OA
ATOM    101  O   UNL A   1      46.078  37.724  34.592  1.00  0.00    -0.744 OA
ENDBRANCH  97  98
ENDBRANCH  65  90
ENDBRANCH  39  40
ENDBRANCH  32  34
ENDBRANCH  31  32
ENDBRANCH  30  31
ENDBRANCH   1  30
TORSDOF 19
ENDMDL
