MODEL 1
REMARK VINA RESULT:     -12.0      0.000      0.000
REMARK SMILES O=C(OCCOC(=O)c1cccc(Nc2ccnc3ccc(Cl)cc23)c1)c1ccc(-c2c3nc(c(-c4c(F)cc(S(=O)(=O)[O-])cc4F)c4ccc([nH]4)c(-c4c(F)cc(S(=O)(=O)[O-])cc4F)c4nc(c(-c5c(F)cc(S(=O)(=O)[O-])cc5F)c5ccc2[nH]5)C=C4)C=C3)cc1
REMARK SMILES IDX 4 1 3 2 2 3 1 4 27 5 28 6 92 7 29 8 91 9 30 10 31 11 32 12
REMARK SMILES IDX 85 13 33 14 90 15 84 16 86 17 34 18 89 19 83 20 82 21 35 23
REMARK SMILES IDX 69 24 48 25 68 26 49 27 52 28 67 29 87 30 50 31 51 32 66 34
REMARK SMILES IDX 88 35 53 36 36 37 37 38 46 39 38 40 39 41 45 42 47 43 40 44
REMARK SMILES IDX 41 45 42 46 43 47 44 48 70 49 71 50 80 51 72 52 73 53 79 54
REMARK SMILES IDX 81 55 74 56 75 57 76 58 77 59 78 60 54 61 55 62 64 63 56 64
REMARK SMILES IDX 57 65 63 66 65 67 58 68 59 69 60 70 61 71 62 72 5 73 6 74
REMARK SMILES IDX 7 75 8 76 9 77 10 78 26 79 11 80 13 81 12 82 14 83 15 85
REMARK SMILES IDX 16 86 25 87 17 88 19 89 24 90 18 91 20 92 22 93 21 94 23 95
REMARK H PARENT 86 22 52 33 14 84
REMARK Flexibility Score: inf
ROOT
ATOM      1  C   UNL A   1      41.389  22.323  26.134  1.00  0.00     0.275 C 
ENDROOT
BRANCH   1   2
ATOM      2  O   UNL A   1      42.160  23.430  26.638  1.00  0.00    -0.458 OA
BRANCH   2   3
ATOM      3  C   UNL A   1      41.934  24.761  26.488  1.00  0.00     0.338 C 
ATOM      4  O   UNL A   1      42.008  25.252  25.363  1.00  0.00    -0.246 OA
BRANCH   3   5
ATOM      5  C   UNL A   1      41.797  25.684  27.655  1.00  0.00     0.060 A 
ATOM      6  C   UNL A   1      42.737  26.636  28.055  1.00  0.00     0.016 A 
ATOM      7  C   UNL A   1      40.594  25.600  28.375  1.00  0.00     0.016 A 
ATOM      8  C   UNL A   1      42.426  27.586  29.028  1.00  0.00     0.010 A 
ATOM      9  C   UNL A   1      40.280  26.544  29.355  1.00  0.00     0.010 A 
ATOM     10  C   UNL A   1      41.185  27.565  29.662  1.00  0.00    -0.014 A 
BRANCH  10  11
ATOM     11  C   UNL A   1      40.907  28.520  30.755  1.00  0.00     0.031 A 
ATOM     12  C   UNL A   1      41.677  28.359  32.029  1.00  0.00     0.074 A 
ATOM     13  C   UNL A   1      40.034  29.533  30.590  1.00  0.00     0.049 A 
ATOM     14  N   UNL A   1      41.661  29.107  33.096  1.00  0.00    -0.248 NA
ATOM     15  C   UNL A   1      42.624  27.231  32.092  1.00  0.00     0.031 C 
ATOM     16  C   UNL A   1      39.314  29.838  29.353  1.00  0.00     0.029 A 
ATOM     17  N   UNL A   1      39.593  30.491  31.464  1.00  0.00    -0.354 N 
ATOM     18  C   UNL A   1      42.636  28.576  33.930  1.00  0.00     0.074 A 
ATOM     19  C   UNL A   1      43.160  27.393  33.289  1.00  0.00     0.031 C 
ATOM     20  C   UNL A   1      38.459  30.854  29.571  1.00  0.00     0.029 A 
ATOM     21  C   UNL A   1      38.602  31.299  30.952  1.00  0.00     0.049 A 
ATOM     22  H   UNL A   1      39.952  30.593  32.375  1.00  0.00     0.167 HD
ATOM     23  C   UNL A   1      43.091  29.070  35.102  1.00  0.00     0.037 A 
ATOM     24  C   UNL A   1      37.904  32.291  31.537  1.00  0.00     0.037 A 
ATOM     25  C   UNL A   1      42.538  30.232  35.738  1.00  0.00     0.049 A 
ATOM     26  C   UNL A   1      38.310  32.719  32.923  1.00  0.00     0.074 A 
ATOM     27  C   UNL A   1      42.900  30.813  36.937  1.00  0.00     0.029 A 
ATOM     28  N   UNL A   1      41.487  30.980  35.226  1.00  0.00    -0.354 N 
ATOM     29  N   UNL A   1      39.274  32.241  33.677  1.00  0.00    -0.248 NA
ATOM     30  C   UNL A   1      37.580  33.842  33.520  1.00  0.00     0.031 C 
ATOM     31  C   UNL A   1      42.031  31.884  37.175  1.00  0.00     0.029 A 
ATOM     32  C   UNL A   1      41.165  32.003  36.099  1.00  0.00     0.049 A 
ATOM     33  H   UNL A   1      41.037  30.808  34.366  1.00  0.00     0.167 HD
ATOM     34  C   UNL A   1      39.300  33.040  34.814  1.00  0.00     0.074 A 
ATOM     35  C   UNL A   1      38.254  34.031  34.645  1.00  0.00     0.031 C 
ATOM     36  C   UNL A   1      40.121  32.976  35.892  1.00  0.00     0.037 A 
BRANCH  23  37
ATOM     37  C   UNL A   1      44.233  28.344  35.749  1.00  0.00     0.058 A 
ATOM     38  C   UNL A   1      45.568  28.665  35.447  1.00  0.00     0.135 A 
ATOM     39  C   UNL A   1      43.998  27.310  36.666  1.00  0.00     0.135 A 
ATOM     40  F   UNL A   1      45.846  29.624  34.547  1.00  0.00    -0.206 F 
ATOM     41  C   UNL A   1      46.628  27.974  36.018  1.00  0.00     0.059 A 
ATOM     42  C   UNL A   1      45.045  26.621  37.269  1.00  0.00     0.059 A 
ATOM     43  F   UNL A   1      42.741  26.952  36.972  1.00  0.00    -0.206 F 
ATOM     44  C   UNL A   1      46.356  26.954  36.931  1.00  0.00     0.060 A 
BRANCH  44  45
ATOM     45  S   UNL A   1      47.746  26.076  37.677  1.00  0.00     0.124 S 
ATOM     46  O   UNL A   1      48.488  27.173  38.292  1.00  0.00    -0.237 OA
ATOM     47  O   UNL A   1      47.077  25.168  38.603  1.00  0.00    -0.237 OA
ATOM     48  O   UNL A   1      48.398  25.439  36.538  1.00  0.00    -0.744 OA
ENDBRANCH  44  45
ENDBRANCH  23  37
BRANCH  24  49
ATOM     49  C   UNL A   1      36.773  32.953  30.826  1.00  0.00     0.058 A 
ATOM     50  C   UNL A   1      36.988  33.907  29.819  1.00  0.00     0.135 A 
ATOM     51  C   UNL A   1      35.442  32.671  31.178  1.00  0.00     0.135 A 
ATOM     52  F   UNL A   1      38.239  34.210  29.441  1.00  0.00    -0.206 F 
ATOM     53  C   UNL A   1      35.932  34.586  29.218  1.00  0.00     0.059 A 
ATOM     54  C   UNL A   1      34.368  33.323  30.577  1.00  0.00     0.059 A 
ATOM     55  F   UNL A   1      35.177  31.746  32.114  1.00  0.00    -0.206 F 
ATOM     56  C   UNL A   1      34.624  34.293  29.609  1.00  0.00     0.060 A 
BRANCH  56  57
ATOM     57  S   UNL A   1      33.265  35.186  28.821  1.00  0.00     0.124 S 
ATOM     58  O   UNL A   1      32.492  35.625  29.978  1.00  0.00    -0.237 OA
ATOM     59  O   UNL A   1      33.975  36.232  28.091  1.00  0.00    -0.237 OA
ATOM     60  O   UNL A   1      32.633  34.168  27.988  1.00  0.00    -0.744 OA
ENDBRANCH  56  57
ENDBRANCH  24  49
BRANCH  36  61
ATOM     61  C   UNL A   1      39.944  34.028  36.949  1.00  0.00     0.058 A 
ATOM     62  C   UNL A   1      40.561  35.283  36.850  1.00  0.00     0.135 A 
ATOM     63  C   UNL A   1      39.102  33.791  38.048  1.00  0.00     0.135 A 
ATOM     64  F   UNL A   1      41.380  35.555  35.821  1.00  0.00    -0.206 F 
ATOM     65  C   UNL A   1      40.374  36.259  37.821  1.00  0.00     0.059 A 
ATOM     66  C   UNL A   1      38.874  34.764  39.013  1.00  0.00     0.059 A 
ATOM     67  F   UNL A   1      38.477  32.608  38.180  1.00  0.00    -0.206 F 
ATOM     68  C   UNL A   1      39.526  35.990  38.897  1.00  0.00     0.060 A 
BRANCH  68  69
ATOM     69  S   UNL A   1      39.269  37.276  40.135  1.00  0.00     0.124 S 
ATOM     70  O   UNL A   1      38.625  36.526  41.208  1.00  0.00    -0.237 OA
ATOM     71  O   UNL A   1      40.630  37.728  40.404  1.00  0.00    -0.237 OA
ATOM     72  O   UNL A   1      38.418  38.243  39.447  1.00  0.00    -0.744 OA
ENDBRANCH  68  69
ENDBRANCH  36  61
ENDBRANCH  10  11
ENDBRANCH   3   5
ENDBRANCH   2   3
ENDBRANCH   1   2
BRANCH   1  73
ATOM     73  C   UNL A   1      40.065  22.065  26.867  1.00  0.00     0.275 C 
BRANCH  73  74
ATOM     74  O   UNL A   1      38.947  21.938  25.971  1.00  0.00    -0.458 OA
BRANCH  74  75
ATOM     75  C   UNL A   1      38.067  22.970  25.992  1.00  0.00     0.338 C 
ATOM     76  O   UNL A   1      38.335  24.158  26.103  1.00  0.00    -0.246 OA
BRANCH  75  77
ATOM     77  C   UNL A   1      36.724  22.486  25.613  1.00  0.00     0.062 A 
ATOM     78  C   UNL A   1      36.610  21.119  25.341  1.00  0.00     0.016 A 
ATOM     79  C   UNL A   1      35.608  23.327  25.499  1.00  0.00     0.041 A 
ATOM     80  C   UNL A   1      35.377  20.581  24.987  1.00  0.00     0.003 A 
ATOM     81  C   UNL A   1      34.359  22.788  25.141  1.00  0.00     0.039 A 
ATOM     82  C   UNL A   1      34.264  21.411  24.883  1.00  0.00     0.026 A 
BRANCH  81  83
ATOM     83  N   UNL A   1      33.253  23.608  24.778  1.00  0.00    -0.355 N 
ATOM     84  H   UNL A   1      32.426  23.611  25.313  1.00  0.00     0.167 HD
BRANCH  83  85
ATOM     85  C   UNL A   1      33.382  24.424  23.617  1.00  0.00     0.050 A 
ATOM     86  C   UNL A   1      33.321  23.778  22.379  1.00  0.00     0.047 A 
ATOM     87  C   UNL A   1      33.511  25.835  23.660  1.00  0.00     0.025 A 
ATOM     88  C   UNL A   1      33.167  24.540  21.248  1.00  0.00     0.114 A 
ATOM     89  C   UNL A   1      33.454  26.500  22.412  1.00  0.00     0.072 A 
ATOM     90  C   UNL A   1      33.684  26.613  24.835  1.00  0.00     0.033 A 
ATOM     91  N   UNL A   1      33.216  25.882  21.248  1.00  0.00    -0.256 NA
ATOM     92  C   UNL A   1      33.660  27.868  22.357  1.00  0.00     0.030 A 
ATOM     93  C   UNL A   1      33.882  27.993  24.744  1.00  0.00     0.041 A 
ATOM     94  C   UNL A   1      33.902  28.619  23.505  1.00  0.00     0.023 A 
ATOM     95  Cl  UNL A   1      34.106  28.940  26.163  1.00  0.00    -0.084 Cl
ENDBRANCH  83  85
ENDBRANCH  81  83
ENDBRANCH  75  77
ENDBRANCH  74  75
ENDBRANCH  73  74
ENDBRANCH   1  73
TORSDOF 16
ENDMDL
MODEL 2
REMARK VINA RESULT:     -11.9      5.044     12.190
REMARK SMILES O=C(OCCOC(=O)c1cccc(Nc2ccnc3ccc(Cl)cc23)c1)c1ccc(-c2c3nc(c(-c4c(F)cc(S(=O)(=O)[O-])cc4F)c4ccc([nH]4)c(-c4c(F)cc(S(=O)(=O)[O-])cc4F)c4nc(c(-c5c(F)cc(S(=O)(=O)[O-])cc5F)c5ccc2[nH]5)C=C4)C=C3)cc1
REMARK SMILES IDX 4 1 3 2 2 3 1 4 27 5 28 6 92 7 29 8 91 9 30 10 31 11 32 12
REMARK SMILES IDX 85 13 33 14 90 15 84 16 86 17 34 18 89 19 83 20 82 21 35 23
REMARK SMILES IDX 69 24 48 25 68 26 49 27 52 28 67 29 87 30 50 31 51 32 66 34
REMARK SMILES IDX 88 35 53 36 36 37 37 38 46 39 38 40 39 41 45 42 47 43 40 44
REMARK SMILES IDX 41 45 42 46 43 47 44 48 70 49 71 50 80 51 72 52 73 53 79 54
REMARK SMILES IDX 81 55 74 56 75 57 76 58 77 59 78 60 54 61 55 62 64 63 56 64
REMARK SMILES IDX 57 65 63 66 65 67 58 68 59 69 60 70 61 71 62 72 5 73 6 74
REMARK SMILES IDX 7 75 8 76 9 77 10 78 26 79 11 80 13 81 12 82 14 83 15 85
REMARK SMILES IDX 16 86 25 87 17 88 19 89 24 90 18 91 20 92 22 93 21 94 23 95
REMARK H PARENT 86 22 52 33 14 84
REMARK Flexibility Score: inf
ROOT
ATOM      1  C   UNL A   1      34.492  32.728  28.007  1.00  0.00     0.275 C 
ENDROOT
BRANCH   1   2
ATOM      2  O   UNL A   1      33.998  31.394  28.234  1.00  0.00    -0.458 OA
BRANCH   2   3
ATOM      3  C   UNL A   1      34.609  30.208  27.981  1.00  0.00     0.338 C 
ATOM      4  O   UNL A   1      33.930  29.263  27.585  1.00  0.00    -0.246 OA
BRANCH   3   5
ATOM      5  C   UNL A   1      36.033  29.948  28.351  1.00  0.00     0.060 A 
ATOM      6  C   UNL A   1      36.488  29.562  29.615  1.00  0.00     0.016 A 
ATOM      7  C   UNL A   1      36.976  30.067  27.318  1.00  0.00     0.016 A 
ATOM      8  C   UNL A   1      37.806  29.144  29.805  1.00  0.00     0.010 A 
ATOM      9  C   UNL A   1      38.298  29.657  27.505  1.00  0.00     0.010 A 
ATOM     10  C   UNL A   1      38.710  29.160  28.745  1.00  0.00    -0.014 A 
BRANCH  10  11
ATOM     11  C   UNL A   1      40.124  28.804  28.986  1.00  0.00     0.031 A 
ATOM     12  C   UNL A   1      41.024  29.869  29.531  1.00  0.00     0.074 A 
ATOM     13  C   UNL A   1      40.572  27.551  28.777  1.00  0.00     0.049 A 
ATOM     14  N   UNL A   1      42.275  29.782  29.887  1.00  0.00    -0.248 NA
ATOM     15  C   UNL A   1      40.423  31.198  29.745  1.00  0.00     0.031 C 
ATOM     16  C   UNL A   1      39.751  26.417  28.350  1.00  0.00     0.029 A 
ATOM     17  N   UNL A   1      41.828  27.015  28.886  1.00  0.00    -0.354 N 
ATOM     18  C   UNL A   1      42.591  31.024  30.422  1.00  0.00     0.074 A 
ATOM     19  C   UNL A   1      41.436  31.874  30.261  1.00  0.00     0.031 C 
ATOM     20  C   UNL A   1      40.537  25.344  28.149  1.00  0.00     0.029 A 
ATOM     21  C   UNL A   1      41.912  25.703  28.476  1.00  0.00     0.049 A 
ATOM     22  H   UNL A   1      42.601  27.522  29.226  1.00  0.00     0.167 HD
ATOM     23  C   UNL A   1      43.730  31.399  31.044  1.00  0.00     0.037 A 
ATOM     24  C   UNL A   1      42.981  24.888  28.389  1.00  0.00     0.037 A 
ATOM     25  C   UNL A   1      44.880  30.548  31.169  1.00  0.00     0.049 A 
ATOM     26  C   UNL A   1      44.295  25.388  28.931  1.00  0.00     0.074 A 
ATOM     27  C   UNL A   1      46.098  30.826  31.756  1.00  0.00     0.029 A 
ATOM     28  N   UNL A   1      44.953  29.252  30.677  1.00  0.00    -0.354 N 
ATOM     29  N   UNL A   1      44.564  26.548  29.485  1.00  0.00    -0.248 NA
ATOM     30  C   UNL A   1      45.434  24.464  28.885  1.00  0.00     0.031 C 
ATOM     31  C   UNL A   1      46.927  29.714  31.573  1.00  0.00     0.029 A 
ATOM     32  C   UNL A   1      46.207  28.724  30.920  1.00  0.00     0.049 A 
ATOM     33  H   UNL A   1      44.219  28.779  30.221  1.00  0.00     0.167 HD
ATOM     34  C   UNL A   1      45.888  26.474  29.903  1.00  0.00     0.074 A 
ATOM     35  C   UNL A   1      46.362  25.153  29.535  1.00  0.00     0.031 C 
ATOM     36  C   UNL A   1      46.640  27.401  30.545  1.00  0.00     0.037 A 
BRANCH  23  37
ATOM     37  C   UNL A   1      43.765  32.782  31.622  1.00  0.00     0.058 A 
ATOM     38  C   UNL A   1      43.404  33.025  32.959  1.00  0.00     0.135 A 
ATOM     39  C   UNL A   1      44.148  33.879  30.836  1.00  0.00     0.135 A 
ATOM     40  F   UNL A   1      42.996  32.013  33.743  1.00  0.00    -0.206 F 
ATOM     41  C   UNL A   1      43.404  34.308  33.490  1.00  0.00     0.059 A 
ATOM     42  C   UNL A   1      44.178  35.170  31.354  1.00  0.00     0.059 A 
ATOM     43  F   UNL A   1      44.482  33.702  29.548  1.00  0.00    -0.206 F 
ATOM     44  C   UNL A   1      43.795  35.375  32.679  1.00  0.00     0.060 A 
BRANCH  44  45
ATOM     45  S   UNL A   1      43.804  37.034  33.389  1.00  0.00     0.124 S 
ATOM     46  O   UNL A   1      42.578  37.019  34.182  1.00  0.00    -0.237 OA
ATOM     47  O   UNL A   1      45.050  37.038  34.150  1.00  0.00    -0.237 OA
ATOM     48  O   UNL A   1      43.784  37.906  32.219  1.00  0.00    -0.744 OA
ENDBRANCH  44  45
ENDBRANCH  23  37
BRANCH  24  49
ATOM     49  C   UNL A   1      42.862  23.530  27.788  1.00  0.00     0.058 A 
ATOM     50  C   UNL A   1      43.085  23.303  26.421  1.00  0.00     0.135 A 
ATOM     51  C   UNL A   1      42.474  22.430  28.572  1.00  0.00     0.135 A 
ATOM     52  F   UNL A   1      43.461  24.317  25.627  1.00  0.00    -0.206 F 
ATOM     53  C   UNL A   1      42.888  22.050  25.846  1.00  0.00     0.059 A 
ATOM     54  C   UNL A   1      42.290  21.163  28.024  1.00  0.00     0.059 A 
ATOM     55  F   UNL A   1      42.276  22.584  29.891  1.00  0.00    -0.206 F 
ATOM     56  C   UNL A   1      42.483  20.987  26.655  1.00  0.00     0.060 A 
BRANCH  56  57
ATOM     57  S   UNL A   1      42.229  19.368  25.892  1.00  0.00     0.124 S 
ATOM     58  O   UNL A   1      42.756  18.474  26.917  1.00  0.00    -0.237 OA
ATOM     59  O   UNL A   1      40.780  19.346  25.707  1.00  0.00    -0.237 OA
ATOM     60  O   UNL A   1      43.009  19.451  24.662  1.00  0.00    -0.744 OA
ENDBRANCH  56  57
ENDBRANCH  24  49
BRANCH  36  61
ATOM     61  C   UNL A   1      48.038  27.003  30.924  1.00  0.00     0.058 A 
ATOM     62  C   UNL A   1      49.130  27.254  30.081  1.00  0.00     0.135 A 
ATOM     63  C   UNL A   1      48.289  26.411  32.173  1.00  0.00     0.135 A 
ATOM     64  F   UNL A   1      48.940  27.813  28.875  1.00  0.00    -0.206 F 
ATOM     65  C   UNL A   1      50.423  26.903  30.450  1.00  0.00     0.059 A 
ATOM     66  C   UNL A   1      49.578  26.082  32.576  1.00  0.00     0.059 A 
ATOM     67  F   UNL A   1      47.277  26.163  33.021  1.00  0.00    -0.206 F 
ATOM     68  C   UNL A   1      50.636  26.320  31.701  1.00  0.00     0.060 A 
BRANCH  68  69
ATOM     69  S   UNL A   1      52.323  25.897  32.179  1.00  0.00     0.124 S 
ATOM     70  O   UNL A   1      53.091  26.455  31.071  1.00  0.00    -0.237 OA
ATOM     71  O   UNL A   1      52.466  26.582  33.460  1.00  0.00    -0.237 OA
ATOM     72  O   UNL A   1      52.298  24.439  32.254  1.00  0.00    -0.744 OA
ENDBRANCH  68  69
ENDBRANCH  36  61
ENDBRANCH  10  11
ENDBRANCH   3   5
ENDBRANCH   2   3
ENDBRANCH   1   2
BRANCH   1  73
ATOM     73  C   UNL A   1      33.453  33.845  28.176  1.00  0.00     0.275 C 
BRANCH  73  74
ATOM     74  O   UNL A   1      34.027  35.076  28.646  1.00  0.00    -0.458 OA
BRANCH  74  75
ATOM     75  C   UNL A   1      33.193  35.869  29.364  1.00  0.00     0.338 C 
ATOM     76  O   UNL A   1      32.165  36.397  28.966  1.00  0.00    -0.246 OA
BRANCH  75  77
ATOM     77  C   UNL A   1      33.565  35.818  30.792  1.00  0.00     0.062 A 
ATOM     78  C   UNL A   1      33.503  37.026  31.493  1.00  0.00     0.016 A 
ATOM     79  C   UNL A   1      33.984  34.645  31.435  1.00  0.00     0.041 A 
ATOM     80  C   UNL A   1      33.827  37.062  32.846  1.00  0.00     0.003 A 
ATOM     81  C   UNL A   1      34.314  34.676  32.803  1.00  0.00     0.039 A 
ATOM     82  C   UNL A   1      34.234  35.897  33.491  1.00  0.00     0.026 A 
BRANCH  81  83
ATOM     83  N   UNL A   1      34.967  33.591  33.453  1.00  0.00    -0.355 N 
ATOM     84  H   UNL A   1      34.556  32.697  33.487  1.00  0.00     0.167 HD
BRANCH  83  85
ATOM     85  C   UNL A   1      36.237  33.840  34.050  1.00  0.00     0.050 A 
ATOM     86  C   UNL A   1      36.293  33.835  35.446  1.00  0.00     0.047 A 
ATOM     87  C   UNL A   1      37.429  34.033  33.307  1.00  0.00     0.025 A 
ATOM     88  C   UNL A   1      37.523  33.798  36.053  1.00  0.00     0.114 A 
ATOM     89  C   UNL A   1      38.626  34.096  34.060  1.00  0.00     0.072 A 
ATOM     90  C   UNL A   1      37.511  34.160  31.895  1.00  0.00     0.033 A 
ATOM     91  N   UNL A   1      38.682  33.910  35.385  1.00  0.00    -0.256 NA
ATOM     92  C   UNL A   1      39.822  34.370  33.420  1.00  0.00     0.030 A 
ATOM     93  C   UNL A   1      38.736  34.430  31.281  1.00  0.00     0.041 A 
ATOM     94  C   UNL A   1      39.889  34.567  32.043  1.00  0.00     0.023 A 
ATOM     95  Cl  UNL A   1      38.840  34.599  29.571  1.00  0.00    -0.084 Cl
ENDBRANCH  83  85
ENDBRANCH  81  83
ENDBRANCH  75  77
ENDBRANCH  74  75
ENDBRANCH  73  74
ENDBRANCH   1  73
TORSDOF 16
ENDMDL
MODEL 3
REMARK VINA RESULT:     -11.8      1.542      2.228
REMARK SMILES O=C(OCCOC(=O)c1cccc(Nc2ccnc3ccc(Cl)cc23)c1)c1ccc(-c2c3nc(c(-c4c(F)cc(S(=O)(=O)[O-])cc4F)c4ccc([nH]4)c(-c4c(F)cc(S(=O)(=O)[O-])cc4F)c4nc(c(-c5c(F)cc(S(=O)(=O)[O-])cc5F)c5ccc2[nH]5)C=C4)C=C3)cc1
REMARK SMILES IDX 4 1 3 2 2 3 1 4 27 5 28 6 92 7 29 8 91 9 30 10 31 11 32 12
REMARK SMILES IDX 85 13 33 14 90 15 84 16 86 17 34 18 89 19 83 20 82 21 35 23
REMARK SMILES IDX 69 24 48 25 68 26 49 27 52 28 67 29 87 30 50 31 51 32 66 34
REMARK SMILES IDX 88 35 53 36 36 37 37 38 46 39 38 40 39 41 45 42 47 43 40 44
REMARK SMILES IDX 41 45 42 46 43 47 44 48 70 49 71 50 80 51 72 52 73 53 79 54
REMARK SMILES IDX 81 55 74 56 75 57 76 58 77 59 78 60 54 61 55 62 64 63 56 64
REMARK SMILES IDX 57 65 63 66 65 67 58 68 59 69 60 70 61 71 62 72 5 73 6 74
REMARK SMILES IDX 7 75 8 76 9 77 10 78 26 79 11 80 13 81 12 82 14 83 15 85
REMARK SMILES IDX 16 86 25 87 17 88 19 89 24 90 18 91 20 92 22 93 21 94 23 95
REMARK H PARENT 86 22 52 33 14 84
REMARK Flexibility Score: inf
ROOT
ATOM      1  C   UNL A   1      43.524  22.989  25.504  1.00  0.00     0.275 C 
ENDROOT
BRANCH   1   2
ATOM      2  O   UNL A   1      43.593  24.366  25.919  1.00  0.00    -0.458 OA
BRANCH   2   3
ATOM      3  C   UNL A   1      42.591  25.278  26.007  1.00  0.00     0.338 C 
ATOM      4  O   UNL A   1      41.928  25.530  25.002  1.00  0.00    -0.246 OA
BRANCH   3   5
ATOM      5  C   UNL A   1      42.389  26.130  27.218  1.00  0.00     0.060 A 
ATOM      6  C   UNL A   1      43.136  27.263  27.551  1.00  0.00     0.016 A 
ATOM      7  C   UNL A   1      41.327  25.768  28.062  1.00  0.00     0.016 A 
ATOM      8  C   UNL A   1      42.738  28.104  28.589  1.00  0.00     0.010 A 
ATOM      9  C   UNL A   1      40.928  26.603  29.108  1.00  0.00     0.010 A 
ATOM     10  C   UNL A   1      41.615  27.797  29.355  1.00  0.00    -0.014 A 
BRANCH  10  11
ATOM     11  C   UNL A   1      41.262  28.648  30.510  1.00  0.00     0.031 A 
ATOM     12  C   UNL A   1      42.017  28.435  31.784  1.00  0.00     0.074 A 
ATOM     13  C   UNL A   1      40.334  29.620  30.401  1.00  0.00     0.049 A 
ATOM     14  N   UNL A   1      41.938  29.098  32.904  1.00  0.00    -0.248 NA
ATOM     15  C   UNL A   1      43.027  27.361  31.784  1.00  0.00     0.031 C 
ATOM     16  C   UNL A   1      39.621  29.977  29.174  1.00  0.00     0.029 A 
ATOM     17  N   UNL A   1      39.823  30.483  31.333  1.00  0.00    -0.354 N 
ATOM     18  C   UNL A   1      42.927  28.562  33.718  1.00  0.00     0.074 A 
ATOM     19  C   UNL A   1      43.530  27.463  33.003  1.00  0.00     0.031 C 
ATOM     20  C   UNL A   1      38.704  30.923  29.448  1.00  0.00     0.029 A 
ATOM     21  C   UNL A   1      38.796  31.269  30.861  1.00  0.00     0.049 A 
ATOM     22  H   UNL A   1      40.159  30.536  32.258  1.00  0.00     0.167 HD
ATOM     23  C   UNL A   1      43.331  28.991  34.933  1.00  0.00     0.037 A 
ATOM     24  C   UNL A   1      38.031  32.174  31.502  1.00  0.00     0.037 A 
ATOM     25  C   UNL A   1      42.700  30.069  35.642  1.00  0.00     0.049 A 
ATOM     26  C   UNL A   1      38.387  32.517  32.925  1.00  0.00     0.074 A 
ATOM     27  C   UNL A   1      43.005  30.577  36.888  1.00  0.00     0.029 A 
ATOM     28  N   UNL A   1      41.617  30.793  35.163  1.00  0.00    -0.354 N 
ATOM     29  N   UNL A   1      39.363  32.039  33.664  1.00  0.00    -0.248 NA
ATOM     30  C   UNL A   1      37.581  33.549  33.588  1.00  0.00     0.031 C 
ATOM     31  C   UNL A   1      42.072  31.576  37.186  1.00  0.00     0.029 A 
ATOM     32  C   UNL A   1      41.220  31.726  36.102  1.00  0.00     0.049 A 
ATOM     33  H   UNL A   1      41.193  30.660  34.283  1.00  0.00     0.167 HD
ATOM     34  C   UNL A   1      39.322  32.750  34.857  1.00  0.00     0.074 A 
ATOM     35  C   UNL A   1      38.223  33.690  34.739  1.00  0.00     0.031 C 
ATOM     36  C   UNL A   1      40.125  32.651  35.945  1.00  0.00     0.037 A 
BRANCH  23  37
ATOM     37  C   UNL A   1      44.501  28.284  35.549  1.00  0.00     0.058 A 
ATOM     38  C   UNL A   1      45.819  28.719  35.324  1.00  0.00     0.135 A 
ATOM     39  C   UNL A   1      44.312  27.156  36.360  1.00  0.00     0.135 A 
ATOM     40  F   UNL A   1      46.056  29.773  34.525  1.00  0.00    -0.206 F 
ATOM     41  C   UNL A   1      46.908  28.048  35.866  1.00  0.00     0.059 A 
ATOM     42  C   UNL A   1      45.387  26.483  36.933  1.00  0.00     0.059 A 
ATOM     43  F   UNL A   1      43.074  26.689  36.589  1.00  0.00    -0.206 F 
ATOM     44  C   UNL A   1      46.681  26.931  36.672  1.00  0.00     0.060 A 
BRANCH  44  45
ATOM     45  S   UNL A   1      48.106  26.081  37.381  1.00  0.00     0.124 S 
ATOM     46  O   UNL A   1      48.574  27.060  38.358  1.00  0.00    -0.237 OA
ATOM     47  O   UNL A   1      47.501  24.873  37.936  1.00  0.00    -0.237 OA
ATOM     48  O   UNL A   1      48.983  25.870  36.234  1.00  0.00    -0.744 OA
ENDBRANCH  44  45
ENDBRANCH  23  37
BRANCH  24  49
ATOM     49  C   UNL A   1      36.876  32.822  30.818  1.00  0.00     0.058 A 
ATOM     50  C   UNL A   1      37.052  33.877  29.910  1.00  0.00     0.135 A 
ATOM     51  C   UNL A   1      35.559  32.421  31.098  1.00  0.00     0.135 A 
ATOM     52  F   UNL A   1      38.289  34.297  29.602  1.00  0.00    -0.206 F 
ATOM     53  C   UNL A   1      35.968  34.539  29.338  1.00  0.00     0.059 A 
ATOM     54  C   UNL A   1      34.459  33.053  30.524  1.00  0.00     0.059 A 
ATOM     55  F   UNL A   1      35.334  31.398  31.938  1.00  0.00    -0.206 F 
ATOM     56  C   UNL A   1      34.673  34.124  29.658  1.00  0.00     0.060 A 
BRANCH  56  57
ATOM     57  S   UNL A   1      33.277  34.995  28.910  1.00  0.00     0.124 S 
ATOM     58  O   UNL A   1      32.457  35.293  30.078  1.00  0.00    -0.237 OA
ATOM     59  O   UNL A   1      33.936  36.136  28.281  1.00  0.00    -0.237 OA
ATOM     60  O   UNL A   1      32.726  34.010  27.985  1.00  0.00    -0.744 OA
ENDBRANCH  56  57
ENDBRANCH  24  49
BRANCH  36  61
ATOM     61  C   UNL A   1      39.868  33.608  37.073  1.00  0.00     0.058 A 
ATOM     62  C   UNL A   1      40.501  34.858  37.139  1.00  0.00     0.135 A 
ATOM     63  C   UNL A   1      38.934  33.288  38.073  1.00  0.00     0.135 A 
ATOM     64  F   UNL A   1      41.406  35.207  36.210  1.00  0.00    -0.206 F 
ATOM     65  C   UNL A   1      40.241  35.747  38.174  1.00  0.00     0.059 A 
ATOM     66  C   UNL A   1      38.634  34.176  39.099  1.00  0.00     0.059 A 
ATOM     67  F   UNL A   1      38.292  32.108  38.047  1.00  0.00    -0.206 F 
ATOM     68  C   UNL A   1      39.303  35.397  39.147  1.00  0.00     0.060 A 
BRANCH  68  69
ATOM     69  S   UNL A   1      38.953  36.573  40.470  1.00  0.00     0.124 S 
ATOM     70  O   UNL A   1      38.534  37.748  39.713  1.00  0.00    -0.237 OA
ATOM     71  O   UNL A   1      37.901  35.894  41.221  1.00  0.00    -0.237 OA
ATOM     72  O   UNL A   1      40.232  36.695  41.163  1.00  0.00    -0.744 OA
ENDBRANCH  68  69
ENDBRANCH  36  61
ENDBRANCH  10  11
ENDBRANCH   3   5
ENDBRANCH   2   3
ENDBRANCH   1   2
BRANCH   1  73
ATOM     73  C   UNL A   1      42.797  22.051  26.478  1.00  0.00     0.275 C 
BRANCH  73  74
ATOM     74  O   UNL A   1      41.625  21.447  25.902  1.00  0.00    -0.458 OA
BRANCH  74  75
ATOM     75  C   UNL A   1      40.594  21.248  26.759  1.00  0.00     0.338 C 
ATOM     76  O   UNL A   1      40.645  20.690  27.846  1.00  0.00    -0.246 OA
BRANCH  75  77
ATOM     77  C   UNL A   1      39.418  22.021  26.312  1.00  0.00     0.062 A 
ATOM     78  C   UNL A   1      39.250  23.284  26.888  1.00  0.00     0.016 A 
ATOM     79  C   UNL A   1      38.489  21.536  25.381  1.00  0.00     0.041 A 
ATOM     80  C   UNL A   1      38.173  24.081  26.513  1.00  0.00     0.003 A 
ATOM     81  C   UNL A   1      37.397  22.338  24.999  1.00  0.00     0.039 A 
ATOM     82  C   UNL A   1      37.253  23.607  25.581  1.00  0.00     0.026 A 
BRANCH  81  83
ATOM     83  N   UNL A   1      36.300  21.823  24.251  1.00  0.00    -0.355 N 
ATOM     84  H   UNL A   1      36.434  21.432  23.358  1.00  0.00     0.167 HD
BRANCH  83  85
ATOM     85  C   UNL A   1      35.004  21.891  24.840  1.00  0.00     0.050 A 
ATOM     86  C   UNL A   1      34.793  21.137  25.998  1.00  0.00     0.047 A 
ATOM     87  C   UNL A   1      33.960  22.712  24.345  1.00  0.00     0.025 A 
ATOM     88  C   UNL A   1      33.667  21.380  26.742  1.00  0.00     0.114 A 
ATOM     89  C   UNL A   1      32.798  22.788  25.149  1.00  0.00     0.072 A 
ATOM     90  C   UNL A   1      33.995  23.451  23.133  1.00  0.00     0.033 A 
ATOM     91  N   UNL A   1      32.681  22.200  26.347  1.00  0.00    -0.256 NA
ATOM     92  C   UNL A   1      31.699  23.498  24.696  1.00  0.00     0.030 A 
ATOM     93  C   UNL A   1      32.869  24.163  22.709  1.00  0.00     0.041 A 
ATOM     94  C   UNL A   1      31.709  24.162  23.472  1.00  0.00     0.023 A 
ATOM     95  Cl  UNL A   1      32.899  25.050  21.235  1.00  0.00    -0.084 Cl
ENDBRANCH  83  85
ENDBRANCH  81  83
ENDBRANCH  75  77
ENDBRANCH  74  75
ENDBRANCH  73  74
ENDBRANCH   1  73
TORSDOF 16
ENDMDL
