MODEL 1
REMARK VINA RESULT:     -10.8      0.000      0.000
REMARK SMILES CC(C)(C)OC(=O)[C@]1(C(=O)OCCOC(=O)c2ccc(-c3c4nc(c(-c5c(F)cc(S(=O)(=O)[O-])cc5F)c5ccc([nH]5)c(-c5c(F)cc(S(=O)(=O)[O-])cc5F)c5nc(c(-c6c(F)cc(S(=O)(=O)[O-])cc6F)c6ccc3[nH]6)C=C5)C=C4)cc2)CC=CC[C@@H]1[NH3+]
REMARK SMILES IDX 12 1 11 2 9 3 10 4 8 5 83 6 87 7 84 8 86 9 85 10 6 11 7 12
REMARK SMILES IDX 5 13 2 14 1 15 3 16 4 17 88 18 13 22 14 23 15 24 16 25 17 26
REMARK SMILES IDX 18 27 82 28 19 29 81 30 20 31 21 32 22 33 75 34 23 35 80 36
REMARK SMILES IDX 74 37 76 38 24 39 79 40 73 41 72 42 25 44 59 45 38 46 58 47
REMARK SMILES IDX 39 48 42 49 57 50 77 51 40 52 41 53 56 55 78 56 43 57 26 58
REMARK SMILES IDX 27 59 36 60 28 61 29 62 35 63 37 64 30 65 31 66 32 67 33 68
REMARK SMILES IDX 34 69 60 70 61 71 70 72 62 73 63 74 69 75 71 76 64 77 65 78
REMARK SMILES IDX 66 79 67 80 68 81 44 82 45 83 54 84 46 85 47 86 53 87 55 88
REMARK SMILES IDX 48 89 49 90 50 91 51 92 52 93
REMARK H PARENT 88 19 88 20 88 21 76 43 42 54
REMARK Flexibility Score: inf
ROOT
ATOM      1  C   UNL A   1      32.821  30.540  27.011  1.00  0.00     0.274 C 
ENDROOT
BRANCH   1   2
ATOM      2  O   UNL A   1      33.105  29.165  26.683  1.00  0.00    -0.461 OA
BRANCH   2   3
ATOM      3  C   UNL A   1      32.073  28.294  26.882  1.00  0.00     0.330 C 
ATOM      4  O   UNL A   1      31.449  28.225  27.938  1.00  0.00    -0.251 OA
BRANCH   3   5
ATOM      5  C   UNL A   1      31.751  27.445  25.649  1.00  0.00     0.219 C 
ATOM      6  C   UNL A   1      30.798  26.311  26.137  1.00  0.00     0.064 C 
ATOM      7  C   UNL A   1      31.047  28.348  24.593  1.00  0.00     0.214 C 
ATOM      8  C   UNL A   1      29.869  25.741  25.111  1.00  0.00    -0.029 C 
ATOM      9  C   UNL A   1      30.262  27.597  23.491  1.00  0.00     0.093 C 
ATOM     10  C   UNL A   1      29.626  26.319  23.931  1.00  0.00    -0.025 C 
BRANCH   5  11
ATOM     11  C   UNL A   1      33.017  26.761  25.162  1.00  0.00     0.330 C 
ATOM     12  O   UNL A   1      33.644  27.121  24.172  1.00  0.00    -0.251 OA
BRANCH  11  13
ATOM     13  O   UNL A   1      33.407  25.757  25.991  1.00  0.00    -0.459 OA
BRANCH  13  14
ATOM     14  C   UNL A   1      33.664  24.423  25.492  1.00  0.00     0.104 C 
ATOM     15  C   UNL A   1      35.194  24.350  25.366  1.00  0.00     0.056 C 
ATOM     16  C   UNL A   1      33.045  24.219  24.107  1.00  0.00     0.056 C 
ATOM     17  C   UNL A   1      33.203  23.365  26.498  1.00  0.00     0.056 C 
ENDBRANCH  13  14
ENDBRANCH  11  13
ENDBRANCH   5  11
BRANCH   7  18
ATOM     18  N   UNL A   1      31.915  29.369  23.969  1.00  0.00    -0.353 N 
ATOM     19  H   UNL A   1      31.373  30.215  23.795  1.00  0.00     0.344 HD
ATOM     20  H   UNL A   1      32.280  29.011  23.086  1.00  0.00     0.344 HD
ATOM     21  H   UNL A   1      32.691  29.584  24.595  1.00  0.00     0.344 HD
ENDBRANCH   7  18
ENDBRANCH   3   5
ENDBRANCH   2   3
ENDBRANCH   1   2
BRANCH   1  22
ATOM     22  C   UNL A   1      34.038  31.215  27.638  1.00  0.00     0.275 C 
BRANCH  22  23
ATOM     23  O   UNL A   1      34.998  30.224  28.040  1.00  0.00    -0.458 OA
BRANCH  23  24
ATOM     24  C   UNL A   1      35.789  30.576  29.082  1.00  0.00     0.338 C 
ATOM     25  O   UNL A   1      35.480  31.303  30.012  1.00  0.00    -0.246 OA
BRANCH  24  26
ATOM     26  C   UNL A   1      37.132  29.962  28.952  1.00  0.00     0.060 A 
ATOM     27  C   UNL A   1      37.843  29.499  30.059  1.00  0.00     0.016 A 
ATOM     28  C   UNL A   1      37.734  29.937  27.693  1.00  0.00     0.016 A 
ATOM     29  C   UNL A   1      39.189  29.144  29.934  1.00  0.00     0.010 A 
ATOM     30  C   UNL A   1      39.039  29.459  27.551  1.00  0.00     0.010 A 
ATOM     31  C   UNL A   1      39.801  29.098  28.674  1.00  0.00    -0.014 A 
BRANCH  31  32
ATOM     32  C   UNL A   1      41.226  28.685  28.509  1.00  0.00     0.031 A 
ATOM     33  C   UNL A   1      42.328  29.712  28.608  1.00  0.00     0.074 A 
ATOM     34  C   UNL A   1      41.543  27.404  28.227  1.00  0.00     0.049 A 
ATOM     35  N   UNL A   1      43.581  29.624  28.244  1.00  0.00    -0.248 NA
ATOM     36  C   UNL A   1      41.964  31.023  29.173  1.00  0.00     0.031 C 
ATOM     37  C   UNL A   1      40.592  26.294  28.129  1.00  0.00     0.029 A 
ATOM     38  N   UNL A   1      42.757  26.819  27.960  1.00  0.00    -0.354 N 
ATOM     39  C   UNL A   1      44.136  30.879  28.467  1.00  0.00     0.074 A 
ATOM     40  C   UNL A   1      43.085  31.714  29.009  1.00  0.00     0.031 C 
ATOM     41  C   UNL A   1      41.258  25.162  27.853  1.00  0.00     0.029 A 
ATOM     42  C   UNL A   1      42.667  25.479  27.660  1.00  0.00     0.049 A 
ATOM     43  H   UNL A   1      43.609  27.312  27.979  1.00  0.00     0.167 HD
ATOM     44  C   UNL A   1      45.404  31.299  28.234  1.00  0.00     0.037 A 
ATOM     45  C   UNL A   1      43.598  24.608  27.226  1.00  0.00     0.037 A 
ATOM     46  C   UNL A   1      46.462  30.446  27.757  1.00  0.00     0.049 A 
ATOM     47  C   UNL A   1      44.997  25.092  26.979  1.00  0.00     0.074 A 
ATOM     48  C   UNL A   1      47.784  30.770  27.506  1.00  0.00     0.029 A 
ATOM     49  N   UNL A   1      46.323  29.094  27.480  1.00  0.00    -0.354 N 
ATOM     50  N   UNL A   1      45.488  26.298  27.129  1.00  0.00    -0.248 NA
ATOM     51  C   UNL A   1      45.964  24.103  26.481  1.00  0.00     0.031 C 
ATOM     52  C   UNL A   1      48.441  29.618  27.057  1.00  0.00     0.029 A 
ATOM     53  C   UNL A   1      47.535  28.570  27.059  1.00  0.00     0.049 A 
ATOM     54  H   UNL A   1      45.487  28.582  27.568  1.00  0.00     0.167 HD
ATOM     55  C   UNL A   1      46.822  26.214  26.749  1.00  0.00     0.074 A 
ATOM     56  C   UNL A   1      47.066  24.834  26.381  1.00  0.00     0.031 C 
ATOM     57  C   UNL A   1      47.759  27.193  26.703  1.00  0.00     0.037 A 
BRANCH  44  58
ATOM     58  C   UNL A   1      45.717  32.751  28.467  1.00  0.00     0.058 A 
ATOM     59  C   UNL A   1      46.212  33.220  29.692  1.00  0.00     0.135 A 
ATOM     60  C   UNL A   1      45.561  33.682  27.425  1.00  0.00     0.135 A 
ATOM     61  F   UNL A   1      46.364  32.377  30.726  1.00  0.00    -0.206 F 
ATOM     62  C   UNL A   1      46.523  34.563  29.886  1.00  0.00     0.059 A 
ATOM     63  C   UNL A   1      45.886  35.026  27.589  1.00  0.00     0.059 A 
ATOM     64  F   UNL A   1      45.092  33.287  26.231  1.00  0.00    -0.206 F 
ATOM     65  C   UNL A   1      46.354  35.460  28.828  1.00  0.00     0.060 A 
BRANCH  65  66
ATOM     66  S   UNL A   1      46.768  37.198  29.088  1.00  0.00     0.124 S 
ATOM     67  O   UNL A   1      47.489  37.138  30.356  1.00  0.00    -0.237 OA
ATOM     68  O   UNL A   1      47.579  37.508  27.914  1.00  0.00    -0.237 OA
ATOM     69  O   UNL A   1      45.465  37.854  29.135  1.00  0.00    -0.744 OA
ENDBRANCH  65  66
ENDBRANCH  44  58
BRANCH  45  70
ATOM     70  C   UNL A   1      43.217  23.197  26.956  1.00  0.00     0.058 A 
ATOM     71  C   UNL A   1      43.105  22.720  25.642  1.00  0.00     0.135 A 
ATOM     72  C   UNL A   1      42.993  22.290  28.003  1.00  0.00     0.135 A 
ATOM     73  F   UNL A   1      43.299  23.553  24.608  1.00  0.00    -0.206 F 
ATOM     74  C   UNL A   1      42.784  21.394  25.375  1.00  0.00     0.059 A 
ATOM     75  C   UNL A   1      42.696  20.954  27.762  1.00  0.00     0.059 A 
ATOM     76  F   UNL A   1      43.102  22.697  29.278  1.00  0.00    -0.206 F 
ATOM     77  C   UNL A   1      42.585  20.515  26.443  1.00  0.00     0.060 A 
BRANCH  77  78
ATOM     78  S   UNL A   1      42.241  18.778  26.093  1.00  0.00     0.124 S 
ATOM     79  O   UNL A   1      43.156  18.515  24.990  1.00  0.00    -0.237 OA
ATOM     80  O   UNL A   1      42.567  18.134  27.361  1.00  0.00    -0.237 OA
ATOM     81  O   UNL A   1      40.821  18.785  25.751  1.00  0.00    -0.744 OA
ENDBRANCH  77  78
ENDBRANCH  45  70
BRANCH  57  82
ATOM     82  C   UNL A   1      49.138  26.797  26.267  1.00  0.00     0.058 A 
ATOM     83  C   UNL A   1      50.031  26.167  27.148  1.00  0.00     0.135 A 
ATOM     84  C   UNL A   1      49.558  27.019  24.946  1.00  0.00     0.135 A 
ATOM     85  F   UNL A   1      49.677  25.942  28.422  1.00  0.00    -0.206 F 
ATOM     86  C   UNL A   1      51.304  25.787  26.736  1.00  0.00     0.059 A 
ATOM     87  C   UNL A   1      50.819  26.630  24.510  1.00  0.00     0.059 A 
ATOM     88  F   UNL A   1      48.736  27.613  24.067  1.00  0.00    -0.206 F 
ATOM     89  C   UNL A   1      51.690  26.024  25.416  1.00  0.00     0.060 A 
BRANCH  89  90
ATOM     90  S   UNL A   1      53.334  25.504  24.883  1.00  0.00     0.124 S 
ATOM     91  O   UNL A   1      53.210  25.582  23.431  1.00  0.00    -0.237 OA
ATOM     92  O   UNL A   1      54.199  26.504  25.501  1.00  0.00    -0.237 OA
ATOM     93  O   UNL A   1      53.456  24.156  25.432  1.00  0.00    -0.744 OA
ENDBRANCH  89  90
ENDBRANCH  57  82
ENDBRANCH  31  32
ENDBRANCH  24  26
ENDBRANCH  23  24
ENDBRANCH  22  23
ENDBRANCH   1  22
TORSDOF 18
ENDMDL
MODEL 2
REMARK VINA RESULT:     -10.5      2.296      3.443
REMARK SMILES CC(C)(C)OC(=O)[C@]1(C(=O)OCCOC(=O)c2ccc(-c3c4nc(c(-c5c(F)cc(S(=O)(=O)[O-])cc5F)c5ccc([nH]5)c(-c5c(F)cc(S(=O)(=O)[O-])cc5F)c5nc(c(-c6c(F)cc(S(=O)(=O)[O-])cc6F)c6ccc3[nH]6)C=C5)C=C4)cc2)CC=CC[C@@H]1[NH3+]
REMARK SMILES IDX 12 1 11 2 9 3 10 4 8 5 83 6 87 7 84 8 86 9 85 10 6 11 7 12
REMARK SMILES IDX 5 13 2 14 1 15 3 16 4 17 88 18 13 22 14 23 15 24 16 25 17 26
REMARK SMILES IDX 18 27 82 28 19 29 81 30 20 31 21 32 22 33 75 34 23 35 80 36
REMARK SMILES IDX 74 37 76 38 24 39 79 40 73 41 72 42 25 44 59 45 38 46 58 47
REMARK SMILES IDX 39 48 42 49 57 50 77 51 40 52 41 53 56 55 78 56 43 57 26 58
REMARK SMILES IDX 27 59 36 60 28 61 29 62 35 63 37 64 30 65 31 66 32 67 33 68
REMARK SMILES IDX 34 69 60 70 61 71 70 72 62 73 63 74 69 75 71 76 64 77 65 78
REMARK SMILES IDX 66 79 67 80 68 81 44 82 45 83 54 84 46 85 47 86 53 87 55 88
REMARK SMILES IDX 48 89 49 90 50 91 51 92 52 93
REMARK H PARENT 88 19 88 20 88 21 76 43 42 54
REMARK Flexibility Score: inf
ROOT
ATOM      1  C   UNL A   1      32.371  28.477  25.584  1.00  0.00     0.274 C 
ENDROOT
BRANCH   1   2
ATOM      2  O   UNL A   1      32.119  27.139  25.108  1.00  0.00    -0.461 OA
BRANCH   2   3
ATOM      3  C   UNL A   1      31.635  26.270  26.041  1.00  0.00     0.330 C 
ATOM      4  O   UNL A   1      30.835  26.601  26.913  1.00  0.00    -0.251 OA
BRANCH   3   5
ATOM      5  C   UNL A   1      32.156  24.841  25.867  1.00  0.00     0.219 C 
ATOM      6  C   UNL A   1      33.699  24.911  26.080  1.00  0.00     0.064 C 
ATOM      7  C   UNL A   1      31.486  23.933  26.940  1.00  0.00     0.214 C 
ATOM      8  C   UNL A   1      34.357  23.658  26.569  1.00  0.00    -0.029 C 
ATOM      9  C   UNL A   1      32.198  22.585  27.211  1.00  0.00     0.093 C 
ATOM     10  C   UNL A   1      33.685  22.621  27.079  1.00  0.00    -0.025 C 
BRANCH   5  11
ATOM     11  C   UNL A   1      31.941  24.397  24.430  1.00  0.00     0.330 C 
ATOM     12  O   UNL A   1      30.835  24.203  23.939  1.00  0.00    -0.251 OA
BRANCH  11  13
ATOM     13  O   UNL A   1      33.109  24.312  23.741  1.00  0.00    -0.459 OA
BRANCH  13  14
ATOM     14  C   UNL A   1      33.448  23.133  22.972  1.00  0.00     0.104 C 
ATOM     15  C   UNL A   1      34.978  23.035  23.078  1.00  0.00     0.056 C 
ATOM     16  C   UNL A   1      33.066  23.301  21.499  1.00  0.00     0.056 C 
ATOM     17  C   UNL A   1      32.831  21.878  23.596  1.00  0.00     0.056 C 
ENDBRANCH  13  14
ENDBRANCH  11  13
ENDBRANCH   5  11
BRANCH   7  18
ATOM     18  N   UNL A   1      30.042  23.692  26.740  1.00  0.00    -0.353 N 
ATOM     19  H   UNL A   1      29.879  23.379  25.783  1.00  0.00     0.344 HD
ATOM     20  H   UNL A   1      29.527  24.556  26.908  1.00  0.00     0.344 HD
ATOM     21  H   UNL A   1      29.723  22.975  27.391  1.00  0.00     0.344 HD
ENDBRANCH   7  18
ENDBRANCH   3   5
ENDBRANCH   2   3
ENDBRANCH   1   2
BRANCH   1  22
ATOM     22  C   UNL A   1      33.833  28.647  25.990  1.00  0.00     0.275 C 
BRANCH  22  23
ATOM     23  O   UNL A   1      33.935  28.770  27.418  1.00  0.00    -0.458 OA
BRANCH  23  24
ATOM     24  C   UNL A   1      34.432  29.949  27.861  1.00  0.00     0.338 C 
ATOM     25  O   UNL A   1      33.809  30.987  28.012  1.00  0.00    -0.246 OA
BRANCH  24  26
ATOM     26  C   UNL A   1      35.883  29.834  28.142  1.00  0.00     0.060 A 
ATOM     27  C   UNL A   1      36.848  30.096  27.168  1.00  0.00     0.016 A 
ATOM     28  C   UNL A   1      36.284  29.359  29.391  1.00  0.00     0.016 A 
ATOM     29  C   UNL A   1      38.184  29.755  27.391  1.00  0.00     0.010 A 
ATOM     30  C   UNL A   1      37.639  29.140  29.655  1.00  0.00     0.010 A 
ATOM     31  C   UNL A   1      38.604  29.292  28.646  1.00  0.00    -0.014 A 
BRANCH  31  32
ATOM     32  C   UNL A   1      40.033  28.958  28.922  1.00  0.00     0.031 A 
ATOM     33  C   UNL A   1      40.963  30.012  29.471  1.00  0.00     0.074 A 
ATOM     34  C   UNL A   1      40.517  27.730  28.645  1.00  0.00     0.049 A 
ATOM     35  N   UNL A   1      42.270  30.015  29.533  1.00  0.00    -0.248 NA
ATOM     36  C   UNL A   1      40.340  31.237  30.002  1.00  0.00     0.031 C 
ATOM     37  C   UNL A   1      39.735  26.600  28.139  1.00  0.00     0.029 A 
ATOM     38  N   UNL A   1      41.792  27.228  28.739  1.00  0.00    -0.354 N 
ATOM     39  C   UNL A   1      42.628  31.260  30.039  1.00  0.00     0.074 A 
ATOM     40  C   UNL A   1      41.400  31.986  30.279  1.00  0.00     0.031 C 
ATOM     41  C   UNL A   1      40.536  25.534  27.996  1.00  0.00     0.029 A 
ATOM     42  C   UNL A   1      41.904  25.926  28.307  1.00  0.00     0.049 A 
ATOM     43  H   UNL A   1      42.553  27.750  29.083  1.00  0.00     0.167 HD
ATOM     44  C   UNL A   1      43.868  31.753  30.276  1.00  0.00     0.037 A 
ATOM     45  C   UNL A   1      42.987  25.147  28.125  1.00  0.00     0.037 A 
ATOM     46  C   UNL A   1      45.084  31.002  30.097  1.00  0.00     0.049 A 
ATOM     47  C   UNL A   1      44.351  25.712  28.397  1.00  0.00     0.074 A 
ATOM     48  C   UNL A   1      46.389  31.405  30.326  1.00  0.00     0.029 A 
ATOM     49  N   UNL A   1      45.143  29.685  29.668  1.00  0.00    -0.354 N 
ATOM     50  N   UNL A   1      44.677  26.913  28.809  1.00  0.00    -0.248 NA
ATOM     51  C   UNL A   1      45.497  24.824  28.157  1.00  0.00     0.031 C 
ATOM     52  C   UNL A   1      47.239  30.337  30.015  1.00  0.00     0.029 A 
ATOM     53  C   UNL A   1      46.462  29.260  29.624  1.00  0.00     0.049 A 
ATOM     54  H   UNL A   1      44.364  29.133  29.429  1.00  0.00     0.167 HD
ATOM     55  C   UNL A   1      46.063  26.925  28.883  1.00  0.00     0.074 A 
ATOM     56  C   UNL A   1      46.516  25.606  28.492  1.00  0.00     0.031 C 
ATOM     57  C   UNL A   1      46.890  27.940  29.237  1.00  0.00     0.037 A 
BRANCH  44  58
ATOM     58  C   UNL A   1      43.981  33.183  30.730  1.00  0.00     0.058 A 
ATOM     59  C   UNL A   1      44.046  34.250  29.822  1.00  0.00     0.135 A 
ATOM     60  C   UNL A   1      43.977  33.490  32.102  1.00  0.00     0.135 A 
ATOM     61  F   UNL A   1      44.071  34.012  28.501  1.00  0.00    -0.206 F 
ATOM     62  C   UNL A   1      44.124  35.571  30.256  1.00  0.00     0.059 A 
ATOM     63  C   UNL A   1      44.032  34.804  32.557  1.00  0.00     0.059 A 
ATOM     64  F   UNL A   1      43.915  32.507  33.013  1.00  0.00    -0.206 F 
ATOM     65  C   UNL A   1      44.119  35.838  31.626  1.00  0.00     0.060 A 
BRANCH  65  66
ATOM     66  S   UNL A   1      44.211  37.555  32.177  1.00  0.00     0.124 S 
ATOM     67  O   UNL A   1      43.263  37.555  33.287  1.00  0.00    -0.237 OA
ATOM     68  O   UNL A   1      45.617  37.693  32.547  1.00  0.00    -0.237 OA
ATOM     69  O   UNL A   1      43.800  38.312  30.999  1.00  0.00    -0.744 OA
ENDBRANCH  65  66
ENDBRANCH  44  58
BRANCH  45  70
ATOM     70  C   UNL A   1      42.820  23.761  27.617  1.00  0.00     0.058 A 
ATOM     71  C   UNL A   1      42.617  22.690  28.499  1.00  0.00     0.135 A 
ATOM     72  C   UNL A   1      42.823  23.485  26.241  1.00  0.00     0.135 A 
ATOM     73  F   UNL A   1      42.617  22.904  29.824  1.00  0.00    -0.206 F 
ATOM     74  C   UNL A   1      42.424  21.393  28.036  1.00  0.00     0.059 A 
ATOM     75  C   UNL A   1      42.606  22.201  25.752  1.00  0.00     0.059 A 
ATOM     76  F   UNL A   1      43.000  24.479  25.357  1.00  0.00    -0.206 F 
ATOM     77  C   UNL A   1      42.415  21.159  26.659  1.00  0.00     0.060 A 
BRANCH  77  78
ATOM     78  S   UNL A   1      42.090  19.487  26.059  1.00  0.00     0.124 S 
ATOM     79  O   UNL A   1      42.499  18.681  27.203  1.00  0.00    -0.237 OA
ATOM     80  O   UNL A   1      40.657  19.526  25.786  1.00  0.00    -0.237 OA
ATOM     81  O   UNL A   1      42.942  19.388  24.877  1.00  0.00    -0.744 OA
ENDBRANCH  77  78
ENDBRANCH  45  70
BRANCH  57  82
ATOM     82  C   UNL A   1      48.362  27.651  29.244  1.00  0.00     0.058 A 
ATOM     83  C   UNL A   1      49.190  28.042  28.181  1.00  0.00     0.135 A 
ATOM     84  C   UNL A   1      48.954  27.009  30.342  1.00  0.00     0.135 A 
ATOM     85  F   UNL A   1      48.666  28.652  27.106  1.00  0.00    -0.206 F 
ATOM     86  C   UNL A   1      50.556  27.786  28.198  1.00  0.00     0.059 A 
ATOM     87  C   UNL A   1      50.321  26.760  30.388  1.00  0.00     0.059 A 
ATOM     88  F   UNL A   1      48.203  26.622  31.385  1.00  0.00    -0.206 F 
ATOM     89  C   UNL A   1      51.113  27.143  29.305  1.00  0.00     0.060 A 
BRANCH  89  90
ATOM     90  S   UNL A   1      52.892  26.839  29.331  1.00  0.00     0.124 S 
ATOM     91  O   UNL A   1      53.067  26.234  30.646  1.00  0.00    -0.237 OA
ATOM     92  O   UNL A   1      53.078  25.946  28.191  1.00  0.00    -0.237 OA
ATOM     93  O   UNL A   1      53.465  28.173  29.172  1.00  0.00    -0.744 OA
ENDBRANCH  89  90
ENDBRANCH  57  82
ENDBRANCH  31  32
ENDBRANCH  24  26
ENDBRANCH  23  24
ENDBRANCH  22  23
ENDBRANCH   1  22
TORSDOF 18
ENDMDL
MODEL 3
REMARK VINA RESULT:     -10.5      6.790     12.101
REMARK SMILES CC(C)(C)OC(=O)[C@]1(C(=O)OCCOC(=O)c2ccc(-c3c4nc(c(-c5c(F)cc(S(=O)(=O)[O-])cc5F)c5ccc([nH]5)c(-c5c(F)cc(S(=O)(=O)[O-])cc5F)c5nc(c(-c6c(F)cc(S(=O)(=O)[O-])cc6F)c6ccc3[nH]6)C=C5)C=C4)cc2)CC=CC[C@@H]1[NH3+]
REMARK SMILES IDX 12 1 11 2 9 3 10 4 8 5 83 6 87 7 84 8 86 9 85 10 6 11 7 12
REMARK SMILES IDX 5 13 2 14 1 15 3 16 4 17 88 18 13 22 14 23 15 24 16 25 17 26
REMARK SMILES IDX 18 27 82 28 19 29 81 30 20 31 21 32 22 33 75 34 23 35 80 36
REMARK SMILES IDX 74 37 76 38 24 39 79 40 73 41 72 42 25 44 59 45 38 46 58 47
REMARK SMILES IDX 39 48 42 49 57 50 77 51 40 52 41 53 56 55 78 56 43 57 26 58
REMARK SMILES IDX 27 59 36 60 28 61 29 62 35 63 37 64 30 65 31 66 32 67 33 68
REMARK SMILES IDX 34 69 60 70 61 71 70 72 62 73 63 74 69 75 71 76 64 77 65 78
REMARK SMILES IDX 66 79 67 80 68 81 44 82 45 83 54 84 46 85 47 86 53 87 55 88
REMARK SMILES IDX 48 89 49 90 50 91 51 92 52 93
REMARK H PARENT 88 19 88 20 88 21 76 43 42 54
REMARK Flexibility Score: inf
ROOT
ATOM      1  C   UNL A   1      38.102  21.818  25.209  1.00  0.00     0.274 C 
ENDROOT
BRANCH   1   2
ATOM      2  O   UNL A   1      36.802  22.211  25.695  1.00  0.00    -0.461 OA
BRANCH   2   3
ATOM      3  C   UNL A   1      35.845  22.372  24.735  1.00  0.00     0.330 C 
ATOM      4  O   UNL A   1      36.111  22.576  23.553  1.00  0.00    -0.251 OA
BRANCH   3   5
ATOM      5  C   UNL A   1      34.418  22.233  25.272  1.00  0.00     0.219 C 
ATOM      6  C   UNL A   1      34.550  21.666  26.718  1.00  0.00     0.064 C 
ATOM      7  C   UNL A   1      33.753  23.641  25.284  1.00  0.00     0.214 C 
ATOM      8  C   UNL A   1      33.438  22.000  27.663  1.00  0.00    -0.029 C 
ATOM      9  C   UNL A   1      32.503  23.780  26.187  1.00  0.00     0.093 C 
ATOM     10  C   UNL A   1      32.527  22.949  27.427  1.00  0.00    -0.025 C 
BRANCH   5  11
ATOM     11  C   UNL A   1      33.675  21.183  24.465  1.00  0.00     0.330 C 
ATOM     12  O   UNL A   1      32.705  21.431  23.757  1.00  0.00    -0.251 OA
BRANCH  11  13
ATOM     13  O   UNL A   1      34.254  19.957  24.565  1.00  0.00    -0.459 OA
BRANCH  13  14
ATOM     14  C   UNL A   1      33.471  18.742  24.478  1.00  0.00     0.104 C 
ATOM     15  C   UNL A   1      34.515  17.627  24.307  1.00  0.00     0.056 C 
ATOM     16  C   UNL A   1      32.559  18.756  23.248  1.00  0.00     0.056 C 
ATOM     17  C   UNL A   1      32.697  18.497  25.776  1.00  0.00     0.056 C 
ENDBRANCH  13  14
ENDBRANCH  11  13
ENDBRANCH   5  11
BRANCH   7  18
ATOM     18  N   UNL A   1      33.459  24.203  23.949  1.00  0.00    -0.353 N 
ATOM     19  H   UNL A   1      33.534  25.220  23.984  1.00  0.00     0.344 HD
ATOM     20  H   UNL A   1      32.513  23.941  23.670  1.00  0.00     0.344 HD
ATOM     21  H   UNL A   1      34.127  23.836  23.271  1.00  0.00     0.344 HD
ENDBRANCH   7  18
ENDBRANCH   3   5
ENDBRANCH   2   3
ENDBRANCH   1   2
BRANCH   1  22
ATOM     22  C   UNL A   1      39.181  22.087  26.255  1.00  0.00     0.275 C 
BRANCH  22  23
ATOM     23  O   UNL A   1      39.217  23.488  26.576  1.00  0.00    -0.458 OA
BRANCH  23  24
ATOM     24  C   UNL A   1      40.457  24.023  26.680  1.00  0.00     0.338 C 
ATOM     25  O   UNL A   1      41.480  23.580  26.186  1.00  0.00    -0.246 OA
BRANCH  24  26
ATOM     26  C   UNL A   1      40.429  25.253  27.506  1.00  0.00     0.060 A 
ATOM     27  C   UNL A   1      41.447  26.206  27.448  1.00  0.00     0.016 A 
ATOM     28  C   UNL A   1      39.398  25.410  28.434  1.00  0.00     0.016 A 
ATOM     29  C   UNL A   1      41.511  27.228  28.398  1.00  0.00     0.010 A 
ATOM     30  C   UNL A   1      39.397  26.507  29.300  1.00  0.00     0.010 A 
ATOM     31  C   UNL A   1      40.475  27.407  29.326  1.00  0.00    -0.014 A 
BRANCH  31  32
ATOM     32  C   UNL A   1      40.500  28.514  30.326  1.00  0.00     0.031 A 
ATOM     33  C   UNL A   1      41.485  28.478  31.469  1.00  0.00     0.074 A 
ATOM     34  C   UNL A   1      39.618  29.533  30.247  1.00  0.00     0.049 A 
ATOM     35  N   UNL A   1      41.503  29.181  32.573  1.00  0.00    -0.248 NA
ATOM     36  C   UNL A   1      42.586  27.505  31.367  1.00  0.00     0.031 C 
ATOM     37  C   UNL A   1      38.627  29.720  29.185  1.00  0.00     0.029 A 
ATOM     38  N   UNL A   1      39.406  30.601  31.084  1.00  0.00    -0.354 N 
ATOM     39  C   UNL A   1      42.565  28.691  33.324  1.00  0.00     0.074 A 
ATOM     40  C   UNL A   1      43.178  27.634  32.547  1.00  0.00     0.031 C 
ATOM     41  C   UNL A   1      37.935  30.846  29.417  1.00  0.00     0.029 A 
ATOM     42  C   UNL A   1      38.364  31.410  30.690  1.00  0.00     0.049 A 
ATOM     43  H   UNL A   1      39.947  30.771  31.889  1.00  0.00     0.167 HD
ATOM     44  C   UNL A   1      42.986  29.081  34.552  1.00  0.00     0.037 A 
ATOM     45  C   UNL A   1      37.779  32.456  31.304  1.00  0.00     0.037 A 
ATOM     46  C   UNL A   1      42.413  30.177  35.291  1.00  0.00     0.049 A 
ATOM     47  C   UNL A   1      38.263  32.875  32.662  1.00  0.00     0.074 A 
ATOM     48  C   UNL A   1      42.779  30.663  36.535  1.00  0.00     0.029 A 
ATOM     49  N   UNL A   1      41.368  30.971  34.844  1.00  0.00    -0.354 N 
ATOM     50  N   UNL A   1      39.224  32.356  33.388  1.00  0.00    -0.248 NA
ATOM     51  C   UNL A   1      37.570  34.005  33.294  1.00  0.00     0.031 C 
ATOM     52  C   UNL A   1      41.941  31.740  36.849  1.00  0.00     0.029 A 
ATOM     53  C   UNL A   1      41.075  31.943  35.788  1.00  0.00     0.049 A 
ATOM     54  H   UNL A   1      40.902  30.861  33.985  1.00  0.00     0.167 HD
ATOM     55  C   UNL A   1      39.254  33.099  34.561  1.00  0.00     0.074 A 
ATOM     56  C   UNL A   1      38.229  34.116  34.440  1.00  0.00     0.031 C 
ATOM     57  C   UNL A   1      40.055  32.949  35.645  1.00  0.00     0.037 A 
BRANCH  44  58
ATOM     58  C   UNL A   1      44.105  28.306  35.191  1.00  0.00     0.058 A 
ATOM     59  C   UNL A   1      43.875  27.133  35.924  1.00  0.00     0.135 A 
ATOM     60  C   UNL A   1      45.437  28.723  35.024  1.00  0.00     0.135 A 
ATOM     61  F   UNL A   1      42.621  26.700  36.128  1.00  0.00    -0.206 F 
ATOM     62  C   UNL A   1      44.922  26.410  36.488  1.00  0.00     0.059 A 
ATOM     63  C   UNL A   1      46.502  28.004  35.561  1.00  0.00     0.059 A 
ATOM     64  F   UNL A   1      45.714  29.837  34.331  1.00  0.00    -0.206 F 
ATOM     65  C   UNL A   1      46.233  26.855  36.303  1.00  0.00     0.060 A 
BRANCH  65  66
ATOM     66  S   UNL A   1      47.585  25.905  37.032  1.00  0.00     0.124 S 
ATOM     67  O   UNL A   1      46.957  25.393  38.247  1.00  0.00    -0.237 OA
ATOM     68  O   UNL A   1      47.865  24.912  35.999  1.00  0.00    -0.237 OA
ATOM     69  O   UNL A   1      48.630  26.903  37.236  1.00  0.00    -0.744 OA
ENDBRANCH  65  66
ENDBRANCH  44  58
BRANCH  45  70
ATOM     70  C   UNL A   1      36.637  33.147  30.652  1.00  0.00     0.058 A 
ATOM     71  C   UNL A   1      35.316  32.871  31.030  1.00  0.00     0.135 A 
ATOM     72  C   UNL A   1      36.845  34.122  29.664  1.00  0.00     0.135 A 
ATOM     73  F   UNL A   1      35.067  31.938  31.962  1.00  0.00    -0.206 F 
ATOM     74  C   UNL A   1      34.239  33.536  30.453  1.00  0.00     0.059 A 
ATOM     75  C   UNL A   1      35.788  34.819  29.090  1.00  0.00     0.059 A 
ATOM     76  F   UNL A   1      38.094  34.431  29.278  1.00  0.00    -0.206 F 
ATOM     77  C   UNL A   1      34.486  34.513  29.485  1.00  0.00     0.060 A 
BRANCH  77  78
ATOM     78  S   UNL A   1      33.092  35.426  28.790  1.00  0.00     0.124 S 
ATOM     79  O   UNL A   1      32.399  34.381  28.047  1.00  0.00    -0.237 OA
ATOM     80  O   UNL A   1      32.413  35.916  29.986  1.00  0.00    -0.237 OA
ATOM     81  O   UNL A   1      33.740  36.456  27.983  1.00  0.00    -0.744 OA
ENDBRANCH  77  78
ENDBRANCH  45  70
BRANCH  57  82
ATOM     82  C   UNL A   1      39.872  33.926  36.769  1.00  0.00     0.058 A 
ATOM     83  C   UNL A   1      40.489  35.186  36.751  1.00  0.00     0.135 A 
ATOM     84  C   UNL A   1      39.043  33.610  37.857  1.00  0.00     0.135 A 
ATOM     85  F   UNL A   1      41.297  35.528  35.736  1.00  0.00    -0.206 F 
ATOM     86  C   UNL A   1      40.305  36.095  37.787  1.00  0.00     0.059 A 
ATOM     87  C   UNL A   1      38.830  34.512  38.894  1.00  0.00     0.059 A 
ATOM     88  F   UNL A   1      38.427  32.419  37.915  1.00  0.00    -0.206 F 
ATOM     89  C   UNL A   1      39.476  35.749  38.855  1.00  0.00     0.060 A 
BRANCH  89  90
ATOM     90  S   UNL A   1      39.221  36.945  40.183  1.00  0.00     0.124 S 
ATOM     91  O   UNL A   1      40.591  37.202  40.613  1.00  0.00    -0.237 OA
ATOM     92  O   UNL A   1      38.554  38.046  39.494  1.00  0.00    -0.237 OA
ATOM     93  O   UNL A   1      38.389  36.218  41.138  1.00  0.00    -0.744 OA
ENDBRANCH  89  90
ENDBRANCH  57  82
ENDBRANCH  31  32
ENDBRANCH  24  26
ENDBRANCH  23  24
ENDBRANCH  22  23
ENDBRANCH   1  22
TORSDOF 18
ENDMDL
