MODEL 1
REMARK VINA RESULT:     -11.2      0.000      0.000
REMARK SMILES C[C@H]1C[N@H+]2CCC[C@@H]2CN1c1cc(Cl)ccc1C(=O)OCCOC(=O)c1ccc(-c2c3nc(c(-c4c(F)cc(S(=O)(=O)[O-])cc4F)c4ccc([nH]4)c(-c4c(F)cc(S(=O)(=O)[O-])cc4F)c4nc(c(-c5c(F)cc(S(=O)(=O)[O-])cc5F)c5ccc2[nH]5)C=C4)C=C3)cc1
REMARK SMILES IDX 22 1 21 2 20 3 18 4 19 5 17 6 11 7 12 8 13 9 16 10 14 11
REMARK SMILES IDX 15 12 10 13 1 14 2 15 3 16 4 17 9 18 5 19 8 20 6 22 7 23
REMARK SMILES IDX 23 24 24 25 25 26 26 27 27 28 91 29 28 30 90 31 29 32 30 33
REMARK SMILES IDX 31 34 84 35 32 36 89 37 83 38 85 39 33 40 88 41 82 42 81 43
REMARK SMILES IDX 34 45 68 46 47 47 67 48 48 49 51 50 66 51 86 52 49 53 50 54
REMARK SMILES IDX 65 56 87 57 52 58 35 59 36 60 45 61 37 62 38 63 44 64 46 65
REMARK SMILES IDX 39 66 40 67 41 68 42 69 43 70 69 71 70 72 79 73 71 74 72 75
REMARK SMILES IDX 78 76 80 77 73 78 74 79 75 80 76 81 77 82 53 83 54 84 63 85
REMARK SMILES IDX 55 86 56 87 62 88 64 89 57 90 58 91 59 92 60 93 61 94
REMARK H PARENT 4 21 85 44 51 55
REMARK Flexibility Score: inf
ROOT
ATOM      1  C   UNL A   1      33.122  28.845  26.147  1.00  0.00     0.275 C 
ENDROOT
BRANCH   1   2
ATOM      2  C   UNL A   1      33.674  28.097  24.936  1.00  0.00     0.275 C 
BRANCH   2   3
ATOM      3  O   UNL A   1      33.991  26.734  25.291  1.00  0.00    -0.458 OA
BRANCH   3   4
ATOM      4  C   UNL A   1      33.442  25.761  24.524  1.00  0.00     0.340 C 
ATOM      5  O   UNL A   1      33.734  25.515  23.364  1.00  0.00    -0.246 OA
BRANCH   4   6
ATOM      6  C   UNL A   1      32.453  24.939  25.275  1.00  0.00     0.083 A 
ATOM      7  C   UNL A   1      32.729  23.655  25.806  1.00  0.00     0.053 A 
ATOM      8  C   UNL A   1      31.676  23.006  26.482  1.00  0.00     0.047 A 
ATOM      9  C   UNL A   1      30.410  23.586  26.610  1.00  0.00     0.043 A 
ATOM     10  C   UNL A   1      31.187  25.535  25.455  1.00  0.00     0.019 A 
ATOM     11  Cl  UNL A   1      29.159  22.732  27.427  1.00  0.00    -0.084 Cl
ATOM     12  C   UNL A   1      30.159  24.851  26.098  1.00  0.00     0.021 A 
BRANCH   7  13
ATOM     13  N   UNL A   1      33.973  23.040  25.695  1.00  0.00    -0.356 N 
ATOM     14  C   UNL A   1      33.306  21.413  23.879  1.00  0.00     0.037 C 
ATOM     15  C   UNL A   1      34.167  21.665  25.132  1.00  0.00     0.134 C 
ATOM     16  C   UNL A   1      35.672  21.396  24.747  1.00  0.00     0.287 C 
ATOM     17  N   UNL A   1      36.645  21.875  25.742  1.00  0.00    -0.329 N 
ATOM     18  C   UNL A   1      35.009  23.469  26.664  1.00  0.00     0.182 C 
ATOM     19  C   UNL A   1      38.040  21.825  25.307  1.00  0.00     0.262 C 
ATOM     20  C   UNL A   1      36.368  23.301  25.988  1.00  0.00     0.203 C 
ATOM     21  H   UNL A   1      36.540  21.264  26.552  1.00  0.00     0.348 HD
ATOM     22  C   UNL A   1      38.705  23.028  25.991  1.00  0.00     0.068 C 
ATOM     23  C   UNL A   1      37.590  23.724  26.769  1.00  0.00     0.073 C 
ENDBRANCH   7  13
ENDBRANCH   4   6
ENDBRANCH   3   4
ENDBRANCH   2   3
ENDBRANCH   1   2
BRANCH   1  24
ATOM     24  O   UNL A   1      34.074  28.754  27.218  1.00  0.00    -0.458 OA
BRANCH  24  25
ATOM     25  C   UNL A   1      34.500  29.942  27.704  1.00  0.00     0.338 C 
ATOM     26  O   UNL A   1      33.843  30.938  27.938  1.00  0.00    -0.246 OA
BRANCH  25  27
ATOM     27  C   UNL A   1      35.906  29.781  28.087  1.00  0.00     0.060 A 
ATOM     28  C   UNL A   1      36.866  29.936  27.087  1.00  0.00     0.016 A 
ATOM     29  C   UNL A   1      36.273  29.426  29.381  1.00  0.00     0.016 A 
ATOM     30  C   UNL A   1      38.206  29.688  27.359  1.00  0.00     0.010 A 
ATOM     31  C   UNL A   1      37.625  29.214  29.663  1.00  0.00     0.010 A 
ATOM     32  C   UNL A   1      38.599  29.317  28.649  1.00  0.00    -0.014 A 
BRANCH  32  33
ATOM     33  C   UNL A   1      40.010  28.949  28.929  1.00  0.00     0.031 A 
ATOM     34  C   UNL A   1      40.936  29.989  29.498  1.00  0.00     0.074 A 
ATOM     35  C   UNL A   1      40.462  27.705  28.678  1.00  0.00     0.049 A 
ATOM     36  N   UNL A   1      42.238  29.973  29.598  1.00  0.00    -0.248 NA
ATOM     37  C   UNL A   1      40.309  31.221  30.007  1.00  0.00     0.031 C 
ATOM     38  C   UNL A   1      39.653  26.590  28.186  1.00  0.00     0.029 A 
ATOM     39  N   UNL A   1      41.723  27.174  28.794  1.00  0.00    -0.354 N 
ATOM     40  C   UNL A   1      42.593  31.213  30.115  1.00  0.00     0.074 A 
ATOM     41  C   UNL A   1      41.368  31.954  30.323  1.00  0.00     0.031 C 
ATOM     42  C   UNL A   1      40.435  25.507  28.045  1.00  0.00     0.029 A 
ATOM     43  C   UNL A   1      41.811  25.870  28.363  1.00  0.00     0.049 A 
ATOM     44  H   UNL A   1      42.490  27.677  29.151  1.00  0.00     0.167 HD
ATOM     45  C   UNL A   1      43.832  31.689  30.382  1.00  0.00     0.037 A 
ATOM     46  C   UNL A   1      42.887  25.077  28.194  1.00  0.00     0.037 A 
ATOM     47  C   UNL A   1      45.037  30.915  30.232  1.00  0.00     0.049 A 
ATOM     48  C   UNL A   1      44.255  25.625  28.500  1.00  0.00     0.074 A 
ATOM     49  C   UNL A   1      46.342  31.295  30.485  1.00  0.00     0.029 A 
ATOM     50  N   UNL A   1      45.078  29.593  29.811  1.00  0.00    -0.354 N 
ATOM     51  N   UNL A   1      44.584  26.822  28.924  1.00  0.00    -0.248 NA
ATOM     52  C   UNL A   1      45.396  24.725  28.288  1.00  0.00     0.031 C 
ATOM     53  C   UNL A   1      47.177  30.210  30.194  1.00  0.00     0.029 A 
ATOM     54  C   UNL A   1      46.386  29.143  29.797  1.00  0.00     0.049 A 
ATOM     55  H   UNL A   1      44.293  29.055  29.560  1.00  0.00     0.167 HD
ATOM     56  C   UNL A   1      45.969  26.814  29.044  1.00  0.00     0.074 A 
ATOM     57  C   UNL A   1      46.414  25.489  28.661  1.00  0.00     0.031 C 
ATOM     58  C   UNL A   1      46.800  27.813  29.431  1.00  0.00     0.037 A 
BRANCH  45  59
ATOM     59  C   UNL A   1      43.956  33.118  30.828  1.00  0.00     0.058 A 
ATOM     60  C   UNL A   1      44.142  34.170  29.921  1.00  0.00     0.135 A 
ATOM     61  C   UNL A   1      43.838  33.440  32.191  1.00  0.00     0.135 A 
ATOM     62  F   UNL A   1      44.283  33.915  28.610  1.00  0.00    -0.206 F 
ATOM     63  C   UNL A   1      44.220  35.492  30.348  1.00  0.00     0.059 A 
ATOM     64  C   UNL A   1      43.890  34.757  32.638  1.00  0.00     0.059 A 
ATOM     65  F   UNL A   1      43.664  32.470  33.102  1.00  0.00    -0.206 F 
ATOM     66  C   UNL A   1      44.092  35.776  31.709  1.00  0.00     0.060 A 
BRANCH  66  67
ATOM     67  S   UNL A   1      44.170  37.497  32.249  1.00  0.00     0.124 S 
ATOM     68  O   UNL A   1      45.569  37.614  32.648  1.00  0.00    -0.237 OA
ATOM     69  O   UNL A   1      43.794  38.223  31.040  1.00  0.00    -0.237 OA
ATOM     70  O   UNL A   1      43.200  37.556  33.338  1.00  0.00    -0.744 OA
ENDBRANCH  66  67
ENDBRANCH  45  59
BRANCH  46  71
ATOM     71  C   UNL A   1      42.718  23.699  27.661  1.00  0.00     0.058 A 
ATOM     72  C   UNL A   1      42.516  22.607  28.517  1.00  0.00     0.135 A 
ATOM     73  C   UNL A   1      42.748  23.447  26.279  1.00  0.00     0.135 A 
ATOM     74  F   UNL A   1      42.491  22.794  29.846  1.00  0.00    -0.206 F 
ATOM     75  C   UNL A   1      42.361  21.314  28.028  1.00  0.00     0.059 A 
ATOM     76  C   UNL A   1      42.569  22.169  25.764  1.00  0.00     0.059 A 
ATOM     77  F   UNL A   1      42.927  24.458  25.416  1.00  0.00    -0.206 F 
ATOM     78  C   UNL A   1      42.388  21.105  26.647  1.00  0.00     0.060 A 
BRANCH  78  79
ATOM     79  S   UNL A   1      42.137  19.433  26.011  1.00  0.00     0.124 S 
ATOM     80  O   UNL A   1      42.648  18.622  27.110  1.00  0.00    -0.237 OA
ATOM     81  O   UNL A   1      40.693  19.392  25.805  1.00  0.00    -0.237 OA
ATOM     82  O   UNL A   1      42.936  19.419  24.790  1.00  0.00    -0.744 OA
ENDBRANCH  78  79
ENDBRANCH  46  71
BRANCH  58  83
ATOM     83  C   UNL A   1      48.266  27.501  29.504  1.00  0.00     0.058 A 
ATOM     84  C   UNL A   1      49.100  27.631  28.385  1.00  0.00     0.135 A 
ATOM     85  C   UNL A   1      48.850  27.130  30.725  1.00  0.00     0.135 A 
ATOM     86  F   UNL A   1      48.587  27.979  27.194  1.00  0.00    -0.206 F 
ATOM     87  C   UNL A   1      50.468  27.390  28.470  1.00  0.00     0.059 A 
ATOM     88  C   UNL A   1      50.217  26.904  30.838  1.00  0.00     0.059 A 
ATOM     89  F   UNL A   1      48.092  27.002  31.825  1.00  0.00    -0.206 F 
ATOM     90  C   UNL A   1      51.017  27.027  29.702  1.00  0.00     0.060 A 
BRANCH  90  91
ATOM     91  S   UNL A   1      52.798  26.758  29.814  1.00  0.00     0.124 S 
ATOM     92  O   UNL A   1      52.878  25.755  30.870  1.00  0.00    -0.237 OA
ATOM     93  O   UNL A   1      53.132  26.292  28.471  1.00  0.00    -0.237 OA
ATOM     94  O   UNL A   1      53.320  28.077  30.159  1.00  0.00    -0.744 OA
ENDBRANCH  90  91
ENDBRANCH  58  83
ENDBRANCH  32  33
ENDBRANCH  25  27
ENDBRANCH  24  25
ENDBRANCH   1  24
TORSDOF 15
ENDMDL
MODEL 2
REMARK VINA RESULT:     -11.1      2.806      4.565
REMARK SMILES C[C@H]1C[N@H+]2CCC[C@@H]2CN1c1cc(Cl)ccc1C(=O)OCCOC(=O)c1ccc(-c2c3nc(c(-c4c(F)cc(S(=O)(=O)[O-])cc4F)c4ccc([nH]4)c(-c4c(F)cc(S(=O)(=O)[O-])cc4F)c4nc(c(-c5c(F)cc(S(=O)(=O)[O-])cc5F)c5ccc2[nH]5)C=C4)C=C3)cc1
REMARK SMILES IDX 22 1 21 2 20 3 18 4 19 5 17 6 11 7 12 8 13 9 16 10 14 11
REMARK SMILES IDX 15 12 10 13 1 14 2 15 3 16 4 17 9 18 5 19 8 20 6 22 7 23
REMARK SMILES IDX 23 24 24 25 25 26 26 27 27 28 91 29 28 30 90 31 29 32 30 33
REMARK SMILES IDX 31 34 84 35 32 36 89 37 83 38 85 39 33 40 88 41 82 42 81 43
REMARK SMILES IDX 34 45 68 46 47 47 67 48 48 49 51 50 66 51 86 52 49 53 50 54
REMARK SMILES IDX 65 56 87 57 52 58 35 59 36 60 45 61 37 62 38 63 44 64 46 65
REMARK SMILES IDX 39 66 40 67 41 68 42 69 43 70 69 71 70 72 79 73 71 74 72 75
REMARK SMILES IDX 78 76 80 77 73 78 74 79 75 80 76 81 77 82 53 83 54 84 63 85
REMARK SMILES IDX 55 86 56 87 62 88 64 89 57 90 58 91 59 92 60 93 61 94
REMARK H PARENT 4 21 85 44 51 55
REMARK Flexibility Score: inf
ROOT
ATOM      1  C   UNL A   1      34.370  30.540  27.325  1.00  0.00     0.275 C 
ENDROOT
BRANCH   1   2
ATOM      2  C   UNL A   1      33.187  29.588  27.168  1.00  0.00     0.275 C 
BRANCH   2   3
ATOM      3  O   UNL A   1      33.640  28.299  26.703  1.00  0.00    -0.458 OA
BRANCH   3   4
ATOM      4  C   UNL A   1      32.708  27.319  26.621  1.00  0.00     0.340 C 
ATOM      5  O   UNL A   1      31.672  27.262  27.266  1.00  0.00    -0.246 OA
BRANCH   4   6
ATOM      6  C   UNL A   1      33.044  26.304  25.583  1.00  0.00     0.083 A 
ATOM      7  C   UNL A   1      32.665  26.406  24.223  1.00  0.00     0.053 A 
ATOM      8  C   UNL A   1      33.054  25.352  23.373  1.00  0.00     0.047 A 
ATOM      9  C   UNL A   1      33.763  24.244  23.846  1.00  0.00     0.043 A 
ATOM     10  C   UNL A   1      33.803  25.206  26.039  1.00  0.00     0.019 A 
ATOM     11  Cl  UNL A   1      34.188  22.977  22.761  1.00  0.00    -0.084 Cl
ATOM     12  C   UNL A   1      34.140  24.165  25.178  1.00  0.00     0.021 A 
BRANCH   7  13
ATOM     13  N   UNL A   1      31.952  27.489  23.713  1.00  0.00    -0.356 N 
ATOM     14  C   UNL A   1      33.934  28.634  22.641  1.00  0.00     0.037 C 
ATOM     15  C   UNL A   1      32.583  28.802  23.364  1.00  0.00     0.134 C 
ATOM     16  C   UNL A   1      31.648  29.676  22.442  1.00  0.00     0.287 C 
ATOM     17  N   UNL A   1      30.233  29.680  22.849  1.00  0.00    -0.329 N 
ATOM     18  C   UNL A   1      30.517  27.565  24.079  1.00  0.00     0.182 C 
ATOM     19  C   UNL A   1      29.323  30.307  21.891  1.00  0.00     0.262 C 
ATOM     20  C   UNL A   1      29.790  28.277  22.942  1.00  0.00     0.203 C 
ATOM     21  H   UNL A   1      30.195  30.207  23.721  1.00  0.00     0.348 HD
ATOM     22  C   UNL A   1      28.013  29.516  22.024  1.00  0.00     0.068 C 
ATOM     23  C   UNL A   1      28.293  28.433  23.063  1.00  0.00     0.073 C 
ENDBRANCH   7  13
ENDBRANCH   4   6
ENDBRANCH   3   4
ENDBRANCH   2   3
ENDBRANCH   1   2
BRANCH   1  24
ATOM     24  O   UNL A   1      35.515  29.786  27.754  1.00  0.00    -0.458 OA
BRANCH  24  25
ATOM     25  C   UNL A   1      36.085  30.219  28.901  1.00  0.00     0.338 C 
ATOM     26  O   UNL A   1      35.535  30.606  29.914  1.00  0.00    -0.246 OA
BRANCH  25  27
ATOM     27  C   UNL A   1      37.527  29.973  28.795  1.00  0.00     0.060 A 
ATOM     28  C   UNL A   1      38.043  29.723  27.523  1.00  0.00     0.016 A 
ATOM     29  C   UNL A   1      38.343  29.927  29.920  1.00  0.00     0.016 A 
ATOM     30  C   UNL A   1      39.379  29.373  27.367  1.00  0.00     0.010 A 
ATOM     31  C   UNL A   1      39.695  29.614  29.758  1.00  0.00     0.010 A 
ATOM     32  C   UNL A   1      40.218  29.308  28.485  1.00  0.00    -0.014 A 
BRANCH  32  33
ATOM     33  C   UNL A   1      41.620  28.836  28.347  1.00  0.00     0.031 A 
ATOM     34  C   UNL A   1      42.739  29.836  28.450  1.00  0.00     0.074 A 
ATOM     35  C   UNL A   1      41.893  27.535  28.131  1.00  0.00     0.049 A 
ATOM     36  N   UNL A   1      43.998  29.704  28.131  1.00  0.00    -0.248 NA
ATOM     37  C   UNL A   1      42.386  31.170  28.966  1.00  0.00     0.031 C 
ATOM     38  C   UNL A   1      40.903  26.458  28.072  1.00  0.00     0.029 A 
ATOM     39  N   UNL A   1      43.088  26.899  27.907  1.00  0.00    -0.354 N 
ATOM     40  C   UNL A   1      44.574  30.952  28.341  1.00  0.00     0.074 A 
ATOM     41  C   UNL A   1      43.530  31.826  28.829  1.00  0.00     0.031 C 
ATOM     42  C   UNL A   1      41.532  25.296  27.833  1.00  0.00     0.029 A 
ATOM     43  C   UNL A   1      42.956  25.555  27.646  1.00  0.00     0.049 A 
ATOM     44  H   UNL A   1      43.958  27.360  27.933  1.00  0.00     0.167 HD
ATOM     45  C   UNL A   1      45.857  31.330  28.135  1.00  0.00     0.037 A 
ATOM     46  C   UNL A   1      43.869  24.648  27.249  1.00  0.00     0.037 A 
ATOM     47  C   UNL A   1      46.900  30.432  27.712  1.00  0.00     0.049 A 
ATOM     48  C   UNL A   1      45.290  25.089  27.029  1.00  0.00     0.074 A 
ATOM     49  C   UNL A   1      48.236  30.708  27.484  1.00  0.00     0.029 A 
ATOM     50  N   UNL A   1      46.725  29.075  27.477  1.00  0.00    -0.354 N 
ATOM     51  N   UNL A   1      45.809  26.287  27.165  1.00  0.00    -0.248 NA
ATOM     52  C   UNL A   1      46.246  24.066  26.585  1.00  0.00     0.031 C 
ATOM     53  C   UNL A   1      48.865  29.523  27.088  1.00  0.00     0.029 A 
ATOM     54  C   UNL A   1      47.928  28.502  27.107  1.00  0.00     0.049 A 
ATOM     55  H   UNL A   1      45.871  28.593  27.562  1.00  0.00     0.167 HD
ATOM     56  C   UNL A   1      47.154  26.157  26.838  1.00  0.00     0.074 A 
ATOM     57  C   UNL A   1      47.372  24.763  26.511  1.00  0.00     0.031 C 
ATOM     58  C   UNL A   1      48.122  27.106  26.806  1.00  0.00     0.037 A 
BRANCH  45  59
ATOM     59  C   UNL A   1      46.203  32.779  28.327  1.00  0.00     0.058 A 
ATOM     60  C   UNL A   1      46.668  33.281  29.551  1.00  0.00     0.135 A 
ATOM     61  C   UNL A   1      46.110  33.672  27.245  1.00  0.00     0.135 A 
ATOM     62  F   UNL A   1      46.755  32.476  30.622  1.00  0.00    -0.206 F 
ATOM     63  C   UNL A   1      47.017  34.620  29.702  1.00  0.00     0.059 A 
ATOM     64  C   UNL A   1      46.475  35.010  27.367  1.00  0.00     0.059 A 
ATOM     65  F   UNL A   1      45.665  33.245  26.053  1.00  0.00    -0.206 F 
ATOM     66  C   UNL A   1      46.918  35.476  28.603  1.00  0.00     0.060 A 
BRANCH  66  67
ATOM     67  S   UNL A   1      47.397  37.205  28.804  1.00  0.00     0.124 S 
ATOM     68  O   UNL A   1      48.530  37.302  27.889  1.00  0.00    -0.237 OA
ATOM     69  O   UNL A   1      46.190  37.916  28.393  1.00  0.00    -0.237 OA
ATOM     70  O   UNL A   1      47.726  37.304  30.223  1.00  0.00    -0.744 OA
ENDBRANCH  66  67
ENDBRANCH  45  59
BRANCH  46  71
ATOM     71  C   UNL A   1      43.456  23.244  26.983  1.00  0.00     0.058 A 
ATOM     72  C   UNL A   1      43.354  22.751  25.674  1.00  0.00     0.135 A 
ATOM     73  C   UNL A   1      43.162  22.363  28.036  1.00  0.00     0.135 A 
ATOM     74  F   UNL A   1      43.613  23.557  24.633  1.00  0.00    -0.206 F 
ATOM     75  C   UNL A   1      42.965  21.440  25.415  1.00  0.00     0.059 A 
ATOM     76  C   UNL A   1      42.797  21.041  27.805  1.00  0.00     0.059 A 
ATOM     77  F   UNL A   1      43.256  22.781  29.308  1.00  0.00    -0.206 F 
ATOM     78  C   UNL A   1      42.690  20.591  26.490  1.00  0.00     0.060 A 
BRANCH  78  79
ATOM     79  S   UNL A   1      42.233  18.876  26.154  1.00  0.00     0.124 S 
ATOM     80  O   UNL A   1      42.462  18.253  27.452  1.00  0.00    -0.237 OA
ATOM     81  O   UNL A   1      40.838  19.001  25.743  1.00  0.00    -0.237 OA
ATOM     82  O   UNL A   1      43.158  18.488  25.094  1.00  0.00    -0.744 OA
ENDBRANCH  78  79
ENDBRANCH  46  71
BRANCH  58  83
ATOM     83  C   UNL A   1      49.510  26.663  26.448  1.00  0.00     0.058 A 
ATOM     84  C   UNL A   1      50.358  26.070  27.394  1.00  0.00     0.135 A 
ATOM     85  C   UNL A   1      49.971  26.778  25.127  1.00  0.00     0.135 A 
ATOM     86  F   UNL A   1      49.963  25.943  28.671  1.00  0.00    -0.206 F 
ATOM     87  C   UNL A   1      51.625  25.615  27.046  1.00  0.00     0.059 A 
ATOM     88  C   UNL A   1      51.226  26.312  24.752  1.00  0.00     0.059 A 
ATOM     89  F   UNL A   1      49.191  27.331  24.185  1.00  0.00    -0.206 F 
ATOM     90  C   UNL A   1      52.050  25.740  25.721  1.00  0.00     0.060 A 
BRANCH  90  91
ATOM     91  S   UNL A   1      53.679  25.109  25.268  1.00  0.00     0.124 S 
ATOM     92  O   UNL A   1      54.522  25.704  26.299  1.00  0.00    -0.237 OA
ATOM     93  O   UNL A   1      53.493  23.664  25.358  1.00  0.00    -0.237 OA
ATOM     94  O   UNL A   1      53.879  25.624  23.917  1.00  0.00    -0.744 OA
ENDBRANCH  90  91
ENDBRANCH  58  83
ENDBRANCH  32  33
ENDBRANCH  25  27
ENDBRANCH  24  25
ENDBRANCH   1  24
TORSDOF 15
ENDMDL
MODEL 3
REMARK VINA RESULT:     -10.9      5.218     10.623
REMARK SMILES C[C@H]1C[N@H+]2CCC[C@@H]2CN1c1cc(Cl)ccc1C(=O)OCCOC(=O)c1ccc(-c2c3nc(c(-c4c(F)cc(S(=O)(=O)[O-])cc4F)c4ccc([nH]4)c(-c4c(F)cc(S(=O)(=O)[O-])cc4F)c4nc(c(-c5c(F)cc(S(=O)(=O)[O-])cc5F)c5ccc2[nH]5)C=C4)C=C3)cc1
REMARK SMILES IDX 22 1 21 2 20 3 18 4 19 5 17 6 11 7 12 8 13 9 16 10 14 11
REMARK SMILES IDX 15 12 10 13 1 14 2 15 3 16 4 17 9 18 5 19 8 20 6 22 7 23
REMARK SMILES IDX 23 24 24 25 25 26 26 27 27 28 91 29 28 30 90 31 29 32 30 33
REMARK SMILES IDX 31 34 84 35 32 36 89 37 83 38 85 39 33 40 88 41 82 42 81 43
REMARK SMILES IDX 34 45 68 46 47 47 67 48 48 49 51 50 66 51 86 52 49 53 50 54
REMARK SMILES IDX 65 56 87 57 52 58 35 59 36 60 45 61 37 62 38 63 44 64 46 65
REMARK SMILES IDX 39 66 40 67 41 68 42 69 43 70 69 71 70 72 79 73 71 74 72 75
REMARK SMILES IDX 78 76 80 77 73 78 74 79 75 80 76 81 77 82 53 83 54 84 63 85
REMARK SMILES IDX 55 86 56 87 62 88 64 89 57 90 58 91 59 92 60 93 61 94
REMARK H PARENT 4 21 85 44 51 55
REMARK Flexibility Score: inf
ROOT
ATOM      1  C   UNL A   1      38.284  23.469  26.003  1.00  0.00     0.275 C 
ENDROOT
BRANCH   1   2
ATOM      2  C   UNL A   1      36.779  23.706  26.105  1.00  0.00     0.275 C 
BRANCH   2   3
ATOM      3  O   UNL A   1      36.068  22.454  26.001  1.00  0.00    -0.458 OA
BRANCH   3   4
ATOM      4  C   UNL A   1      35.411  22.221  24.839  1.00  0.00     0.340 C 
ATOM      5  O   UNL A   1      35.521  22.873  23.812  1.00  0.00    -0.246 OA
BRANCH   4   6
ATOM      6  C   UNL A   1      34.552  21.006  24.908  1.00  0.00     0.083 A 
ATOM      7  C   UNL A   1      33.163  21.031  25.179  1.00  0.00     0.053 A 
ATOM      8  C   UNL A   1      32.499  19.788  25.220  1.00  0.00     0.047 A 
ATOM      9  C   UNL A   1      33.177  18.581  25.023  1.00  0.00     0.043 A 
ATOM     10  C   UNL A   1      35.216  19.785  24.662  1.00  0.00     0.019 A 
ATOM     11  Cl  UNL A   1      32.315  17.094  25.110  1.00  0.00    -0.084 Cl
ATOM     12  C   UNL A   1      34.536  18.573  24.744  1.00  0.00     0.021 A 
BRANCH   7  13
ATOM     13  N   UNL A   1      32.452  22.210  25.388  1.00  0.00    -0.356 N 
ATOM     14  C   UNL A   1      33.111  22.497  27.811  1.00  0.00     0.037 C 
ATOM     15  C   UNL A   1      32.018  22.685  26.740  1.00  0.00     0.134 C 
ATOM     16  C   UNL A   1      31.614  24.210  26.726  1.00  0.00     0.287 C 
ATOM     17  N   UNL A   1      30.801  24.607  25.564  1.00  0.00    -0.329 N 
ATOM     18  C   UNL A   1      31.607  22.678  24.262  1.00  0.00     0.182 C 
ATOM     19  C   UNL A   1      30.598  26.049  25.425  1.00  0.00     0.262 C 
ATOM     20  C   UNL A   1      31.528  24.200  24.349  1.00  0.00     0.203 C 
ATOM     21  H   UNL A   1      29.891  24.166  25.696  1.00  0.00     0.348 HD
ATOM     22  C   UNL A   1      30.538  26.289  23.910  1.00  0.00     0.068 C 
ATOM     23  C   UNL A   1      30.754  24.919  23.269  1.00  0.00     0.073 C 
ENDBRANCH   7  13
ENDBRANCH   4   6
ENDBRANCH   3   4
ENDBRANCH   2   3
ENDBRANCH   1   2
BRANCH   1  24
ATOM     24  O   UNL A   1      38.966  24.693  26.315  1.00  0.00    -0.458 OA
BRANCH  24  25
ATOM     25  C   UNL A   1      40.204  24.539  26.836  1.00  0.00     0.338 C 
ATOM     26  O   UNL A   1      41.107  23.832  26.432  1.00  0.00    -0.246 OA
BRANCH  25  27
ATOM     27  C   UNL A   1      40.356  25.530  27.907  1.00  0.00     0.060 A 
ATOM     28  C   UNL A   1      39.291  25.682  28.795  1.00  0.00     0.016 A 
ATOM     29  C   UNL A   1      41.487  26.331  28.003  1.00  0.00     0.016 A 
ATOM     30  C   UNL A   1      39.325  26.678  29.764  1.00  0.00     0.010 A 
ATOM     31  C   UNL A   1      41.538  27.308  29.001  1.00  0.00     0.010 A 
ATOM     32  C   UNL A   1      40.448  27.507  29.872  1.00  0.00    -0.014 A 
BRANCH  32  33
ATOM     33  C   UNL A   1      40.455  28.641  30.832  1.00  0.00     0.031 A 
ATOM     34  C   UNL A   1      41.427  28.618  31.979  1.00  0.00     0.074 A 
ATOM     35  C   UNL A   1      39.607  29.677  30.684  1.00  0.00     0.049 A 
ATOM     36  N   UNL A   1      41.456  29.359  33.054  1.00  0.00    -0.248 NA
ATOM     37  C   UNL A   1      42.502  27.612  31.913  1.00  0.00     0.031 C 
ATOM     38  C   UNL A   1      38.660  29.849  29.582  1.00  0.00     0.029 A 
ATOM     39  N   UNL A   1      39.397  30.778  31.476  1.00  0.00    -0.354 N 
ATOM     40  C   UNL A   1      42.505  28.867  33.824  1.00  0.00     0.074 A 
ATOM     41  C   UNL A   1      43.097  27.772  33.086  1.00  0.00     0.031 C 
ATOM     42  C   UNL A   1      37.973  30.989  29.766  1.00  0.00     0.029 A 
ATOM     43  C   UNL A   1      38.377  31.587  31.033  1.00  0.00     0.049 A 
ATOM     44  H   UNL A   1      39.926  30.971  32.284  1.00  0.00     0.167 HD
ATOM     45  C   UNL A   1      42.924  29.289  35.040  1.00  0.00     0.037 A 
ATOM     46  C   UNL A   1      37.797  32.658  31.610  1.00  0.00     0.037 A 
ATOM     47  C   UNL A   1      42.365  30.421  35.731  1.00  0.00     0.049 A 
ATOM     48  C   UNL A   1      38.281  33.112  32.961  1.00  0.00     0.074 A 
ATOM     49  C   UNL A   1      42.723  30.942  36.962  1.00  0.00     0.029 A 
ATOM     50  N   UNL A   1      41.347  31.223  35.237  1.00  0.00    -0.354 N 
ATOM     51  N   UNL A   1      39.228  32.597  33.710  1.00  0.00    -0.248 NA
ATOM     52  C   UNL A   1      37.610  34.276  33.554  1.00  0.00     0.031 C 
ATOM     53  C   UNL A   1      41.904  32.045  37.224  1.00  0.00     0.029 A 
ATOM     54  C   UNL A   1      41.063  32.234  36.139  1.00  0.00     0.049 A 
ATOM     55  H   UNL A   1      40.893  31.093  34.374  1.00  0.00     0.167 HD
ATOM     56  C   UNL A   1      39.275  33.384  34.855  1.00  0.00     0.074 A 
ATOM     57  C   UNL A   1      38.272  34.417  34.694  1.00  0.00     0.031 C 
ATOM     58  C   UNL A   1      40.073  33.262  35.945  1.00  0.00     0.037 A 
BRANCH  45  59
ATOM     59  C   UNL A   1      44.011  28.506  35.719  1.00  0.00     0.058 A 
ATOM     60  C   UNL A   1      45.369  28.821  35.561  1.00  0.00     0.135 A 
ATOM     61  C   UNL A   1      43.680  27.450  36.585  1.00  0.00     0.135 A 
ATOM     62  F   UNL A   1      45.741  29.807  34.729  1.00  0.00    -0.206 F 
ATOM     63  C   UNL A   1      46.362  28.108  36.225  1.00  0.00     0.059 A 
ATOM     64  C   UNL A   1      44.655  26.737  37.277  1.00  0.00     0.059 A 
ATOM     65  F   UNL A   1      42.396  27.104  36.768  1.00  0.00    -0.206 F 
ATOM     66  C   UNL A   1      45.995  27.068  37.083  1.00  0.00     0.060 A 
BRANCH  66  67
ATOM     67  S   UNL A   1      47.291  26.166  37.959  1.00  0.00     0.124 S 
ATOM     68  O   UNL A   1      47.102  26.641  39.326  1.00  0.00    -0.237 OA
ATOM     69  O   UNL A   1      46.924  24.775  37.716  1.00  0.00    -0.237 OA
ATOM     70  O   UNL A   1      48.517  26.611  37.303  1.00  0.00    -0.744 OA
ENDBRANCH  66  67
ENDBRANCH  45  59
BRANCH  46  71
ATOM     71  C   UNL A   1      36.661  33.342  30.937  1.00  0.00     0.058 A 
ATOM     72  C   UNL A   1      36.861  34.141  29.803  1.00  0.00     0.135 A 
ATOM     73  C   UNL A   1      35.347  33.201  31.412  1.00  0.00     0.135 A 
ATOM     74  F   UNL A   1      38.100  34.316  29.317  1.00  0.00    -0.206 F 
ATOM     75  C   UNL A   1      35.804  34.788  29.169  1.00  0.00     0.059 A 
ATOM     76  C   UNL A   1      34.271  33.815  30.782  1.00  0.00     0.059 A 
ATOM     77  F   UNL A   1      35.098  32.438  32.487  1.00  0.00    -0.206 F 
ATOM     78  C   UNL A   1      34.510  34.616  29.666  1.00  0.00     0.060 A 
BRANCH  78  79
ATOM     79  S   UNL A   1      33.134  35.417  28.813  1.00  0.00     0.124 S 
ATOM     80  O   UNL A   1      33.826  36.434  28.030  1.00  0.00    -0.237 OA
ATOM     81  O   UNL A   1      32.554  34.312  28.055  1.00  0.00    -0.237 OA
ATOM     82  O   UNL A   1      32.308  35.914  29.909  1.00  0.00    -0.744 OA
ENDBRANCH  78  79
ENDBRANCH  46  71
BRANCH  58  83
ATOM     83  C   UNL A   1      39.926  34.293  37.026  1.00  0.00     0.058 A 
ATOM     84  C   UNL A   1      40.547  35.546  36.933  1.00  0.00     0.135 A 
ATOM     85  C   UNL A   1      39.104  34.042  38.135  1.00  0.00     0.135 A 
ATOM     86  F   UNL A   1      41.347  35.830  35.893  1.00  0.00    -0.206 F 
ATOM     87  C   UNL A   1      40.367  36.516  37.914  1.00  0.00     0.059 A 
ATOM     88  C   UNL A   1      38.894  35.004  39.116  1.00  0.00     0.059 A 
ATOM     89  F   UNL A   1      38.482  32.859  38.261  1.00  0.00    -0.206 F 
ATOM     90  C   UNL A   1      39.537  36.236  39.002  1.00  0.00     0.060 A 
BRANCH  90  91
ATOM     91  S   UNL A   1      39.275  37.515  40.247  1.00  0.00     0.124 S 
ATOM     92  O   UNL A   1      38.271  38.353  39.600  1.00  0.00    -0.237 OA
ATOM     93  O   UNL A   1      38.811  36.745  41.398  1.00  0.00    -0.237 OA
ATOM     94  O   UNL A   1      40.596  38.118  40.397  1.00  0.00    -0.744 OA
ENDBRANCH  90  91
ENDBRANCH  58  83
ENDBRANCH  32  33
ENDBRANCH  25  27
ENDBRANCH  24  25
ENDBRANCH   1  24
TORSDOF 15
ENDMDL
