MODEL 1
REMARK VINA RESULT:     -11.7      0.000      0.000
REMARK SMILES Cc1cc(Cl)cc2c1O[C@H](C(F)(F)F)C(C(=O)OCCOC(=O)c1ccc(-c3c4nc(c(-c5c(F)cc(S(=O)(=O)[O-])cc5F)c5ccc([nH]5)c(-c5c(F)cc(S(=O)(=O)[O-])cc5F)c5nc(c(-c6c(F)cc(S(=O)(=O)[O-])cc6F)c6ccc3[nH]6)C=C5)C=C4)cc1)=C2
REMARK SMILES IDX 20 1 19 2 18 3 16 4 17 5 15 6 1 7 2 8 3 9 8 10 4 11 7 12
REMARK SMILES IDX 9 13 5 14 6 15 90 16 10 17 11 18 12 19 13 20 14 21 21 22
REMARK SMILES IDX 22 23 23 24 24 25 25 26 89 27 26 28 88 29 27 30 28 31 29 32
REMARK SMILES IDX 82 33 30 34 87 35 81 36 83 37 31 38 86 39 80 40 79 41 32 43
REMARK SMILES IDX 66 44 45 45 65 46 46 47 49 48 64 49 84 50 47 51 48 52 63 54
REMARK SMILES IDX 85 55 50 56 33 57 34 58 43 59 35 60 36 61 42 62 44 63 37 64
REMARK SMILES IDX 38 65 39 66 40 67 41 68 67 69 68 70 77 71 69 72 70 73 76 74
REMARK SMILES IDX 78 75 71 76 72 77 73 78 74 79 75 80 51 81 52 82 61 83 53 84
REMARK SMILES IDX 54 85 60 86 62 87 55 88 56 89 57 90 58 91 59 92
REMARK H PARENT 83 42 49 53
REMARK Flexibility Score: inf
ROOT
ATOM      1  C   UNL A   1      33.477  28.523  26.272  1.00  0.00     0.275 C 
ENDROOT
BRANCH   1   2
ATOM      2  C   UNL A   1      33.887  27.229  25.567  1.00  0.00     0.275 C 
BRANCH   2   3
ATOM      3  O   UNL A   1      33.557  27.265  24.162  1.00  0.00    -0.459 OA
BRANCH   3   4
ATOM      4  C   UNL A   1      32.741  26.275  23.734  1.00  0.00     0.338 C 
ATOM      5  O   UNL A   1      33.039  25.099  23.590  1.00  0.00    -0.246 OA
BRANCH   4   6
ATOM      6  C   UNL A   1      31.392  26.793  23.445  1.00  0.00     0.087 C 
ATOM      7  C   UNL A   1      26.378  27.998  23.713  1.00  0.00     0.048 C 
ATOM      8  C   UNL A   1      27.624  28.592  23.120  1.00  0.00    -0.007 A 
ATOM      9  C   UNL A   1      27.536  29.860  22.520  1.00  0.00     0.027 A 
ATOM     10  C   UNL A   1      28.869  27.946  23.179  1.00  0.00     0.131 A 
ATOM     11  C   UNL A   1      28.665  30.467  21.975  1.00  0.00     0.042 A 
ATOM     12  C   UNL A   1      29.997  28.572  22.643  1.00  0.00     0.019 A 
ATOM     13  O   UNL A   1      28.919  26.706  23.756  1.00  0.00    -0.475 OA
ATOM     14  Cl  UNL A   1      28.539  32.022  21.253  1.00  0.00    -0.084 Cl
ATOM     15  C   UNL A   1      29.896  29.828  22.030  1.00  0.00     0.032 A 
ATOM     16  C   UNL A   1      31.296  27.945  22.773  1.00  0.00     0.027 C 
ATOM     17  C   UNL A   1      30.209  26.100  24.048  1.00  0.00     0.316 C 
BRANCH  17  18
ATOM     18  C   UNL A   1      30.352  25.958  25.571  1.00  0.00     0.430 C 
ATOM     19  F   UNL A   1      29.187  25.555  26.137  1.00  0.00    -0.167 F 
ATOM     20  F   UNL A   1      31.277  25.025  25.903  1.00  0.00    -0.167 F 
ATOM     21  F   UNL A   1      30.711  27.117  26.167  1.00  0.00    -0.167 F 
ENDBRANCH  17  18
ENDBRANCH   4   6
ENDBRANCH   3   4
ENDBRANCH   2   3
ENDBRANCH   1   2
BRANCH   1  22
ATOM     22  O   UNL A   1      34.136  28.636  27.545  1.00  0.00    -0.458 OA
BRANCH  22  23
ATOM     23  C   UNL A   1      34.488  29.894  27.895  1.00  0.00     0.338 C 
ATOM     24  O   UNL A   1      33.760  30.868  27.974  1.00  0.00    -0.246 OA
BRANCH  23  25
ATOM     25  C   UNL A   1      35.906  29.941  28.282  1.00  0.00     0.060 A 
ATOM     26  C   UNL A   1      36.842  30.264  27.309  1.00  0.00     0.016 A 
ATOM     27  C   UNL A   1      36.325  29.444  29.513  1.00  0.00     0.016 A 
ATOM     28  C   UNL A   1      38.174  29.909  27.482  1.00  0.00     0.010 A 
ATOM     29  C   UNL A   1      37.693  29.253  29.747  1.00  0.00     0.010 A 
ATOM     30  C   UNL A   1      38.633  29.422  28.713  1.00  0.00    -0.014 A 
BRANCH  30  31
ATOM     31  C   UNL A   1      40.074  29.065  28.895  1.00  0.00     0.031 A 
ATOM     32  C   UNL A   1      41.045  30.072  29.468  1.00  0.00     0.074 A 
ATOM     33  C   UNL A   1      40.515  27.828  28.580  1.00  0.00     0.049 A 
ATOM     34  N   UNL A   1      42.352  30.019  29.526  1.00  0.00    -0.248 NA
ATOM     35  C   UNL A   1      40.477  31.308  30.032  1.00  0.00     0.031 C 
ATOM     36  C   UNL A   1      39.683  26.732  28.071  1.00  0.00     0.029 A 
ATOM     37  N   UNL A   1      41.769  27.271  28.654  1.00  0.00    -0.354 N 
ATOM     38  C   UNL A   1      42.762  31.229  30.080  1.00  0.00     0.074 A 
ATOM     39  C   UNL A   1      41.566  32.005  30.324  1.00  0.00     0.031 C 
ATOM     40  C   UNL A   1      40.429  25.626  27.947  1.00  0.00     0.029 A 
ATOM     41  C   UNL A   1      41.816  25.958  28.241  1.00  0.00     0.049 A 
ATOM     42  H   UNL A   1      42.559  27.764  28.972  1.00  0.00     0.167 HD
ATOM     43  C   UNL A   1      44.019  31.648  30.364  1.00  0.00     0.037 A 
ATOM     44  C   UNL A   1      42.858  25.123  28.062  1.00  0.00     0.037 A 
ATOM     45  C   UNL A   1      45.198  30.841  30.176  1.00  0.00     0.049 A 
ATOM     46  C   UNL A   1      44.246  25.633  28.318  1.00  0.00     0.074 A 
ATOM     47  C   UNL A   1      46.516  31.169  30.437  1.00  0.00     0.029 A 
ATOM     48  N   UNL A   1      45.200  29.539  29.695  1.00  0.00    -0.354 N 
ATOM     49  N   UNL A   1      44.621  26.804  28.772  1.00  0.00    -0.248 NA
ATOM     50  C   UNL A   1      45.356  24.721  28.008  1.00  0.00     0.031 C 
ATOM     51  C   UNL A   1      47.319  30.085  30.073  1.00  0.00     0.029 A 
ATOM     52  C   UNL A   1      46.498  29.059  29.632  1.00  0.00     0.049 A 
ATOM     53  H   UNL A   1      44.397  29.031  29.436  1.00  0.00     0.167 HD
ATOM     54  C   UNL A   1      46.009  26.769  28.810  1.00  0.00     0.074 A 
ATOM     55  C   UNL A   1      46.406  25.452  28.357  1.00  0.00     0.031 C 
ATOM     56  C   UNL A   1      46.876  27.744  29.179  1.00  0.00     0.037 A 
BRANCH  43  57
ATOM     57  C   UNL A   1      44.200  33.047  30.894  1.00  0.00     0.058 A 
ATOM     58  C   UNL A   1      44.250  33.325  32.269  1.00  0.00     0.135 A 
ATOM     59  C   UNL A   1      44.385  34.122  30.007  1.00  0.00     0.135 A 
ATOM     60  F   UNL A   1      44.063  32.341  33.163  1.00  0.00    -0.206 F 
ATOM     61  C   UNL A   1      44.458  34.617  32.745  1.00  0.00     0.059 A 
ATOM     62  C   UNL A   1      44.623  35.417  30.460  1.00  0.00     0.059 A 
ATOM     63  F   UNL A   1      44.347  33.918  28.680  1.00  0.00    -0.206 F 
ATOM     64  C   UNL A   1      44.648  35.656  31.833  1.00  0.00     0.060 A 
BRANCH  64  65
ATOM     65  S   UNL A   1      44.931  37.322  32.470  1.00  0.00     0.124 S 
ATOM     66  O   UNL A   1      43.596  37.905  32.368  1.00  0.00    -0.237 OA
ATOM     67  O   UNL A   1      45.406  37.059  33.825  1.00  0.00    -0.237 OA
ATOM     68  O   UNL A   1      45.925  37.874  31.556  1.00  0.00    -0.744 OA
ENDBRANCH  64  65
ENDBRANCH  43  57
BRANCH  44  69
ATOM     69  C   UNL A   1      42.622  23.738  27.569  1.00  0.00     0.058 A 
ATOM     70  C   UNL A   1      42.596  23.454  26.196  1.00  0.00     0.135 A 
ATOM     71  C   UNL A   1      42.452  22.662  28.459  1.00  0.00     0.135 A 
ATOM     72  F   UNL A   1      42.739  24.447  25.305  1.00  0.00    -0.206 F 
ATOM     73  C   UNL A   1      42.411  22.160  25.722  1.00  0.00     0.059 A 
ATOM     74  C   UNL A   1      42.298  21.355  28.009  1.00  0.00     0.059 A 
ATOM     75  F   UNL A   1      42.477  22.874  29.785  1.00  0.00    -0.206 F 
ATOM     76  C   UNL A   1      42.272  21.114  26.638  1.00  0.00     0.060 A 
BRANCH  76  77
ATOM     77  S   UNL A   1      42.093  19.431  26.008  1.00  0.00     0.124 S 
ATOM     78  O   UNL A   1      42.933  19.472  24.816  1.00  0.00    -0.237 OA
ATOM     79  O   UNL A   1      42.601  18.635  27.121  1.00  0.00    -0.237 OA
ATOM     80  O   UNL A   1      40.658  19.313  25.765  1.00  0.00    -0.744 OA
ENDBRANCH  76  77
ENDBRANCH  44  69
BRANCH  56  81
ATOM     81  C   UNL A   1      48.342  27.423  29.118  1.00  0.00     0.058 A 
ATOM     82  C   UNL A   1      49.116  27.745  27.993  1.00  0.00     0.135 A 
ATOM     83  C   UNL A   1      48.995  26.851  30.223  1.00  0.00     0.135 A 
ATOM     84  F   UNL A   1      48.539  28.284  26.907  1.00  0.00    -0.206 F 
ATOM     85  C   UNL A   1      50.484  27.500  27.960  1.00  0.00     0.059 A 
ATOM     86  C   UNL A   1      50.366  26.624  30.222  1.00  0.00     0.059 A 
ATOM     87  F   UNL A   1      48.301  26.531  31.327  1.00  0.00    -0.206 F 
ATOM     88  C   UNL A   1      51.102  26.947  29.083  1.00  0.00     0.060 A 
BRANCH  88  89
ATOM     89  S   UNL A   1      52.887  26.683  29.040  1.00  0.00     0.124 S 
ATOM     90  O   UNL A   1      53.118  26.012  30.315  1.00  0.00    -0.237 OA
ATOM     91  O   UNL A   1      53.048  25.854  27.849  1.00  0.00    -0.237 OA
ATOM     92  O   UNL A   1      53.429  28.034  28.935  1.00  0.00    -0.744 OA
ENDBRANCH  88  89
ENDBRANCH  56  81
ENDBRANCH  30  31
ENDBRANCH  23  25
ENDBRANCH  22  23
ENDBRANCH   1  22
TORSDOF 15
ENDMDL
MODEL 2
REMARK VINA RESULT:     -11.6      5.702     10.980
REMARK SMILES Cc1cc(Cl)cc2c1O[C@H](C(F)(F)F)C(C(=O)OCCOC(=O)c1ccc(-c3c4nc(c(-c5c(F)cc(S(=O)(=O)[O-])cc5F)c5ccc([nH]5)c(-c5c(F)cc(S(=O)(=O)[O-])cc5F)c5nc(c(-c6c(F)cc(S(=O)(=O)[O-])cc6F)c6ccc3[nH]6)C=C5)C=C4)cc1)=C2
REMARK SMILES IDX 20 1 19 2 18 3 16 4 17 5 15 6 1 7 2 8 3 9 8 10 4 11 7 12
REMARK SMILES IDX 9 13 5 14 6 15 90 16 10 17 11 18 12 19 13 20 14 21 21 22
REMARK SMILES IDX 22 23 23 24 24 25 25 26 89 27 26 28 88 29 27 30 28 31 29 32
REMARK SMILES IDX 82 33 30 34 87 35 81 36 83 37 31 38 86 39 80 40 79 41 32 43
REMARK SMILES IDX 66 44 45 45 65 46 46 47 49 48 64 49 84 50 47 51 48 52 63 54
REMARK SMILES IDX 85 55 50 56 33 57 34 58 43 59 35 60 36 61 42 62 44 63 37 64
REMARK SMILES IDX 38 65 39 66 40 67 41 68 67 69 68 70 77 71 69 72 70 73 76 74
REMARK SMILES IDX 78 75 71 76 72 77 73 78 74 79 75 80 51 81 52 82 61 83 53 84
REMARK SMILES IDX 54 85 60 86 62 87 55 88 56 89 57 90 58 91 59 92
REMARK H PARENT 83 42 49 53
REMARK Flexibility Score: inf
ROOT
ATOM      1  C   UNL A   1      33.244  33.539  27.832  1.00  0.00     0.275 C 
ENDROOT
BRANCH   1   2
ATOM      2  C   UNL A   1      33.310  34.490  29.028  1.00  0.00     0.275 C 
BRANCH   2   3
ATOM      3  O   UNL A   1      34.639  34.540  29.591  1.00  0.00    -0.459 OA
BRANCH   3   4
ATOM      4  C   UNL A   1      34.831  33.777  30.691  1.00  0.00     0.338 C 
ATOM      5  O   UNL A   1      34.124  32.854  31.067  1.00  0.00    -0.246 OA
BRANCH   4   6
ATOM      6  C   UNL A   1      36.038  34.201  31.422  1.00  0.00     0.087 C 
ATOM      7  C   UNL A   1      39.504  35.205  35.115  1.00  0.00     0.048 C 
ATOM      8  C   UNL A   1      39.521  34.832  33.660  1.00  0.00    -0.007 A 
ATOM      9  C   UNL A   1      40.763  34.583  33.051  1.00  0.00     0.027 A 
ATOM     10  C   UNL A   1      38.346  34.688  32.905  1.00  0.00     0.131 A 
ATOM     11  C   UNL A   1      40.835  34.211  31.711  1.00  0.00     0.042 A 
ATOM     12  C   UNL A   1      38.430  34.299  31.565  1.00  0.00     0.019 A 
ATOM     13  O   UNL A   1      37.154  34.953  33.522  1.00  0.00    -0.475 OA
ATOM     14  Cl  UNL A   1      42.363  33.901  30.987  1.00  0.00    -0.084 Cl
ATOM     15  C   UNL A   1      39.674  34.071  30.963  1.00  0.00     0.032 A 
ATOM     16  C   UNL A   1      37.217  34.072  30.806  1.00  0.00     0.027 C 
ATOM     17  C   UNL A   1      35.907  34.599  32.859  1.00  0.00     0.316 C 
BRANCH  17  18
ATOM     18  C   UNL A   1      35.203  33.512  33.687  1.00  0.00     0.430 C 
ATOM     19  F   UNL A   1      35.528  33.608  35.000  1.00  0.00    -0.167 F 
ATOM     20  F   UNL A   1      33.854  33.629  33.620  1.00  0.00    -0.167 F 
ATOM     21  F   UNL A   1      35.524  32.264  33.280  1.00  0.00    -0.167 F 
ENDBRANCH  17  18
ENDBRANCH   4   6
ENDBRANCH   3   4
ENDBRANCH   2   3
ENDBRANCH   1   2
BRANCH   1  22
ATOM     22  O   UNL A   1      34.511  32.888  27.632  1.00  0.00    -0.458 OA
BRANCH  22  23
ATOM     23  C   UNL A   1      34.462  31.537  27.616  1.00  0.00     0.338 C 
ATOM     24  O   UNL A   1      33.535  30.838  27.246  1.00  0.00    -0.246 OA
BRANCH  23  25
ATOM     25  C   UNL A   1      35.755  30.972  28.029  1.00  0.00     0.060 A 
ATOM     26  C   UNL A   1      35.770  29.693  28.568  1.00  0.00     0.016 A 
ATOM     27  C   UNL A   1      36.890  31.774  28.105  1.00  0.00     0.016 A 
ATOM     28  C   UNL A   1      36.841  29.284  29.355  1.00  0.00     0.010 A 
ATOM     29  C   UNL A   1      38.034  31.285  28.751  1.00  0.00     0.010 A 
ATOM     30  C   UNL A   1      38.005  30.059  29.441  1.00  0.00    -0.014 A 
BRANCH  30  31
ATOM     31  C   UNL A   1      39.160  29.598  30.272  1.00  0.00     0.031 A 
ATOM     32  C   UNL A   1      40.182  28.643  29.700  1.00  0.00     0.074 A 
ATOM     33  C   UNL A   1      39.318  30.056  31.532  1.00  0.00     0.049 A 
ATOM     34  N   UNL A   1      41.136  27.988  30.312  1.00  0.00    -0.248 NA
ATOM     35  C   UNL A   1      40.114  28.374  28.253  1.00  0.00     0.031 C 
ATOM     36  C   UNL A   1      38.444  31.026  32.201  1.00  0.00     0.029 A 
ATOM     37  N   UNL A   1      40.278  29.785  32.478  1.00  0.00    -0.354 N 
ATOM     38  C   UNL A   1      41.742  27.193  29.343  1.00  0.00     0.074 A 
ATOM     39  C   UNL A   1      41.036  27.433  28.104  1.00  0.00     0.031 C 
ATOM     40  C   UNL A   1      38.944  31.317  33.410  1.00  0.00     0.029 A 
ATOM     41  C   UNL A   1      40.098  30.466  33.661  1.00  0.00     0.049 A 
ATOM     42  H   UNL A   1      41.024  29.162  32.323  1.00  0.00     0.167 HD
ATOM     43  C   UNL A   1      42.793  26.348  29.475  1.00  0.00     0.037 A 
ATOM     44  C   UNL A   1      40.746  30.382  34.839  1.00  0.00     0.037 A 
ATOM     45  C   UNL A   1      43.528  26.165  30.701  1.00  0.00     0.049 A 
ATOM     46  C   UNL A   1      41.863  29.389  34.981  1.00  0.00     0.074 A 
ATOM     47  C   UNL A   1      44.612  25.339  30.939  1.00  0.00     0.029 A 
ATOM     48  N   UNL A   1      43.267  26.831  31.890  1.00  0.00    -0.354 N 
ATOM     49  N   UNL A   1      42.375  28.593  34.073  1.00  0.00    -0.248 NA
ATOM     50  C   UNL A   1      42.470  29.259  36.312  1.00  0.00     0.031 C 
ATOM     51  C   UNL A   1      44.978  25.470  32.281  1.00  0.00     0.029 A 
ATOM     52  C   UNL A   1      44.155  26.418  32.870  1.00  0.00     0.049 A 
ATOM     53  H   UNL A   1      42.556  27.500  32.019  1.00  0.00     0.167 HD
ATOM     54  C   UNL A   1      43.370  27.872  34.722  1.00  0.00     0.074 A 
ATOM     55  C   UNL A   1      43.404  28.344  36.091  1.00  0.00     0.031 C 
ATOM     56  C   UNL A   1      44.176  26.899  34.229  1.00  0.00     0.037 A 
BRANCH  43  57
ATOM     57  C   UNL A   1      43.211  25.538  28.275  1.00  0.00     0.058 A 
ATOM     58  C   UNL A   1      44.100  26.036  27.310  1.00  0.00     0.135 A 
ATOM     59  C   UNL A   1      42.756  24.217  28.120  1.00  0.00     0.135 A 
ATOM     60  F   UNL A   1      44.555  27.296  27.398  1.00  0.00    -0.206 F 
ATOM     61  C   UNL A   1      44.510  25.262  26.228  1.00  0.00     0.059 A 
ATOM     62  C   UNL A   1      43.174  23.416  27.061  1.00  0.00     0.059 A 
ATOM     63  F   UNL A   1      41.903  23.687  29.011  1.00  0.00    -0.206 F 
ATOM     64  C   UNL A   1      44.044  23.951  26.113  1.00  0.00     0.060 A 
BRANCH  64  65
ATOM     65  S   UNL A   1      44.599  22.959  24.710  1.00  0.00     0.124 S 
ATOM     66  O   UNL A   1      45.659  23.799  24.159  1.00  0.00    -0.237 OA
ATOM     67  O   UNL A   1      45.038  21.726  25.355  1.00  0.00    -0.237 OA
ATOM     68  O   UNL A   1      43.403  22.839  23.882  1.00  0.00    -0.744 OA
ENDBRANCH  64  65
ENDBRANCH  43  57
BRANCH  44  69
ATOM     69  C   UNL A   1      40.316  31.231  35.984  1.00  0.00     0.058 A 
ATOM     70  C   UNL A   1      41.139  32.257  36.470  1.00  0.00     0.135 A 
ATOM     71  C   UNL A   1      39.062  31.058  36.596  1.00  0.00     0.135 A 
ATOM     72  F   UNL A   1      42.351  32.456  35.930  1.00  0.00    -0.206 F 
ATOM     73  C   UNL A   1      40.736  33.081  37.516  1.00  0.00     0.059 A 
ATOM     74  C   UNL A   1      38.624  31.889  37.621  1.00  0.00     0.059 A 
ATOM     75  F   UNL A   1      38.230  30.095  36.165  1.00  0.00    -0.206 F 
ATOM     76  C   UNL A   1      39.472  32.895  38.079  1.00  0.00     0.060 A 
BRANCH  76  77
ATOM     77  S   UNL A   1      38.938  34.009  39.397  1.00  0.00     0.124 S 
ATOM     78  O   UNL A   1      37.641  33.445  39.751  1.00  0.00    -0.237 OA
ATOM     79  O   UNL A   1      40.000  33.843  40.384  1.00  0.00    -0.237 OA
ATOM     80  O   UNL A   1      38.901  35.313  38.740  1.00  0.00    -0.744 OA
ENDBRANCH  76  77
ENDBRANCH  44  69
BRANCH  56  81
ATOM     81  C   UNL A   1      45.172  26.285  35.170  1.00  0.00     0.058 A 
ATOM     82  C   UNL A   1      46.444  26.846  35.359  1.00  0.00     0.135 A 
ATOM     83  C   UNL A   1      44.828  25.163  35.942  1.00  0.00     0.135 A 
ATOM     84  F   UNL A   1      46.826  27.912  34.638  1.00  0.00    -0.206 F 
ATOM     85  C   UNL A   1      47.345  26.311  36.272  1.00  0.00     0.059 A 
ATOM     86  C   UNL A   1      45.701  24.628  36.881  1.00  0.00     0.059 A 
ATOM     87  F   UNL A   1      43.619  24.592  35.804  1.00  0.00    -0.206 F 
ATOM     88  C   UNL A   1      46.961  25.206  37.035  1.00  0.00     0.060 A 
BRANCH  88  89
ATOM     89  S   UNL A   1      48.125  24.555  38.252  1.00  0.00     0.124 S 
ATOM     90  O   UNL A   1      47.239  24.238  39.368  1.00  0.00    -0.237 OA
ATOM     91  O   UNL A   1      48.696  23.409  37.550  1.00  0.00    -0.237 OA
ATOM     92  O   UNL A   1      49.042  25.668  38.476  1.00  0.00    -0.744 OA
ENDBRANCH  88  89
ENDBRANCH  56  81
ENDBRANCH  30  31
ENDBRANCH  23  25
ENDBRANCH  22  23
ENDBRANCH   1  22
TORSDOF 15
ENDMDL
MODEL 3
REMARK VINA RESULT:     -11.6      2.463      3.840
REMARK SMILES Cc1cc(Cl)cc2c1O[C@H](C(F)(F)F)C(C(=O)OCCOC(=O)c1ccc(-c3c4nc(c(-c5c(F)cc(S(=O)(=O)[O-])cc5F)c5ccc([nH]5)c(-c5c(F)cc(S(=O)(=O)[O-])cc5F)c5nc(c(-c6c(F)cc(S(=O)(=O)[O-])cc6F)c6ccc3[nH]6)C=C5)C=C4)cc1)=C2
REMARK SMILES IDX 20 1 19 2 18 3 16 4 17 5 15 6 1 7 2 8 3 9 8 10 4 11 7 12
REMARK SMILES IDX 9 13 5 14 6 15 90 16 10 17 11 18 12 19 13 20 14 21 21 22
REMARK SMILES IDX 22 23 23 24 24 25 25 26 89 27 26 28 88 29 27 30 28 31 29 32
REMARK SMILES IDX 82 33 30 34 87 35 81 36 83 37 31 38 86 39 80 40 79 41 32 43
REMARK SMILES IDX 66 44 45 45 65 46 46 47 49 48 64 49 84 50 47 51 48 52 63 54
REMARK SMILES IDX 85 55 50 56 33 57 34 58 43 59 35 60 36 61 42 62 44 63 37 64
REMARK SMILES IDX 38 65 39 66 40 67 41 68 67 69 68 70 77 71 69 72 70 73 76 74
REMARK SMILES IDX 78 75 71 76 72 77 73 78 74 79 75 80 51 81 52 82 61 83 53 84
REMARK SMILES IDX 54 85 60 86 62 87 55 88 56 89 57 90 58 91 59 92
REMARK H PARENT 83 42 49 53
REMARK Flexibility Score: inf
ROOT
ATOM      1  C   UNL A   1      33.054  28.369  26.099  1.00  0.00     0.275 C 
ENDROOT
BRANCH   1   2
ATOM      2  C   UNL A   1      32.109  27.169  26.178  1.00  0.00     0.275 C 
BRANCH   2   3
ATOM      3  O   UNL A   1      31.839  26.622  24.870  1.00  0.00    -0.459 OA
BRANCH   3   4
ATOM      4  C   UNL A   1      32.931  26.302  24.139  1.00  0.00     0.338 C 
ATOM      5  O   UNL A   1      33.435  26.976  23.253  1.00  0.00    -0.246 OA
BRANCH   4   6
ATOM      6  C   UNL A   1      33.470  24.992  24.545  1.00  0.00     0.087 C 
ATOM      7  C   UNL A   1      34.479  19.942  24.911  1.00  0.00     0.048 C 
ATOM      8  C   UNL A   1      35.213  21.232  25.140  1.00  0.00    -0.007 A 
ATOM      9  C   UNL A   1      36.579  21.170  25.469  1.00  0.00     0.027 A 
ATOM     10  C   UNL A   1      34.598  22.485  25.001  1.00  0.00     0.131 A 
ATOM     11  C   UNL A   1      37.313  22.336  25.670  1.00  0.00     0.042 A 
ATOM     12  C   UNL A   1      35.349  23.648  25.189  1.00  0.00     0.019 A 
ATOM     13  O   UNL A   1      33.264  22.511  24.695  1.00  0.00    -0.475 OA
ATOM     14  Cl  UNL A   1      38.984  22.241  26.063  1.00  0.00    -0.084 Cl
ATOM     15  C   UNL A   1      36.705  23.576  25.536  1.00  0.00     0.032 A 
ATOM     16  C   UNL A   1      34.736  24.942  24.968  1.00  0.00     0.027 C 
ATOM     17  C   UNL A   1      32.638  23.768  24.315  1.00  0.00     0.316 C 
BRANCH  17  18
ATOM     18  C   UNL A   1      32.174  23.664  22.854  1.00  0.00     0.430 C 
ATOM     19  F   UNL A   1      31.872  22.384  22.525  1.00  0.00    -0.167 F 
ATOM     20  F   UNL A   1      31.049  24.388  22.633  1.00  0.00    -0.167 F 
ATOM     21  F   UNL A   1      33.113  24.095  21.982  1.00  0.00    -0.167 F 
ENDBRANCH  17  18
ENDBRANCH   4   6
ENDBRANCH   3   4
ENDBRANCH   2   3
ENDBRANCH   1   2
BRANCH   1  22
ATOM     22  O   UNL A   1      33.910  28.416  27.255  1.00  0.00    -0.458 OA
BRANCH  22  23
ATOM     23  C   UNL A   1      34.169  29.658  27.723  1.00  0.00     0.338 C 
ATOM     24  O   UNL A   1      33.373  30.567  27.880  1.00  0.00    -0.246 OA
BRANCH  23  25
ATOM     25  C   UNL A   1      35.577  29.768  28.132  1.00  0.00     0.060 A 
ATOM     26  C   UNL A   1      36.517  30.102  27.167  1.00  0.00     0.016 A 
ATOM     27  C   UNL A   1      35.992  29.320  29.383  1.00  0.00     0.016 A 
ATOM     28  C   UNL A   1      37.859  29.802  27.372  1.00  0.00     0.010 A 
ATOM     29  C   UNL A   1      37.362  29.186  29.645  1.00  0.00     0.010 A 
ATOM     30  C   UNL A   1      38.313  29.364  28.624  1.00  0.00    -0.014 A 
BRANCH  30  31
ATOM     31  C   UNL A   1      39.763  29.067  28.840  1.00  0.00     0.031 A 
ATOM     32  C   UNL A   1      40.678  30.113  29.435  1.00  0.00     0.074 A 
ATOM     33  C   UNL A   1      40.262  27.850  28.534  1.00  0.00     0.049 A 
ATOM     34  N   UNL A   1      41.984  30.114  29.524  1.00  0.00    -0.248 NA
ATOM     35  C   UNL A   1      40.046  31.323  29.986  1.00  0.00     0.031 C 
ATOM     36  C   UNL A   1      39.489  26.721  28.006  1.00  0.00     0.029 A 
ATOM     37  N   UNL A   1      41.536  27.345  28.638  1.00  0.00    -0.354 N 
ATOM     38  C   UNL A   1      42.331  31.339  30.088  1.00  0.00     0.074 A 
ATOM     39  C   UNL A   1      41.099  32.064  30.303  1.00  0.00     0.031 C 
ATOM     40  C   UNL A   1      40.283  25.647  27.900  1.00  0.00     0.029 A 
ATOM     41  C   UNL A   1      41.647  26.035  28.227  1.00  0.00     0.049 A 
ATOM     42  H   UNL A   1      42.297  27.870  28.975  1.00  0.00     0.167 HD
ATOM     43  C   UNL A   1      43.562  31.810  30.401  1.00  0.00     0.037 A 
ATOM     44  C   UNL A   1      42.727  25.244  28.072  1.00  0.00     0.037 A 
ATOM     45  C   UNL A   1      44.778  31.052  30.240  1.00  0.00     0.049 A 
ATOM     46  C   UNL A   1      44.086  25.811  28.360  1.00  0.00     0.074 A 
ATOM     47  C   UNL A   1      46.075  31.435  30.533  1.00  0.00     0.029 A 
ATOM     48  N   UNL A   1      44.845  29.752  29.760  1.00  0.00    -0.354 N 
ATOM     49  N   UNL A   1      44.401  26.997  28.824  1.00  0.00    -0.248 NA
ATOM     50  C   UNL A   1      45.239  24.946  28.077  1.00  0.00     0.031 C 
ATOM     51  C   UNL A   1      46.930  30.384  30.188  1.00  0.00     0.029 A 
ATOM     52  C   UNL A   1      46.163  29.326  29.727  1.00  0.00     0.049 A 
ATOM     53  H   UNL A   1      44.070  29.211  29.483  1.00  0.00     0.167 HD
ATOM     54  C   UNL A   1      45.789  27.018  28.895  1.00  0.00     0.074 A 
ATOM     55  C   UNL A   1      46.250  25.719  28.451  1.00  0.00     0.031 C 
ATOM     56  C   UNL A   1      46.606  28.028  29.284  1.00  0.00     0.037 A 
BRANCH  43  57
ATOM     57  C   UNL A   1      43.673  33.215  30.935  1.00  0.00     0.058 A 
ATOM     58  C   UNL A   1      43.659  33.494  32.310  1.00  0.00     0.135 A 
ATOM     59  C   UNL A   1      43.854  34.295  30.054  1.00  0.00     0.135 A 
ATOM     60  F   UNL A   1      43.474  32.505  33.199  1.00  0.00    -0.206 F 
ATOM     61  C   UNL A   1      43.803  34.793  32.792  1.00  0.00     0.059 A 
ATOM     62  C   UNL A   1      44.028  35.597  30.514  1.00  0.00     0.059 A 
ATOM     63  F   UNL A   1      43.874  34.089  28.727  1.00  0.00    -0.206 F 
ATOM     64  C   UNL A   1      43.991  35.838  31.885  1.00  0.00     0.060 A 
BRANCH  64  65
ATOM     65  S   UNL A   1      44.190  37.513  32.531  1.00  0.00     0.124 S 
ATOM     66  O   UNL A   1      45.620  37.546  32.821  1.00  0.00    -0.237 OA
ATOM     67  O   UNL A   1      43.753  38.333  31.406  1.00  0.00    -0.237 OA
ATOM     68  O   UNL A   1      43.315  37.536  33.699  1.00  0.00    -0.744 OA
ENDBRANCH  64  65
ENDBRANCH  43  57
BRANCH  44  69
ATOM     69  C   UNL A   1      42.560  23.851  27.574  1.00  0.00     0.058 A 
ATOM     70  C   UNL A   1      42.605  23.564  26.202  1.00  0.00     0.135 A 
ATOM     71  C   UNL A   1      42.385  22.772  28.459  1.00  0.00     0.135 A 
ATOM     72  F   UNL A   1      42.756  24.560  25.315  1.00  0.00    -0.206 F 
ATOM     73  C   UNL A   1      42.486  22.264  25.725  1.00  0.00     0.059 A 
ATOM     74  C   UNL A   1      42.296  21.460  28.007  1.00  0.00     0.059 A 
ATOM     75  F   UNL A   1      42.343  22.987  29.783  1.00  0.00    -0.206 F 
ATOM     76  C   UNL A   1      42.341  21.216  26.637  1.00  0.00     0.060 A 
BRANCH  76  77
ATOM     77  S   UNL A   1      42.247  19.526  26.006  1.00  0.00     0.124 S 
ATOM     78  O   UNL A   1      43.166  19.583  24.874  1.00  0.00    -0.237 OA
ATOM     79  O   UNL A   1      42.696  18.746  27.155  1.00  0.00    -0.237 OA
ATOM     80  O   UNL A   1      40.836  19.371  25.665  1.00  0.00    -0.744 OA
ENDBRANCH  76  77
ENDBRANCH  44  69
BRANCH  56  81
ATOM     81  C   UNL A   1      48.085  27.768  29.258  1.00  0.00     0.058 A 
ATOM     82  C   UNL A   1      48.742  27.170  30.343  1.00  0.00     0.135 A 
ATOM     83  C   UNL A   1      48.841  28.057  28.110  1.00  0.00     0.135 A 
ATOM     84  F   UNL A   1      48.068  26.884  31.468  1.00  0.00    -0.206 F 
ATOM     85  C   UNL A   1      50.100  26.878  30.297  1.00  0.00     0.059 A 
ATOM     86  C   UNL A   1      50.193  27.747  28.030  1.00  0.00     0.059 A 
ATOM     87  F   UNL A   1      48.257  28.623  27.040  1.00  0.00    -0.206 F 
ATOM     88  C   UNL A   1      50.816  27.162  29.132  1.00  0.00     0.060 A 
BRANCH  88  89
ATOM     89  S   UNL A   1      52.567  26.729  29.071  1.00  0.00     0.124 S 
ATOM     90  O   UNL A   1      53.197  28.046  29.042  1.00  0.00    -0.237 OA
ATOM     91  O   UNL A   1      52.741  25.971  30.307  1.00  0.00    -0.237 OA
ATOM     92  O   UNL A   1      52.685  25.951  27.842  1.00  0.00    -0.744 OA
ENDBRANCH  88  89
ENDBRANCH  56  81
ENDBRANCH  30  31
ENDBRANCH  23  25
ENDBRANCH  22  23
ENDBRANCH   1  22
TORSDOF 15
ENDMDL
