MODEL 1
REMARK VINA RESULT:     -11.0      0.000      0.000
REMARK SMILES O=C(OCCOC(=O)c1ccc(-c2c3nc(c(-c4c(F)cc(S(=O)(=O)[O-])cc4F)c4ccc([nH]4)c(-c4c(F)cc(S(=O)(=O)[O-])cc4F)c4nc(c(-c5c(F)cc(S(=O)(=O)[O-])cc5F)c5ccc2[nH]5)C=C4)C=C3)cc1)C1=C[C@H]2C(=N1)C=CC(Cl)=C2Cl
REMARK SMILES IDX 6 1 5 2 4 3 3 4 2 5 1 6 75 7 76 8 79 9 77 10 78 11 84 12
REMARK SMILES IDX 80 13 82 14 85 15 81 16 83 17 7 18 8 19 9 20 10 21 74 22
REMARK SMILES IDX 11 23 73 24 12 25 13 26 14 27 67 28 15 29 72 30 66 31 68 32
REMARK SMILES IDX 16 33 71 34 65 35 64 36 17 38 51 39 30 40 50 41 31 42 34 43
REMARK SMILES IDX 49 44 69 45 32 46 33 47 48 49 70 50 35 51 18 52 19 53 28 54
REMARK SMILES IDX 20 55 21 56 27 57 29 58 22 59 23 60 24 61 25 62 26 63 52 64
REMARK SMILES IDX 53 65 62 66 54 67 55 68 61 69 63 70 56 71 57 72 58 73 59 74
REMARK SMILES IDX 60 75 36 76 37 77 46 78 38 79 39 80 45 81 47 82 40 83 41 84
REMARK SMILES IDX 42 85 43 86 44 87
REMARK H PARENT 68 37 34 48
REMARK Flexibility Score: inf
ROOT
ATOM      1  O   UNL A   1      41.699  23.465  27.022  1.00  0.00    -0.458 OA
ENDROOT
BRANCH   1   2
ATOM      2  C   UNL A   1      41.651  22.422  26.032  1.00  0.00     0.275 C 
BRANCH   2   3
ATOM      3  C   UNL A   1      40.391  21.560  26.160  1.00  0.00     0.275 C 
BRANCH   3   4
ATOM      4  O   UNL A   1      39.339  22.288  26.814  1.00  0.00    -0.457 OA
BRANCH   4   5
ATOM      5  C   UNL A   1      38.428  23.060  26.183  1.00  0.00     0.356 C 
ATOM      6  O   UNL A   1      38.482  24.285  26.277  1.00  0.00    -0.244 OA
BRANCH   5   7
ATOM      7  C   UNL A   1      37.387  22.430  25.332  1.00  0.00     0.145 C 
ATOM      8  C   UNL A   1      36.850  23.157  24.345  1.00  0.00     0.024 C 
ATOM      9  N   UNL A   1      36.720  21.246  25.573  1.00  0.00    -0.245 NA
ATOM     10  C   UNL A   1      35.678  22.446  23.795  1.00  0.00     0.107 C 
ATOM     11  C   UNL A   1      35.679  21.308  24.799  1.00  0.00     0.054 C 
ATOM     12  C   UNL A   1      34.347  23.105  23.816  1.00  0.00     0.050 C 
ATOM     13  C   UNL A   1      34.506  20.410  24.850  1.00  0.00     0.026 C 
ATOM     14  C   UNL A   1      33.266  22.310  23.910  1.00  0.00     0.056 C 
ATOM     15  Cl  UNL A   1      34.289  24.791  23.457  1.00  0.00    -0.086 Cl
ATOM     16  C   UNL A   1      33.360  20.944  24.400  1.00  0.00     0.023 C 
ATOM     17  Cl  UNL A   1      31.751  22.783  23.278  1.00  0.00    -0.083 Cl
ENDBRANCH   5   7
ENDBRANCH   4   5
ENDBRANCH   3   4
ENDBRANCH   2   3
ENDBRANCH   1   2
BRANCH   1  18
ATOM     18  C   UNL A   1      42.009  24.712  26.583  1.00  0.00     0.338 C 
ATOM     19  O   UNL A   1      42.293  25.017  25.433  1.00  0.00    -0.246 OA
BRANCH  18  20
ATOM     20  C   UNL A   1      41.848  25.706  27.682  1.00  0.00     0.060 A 
ATOM     21  C   UNL A   1      40.644  25.743  28.403  1.00  0.00     0.016 A 
ATOM     22  C   UNL A   1      42.873  26.590  28.027  1.00  0.00     0.016 A 
ATOM     23  C   UNL A   1      40.462  26.661  29.452  1.00  0.00     0.010 A 
ATOM     24  C   UNL A   1      42.698  27.486  29.090  1.00  0.00     0.010 A 
ATOM     25  C   UNL A   1      41.487  27.548  29.806  1.00  0.00    -0.014 A 
BRANCH  25  26
ATOM     26  C   UNL A   1      41.326  28.613  30.842  1.00  0.00     0.031 A 
ATOM     27  C   UNL A   1      42.006  28.443  32.177  1.00  0.00     0.074 A 
ATOM     28  C   UNL A   1      40.522  29.682  30.662  1.00  0.00     0.049 A 
ATOM     29  N   UNL A   1      41.910  29.186  33.251  1.00  0.00    -0.248 NA
ATOM     30  C   UNL A   1      42.929  27.305  32.314  1.00  0.00     0.031 C 
ATOM     31  C   UNL A   1      39.873  30.063  29.411  1.00  0.00     0.029 A 
ATOM     32  N   UNL A   1      40.064  30.618  31.565  1.00  0.00    -0.354 N 
ATOM     33  C   UNL A   1      42.810  28.650  34.161  1.00  0.00     0.074 A 
ATOM     34  C   UNL A   1      43.349  27.447  33.563  1.00  0.00     0.031 C 
ATOM     35  C   UNL A   1      39.022  31.079  29.650  1.00  0.00     0.029 A 
ATOM     36  C   UNL A   1      39.047  31.408  31.071  1.00  0.00     0.049 A 
ATOM     37  H   UNL A   1      40.429  30.715  32.475  1.00  0.00     0.167 HD
ATOM     38  C   UNL A   1      43.209  29.155  35.354  1.00  0.00     0.037 A 
ATOM     39  C   UNL A   1      38.215  32.271  31.693  1.00  0.00     0.037 A 
ATOM     40  C   UNL A   1      42.665  30.342  35.958  1.00  0.00     0.049 A 
ATOM     41  C   UNL A   1      38.505  32.672  33.109  1.00  0.00     0.074 A 
ATOM     42  C   UNL A   1      43.051  30.967  37.131  1.00  0.00     0.029 A 
ATOM     43  N   UNL A   1      41.601  31.073  35.451  1.00  0.00    -0.354 N 
ATOM     44  N   UNL A   1      39.436  32.227  33.913  1.00  0.00    -0.248 NA
ATOM     45  C   UNL A   1      37.694  33.765  33.665  1.00  0.00     0.031 C 
ATOM     46  C   UNL A   1      42.181  32.038  37.365  1.00  0.00     0.029 A 
ATOM     47  C   UNL A   1      41.287  32.113  36.312  1.00  0.00     0.049 A 
ATOM     48  H   UNL A   1      41.136  30.880  34.605  1.00  0.00     0.167 HD
ATOM     49  C   UNL A   1      39.394  33.054  35.028  1.00  0.00     0.074 A 
ATOM     50  C   UNL A   1      38.311  33.993  34.816  1.00  0.00     0.031 C 
ATOM     51  C   UNL A   1      40.217  33.059  36.104  1.00  0.00     0.037 A 
BRANCH  38  52
ATOM     52  C   UNL A   1      44.321  28.433  36.061  1.00  0.00     0.058 A 
ATOM     53  C   UNL A   1      44.050  27.392  36.967  1.00  0.00     0.135 A 
ATOM     54  C   UNL A   1      45.663  28.766  35.828  1.00  0.00     0.135 A 
ATOM     55  F   UNL A   1      42.782  27.040  37.233  1.00  0.00    -0.206 F 
ATOM     56  C   UNL A   1      45.068  26.738  37.648  1.00  0.00     0.059 A 
ATOM     57  C   UNL A   1      46.701  28.103  36.478  1.00  0.00     0.059 A 
ATOM     58  F   UNL A   1      45.978  29.749  34.970  1.00  0.00    -0.206 F 
ATOM     59  C   UNL A   1      46.391  27.103  37.400  1.00  0.00     0.060 A 
BRANCH  59  60
ATOM     60  S   UNL A   1      47.700  26.258  38.311  1.00  0.00     0.124 S 
ATOM     61  O   UNL A   1      47.187  26.317  39.676  1.00  0.00    -0.237 OA
ATOM     62  O   UNL A   1      47.704  24.935  37.693  1.00  0.00    -0.237 OA
ATOM     63  O   UNL A   1      48.880  27.074  38.048  1.00  0.00    -0.744 OA
ENDBRANCH  59  60
ENDBRANCH  38  52
BRANCH  39  64
ATOM     64  C   UNL A   1      37.048  32.872  30.988  1.00  0.00     0.058 A 
ATOM     65  C   UNL A   1      35.751  32.376  31.161  1.00  0.00     0.135 A 
ATOM     66  C   UNL A   1      37.226  33.911  30.062  1.00  0.00     0.135 A 
ATOM     67  F   UNL A   1      35.541  31.321  31.961  1.00  0.00    -0.206 F 
ATOM     68  C   UNL A   1      34.667  32.914  30.470  1.00  0.00     0.059 A 
ATOM     69  C   UNL A   1      36.151  34.511  29.408  1.00  0.00     0.059 A 
ATOM     70  F   UNL A   1      38.464  34.326  29.754  1.00  0.00    -0.206 F 
ATOM     71  C   UNL A   1      34.874  33.996  29.611  1.00  0.00     0.060 A 
BRANCH  71  72
ATOM     72  S   UNL A   1      33.452  34.713  28.756  1.00  0.00     0.124 S 
ATOM     73  O   UNL A   1      34.040  35.906  28.160  1.00  0.00    -0.237 OA
ATOM     74  O   UNL A   1      33.084  33.650  27.826  1.00  0.00    -0.237 OA
ATOM     75  O   UNL A   1      32.495  34.952  29.833  1.00  0.00    -0.744 OA
ENDBRANCH  71  72
ENDBRANCH  39  64
BRANCH  51  76
ATOM     76  C   UNL A   1      40.034  34.153  37.118  1.00  0.00     0.058 A 
ATOM     77  C   UNL A   1      40.657  35.403  36.989  1.00  0.00     0.135 A 
ATOM     78  C   UNL A   1      39.176  33.959  38.215  1.00  0.00     0.135 A 
ATOM     79  F   UNL A   1      41.499  35.636  35.969  1.00  0.00    -0.206 F 
ATOM     80  C   UNL A   1      40.449  36.418  37.916  1.00  0.00     0.059 A 
ATOM     81  C   UNL A   1      38.927  34.972  39.137  1.00  0.00     0.059 A 
ATOM     82  F   UNL A   1      38.553  32.783  38.388  1.00  0.00    -0.206 F 
ATOM     83  C   UNL A   1      39.574  36.196  38.982  1.00  0.00     0.060 A 
BRANCH  83  84
ATOM     84  S   UNL A   1      39.265  37.544  40.141  1.00  0.00     0.124 S 
ATOM     85  O   UNL A   1      38.882  36.817  41.346  1.00  0.00    -0.237 OA
ATOM     86  O   UNL A   1      40.559  38.217  40.189  1.00  0.00    -0.237 OA
ATOM     87  O   UNL A   1      38.195  38.305  39.501  1.00  0.00    -0.744 OA
ENDBRANCH  83  84
ENDBRANCH  51  76
ENDBRANCH  25  26
ENDBRANCH  18  20
ENDBRANCH   1  18
TORSDOF 14
ENDMDL
MODEL 2
REMARK VINA RESULT:     -11.0      5.470     11.962
REMARK SMILES O=C(OCCOC(=O)c1ccc(-c2c3nc(c(-c4c(F)cc(S(=O)(=O)[O-])cc4F)c4ccc([nH]4)c(-c4c(F)cc(S(=O)(=O)[O-])cc4F)c4nc(c(-c5c(F)cc(S(=O)(=O)[O-])cc5F)c5ccc2[nH]5)C=C4)C=C3)cc1)C1=C[C@H]2C(=N1)C=CC(Cl)=C2Cl
REMARK SMILES IDX 6 1 5 2 4 3 3 4 2 5 1 6 75 7 76 8 79 9 77 10 78 11 84 12
REMARK SMILES IDX 80 13 82 14 85 15 81 16 83 17 7 18 8 19 9 20 10 21 74 22
REMARK SMILES IDX 11 23 73 24 12 25 13 26 14 27 67 28 15 29 72 30 66 31 68 32
REMARK SMILES IDX 16 33 71 34 65 35 64 36 17 38 51 39 30 40 50 41 31 42 34 43
REMARK SMILES IDX 49 44 69 45 32 46 33 47 48 49 70 50 35 51 18 52 19 53 28 54
REMARK SMILES IDX 20 55 21 56 27 57 29 58 22 59 23 60 24 61 25 62 26 63 52 64
REMARK SMILES IDX 53 65 62 66 54 67 55 68 61 69 63 70 56 71 57 72 58 73 59 74
REMARK SMILES IDX 60 75 36 76 37 77 46 78 38 79 39 80 45 81 47 82 40 83 41 84
REMARK SMILES IDX 42 85 43 86 44 87
REMARK H PARENT 68 37 34 48
REMARK Flexibility Score: inf
ROOT
ATOM      1  O   UNL A   1      34.244  31.585  28.686  1.00  0.00    -0.458 OA
ENDROOT
BRANCH   1   2
ATOM      2  C   UNL A   1      34.005  32.867  28.077  1.00  0.00     0.275 C 
BRANCH   2   3
ATOM      3  C   UNL A   1      34.462  34.025  28.967  1.00  0.00     0.275 C 
BRANCH   3   4
ATOM      4  O   UNL A   1      33.821  33.966  30.252  1.00  0.00    -0.457 OA
BRANCH   4   5
ATOM      5  C   UNL A   1      34.468  33.835  31.431  1.00  0.00     0.356 C 
ATOM      6  O   UNL A   1      33.841  33.877  32.488  1.00  0.00    -0.244 OA
BRANCH   5   7
ATOM      7  C   UNL A   1      35.932  33.589  31.449  1.00  0.00     0.145 C 
ATOM      8  C   UNL A   1      36.361  32.323  31.482  1.00  0.00     0.024 C 
ATOM      9  N   UNL A   1      36.928  34.518  31.672  1.00  0.00    -0.245 NA
ATOM     10  C   UNL A   1      37.814  32.306  31.749  1.00  0.00     0.107 C 
ATOM     11  C   UNL A   1      37.967  33.799  31.972  1.00  0.00     0.054 C 
ATOM     12  C   UNL A   1      38.330  31.586  32.943  1.00  0.00     0.050 C 
ATOM     13  C   UNL A   1      39.235  34.302  32.541  1.00  0.00     0.026 C 
ATOM     14  C   UNL A   1      39.457  32.055  33.506  1.00  0.00     0.056 C 
ATOM     15  Cl  UNL A   1      37.596  30.076  33.338  1.00  0.00    -0.086 Cl
ATOM     16  C   UNL A   1      39.924  33.412  33.272  1.00  0.00     0.023 C 
ATOM     17  Cl  UNL A   1      40.516  31.031  34.371  1.00  0.00    -0.083 Cl
ENDBRANCH   5   7
ENDBRANCH   4   5
ENDBRANCH   3   4
ENDBRANCH   2   3
ENDBRANCH   1   2
BRANCH   1  18
ATOM     18  C   UNL A   1      34.623  30.576  27.859  1.00  0.00     0.338 C 
ATOM     19  O   UNL A   1      33.982  30.148  26.910  1.00  0.00    -0.246 OA
BRANCH  18  20
ATOM     20  C   UNL A   1      36.002  30.118  28.195  1.00  0.00     0.060 A 
ATOM     21  C   UNL A   1      36.258  29.594  29.472  1.00  0.00     0.016 A 
ATOM     22  C   UNL A   1      37.041  30.177  27.265  1.00  0.00     0.016 A 
ATOM     23  C   UNL A   1      37.544  29.144  29.820  1.00  0.00     0.010 A 
ATOM     24  C   UNL A   1      38.315  29.704  27.605  1.00  0.00     0.010 A 
ATOM     25  C   UNL A   1      38.591  29.198  28.890  1.00  0.00    -0.014 A 
BRANCH  25  26
ATOM     26  C   UNL A   1      40.000  28.829  29.222  1.00  0.00     0.031 A 
ATOM     27  C   UNL A   1      40.967  29.916  29.621  1.00  0.00     0.074 A 
ATOM     28  C   UNL A   1      40.467  27.569  29.096  1.00  0.00     0.049 A 
ATOM     29  N   UNL A   1      42.254  29.833  29.841  1.00  0.00    -0.248 NA
ATOM     30  C   UNL A   1      40.408  31.264  29.817  1.00  0.00     0.031 C 
ATOM     31  C   UNL A   1      39.662  26.382  28.827  1.00  0.00     0.029 A 
ATOM     32  N   UNL A   1      41.760  27.089  29.119  1.00  0.00    -0.354 N 
ATOM     33  C   UNL A   1      42.644  31.094  30.271  1.00  0.00     0.074 A 
ATOM     34  C   UNL A   1      41.486  31.955  30.159  1.00  0.00     0.031 C 
ATOM     35  C   UNL A   1      40.483  25.338  28.602  1.00  0.00     0.029 A 
ATOM     36  C   UNL A   1      41.869  25.783  28.689  1.00  0.00     0.049 A 
ATOM     37  H   UNL A   1      42.531  27.626  29.415  1.00  0.00     0.167 HD
ATOM     38  C   UNL A   1      43.837  31.482  30.785  1.00  0.00     0.037 A 
ATOM     39  C   UNL A   1      42.954  25.042  28.374  1.00  0.00     0.037 A 
ATOM     40  C   UNL A   1      44.995  30.632  30.884  1.00  0.00     0.049 A 
ATOM     41  C   UNL A   1      44.317  25.560  28.725  1.00  0.00     0.074 A 
ATOM     42  C   UNL A   1      46.225  30.916  31.450  1.00  0.00     0.029 A 
ATOM     43  N   UNL A   1      45.075  29.341  30.385  1.00  0.00    -0.354 N 
ATOM     44  N   UNL A   1      44.649  26.718  29.236  1.00  0.00    -0.248 NA
ATOM     45  C   UNL A   1      45.442  24.629  28.551  1.00  0.00     0.031 C 
ATOM     46  C   UNL A   1      47.069  29.820  31.237  1.00  0.00     0.029 A 
ATOM     47  C   UNL A   1      46.349  28.833  30.587  1.00  0.00     0.049 A 
ATOM     48  H   UNL A   1      44.336  28.857  29.950  1.00  0.00     0.167 HD
ATOM     49  C   UNL A   1      46.000  26.618  29.543  1.00  0.00     0.074 A 
ATOM     50  C   UNL A   1      46.434  25.305  29.114  1.00  0.00     0.031 C 
ATOM     51  C   UNL A   1      46.788  27.523  30.172  1.00  0.00     0.037 A 
BRANCH  38  52
ATOM     52  C   UNL A   1      43.927  32.885  31.315  1.00  0.00     0.058 A 
ATOM     53  C   UNL A   1      44.289  33.955  30.479  1.00  0.00     0.135 A 
ATOM     54  C   UNL A   1      43.638  33.171  32.658  1.00  0.00     0.135 A 
ATOM     55  F   UNL A   1      44.585  33.734  29.188  1.00  0.00    -0.206 F 
ATOM     56  C   UNL A   1      44.403  35.251  30.964  1.00  0.00     0.059 A 
ATOM     57  C   UNL A   1      43.717  34.467  33.158  1.00  0.00     0.059 A 
ATOM     58  F   UNL A   1      43.283  32.187  33.498  1.00  0.00    -0.206 F 
ATOM     59  C   UNL A   1      44.119  35.497  32.307  1.00  0.00     0.060 A 
BRANCH  59  60
ATOM     60  S   UNL A   1      44.295  37.183  32.926  1.00  0.00     0.124 S 
ATOM     61  O   UNL A   1      44.304  37.948  31.683  1.00  0.00    -0.237 OA
ATOM     62  O   UNL A   1      43.104  37.336  33.755  1.00  0.00    -0.237 OA
ATOM     63  O   UNL A   1      45.561  37.149  33.651  1.00  0.00    -0.744 OA
ENDBRANCH  59  60
ENDBRANCH  38  52
BRANCH  39  64
ATOM     64  C   UNL A   1      42.824  23.703  27.735  1.00  0.00     0.058 A 
ATOM     65  C   UNL A   1      42.780  23.554  26.344  1.00  0.00     0.135 A 
ATOM     66  C   UNL A   1      42.660  22.548  28.515  1.00  0.00     0.135 A 
ATOM     67  F   UNL A   1      42.834  24.637  25.556  1.00  0.00    -0.206 F 
ATOM     68  C   UNL A   1      42.618  22.304  25.750  1.00  0.00     0.059 A 
ATOM     69  C   UNL A   1      42.563  21.279  27.947  1.00  0.00     0.059 A 
ATOM     70  F   UNL A   1      42.553  22.652  29.849  1.00  0.00    -0.206 F 
ATOM     71  C   UNL A   1      42.532  21.169  26.559  1.00  0.00     0.060 A 
BRANCH  71  72
ATOM     72  S   UNL A   1      42.367  19.550  25.773  1.00  0.00     0.124 S 
ATOM     73  O   UNL A   1      43.338  19.651  24.690  1.00  0.00    -0.237 OA
ATOM     74  O   UNL A   1      42.717  18.642  26.861  1.00  0.00    -0.237 OA
ATOM     75  O   UNL A   1      40.966  19.514  25.363  1.00  0.00    -0.744 OA
ENDBRANCH  71  72
ENDBRANCH  39  64
BRANCH  51  76
ATOM     76  C   UNL A   1      48.195  27.111  30.503  1.00  0.00     0.058 A 
ATOM     77  C   UNL A   1      49.283  27.449  29.685  1.00  0.00     0.135 A 
ATOM     78  C   UNL A   1      48.462  26.404  31.689  1.00  0.00     0.135 A 
ATOM     79  F   UNL A   1      49.083  28.109  28.532  1.00  0.00    -0.206 F 
ATOM     80  C   UNL A   1      50.584  27.092  30.022  1.00  0.00     0.059 A 
ATOM     81  C   UNL A   1      49.758  26.065  32.062  1.00  0.00     0.059 A 
ATOM     82  F   UNL A   1      47.458  26.054  32.509  1.00  0.00    -0.206 F 
ATOM     83  C   UNL A   1      50.813  26.408  31.218  1.00  0.00     0.060 A 
BRANCH  83  84
ATOM     84  S   UNL A   1      52.513  26.008  31.673  1.00  0.00     0.124 S 
ATOM     85  O   UNL A   1      53.186  26.058  30.379  1.00  0.00    -0.237 OA
ATOM     86  O   UNL A   1      52.847  27.081  32.604  1.00  0.00    -0.237 OA
ATOM     87  O   UNL A   1      52.402  24.680  32.271  1.00  0.00    -0.744 OA
ENDBRANCH  83  84
ENDBRANCH  51  76
ENDBRANCH  25  26
ENDBRANCH  18  20
ENDBRANCH   1  18
TORSDOF 14
ENDMDL
MODEL 3
REMARK VINA RESULT:     -11.0      1.367      2.066
REMARK SMILES O=C(OCCOC(=O)c1ccc(-c2c3nc(c(-c4c(F)cc(S(=O)(=O)[O-])cc4F)c4ccc([nH]4)c(-c4c(F)cc(S(=O)(=O)[O-])cc4F)c4nc(c(-c5c(F)cc(S(=O)(=O)[O-])cc5F)c5ccc2[nH]5)C=C4)C=C3)cc1)C1=C[C@H]2C(=N1)C=CC(Cl)=C2Cl
REMARK SMILES IDX 6 1 5 2 4 3 3 4 2 5 1 6 75 7 76 8 79 9 77 10 78 11 84 12
REMARK SMILES IDX 80 13 82 14 85 15 81 16 83 17 7 18 8 19 9 20 10 21 74 22
REMARK SMILES IDX 11 23 73 24 12 25 13 26 14 27 67 28 15 29 72 30 66 31 68 32
REMARK SMILES IDX 16 33 71 34 65 35 64 36 17 38 51 39 30 40 50 41 31 42 34 43
REMARK SMILES IDX 49 44 69 45 32 46 33 47 48 49 70 50 35 51 18 52 19 53 28 54
REMARK SMILES IDX 20 55 21 56 27 57 29 58 22 59 23 60 24 61 25 62 26 63 52 64
REMARK SMILES IDX 53 65 62 66 54 67 55 68 61 69 63 70 56 71 57 72 58 73 59 74
REMARK SMILES IDX 60 75 36 76 37 77 46 78 38 79 39 80 45 81 47 82 40 83 41 84
REMARK SMILES IDX 42 85 43 86 44 87
REMARK H PARENT 68 37 34 48
REMARK Flexibility Score: inf
ROOT
ATOM      1  O   UNL A   1      39.675  23.861  26.595  1.00  0.00    -0.458 OA
ENDROOT
BRANCH   1   2
ATOM      2  C   UNL A   1      39.455  22.442  26.494  1.00  0.00     0.275 C 
BRANCH   2   3
ATOM      3  C   UNL A   1      38.175  22.109  25.722  1.00  0.00     0.275 C 
BRANCH   3   4
ATOM      4  O   UNL A   1      37.646  23.280  25.080  1.00  0.00    -0.457 OA
BRANCH   4   5
ATOM      5  C   UNL A   1      36.612  23.282  24.210  1.00  0.00     0.356 C 
ATOM      6  O   UNL A   1      36.724  22.735  23.114  1.00  0.00    -0.244 OA
BRANCH   5   7
ATOM      7  C   UNL A   1      35.320  23.902  24.598  1.00  0.00     0.145 C 
ATOM      8  C   UNL A   1      34.945  23.837  25.880  1.00  0.00     0.024 C 
ATOM      9  N   UNL A   1      34.324  24.346  23.752  1.00  0.00    -0.245 NA
ATOM     10  C   UNL A   1      33.541  24.279  26.003  1.00  0.00     0.107 C 
ATOM     11  C   UNL A   1      33.279  24.437  24.517  1.00  0.00     0.054 C 
ATOM     12  C   UNL A   1      32.530  23.352  26.575  1.00  0.00     0.050 C 
ATOM     13  C   UNL A   1      31.886  24.629  24.062  1.00  0.00     0.026 C 
ATOM     14  C   UNL A   1      31.264  23.478  26.141  1.00  0.00     0.056 C 
ATOM     15  Cl  UNL A   1      33.009  22.386  27.921  1.00  0.00    -0.086 Cl
ATOM     16  C   UNL A   1      30.945  24.151  24.891  1.00  0.00     0.023 C 
ATOM     17  Cl  UNL A   1      29.936  23.030  27.118  1.00  0.00    -0.083 Cl
ENDBRANCH   5   7
ENDBRANCH   4   5
ENDBRANCH   3   4
ENDBRANCH   2   3
ENDBRANCH   1   2
BRANCH   1  18
ATOM     18  C   UNL A   1      40.924  24.263  26.945  1.00  0.00     0.338 C 
ATOM     19  O   UNL A   1      41.971  23.836  26.478  1.00  0.00    -0.246 OA
BRANCH  18  20
ATOM     20  C   UNL A   1      40.855  25.395  27.913  1.00  0.00     0.060 A 
ATOM     21  C   UNL A   1      41.981  26.212  28.095  1.00  0.00     0.016 A 
ATOM     22  C   UNL A   1      39.690  25.676  28.629  1.00  0.00     0.016 A 
ATOM     23  C   UNL A   1      41.948  27.294  28.992  1.00  0.00     0.010 A 
ATOM     24  C   UNL A   1      39.650  26.770  29.503  1.00  0.00     0.010 A 
ATOM     25  C   UNL A   1      40.781  27.584  29.712  1.00  0.00    -0.014 A 
BRANCH  25  26
ATOM     26  C   UNL A   1      40.706  28.655  30.751  1.00  0.00     0.031 A 
ATOM     27  C   UNL A   1      41.396  28.439  32.075  1.00  0.00     0.074 A 
ATOM     28  C   UNL A   1      39.970  29.774  30.585  1.00  0.00     0.049 A 
ATOM     29  N   UNL A   1      41.366  29.185  33.151  1.00  0.00    -0.248 NA
ATOM     30  C   UNL A   1      42.246  27.243  32.195  1.00  0.00     0.031 C 
ATOM     31  C   UNL A   1      39.326  30.198  29.346  1.00  0.00     0.029 A 
ATOM     32  N   UNL A   1      39.588  30.736  31.497  1.00  0.00    -0.354 N 
ATOM     33  C   UNL A   1      42.245  28.590  34.045  1.00  0.00     0.074 A 
ATOM     34  C   UNL A   1      42.695  27.356  33.437  1.00  0.00     0.031 C 
ATOM     35  C   UNL A   1      38.546  31.266  29.601  1.00  0.00     0.029 A 
ATOM     36  C   UNL A   1      38.616  31.590  31.021  1.00  0.00     0.049 A 
ATOM     37  H   UNL A   1      39.974  30.807  32.401  1.00  0.00     0.167 HD
ATOM     38  C   UNL A   1      42.695  29.066  35.232  1.00  0.00     0.037 A 
ATOM     39  C   UNL A   1      37.852  32.504  31.657  1.00  0.00     0.037 A 
ATOM     40  C   UNL A   1      42.239  30.285  35.846  1.00  0.00     0.049 A 
ATOM     41  C   UNL A   1      38.190  32.883  33.069  1.00  0.00     0.074 A 
ATOM     42  C   UNL A   1      42.684  30.881  37.012  1.00  0.00     0.029 A 
ATOM     43  N   UNL A   1      41.216  31.083  35.357  1.00  0.00    -0.354 N 
ATOM     44  N   UNL A   1      39.105  32.377  33.857  1.00  0.00    -0.248 NA
ATOM     45  C   UNL A   1      37.461  34.024  33.639  1.00  0.00     0.031 C 
ATOM     46  C   UNL A   1      41.888  32.005  37.262  1.00  0.00     0.029 A 
ATOM     47  C   UNL A   1      40.983  32.140  36.224  1.00  0.00     0.049 A 
ATOM     48  H   UNL A   1      40.726  30.922  34.519  1.00  0.00     0.167 HD
ATOM     49  C   UNL A   1      39.134  33.204  34.973  1.00  0.00     0.074 A 
ATOM     50  C   UNL A   1      38.111  34.210  34.780  1.00  0.00     0.031 C 
ATOM     51  C   UNL A   1      39.974  33.153  36.035  1.00  0.00     0.037 A 
BRANCH  38  52
ATOM     52  C   UNL A   1      43.770  28.273  35.920  1.00  0.00     0.058 A 
ATOM     53  C   UNL A   1      43.448  27.251  36.830  1.00  0.00     0.135 A 
ATOM     54  C   UNL A   1      45.127  28.518  35.663  1.00  0.00     0.135 A 
ATOM     55  F   UNL A   1      42.165  26.982  37.119  1.00  0.00    -0.206 F 
ATOM     56  C   UNL A   1      44.433  26.531  37.494  1.00  0.00     0.059 A 
ATOM     57  C   UNL A   1      46.130  27.789  36.294  1.00  0.00     0.059 A 
ATOM     58  F   UNL A   1      45.489  29.479  34.799  1.00  0.00    -0.206 F 
ATOM     59  C   UNL A   1      45.772  26.810  37.222  1.00  0.00     0.060 A 
BRANCH  59  60
ATOM     60  S   UNL A   1      47.039  25.880  38.110  1.00  0.00     0.124 S 
ATOM     61  O   UNL A   1      48.197  26.757  37.966  1.00  0.00    -0.237 OA
ATOM     62  O   UNL A   1      46.475  25.791  39.454  1.00  0.00    -0.237 OA
ATOM     63  O   UNL A   1      47.111  24.620  37.379  1.00  0.00    -0.744 OA
ENDBRANCH  59  60
ENDBRANCH  38  52
BRANCH  39  64
ATOM     64  C   UNL A   1      36.714  33.180  30.973  1.00  0.00     0.058 A 
ATOM     65  C   UNL A   1      36.921  34.206  30.045  1.00  0.00     0.135 A 
ATOM     66  C   UNL A   1      35.387  32.860  31.300  1.00  0.00     0.135 A 
ATOM     67  F   UNL A   1      38.167  34.616  29.771  1.00  0.00    -0.206 F 
ATOM     68  C   UNL A   1      35.853  34.864  29.436  1.00  0.00     0.059 A 
ATOM     69  C   UNL A   1      34.303  33.455  30.658  1.00  0.00     0.059 A 
ATOM     70  F   UNL A   1      35.135  31.984  32.284  1.00  0.00    -0.206 F 
ATOM     71  C   UNL A   1      34.548  34.467  29.733  1.00  0.00     0.060 A 
BRANCH  71  72
ATOM     72  S   UNL A   1      33.175  35.299  28.903  1.00  0.00     0.124 S 
ATOM     73  O   UNL A   1      32.398  35.786  30.037  1.00  0.00    -0.237 OA
ATOM     74  O   UNL A   1      33.863  36.319  28.116  1.00  0.00    -0.237 OA
ATOM     75  O   UNL A   1      32.553  34.232  28.124  1.00  0.00    -0.744 OA
ENDBRANCH  71  72
ENDBRANCH  39  64
BRANCH  51  76
ATOM     76  C   UNL A   1      39.878  34.255  37.052  1.00  0.00     0.058 A 
ATOM     77  C   UNL A   1      40.508  35.495  36.872  1.00  0.00     0.135 A 
ATOM     78  C   UNL A   1      39.098  34.079  38.209  1.00  0.00     0.135 A 
ATOM     79  F   UNL A   1      41.279  35.710  35.793  1.00  0.00    -0.206 F 
ATOM     80  C   UNL A   1      40.381  36.518  37.805  1.00  0.00     0.059 A 
ATOM     81  C   UNL A   1      38.929  35.099  39.140  1.00  0.00     0.059 A 
ATOM     82  F   UNL A   1      38.472  32.912  38.433  1.00  0.00    -0.206 F 
ATOM     83  C   UNL A   1      39.581  36.314  38.932  1.00  0.00     0.060 A 
BRANCH  83  84
ATOM     84  S   UNL A   1      39.374  37.672  40.102  1.00  0.00     0.124 S 
ATOM     85  O   UNL A   1      39.106  36.955  41.344  1.00  0.00    -0.237 OA
ATOM     86  O   UNL A   1      40.664  38.349  40.025  1.00  0.00    -0.237 OA
ATOM     87  O   UNL A   1      38.246  38.423  39.556  1.00  0.00    -0.744 OA
ENDBRANCH  83  84
ENDBRANCH  51  76
ENDBRANCH  25  26
ENDBRANCH  18  20
ENDBRANCH   1  18
TORSDOF 14
ENDMDL
