MODEL 1
REMARK VINA RESULT:     -13.2      0.000      0.000
REMARK SMILES O=C(OCCOC(=O)[C@H]1Cc2c([nH]c3ccccc23)[C@H](c2c[nH]c3ccccc23)[NH2+]1)c1ccc(-c2c3nc(c(-c4c(F)cc(S(=O)(=O)[O-])cc4F)c4ccc([nH]4)c(-c4c(F)cc(S(=O)(=O)[O-])cc4F)c4nc(c(-c5c(F)cc(S(=O)(=O)[O-])cc5F)c5ccc2[nH]5)C=C4)C=C3)cc1
REMARK SMILES IDX 4 1 3 2 2 3 1 4 31 5 32 6 96 7 33 8 95 9 34 10 35 11 36 12
REMARK SMILES IDX 89 13 37 14 94 15 88 16 90 17 38 18 93 19 87 20 86 21 39 23
REMARK SMILES IDX 73 24 52 25 72 26 53 27 56 28 71 29 91 30 54 31 55 32 70 34
REMARK SMILES IDX 92 35 57 36 40 37 41 38 50 39 42 40 43 41 49 42 51 43 44 44
REMARK SMILES IDX 45 45 46 46 47 47 48 48 74 49 75 50 84 51 76 52 77 53 83 54
REMARK SMILES IDX 85 55 78 56 79 57 80 58 81 59 82 60 58 61 59 62 68 63 60 64
REMARK SMILES IDX 61 65 67 66 69 67 62 68 63 69 64 70 65 71 66 72 5 73 6 74
REMARK SMILES IDX 7 75 8 76 9 77 10 78 30 79 11 80 20 81 12 84 19 85 13 86
REMARK SMILES IDX 14 87 18 88 15 90 17 91 16 92 21 93 22 94 29 95 23 96 24 97
REMARK SMILES IDX 28 98 25 100 27 101 26 102
REMARK H PARENT 90 22 56 33 30 82 30 83 13 89 23 99
REMARK Flexibility Score: inf
ROOT
ATOM      1  C   UNL A   1      34.743  32.332  29.489  1.00  0.00     0.275 C 
ENDROOT
BRANCH   1   2
ATOM      2  O   UNL A   1      35.625  31.391  30.107  1.00  0.00    -0.458 OA
BRANCH   2   3
ATOM      3  C   UNL A   1      36.877  31.572  30.580  1.00  0.00     0.338 C 
ATOM      4  O   UNL A   1      37.045  32.465  31.412  1.00  0.00    -0.246 OA
BRANCH   3   5
ATOM      5  C   UNL A   1      38.093  30.842  30.079  1.00  0.00     0.060 A 
ATOM      6  C   UNL A   1      38.370  30.398  28.779  1.00  0.00     0.016 A 
ATOM      7  C   UNL A   1      39.094  30.650  31.037  1.00  0.00     0.016 A 
ATOM      8  C   UNL A   1      39.638  29.905  28.414  1.00  0.00     0.010 A 
ATOM      9  C   UNL A   1      40.362  30.215  30.663  1.00  0.00     0.010 A 
ATOM     10  C   UNL A   1      40.670  29.850  29.343  1.00  0.00    -0.014 A 
BRANCH  10  11
ATOM     11  C   UNL A   1      42.037  29.321  29.049  1.00  0.00     0.031 A 
ATOM     12  C   UNL A   1      43.126  30.329  28.791  1.00  0.00     0.074 A 
ATOM     13  C   UNL A   1      42.305  28.008  28.878  1.00  0.00     0.049 A 
ATOM     14  N   UNL A   1      44.289  30.182  28.216  1.00  0.00    -0.248 NA
ATOM     15  C   UNL A   1      42.822  31.716  29.190  1.00  0.00     0.031 C 
ATOM     16  C   UNL A   1      41.374  26.901  29.089  1.00  0.00     0.029 A 
ATOM     17  N   UNL A   1      43.442  27.388  28.400  1.00  0.00    -0.354 N 
ATOM     18  C   UNL A   1      44.825  31.461  28.159  1.00  0.00     0.074 A 
ATOM     19  C   UNL A   1      43.799  32.377  28.596  1.00  0.00     0.031 C 
ATOM     20  C   UNL A   1      41.938  25.758  28.659  1.00  0.00     0.029 A 
ATOM     21  C   UNL A   1      43.259  26.051  28.119  1.00  0.00     0.049 A 
ATOM     22  H   UNL A   1      44.299  27.855  28.274  1.00  0.00     0.167 HD
ATOM     23  C   UNL A   1      46.093  31.841  27.881  1.00  0.00     0.037 A 
ATOM     24  C   UNL A   1      44.040  25.178  27.451  1.00  0.00     0.037 A 
ATOM     25  C   UNL A   1      47.132  30.918  27.535  1.00  0.00     0.049 A 
ATOM     26  C   UNL A   1      45.418  25.605  27.034  1.00  0.00     0.074 A 
ATOM     27  C   UNL A   1      48.483  31.154  27.375  1.00  0.00     0.029 A 
ATOM     28  N   UNL A   1      46.923  29.566  27.305  1.00  0.00    -0.354 N 
ATOM     29  N   UNL A   1      45.953  26.799  27.080  1.00  0.00    -0.248 NA
ATOM     30  C   UNL A   1      46.320  24.555  26.536  1.00  0.00     0.031 C 
ATOM     31  C   UNL A   1      49.092  29.943  27.025  1.00  0.00     0.029 A 
ATOM     32  C   UNL A   1      48.121  28.951  26.999  1.00  0.00     0.049 A 
ATOM     33  H   UNL A   1      46.050  29.113  27.353  1.00  0.00     0.167 HD
ATOM     34  C   UNL A   1      47.283  26.631  26.714  1.00  0.00     0.074 A 
ATOM     35  C   UNL A   1      47.452  25.232  26.380  1.00  0.00     0.031 C 
ATOM     36  C   UNL A   1      48.280  27.548  26.708  1.00  0.00     0.037 A 
BRANCH  23  37
ATOM     37  C   UNL A   1      46.398  33.304  28.033  1.00  0.00     0.058 A 
ATOM     38  C   UNL A   1      46.277  34.184  26.941  1.00  0.00     0.135 A 
ATOM     39  C   UNL A   1      46.916  33.813  29.231  1.00  0.00     0.135 A 
ATOM     40  F   UNL A   1      45.796  33.745  25.766  1.00  0.00    -0.206 F 
ATOM     41  C   UNL A   1      46.754  35.487  27.000  1.00  0.00     0.059 A 
ATOM     42  C   UNL A   1      47.361  35.130  29.326  1.00  0.00     0.059 A 
ATOM     43  F   UNL A   1      47.039  33.022  30.308  1.00  0.00    -0.206 F 
ATOM     44  C   UNL A   1      47.314  35.943  28.192  1.00  0.00     0.060 A 
BRANCH  44  45
ATOM     45  S   UNL A   1      48.016  37.605  28.229  1.00  0.00     0.124 S 
ATOM     46  O   UNL A   1      46.861  38.397  28.640  1.00  0.00    -0.237 OA
ATOM     47  O   UNL A   1      49.079  37.476  29.222  1.00  0.00    -0.237 OA
ATOM     48  O   UNL A   1      48.468  37.812  26.857  1.00  0.00    -0.744 OA
ENDBRANCH  44  45
ENDBRANCH  23  37
BRANCH  24  49
ATOM     49  C   UNL A   1      43.544  23.815  27.122  1.00  0.00     0.058 A 
ATOM     50  C   UNL A   1      43.110  23.474  25.835  1.00  0.00     0.135 A 
ATOM     51  C   UNL A   1      43.483  22.827  28.117  1.00  0.00     0.135 A 
ATOM     52  F   UNL A   1      43.133  24.391  24.857  1.00  0.00    -0.206 F 
ATOM     53  C   UNL A   1      42.629  22.200  25.542  1.00  0.00     0.059 A 
ATOM     54  C   UNL A   1      43.011  21.544  27.848  1.00  0.00     0.059 A 
ATOM     55  F   UNL A   1      43.896  23.106  29.363  1.00  0.00    -0.206 F 
ATOM     56  C   UNL A   1      42.584  21.240  26.556  1.00  0.00     0.060 A 
BRANCH  56  57
ATOM     57  S   UNL A   1      42.007  19.573  26.156  1.00  0.00     0.124 S 
ATOM     58  O   UNL A   1      40.571  19.786  26.015  1.00  0.00    -0.237 OA
ATOM     59  O   UNL A   1      42.734  19.287  24.924  1.00  0.00    -0.237 OA
ATOM     60  O   UNL A   1      42.419  18.791  27.318  1.00  0.00    -0.744 OA
ENDBRANCH  56  57
ENDBRANCH  24  49
BRANCH  36  61
ATOM     61  C   UNL A   1      49.674  27.070  26.442  1.00  0.00     0.058 A 
ATOM     62  C   UNL A   1      50.486  26.545  27.455  1.00  0.00     0.135 A 
ATOM     63  C   UNL A   1      50.139  27.007  25.117  1.00  0.00     0.135 A 
ATOM     64  F   UNL A   1      50.090  26.600  28.737  1.00  0.00    -0.206 F 
ATOM     65  C   UNL A   1      51.706  25.948  27.161  1.00  0.00     0.059 A 
ATOM     66  C   UNL A   1      51.344  26.394  24.799  1.00  0.00     0.059 A 
ATOM     67  F   UNL A   1      49.392  27.498  24.115  1.00  0.00    -0.206 F 
ATOM     68  C   UNL A   1      52.117  25.860  25.827  1.00  0.00     0.060 A 
BRANCH  68  69
ATOM     69  S   UNL A   1      53.641  24.971  25.447  1.00  0.00     0.124 S 
ATOM     70  O   UNL A   1      53.154  23.603  25.299  1.00  0.00    -0.237 OA
ATOM     71  O   UNL A   1      54.082  25.624  24.218  1.00  0.00    -0.237 OA
ATOM     72  O   UNL A   1      54.479  25.217  26.616  1.00  0.00    -0.744 OA
ENDBRANCH  68  69
ENDBRANCH  36  61
ENDBRANCH  10  11
ENDBRANCH   3   5
ENDBRANCH   2   3
ENDBRANCH   1   2
BRANCH   1  73
ATOM     73  C   UNL A   1      34.671  32.218  27.966  1.00  0.00     0.274 C 
BRANCH  73  74
ATOM     74  O   UNL A   1      33.625  31.369  27.461  1.00  0.00    -0.458 OA
BRANCH  74  75
ATOM     75  C   UNL A   1      33.994  30.108  27.076  1.00  0.00     0.365 C 
ATOM     76  O   UNL A   1      35.122  29.652  27.241  1.00  0.00    -0.245 OA
BRANCH  75  77
ATOM     77  C   UNL A   1      32.881  29.335  26.337  1.00  0.00     0.298 C 
ATOM     78  C   UNL A   1      31.716  30.268  25.935  1.00  0.00     0.115 C 
ATOM     79  N   UNL A   1      33.469  28.489  25.254  1.00  0.00    -0.323 N 
ATOM     80  C   UNL A   1      30.962  29.744  24.758  1.00  0.00    -0.006 A 
ATOM     81  C   UNL A   1      32.472  27.672  24.549  1.00  0.00     0.264 C 
ATOM     82  H   UNL A   1      34.164  27.868  25.670  1.00  0.00     0.347 HD
ATOM     83  H   UNL A   1      33.882  29.122  24.568  1.00  0.00     0.347 HD
ATOM     84  C   UNL A   1      31.336  28.562  24.153  1.00  0.00     0.083 A 
ATOM     85  C   UNL A   1      29.907  30.311  23.979  1.00  0.00     0.003 A 
ATOM     86  N   UNL A   1      30.544  28.380  23.051  1.00  0.00    -0.353 N 
ATOM     87  C   UNL A   1      29.703  29.458  22.891  1.00  0.00     0.046 A 
ATOM     88  C   UNL A   1      29.153  31.502  24.038  1.00  0.00     0.010 A 
ATOM     89  H   UNL A   1      30.571  27.593  22.459  1.00  0.00     0.166 HD
ATOM     90  C   UNL A   1      28.816  29.749  21.848  1.00  0.00     0.026 A 
ATOM     91  C   UNL A   1      28.278  31.820  22.989  1.00  0.00     0.001 A 
ATOM     92  C   UNL A   1      28.119  30.958  21.907  1.00  0.00     0.002 A 
BRANCH  81  93
ATOM     93  C   UNL A   1      32.020  26.438  25.301  1.00  0.00     0.041 A 
ATOM     94  C   UNL A   1      30.716  26.287  25.755  1.00  0.00     0.093 A 
ATOM     95  C   UNL A   1      32.705  25.224  25.688  1.00  0.00     0.009 A 
ATOM     96  N   UNL A   1      30.607  25.118  26.443  1.00  0.00    -0.361 N 
ATOM     97  C   UNL A   1      31.822  24.486  26.484  1.00  0.00     0.046 A 
ATOM     98  C   UNL A   1      33.991  24.671  25.485  1.00  0.00     0.011 A 
ATOM     99  H   UNL A   1      29.778  24.776  26.850  1.00  0.00     0.166 HD
ATOM    100  C   UNL A   1      32.191  23.314  27.154  1.00  0.00     0.026 A 
ATOM    101  C   UNL A   1      34.386  23.513  26.163  1.00  0.00     0.001 A 
ATOM    102  C   UNL A   1      33.500  22.856  27.003  1.00  0.00     0.002 A 
ENDBRANCH  81  93
ENDBRANCH  75  77
ENDBRANCH  74  75
ENDBRANCH  73  74
ENDBRANCH   1  73
TORSDOF 15
ENDMDL
MODEL 2
REMARK VINA RESULT:     -13.2      6.522     12.395
REMARK SMILES O=C(OCCOC(=O)[C@H]1Cc2c([nH]c3ccccc23)[C@H](c2c[nH]c3ccccc23)[NH2+]1)c1ccc(-c2c3nc(c(-c4c(F)cc(S(=O)(=O)[O-])cc4F)c4ccc([nH]4)c(-c4c(F)cc(S(=O)(=O)[O-])cc4F)c4nc(c(-c5c(F)cc(S(=O)(=O)[O-])cc5F)c5ccc2[nH]5)C=C4)C=C3)cc1
REMARK SMILES IDX 4 1 3 2 2 3 1 4 31 5 32 6 96 7 33 8 95 9 34 10 35 11 36 12
REMARK SMILES IDX 89 13 37 14 94 15 88 16 90 17 38 18 93 19 87 20 86 21 39 23
REMARK SMILES IDX 73 24 52 25 72 26 53 27 56 28 71 29 91 30 54 31 55 32 70 34
REMARK SMILES IDX 92 35 57 36 40 37 41 38 50 39 42 40 43 41 49 42 51 43 44 44
REMARK SMILES IDX 45 45 46 46 47 47 48 48 74 49 75 50 84 51 76 52 77 53 83 54
REMARK SMILES IDX 85 55 78 56 79 57 80 58 81 59 82 60 58 61 59 62 68 63 60 64
REMARK SMILES IDX 61 65 67 66 69 67 62 68 63 69 64 70 65 71 66 72 5 73 6 74
REMARK SMILES IDX 7 75 8 76 9 77 10 78 30 79 11 80 20 81 12 84 19 85 13 86
REMARK SMILES IDX 14 87 18 88 15 90 17 91 16 92 21 93 22 94 29 95 23 96 24 97
REMARK SMILES IDX 28 98 25 100 27 101 26 102
REMARK H PARENT 90 22 56 33 30 82 30 83 13 89 23 99
REMARK Flexibility Score: inf
ROOT
ATOM      1  C   UNL A   1      40.865  22.235  26.061  1.00  0.00     0.275 C 
ENDROOT
BRANCH   1   2
ATOM      2  O   UNL A   1      41.026  23.656  26.033  1.00  0.00    -0.458 OA
BRANCH   2   3
ATOM      3  C   UNL A   1      41.887  24.434  26.724  1.00  0.00     0.338 C 
ATOM      4  O   UNL A   1      43.085  24.157  26.654  1.00  0.00    -0.246 OA
BRANCH   3   5
ATOM      5  C   UNL A   1      41.477  25.539  27.660  1.00  0.00     0.060 A 
ATOM      6  C   UNL A   1      40.300  25.652  28.413  1.00  0.00     0.016 A 
ATOM      7  C   UNL A   1      42.438  26.539  27.838  1.00  0.00     0.016 A 
ATOM      8  C   UNL A   1      40.139  26.644  29.400  1.00  0.00     0.010 A 
ATOM      9  C   UNL A   1      42.300  27.485  28.852  1.00  0.00     0.010 A 
ATOM     10  C   UNL A   1      41.159  27.549  29.666  1.00  0.00    -0.014 A 
BRANCH  10  11
ATOM     11  C   UNL A   1      41.066  28.646  30.678  1.00  0.00     0.031 A 
ATOM     12  C   UNL A   1      41.797  28.448  31.980  1.00  0.00     0.074 A 
ATOM     13  C   UNL A   1      40.265  29.724  30.533  1.00  0.00     0.049 A 
ATOM     14  N   UNL A   1      41.646  29.051  33.128  1.00  0.00    -0.248 NA
ATOM     15  C   UNL A   1      42.800  27.367  31.993  1.00  0.00     0.031 C 
ATOM     16  C   UNL A   1      39.492  30.073  29.343  1.00  0.00     0.029 A 
ATOM     17  N   UNL A   1      39.908  30.696  31.446  1.00  0.00    -0.354 N 
ATOM     18  C   UNL A   1      42.510  28.394  33.994  1.00  0.00     0.074 A 
ATOM     19  C   UNL A   1      43.042  27.254  33.286  1.00  0.00     0.031 C 
ATOM     20  C   UNL A   1      38.687  31.114  29.624  1.00  0.00     0.029 A 
ATOM     21  C   UNL A   1      38.867  31.492  31.019  1.00  0.00     0.049 A 
ATOM     22  H   UNL A   1      40.353  30.808  32.316  1.00  0.00     0.167 HD
ATOM     23  C   UNL A   1      42.921  28.762  35.229  1.00  0.00     0.037 A 
ATOM     24  C   UNL A   1      38.108  32.383  31.690  1.00  0.00     0.037 A 
ATOM     25  C   UNL A   1      42.457  29.943  35.892  1.00  0.00     0.049 A 
ATOM     26  C   UNL A   1      38.476  32.735  33.103  1.00  0.00     0.074 A 
ATOM     27  C   UNL A   1      42.900  30.505  37.073  1.00  0.00     0.029 A 
ATOM     28  N   UNL A   1      41.439  30.753  35.410  1.00  0.00    -0.354 N 
ATOM     29  N   UNL A   1      39.368  32.173  33.880  1.00  0.00    -0.248 NA
ATOM     30  C   UNL A   1      37.782  33.881  33.707  1.00  0.00     0.031 C 
ATOM     31  C   UNL A   1      42.132  31.648  37.319  1.00  0.00     0.029 A 
ATOM     32  C   UNL A   1      41.234  31.811  36.273  1.00  0.00     0.049 A 
ATOM     33  H   UNL A   1      40.938  30.596  34.578  1.00  0.00     0.167 HD
ATOM     34  C   UNL A   1      39.416  32.957  35.026  1.00  0.00     0.074 A 
ATOM     35  C   UNL A   1      38.413  33.989  34.871  1.00  0.00     0.031 C 
ATOM     36  C   UNL A   1      40.256  32.854  36.084  1.00  0.00     0.037 A 
BRANCH  23  37
ATOM     37  C   UNL A   1      43.975  27.900  35.864  1.00  0.00     0.058 A 
ATOM     38  C   UNL A   1      45.333  28.056  35.530  1.00  0.00     0.135 A 
ATOM     39  C   UNL A   1      43.627  26.845  36.718  1.00  0.00     0.135 A 
ATOM     40  F   UNL A   1      45.720  29.045  34.706  1.00  0.00    -0.206 F 
ATOM     41  C   UNL A   1      46.293  27.138  35.936  1.00  0.00     0.059 A 
ATOM     42  C   UNL A   1      44.581  25.936  37.173  1.00  0.00     0.059 A 
ATOM     43  F   UNL A   1      42.349  26.658  37.080  1.00  0.00    -0.206 F 
ATOM     44  C   UNL A   1      45.902  26.069  36.740  1.00  0.00     0.060 A 
BRANCH  44  45
ATOM     45  S   UNL A   1      47.138  24.831  37.183  1.00  0.00     0.124 S 
ATOM     46  O   UNL A   1      46.294  23.737  37.655  1.00  0.00    -0.237 OA
ATOM     47  O   UNL A   1      47.821  24.600  35.913  1.00  0.00    -0.237 OA
ATOM     48  O   UNL A   1      47.934  25.501  38.206  1.00  0.00    -0.744 OA
ENDBRANCH  44  45
ENDBRANCH  23  37
BRANCH  24  49
ATOM     49  C   UNL A   1      36.919  33.001  31.047  1.00  0.00     0.058 A 
ATOM     50  C   UNL A   1      35.613  32.612  31.372  1.00  0.00     0.135 A 
ATOM     51  C   UNL A   1      37.081  33.995  30.070  1.00  0.00     0.135 A 
ATOM     52  F   UNL A   1      35.410  31.653  32.288  1.00  0.00    -0.206 F 
ATOM     53  C   UNL A   1      34.506  33.183  30.750  1.00  0.00     0.059 A 
ATOM     54  C   UNL A   1      35.990  34.586  29.437  1.00  0.00     0.059 A 
ATOM     55  F   UNL A   1      38.313  34.405  29.732  1.00  0.00    -0.206 F 
ATOM     56  C   UNL A   1      34.704  34.171  29.783  1.00  0.00     0.060 A 
BRANCH  56  57
ATOM     57  S   UNL A   1      33.260  34.946  29.018  1.00  0.00     0.124 S 
ATOM     58  O   UNL A   1      33.860  36.107  28.369  1.00  0.00    -0.237 OA
ATOM     59  O   UNL A   1      32.784  33.893  28.129  1.00  0.00    -0.237 OA
ATOM     60  O   UNL A   1      32.395  35.237  30.157  1.00  0.00    -0.744 OA
ENDBRANCH  56  57
ENDBRANCH  24  49
BRANCH  36  61
ATOM     61  C   UNL A   1      40.222  33.939  37.117  1.00  0.00     0.058 A 
ATOM     62  C   UNL A   1      40.954  35.123  36.976  1.00  0.00     0.135 A 
ATOM     63  C   UNL A   1      39.320  33.838  38.191  1.00  0.00     0.135 A 
ATOM     64  F   UNL A   1      41.840  35.256  35.976  1.00  0.00    -0.206 F 
ATOM     65  C   UNL A   1      40.777  36.187  37.853  1.00  0.00     0.059 A 
ATOM     66  C   UNL A   1      39.110  34.897  39.065  1.00  0.00     0.059 A 
ATOM     67  F   UNL A   1      38.597  32.719  38.363  1.00  0.00    -0.206 F 
ATOM     68  C   UNL A   1      39.838  36.071  38.883  1.00  0.00     0.060 A 
BRANCH  68  69
ATOM     69  S   UNL A   1      39.524  37.503  39.936  1.00  0.00     0.124 S 
ATOM     70  O   UNL A   1      40.821  38.170  39.919  1.00  0.00    -0.237 OA
ATOM     71  O   UNL A   1      38.449  38.184  39.220  1.00  0.00    -0.237 OA
ATOM     72  O   UNL A   1      39.139  36.908  41.212  1.00  0.00    -0.744 OA
ENDBRANCH  68  69
ENDBRANCH  36  61
ENDBRANCH  10  11
ENDBRANCH   3   5
ENDBRANCH   2   3
ENDBRANCH   1   2
BRANCH   1  73
ATOM     73  C   UNL A   1      39.507  21.767  26.587  1.00  0.00     0.274 C 
BRANCH  73  74
ATOM     74  O   UNL A   1      38.431  21.813  25.633  1.00  0.00    -0.458 OA
BRANCH  74  75
ATOM     75  C   UNL A   1      37.501  22.802  25.809  1.00  0.00     0.365 C 
ATOM     76  O   UNL A   1      37.784  23.943  26.163  1.00  0.00    -0.245 OA
BRANCH  75  77
ATOM     77  C   UNL A   1      36.046  22.330  25.600  1.00  0.00     0.298 C 
ATOM     78  C   UNL A   1      35.993  20.978  24.851  1.00  0.00     0.115 C 
ATOM     79  N   UNL A   1      35.284  22.418  26.882  1.00  0.00    -0.323 N 
ATOM     80  C   UNL A   1      34.742  20.222  25.153  1.00  0.00    -0.006 A 
ATOM     81  C   UNL A   1      33.869  22.045  26.744  1.00  0.00     0.264 C 
ATOM     82  H   UNL A   1      35.335  23.378  27.224  1.00  0.00     0.347 HD
ATOM     83  H   UNL A   1      35.709  21.756  27.532  1.00  0.00     0.347 HD
ATOM     84  C   UNL A   1      33.800  20.737  26.020  1.00  0.00     0.083 A 
ATOM     85  C   UNL A   1      34.320  18.906  24.792  1.00  0.00     0.003 A 
ATOM     86  N   UNL A   1      32.819  19.798  26.188  1.00  0.00    -0.353 N 
ATOM     87  C   UNL A   1      33.139  18.653  25.496  1.00  0.00     0.046 A 
ATOM     88  C   UNL A   1      34.856  17.867  24.002  1.00  0.00     0.010 A 
ATOM     89  H   UNL A   1      32.002  19.923  26.725  1.00  0.00     0.166 HD
ATOM     90  C   UNL A   1      32.490  17.412  25.478  1.00  0.00     0.026 A 
ATOM     91  C   UNL A   1      34.232  16.611  23.993  1.00  0.00     0.001 A 
ATOM     92  C   UNL A   1      33.070  16.387  24.726  1.00  0.00     0.002 A 
BRANCH  81  93
ATOM     93  C   UNL A   1      32.992  23.111  26.120  1.00  0.00     0.041 A 
ATOM     94  C   UNL A   1      32.051  23.817  26.859  1.00  0.00     0.093 A 
ATOM     95  C   UNL A   1      32.907  23.644  24.779  1.00  0.00     0.009 A 
ATOM     96  N   UNL A   1      31.370  24.663  26.038  1.00  0.00    -0.361 N 
ATOM     97  C   UNL A   1      31.819  24.524  24.750  1.00  0.00     0.046 A 
ATOM     98  C   UNL A   1      33.608  23.462  23.563  1.00  0.00     0.011 A 
ATOM     99  H   UNL A   1      30.662  25.283  26.326  1.00  0.00     0.166 HD
ATOM    100  C   UNL A   1      31.347  25.124  23.576  1.00  0.00     0.026 A 
ATOM    101  C   UNL A   1      33.139  24.034  22.376  1.00  0.00     0.001 A 
ATOM    102  C   UNL A   1      32.010  24.839  22.382  1.00  0.00     0.002 A 
ENDBRANCH  81  93
ENDBRANCH  75  77
ENDBRANCH  74  75
ENDBRANCH  73  74
ENDBRANCH   1  73
TORSDOF 15
ENDMDL
MODEL 3
REMARK VINA RESULT:     -13.2      6.446     12.295
REMARK SMILES O=C(OCCOC(=O)[C@H]1Cc2c([nH]c3ccccc23)[C@H](c2c[nH]c3ccccc23)[NH2+]1)c1ccc(-c2c3nc(c(-c4c(F)cc(S(=O)(=O)[O-])cc4F)c4ccc([nH]4)c(-c4c(F)cc(S(=O)(=O)[O-])cc4F)c4nc(c(-c5c(F)cc(S(=O)(=O)[O-])cc5F)c5ccc2[nH]5)C=C4)C=C3)cc1
REMARK SMILES IDX 4 1 3 2 2 3 1 4 31 5 32 6 96 7 33 8 95 9 34 10 35 11 36 12
REMARK SMILES IDX 89 13 37 14 94 15 88 16 90 17 38 18 93 19 87 20 86 21 39 23
REMARK SMILES IDX 73 24 52 25 72 26 53 27 56 28 71 29 91 30 54 31 55 32 70 34
REMARK SMILES IDX 92 35 57 36 40 37 41 38 50 39 42 40 43 41 49 42 51 43 44 44
REMARK SMILES IDX 45 45 46 46 47 47 48 48 74 49 75 50 84 51 76 52 77 53 83 54
REMARK SMILES IDX 85 55 78 56 79 57 80 58 81 59 82 60 58 61 59 62 68 63 60 64
REMARK SMILES IDX 61 65 67 66 69 67 62 68 63 69 64 70 65 71 66 72 5 73 6 74
REMARK SMILES IDX 7 75 8 76 9 77 10 78 30 79 11 80 20 81 12 84 19 85 13 86
REMARK SMILES IDX 14 87 18 88 15 90 17 91 16 92 21 93 22 94 29 95 23 96 24 97
REMARK SMILES IDX 28 98 25 100 27 101 26 102
REMARK H PARENT 90 22 56 33 30 82 30 83 13 89 23 99
REMARK Flexibility Score: inf
ROOT
ATOM      1  C   UNL A   1      41.075  22.135  26.119  1.00  0.00     0.275 C 
ENDROOT
BRANCH   1   2
ATOM      2  O   UNL A   1      41.992  23.074  26.687  1.00  0.00    -0.458 OA
BRANCH   2   3
ATOM      3  C   UNL A   1      42.116  24.399  26.455  1.00  0.00     0.338 C 
ATOM      4  O   UNL A   1      42.699  24.743  25.426  1.00  0.00    -0.246 OA
BRANCH   3   5
ATOM      5  C   UNL A   1      41.696  25.477  27.417  1.00  0.00     0.060 A 
ATOM      6  C   UNL A   1      40.544  25.537  28.212  1.00  0.00     0.016 A 
ATOM      7  C   UNL A   1      42.623  26.513  27.572  1.00  0.00     0.016 A 
ATOM      8  C   UNL A   1      40.379  26.511  29.215  1.00  0.00     0.010 A 
ATOM      9  C   UNL A   1      42.484  27.443  28.599  1.00  0.00     0.010 A 
ATOM     10  C   UNL A   1      41.372  27.454  29.455  1.00  0.00    -0.014 A 
BRANCH  10  11
ATOM     11  C   UNL A   1      41.272  28.536  30.481  1.00  0.00     0.031 A 
ATOM     12  C   UNL A   1      42.010  28.329  31.777  1.00  0.00     0.074 A 
ATOM     13  C   UNL A   1      40.459  29.608  30.354  1.00  0.00     0.049 A 
ATOM     14  N   UNL A   1      41.859  28.916  32.934  1.00  0.00    -0.248 NA
ATOM     15  C   UNL A   1      43.025  27.259  31.772  1.00  0.00     0.031 C 
ATOM     16  C   UNL A   1      39.677  29.964  29.171  1.00  0.00     0.029 A 
ATOM     17  N   UNL A   1      40.095  30.564  31.281  1.00  0.00    -0.354 N 
ATOM     18  C   UNL A   1      42.734  28.256  33.787  1.00  0.00     0.074 A 
ATOM     19  C   UNL A   1      43.274  27.131  33.062  1.00  0.00     0.031 C 
ATOM     20  C   UNL A   1      38.863  30.993  29.470  1.00  0.00     0.029 A 
ATOM     21  C   UNL A   1      39.045  31.355  30.869  1.00  0.00     0.049 A 
ATOM     22  H   UNL A   1      40.543  30.669  32.151  1.00  0.00     0.167 HD
ATOM     23  C   UNL A   1      43.146  28.613  35.025  1.00  0.00     0.037 A 
ATOM     24  C   UNL A   1      38.280  32.229  31.555  1.00  0.00     0.037 A 
ATOM     25  C   UNL A   1      42.673  29.780  35.705  1.00  0.00     0.049 A 
ATOM     26  C   UNL A   1      38.650  32.566  32.971  1.00  0.00     0.074 A 
ATOM     27  C   UNL A   1      43.115  30.332  36.891  1.00  0.00     0.029 A 
ATOM     28  N   UNL A   1      41.644  30.586  35.239  1.00  0.00    -0.354 N 
ATOM     29  N   UNL A   1      39.551  32.004  33.736  1.00  0.00    -0.248 NA
ATOM     30  C   UNL A   1      37.947  33.697  33.593  1.00  0.00     0.031 C 
ATOM     31  C   UNL A   1      42.336  31.463  37.156  1.00  0.00     0.029 A 
ATOM     32  C   UNL A   1      41.431  31.630  36.117  1.00  0.00     0.049 A 
ATOM     33  H   UNL A   1      41.140  30.434  34.406  1.00  0.00     0.167 HD
ATOM     34  C   UNL A   1      39.596  32.773  34.892  1.00  0.00     0.074 A 
ATOM     35  C   UNL A   1      38.581  33.796  34.755  1.00  0.00     0.031 C 
ATOM     36  C   UNL A   1      40.442  32.665  35.945  1.00  0.00     0.037 A 
BRANCH  23  37
ATOM     37  C   UNL A   1      44.211  27.753  35.644  1.00  0.00     0.058 A 
ATOM     38  C   UNL A   1      43.874  26.689  36.502  1.00  0.00     0.135 A 
ATOM     39  C   UNL A   1      45.570  28.053  35.475  1.00  0.00     0.135 A 
ATOM     40  F   UNL A   1      42.586  26.366  36.707  1.00  0.00    -0.206 F 
ATOM     41  C   UNL A   1      44.837  26.023  37.249  1.00  0.00     0.059 A 
ATOM     42  C   UNL A   1      46.556  27.369  36.182  1.00  0.00     0.059 A 
ATOM     43  F   UNL A   1      45.948  29.048  34.658  1.00  0.00    -0.206 F 
ATOM     44  C   UNL A   1      46.173  26.386  37.097  1.00  0.00     0.060 A 
BRANCH  44  45
ATOM     45  S   UNL A   1      47.405  25.580  38.140  1.00  0.00     0.124 S 
ATOM     46  O   UNL A   1      47.633  24.336  37.410  1.00  0.00    -0.237 OA
ATOM     47  O   UNL A   1      48.509  26.535  38.121  1.00  0.00    -0.237 OA
ATOM     48  O   UNL A   1      46.723  25.442  39.423  1.00  0.00    -0.744 OA
ENDBRANCH  44  45
ENDBRANCH  23  37
BRANCH  24  49
ATOM     49  C   UNL A   1      37.080  32.843  30.925  1.00  0.00     0.058 A 
ATOM     50  C   UNL A   1      35.798  32.303  31.088  1.00  0.00     0.135 A 
ATOM     51  C   UNL A   1      37.212  33.988  30.126  1.00  0.00     0.135 A 
ATOM     52  F   UNL A   1      35.627  31.198  31.829  1.00  0.00    -0.206 F 
ATOM     53  C   UNL A   1      34.684  32.874  30.479  1.00  0.00     0.059 A 
ATOM     54  C   UNL A   1      36.113  34.582  29.509  1.00  0.00     0.059 A 
ATOM     55  F   UNL A   1      38.420  34.544  29.948  1.00  0.00    -0.206 F 
ATOM     56  C   UNL A   1      34.851  34.015  29.690  1.00  0.00     0.060 A 
BRANCH  56  57
ATOM     57  S   UNL A   1      33.393  34.783  28.944  1.00  0.00     0.124 S 
ATOM     58  O   UNL A   1      32.961  33.747  28.014  1.00  0.00    -0.237 OA
ATOM     59  O   UNL A   1      32.535  34.998  30.104  1.00  0.00    -0.237 OA
ATOM     60  O   UNL A   1      33.930  35.996  28.334  1.00  0.00    -0.744 OA
ENDBRANCH  56  57
ENDBRANCH  24  49
BRANCH  36  61
ATOM     61  C   UNL A   1      40.401  33.736  36.993  1.00  0.00     0.058 A 
ATOM     62  C   UNL A   1      41.177  34.897  36.899  1.00  0.00     0.135 A 
ATOM     63  C   UNL A   1      39.453  33.650  38.027  1.00  0.00     0.135 A 
ATOM     64  F   UNL A   1      42.107  35.015  35.938  1.00  0.00    -0.206 F 
ATOM     65  C   UNL A   1      40.999  35.954  37.785  1.00  0.00     0.059 A 
ATOM     66  C   UNL A   1      39.243  34.703  38.908  1.00  0.00     0.059 A 
ATOM     67  F   UNL A   1      38.687  32.554  38.153  1.00  0.00    -0.206 F 
ATOM     68  C   UNL A   1      40.015  35.854  38.774  1.00  0.00     0.060 A 
BRANCH  68  69
ATOM     69  S   UNL A   1      39.706  37.281  39.835  1.00  0.00     0.124 S 
ATOM     70  O   UNL A   1      39.398  36.640  41.108  1.00  0.00    -0.237 OA
ATOM     71  O   UNL A   1      40.978  37.995  39.774  1.00  0.00    -0.237 OA
ATOM     72  O   UNL A   1      38.586  37.953  39.182  1.00  0.00    -0.744 OA
ENDBRANCH  68  69
ENDBRANCH  36  61
ENDBRANCH  10  11
ENDBRANCH   3   5
ENDBRANCH   2   3
ENDBRANCH   1   2
BRANCH   1  73
ATOM     73  C   UNL A   1      39.668  22.193  26.716  1.00  0.00     0.274 C 
BRANCH  73  74
ATOM     74  O   UNL A   1      38.597  21.946  25.787  1.00  0.00    -0.458 OA
BRANCH  74  75
ATOM     75  C   UNL A   1      37.636  22.917  25.691  1.00  0.00     0.365 C 
ATOM     76  O   UNL A   1      37.774  24.053  26.135  1.00  0.00    -0.245 OA
BRANCH  75  77
ATOM     77  C   UNL A   1      36.324  22.429  25.041  1.00  0.00     0.298 C 
ATOM     78  C   UNL A   1      36.348  20.901  24.798  1.00  0.00     0.115 C 
ATOM     79  N   UNL A   1      35.145  22.973  25.781  1.00  0.00    -0.323 N 
ATOM     80  C   UNL A   1      34.973  20.321  24.757  1.00  0.00    -0.006 A 
ATOM     81  C   UNL A   1      33.858  22.601  25.177  1.00  0.00     0.264 C 
ATOM     82  H   UNL A   1      35.215  23.990  25.797  1.00  0.00     0.347 HD
ATOM     83  H   UNL A   1      35.166  22.571  26.719  1.00  0.00     0.347 HD
ATOM     84  C   UNL A   1      33.865  21.124  24.935  1.00  0.00     0.083 A 
ATOM     85  C   UNL A   1      34.517  18.970  24.677  1.00  0.00     0.003 A 
ATOM     86  N   UNL A   1      32.757  20.321  24.951  1.00  0.00    -0.353 N 
ATOM     87  C   UNL A   1      33.130  19.000  24.851  1.00  0.00     0.046 A 
ATOM     88  C   UNL A   1      35.142  17.711  24.552  1.00  0.00     0.010 A 
ATOM     89  H   UNL A   1      31.828  20.640  25.023  1.00  0.00     0.166 HD
ATOM     90  C   UNL A   1      32.347  17.843  24.943  1.00  0.00     0.026 A 
ATOM     91  C   UNL A   1      34.375  16.543  24.667  1.00  0.00     0.001 A 
ATOM     92  C   UNL A   1      32.999  16.610  24.867  1.00  0.00     0.002 A 
BRANCH  81  93
ATOM     93  C   UNL A   1      33.484  23.398  23.945  1.00  0.00     0.041 A 
ATOM     94  C   UNL A   1      33.129  22.786  22.750  1.00  0.00     0.093 A 
ATOM     95  C   UNL A   1      33.377  24.819  23.697  1.00  0.00     0.009 A 
ATOM     96  N   UNL A   1      32.901  23.737  21.802  1.00  0.00    -0.361 N 
ATOM     97  C   UNL A   1      33.120  24.983  22.331  1.00  0.00     0.046 A 
ATOM     98  C   UNL A   1      33.502  26.001  24.465  1.00  0.00     0.011 A 
ATOM     99  H   UNL A   1      32.621  23.557  20.876  1.00  0.00     0.166 HD
ATOM    100  C   UNL A   1      33.092  26.232  21.699  1.00  0.00     0.026 A 
ATOM    101  C   UNL A   1      33.499  27.257  23.850  1.00  0.00     0.001 A 
ATOM    102  C   UNL A   1      33.316  27.366  22.480  1.00  0.00     0.002 A 
ENDBRANCH  81  93
ENDBRANCH  75  77
ENDBRANCH  74  75
ENDBRANCH  73  74
ENDBRANCH   1  73
TORSDOF 15
ENDMDL
