MODEL 1
REMARK VINA RESULT:     -10.6      0.000      0.000
REMARK SMILES C[C@H]1[C@@H](C(=O)OCCOC(=O)c2ccc(-c3c4nc(c(-c5c(F)cc(S(=O)(=O)[O-])cc5F)c5ccc([nH]5)c(-c5c(F)cc(S(=O)(=O)[O-])cc5F)c5nc(c(-c6c(F)cc(S(=O)(=O)[O-])cc6F)c6ccc3[nH]6)C=C5)C=C4)cc2)CC[N@@H+]1CC1(O)CCCC1
REMARK SMILES IDX 7 1 6 2 4 3 5 4 3 5 1 6 2 7 80 8 78 9 79 10 81 12 82 13
REMARK SMILES IDX 84 14 87 15 85 16 86 17 83 18 8 20 9 21 10 22 11 23 12 24
REMARK SMILES IDX 13 25 77 26 14 27 76 28 15 29 16 30 17 31 70 32 18 33 75 34
REMARK SMILES IDX 69 35 71 36 19 37 74 38 68 39 67 40 20 42 54 43 33 44 53 45
REMARK SMILES IDX 34 46 37 47 52 48 72 49 35 50 36 51 51 53 73 54 38 55 21 56
REMARK SMILES IDX 22 57 31 58 23 59 24 60 30 61 32 62 25 63 26 64 27 65 28 66
REMARK SMILES IDX 29 67 55 68 56 69 65 70 57 71 58 72 64 73 66 74 59 75 60 76
REMARK SMILES IDX 61 77 62 78 63 79 39 80 40 81 49 82 41 83 42 84 48 85 50 86
REMARK SMILES IDX 43 87 44 88 45 89 46 90 47 91
REMARK H PARENT 80 11 83 19 71 41 37 52
REMARK Flexibility Score: inf
ROOT
ATOM      1  C   UNL A   1      32.135  28.545  27.260  1.00  0.00     0.274 C 
ENDROOT
BRANCH   1   2
ATOM      2  O   UNL A   1      31.702  27.179  27.414  1.00  0.00    -0.462 OA
BRANCH   2   3
ATOM      3  C   UNL A   1      31.458  26.496  26.271  1.00  0.00     0.315 C 
ATOM      4  O   UNL A   1      30.675  26.858  25.399  1.00  0.00    -0.252 OA
BRANCH   3   5
ATOM      5  C   UNL A   1      32.313  25.258  26.104  1.00  0.00     0.162 C 
ATOM      6  C   UNL A   1      33.736  26.334  24.217  1.00  0.00     0.076 C 
ATOM      7  C   UNL A   1      33.648  25.327  25.366  1.00  0.00     0.195 C 
ATOM      8  N   UNL A   1      33.826  23.990  24.780  1.00  0.00    -0.330 N 
ATOM      9  C   UNL A   1      31.559  24.079  25.506  1.00  0.00     0.083 C 
ATOM     10  C   UNL A   1      32.498  23.453  24.495  1.00  0.00     0.263 C 
ATOM     11  H   UNL A   1      34.357  24.115  23.920  1.00  0.00     0.348 HD
BRANCH   8  12
ATOM     12  C   UNL A   1      34.743  23.055  25.443  1.00  0.00     0.297 C 
BRANCH  12  13
ATOM     13  C   UNL A   1      36.277  22.984  25.166  1.00  0.00     0.113 C 
ATOM     14  C   UNL A   1      36.947  21.634  25.425  1.00  0.00     0.041 C 
ATOM     15  C   UNL A   1      37.018  23.905  26.150  1.00  0.00     0.041 C 
ATOM     16  C   UNL A   1      38.397  21.940  25.809  1.00  0.00     0.003 C 
ATOM     17  C   UNL A   1      38.464  23.429  26.121  1.00  0.00     0.003 C 
BRANCH  13  18
ATOM     18  O   UNL A   1      36.559  23.425  23.836  1.00  0.00    -0.384 OA
ATOM     19  H   UNL A   1      36.089  24.257  23.664  1.00  0.00     0.211 HD
ENDBRANCH  13  18
ENDBRANCH  12  13
ENDBRANCH   8  12
ENDBRANCH   3   5
ENDBRANCH   2   3
ENDBRANCH   1   2
BRANCH   1  20
ATOM     20  C   UNL A   1      33.657  28.602  27.257  1.00  0.00     0.275 C 
BRANCH  20  21
ATOM     21  O   UNL A   1      34.084  29.951  27.001  1.00  0.00    -0.458 OA
BRANCH  21  22
ATOM     22  C   UNL A   1      34.619  30.596  28.062  1.00  0.00     0.338 C 
ATOM     23  O   UNL A   1      34.109  31.488  28.719  1.00  0.00    -0.246 OA
BRANCH  22  24
ATOM     24  C   UNL A   1      35.974  30.083  28.333  1.00  0.00     0.060 A 
ATOM     25  C   UNL A   1      36.349  29.664  29.611  1.00  0.00     0.016 A 
ATOM     26  C   UNL A   1      36.912  30.136  27.303  1.00  0.00     0.016 A 
ATOM     27  C   UNL A   1      37.687  29.364  29.877  1.00  0.00     0.010 A 
ATOM     28  C   UNL A   1      38.226  29.743  27.550  1.00  0.00     0.010 A 
ATOM     29  C   UNL A   1      38.637  29.375  28.843  1.00  0.00    -0.014 A 
BRANCH  29  30
ATOM     30  C   UNL A   1      40.059  28.993  29.063  1.00  0.00     0.031 A 
ATOM     31  C   UNL A   1      41.063  30.045  29.451  1.00  0.00     0.074 A 
ATOM     32  C   UNL A   1      40.471  27.734  28.817  1.00  0.00     0.049 A 
ATOM     33  N   UNL A   1      42.365  30.027  29.344  1.00  0.00    -0.248 NA
ATOM     34  C   UNL A   1      40.524  31.293  30.015  1.00  0.00     0.031 C 
ATOM     35  C   UNL A   1      39.605  26.603  28.481  1.00  0.00     0.029 A 
ATOM     36  N   UNL A   1      41.738  27.203  28.777  1.00  0.00    -0.354 N 
ATOM     37  C   UNL A   1      42.799  31.281  29.761  1.00  0.00     0.074 A 
ATOM     38  C   UNL A   1      41.620  32.030  30.141  1.00  0.00     0.031 C 
ATOM     39  C   UNL A   1      40.361  25.517  28.267  1.00  0.00     0.029 A 
ATOM     40  C   UNL A   1      41.766  25.895  28.355  1.00  0.00     0.049 A 
ATOM     41  H   UNL A   1      42.545  27.709  29.026  1.00  0.00     0.167 HD
ATOM     42  C   UNL A   1      44.065  31.761  29.804  1.00  0.00     0.037 A 
ATOM     43  C   UNL A   1      42.799  25.104  28.005  1.00  0.00     0.037 A 
ATOM     44  C   UNL A   1      45.231  30.985  29.468  1.00  0.00     0.049 A 
ATOM     45  C   UNL A   1      44.193  25.659  28.035  1.00  0.00     0.074 A 
ATOM     46  C   UNL A   1      46.560  31.372  29.487  1.00  0.00     0.029 A 
ATOM     47  N   UNL A   1      45.208  29.656  29.069  1.00  0.00    -0.354 N 
ATOM     48  N   UNL A   1      44.588  26.867  28.360  1.00  0.00    -0.248 NA
ATOM     49  C   UNL A   1      45.279  24.757  27.629  1.00  0.00     0.031 C 
ATOM     50  C   UNL A   1      47.339  30.284  29.079  1.00  0.00     0.029 A 
ATOM     51  C   UNL A   1      46.498  29.210  28.837  1.00  0.00     0.049 A 
ATOM     52  H   UNL A   1      44.394  29.112  28.967  1.00  0.00     0.167 HD
ATOM     53  C   UNL A   1      45.969  26.865  28.213  1.00  0.00     0.074 A 
ATOM     54  C   UNL A   1      46.343  25.537  27.774  1.00  0.00     0.031 C 
ATOM     55  C   UNL A   1      46.848  27.876  28.421  1.00  0.00     0.037 A 
BRANCH  42  56
ATOM     56  C   UNL A   1      44.258  33.200  30.192  1.00  0.00     0.058 A 
ATOM     57  C   UNL A   1      44.240  34.235  29.246  1.00  0.00     0.135 A 
ATOM     58  C   UNL A   1      44.419  33.552  31.543  1.00  0.00     0.135 A 
ATOM     59  F   UNL A   1      44.103  33.955  27.940  1.00  0.00    -0.206 F 
ATOM     60  C   UNL A   1      44.394  35.567  29.622  1.00  0.00     0.059 A 
ATOM     61  C   UNL A   1      44.554  34.877  31.945  1.00  0.00     0.059 A 
ATOM     62  F   UNL A   1      44.443  32.599  32.489  1.00  0.00    -0.206 F 
ATOM     63  C   UNL A   1      44.553  35.877  30.974  1.00  0.00     0.060 A 
BRANCH  63  64
ATOM     64  S   UNL A   1      44.745  37.609  31.453  1.00  0.00     0.124 S 
ATOM     65  O   UNL A   1      44.465  38.291  30.194  1.00  0.00    -0.237 OA
ATOM     66  O   UNL A   1      43.735  37.762  32.494  1.00  0.00    -0.237 OA
ATOM     67  O   UNL A   1      46.129  37.682  31.913  1.00  0.00    -0.744 OA
ENDBRANCH  63  64
ENDBRANCH  42  56
BRANCH  43  68
ATOM     68  C   UNL A   1      42.533  23.716  27.544  1.00  0.00     0.058 A 
ATOM     69  C   UNL A   1      42.372  23.431  26.181  1.00  0.00     0.135 A 
ATOM     70  C   UNL A   1      42.492  22.644  28.448  1.00  0.00     0.135 A 
ATOM     71  F   UNL A   1      42.395  24.426  25.281  1.00  0.00    -0.206 F 
ATOM     72  C   UNL A   1      42.184  22.130  25.728  1.00  0.00     0.059 A 
ATOM     73  C   UNL A   1      42.328  21.332  28.019  1.00  0.00     0.059 A 
ATOM     74  F   UNL A   1      42.655  22.865  29.762  1.00  0.00    -0.206 F 
ATOM     75  C   UNL A   1      42.171  21.085  26.655  1.00  0.00     0.060 A 
BRANCH  75  76
ATOM     76  S   UNL A   1      42.013  19.389  26.053  1.00  0.00     0.124 S 
ATOM     77  O   UNL A   1      42.497  18.627  27.199  1.00  0.00    -0.237 OA
ATOM     78  O   UNL A   1      40.583  19.288  25.778  1.00  0.00    -0.237 OA
ATOM     79  O   UNL A   1      42.871  19.374  24.873  1.00  0.00    -0.744 OA
ENDBRANCH  75  76
ENDBRANCH  43  68
BRANCH  55  80
ATOM     80  C   UNL A   1      48.304  27.577  28.225  1.00  0.00     0.058 A 
ATOM     81  C   UNL A   1      49.058  26.923  29.211  1.00  0.00     0.135 A 
ATOM     82  C   UNL A   1      48.929  27.875  27.005  1.00  0.00     0.135 A 
ATOM     83  F   UNL A   1      48.506  26.626  30.398  1.00  0.00    -0.206 F 
ATOM     84  C   UNL A   1      50.386  26.574  28.992  1.00  0.00     0.059 A 
ATOM     85  C   UNL A   1      50.251  27.522  26.759  1.00  0.00     0.059 A 
ATOM     86  F   UNL A   1      48.246  28.497  26.031  1.00  0.00    -0.206 F 
ATOM     87  C   UNL A   1      50.972  26.873  27.760  1.00  0.00     0.060 A 
BRANCH  87  88
ATOM     88  S   UNL A   1      52.676  26.357  27.460  1.00  0.00     0.124 S 
ATOM     89  O   UNL A   1      53.231  26.375  28.810  1.00  0.00    -0.237 OA
ATOM     90  O   UNL A   1      52.505  25.036  26.863  1.00  0.00    -0.237 OA
ATOM     91  O   UNL A   1      53.187  27.383  26.557  1.00  0.00    -0.744 OA
ENDBRANCH  87  88
ENDBRANCH  55  80
ENDBRANCH  29  30
ENDBRANCH  22  24
ENDBRANCH  21  22
ENDBRANCH  20  21
ENDBRANCH   1  20
TORSDOF 17
ENDMDL
MODEL 2
REMARK VINA RESULT:     -10.4      4.096     10.122
REMARK SMILES C[C@H]1[C@@H](C(=O)OCCOC(=O)c2ccc(-c3c4nc(c(-c5c(F)cc(S(=O)(=O)[O-])cc5F)c5ccc([nH]5)c(-c5c(F)cc(S(=O)(=O)[O-])cc5F)c5nc(c(-c6c(F)cc(S(=O)(=O)[O-])cc6F)c6ccc3[nH]6)C=C5)C=C4)cc2)CC[N@@H+]1CC1(O)CCCC1
REMARK SMILES IDX 7 1 6 2 4 3 5 4 3 5 1 6 2 7 80 8 78 9 79 10 81 12 82 13
REMARK SMILES IDX 84 14 87 15 85 16 86 17 83 18 8 20 9 21 10 22 11 23 12 24
REMARK SMILES IDX 13 25 77 26 14 27 76 28 15 29 16 30 17 31 70 32 18 33 75 34
REMARK SMILES IDX 69 35 71 36 19 37 74 38 68 39 67 40 20 42 54 43 33 44 53 45
REMARK SMILES IDX 34 46 37 47 52 48 72 49 35 50 36 51 51 53 73 54 38 55 21 56
REMARK SMILES IDX 22 57 31 58 23 59 24 60 30 61 32 62 25 63 26 64 27 65 28 66
REMARK SMILES IDX 29 67 55 68 56 69 65 70 57 71 58 72 64 73 66 74 59 75 60 76
REMARK SMILES IDX 61 77 62 78 63 79 39 80 40 81 49 82 41 83 42 84 48 85 50 86
REMARK SMILES IDX 43 87 44 88 45 89 46 90 47 91
REMARK H PARENT 80 11 83 19 71 41 37 52
REMARK Flexibility Score: inf
ROOT
ATOM      1  C   UNL A   1      36.059  21.366  25.565  1.00  0.00     0.274 C 
ENDROOT
BRANCH   1   2
ATOM      2  O   UNL A   1      35.079  22.417  25.671  1.00  0.00    -0.462 OA
BRANCH   2   3
ATOM      3  C   UNL A   1      34.257  22.580  24.608  1.00  0.00     0.315 C 
ATOM      4  O   UNL A   1      33.657  21.668  24.049  1.00  0.00    -0.252 OA
BRANCH   3   5
ATOM      5  C   UNL A   1      34.062  24.024  24.202  1.00  0.00     0.162 C 
ATOM      6  C   UNL A   1      32.200  24.408  25.970  1.00  0.00     0.076 C 
ATOM      7  C   UNL A   1      33.326  24.999  25.118  1.00  0.00     0.195 C 
ATOM      8  N   UNL A   1      32.710  25.979  24.211  1.00  0.00    -0.330 N 
ATOM      9  C   UNL A   1      33.438  24.186  22.823  1.00  0.00     0.083 C 
ATOM     10  C   UNL A   1      32.413  25.293  22.956  1.00  0.00     0.263 C 
ATOM     11  H   UNL A   1      31.852  26.297  24.661  1.00  0.00     0.348 HD
BRANCH   8  12
ATOM     12  C   UNL A   1      33.351  27.291  24.064  1.00  0.00     0.297 C 
BRANCH  12  13
ATOM     13  C   UNL A   1      33.188  28.468  25.076  1.00  0.00     0.113 C 
ATOM     14  C   UNL A   1      34.116  28.445  26.291  1.00  0.00     0.041 C 
ATOM     15  C   UNL A   1      31.798  28.391  25.729  1.00  0.00     0.041 C 
ATOM     16  C   UNL A   1      33.361  29.151  27.421  1.00  0.00     0.003 C 
ATOM     17  C   UNL A   1      31.906  29.250  26.983  1.00  0.00     0.003 C 
BRANCH  13  18
ATOM     18  O   UNL A   1      33.300  29.721  24.396  1.00  0.00    -0.384 OA
ATOM     19  H   UNL A   1      33.156  29.587  23.446  1.00  0.00     0.211 HD
ENDBRANCH  13  18
ENDBRANCH  12  13
ENDBRANCH   8  12
ENDBRANCH   3   5
ENDBRANCH   2   3
ENDBRANCH   1   2
BRANCH   1  20
ATOM     20  C   UNL A   1      37.265  21.869  24.783  1.00  0.00     0.275 C 
BRANCH  20  21
ATOM     21  O   UNL A   1      37.764  23.070  25.396  1.00  0.00    -0.458 OA
BRANCH  21  22
ATOM     22  C   UNL A   1      38.954  22.945  26.024  1.00  0.00     0.338 C 
ATOM     23  O   UNL A   1      39.666  21.956  26.069  1.00  0.00    -0.246 OA
BRANCH  22  24
ATOM     24  C   UNL A   1      39.301  24.206  26.704  1.00  0.00     0.060 A 
ATOM     25  C   UNL A   1      40.132  25.152  26.098  1.00  0.00     0.016 A 
ATOM     26  C   UNL A   1      38.871  24.381  28.018  1.00  0.00     0.016 A 
ATOM     27  C   UNL A   1      40.593  26.243  26.839  1.00  0.00     0.010 A 
ATOM     28  C   UNL A   1      39.256  25.521  28.721  1.00  0.00     0.010 A 
ATOM     29  C   UNL A   1      40.140  26.455  28.151  1.00  0.00    -0.014 A 
BRANCH  29  30
ATOM     30  C   UNL A   1      40.546  27.641  28.953  1.00  0.00     0.031 A 
ATOM     31  C   UNL A   1      41.781  27.574  29.811  1.00  0.00     0.074 A 
ATOM     32  C   UNL A   1      39.762  28.735  28.995  1.00  0.00     0.049 A 
ATOM     33  N   UNL A   1      42.120  28.313  30.835  1.00  0.00    -0.248 NA
ATOM     34  C   UNL A   1      42.753  26.518  29.485  1.00  0.00     0.031 C 
ATOM     35  C   UNL A   1      38.565  28.959  28.182  1.00  0.00     0.029 A 
ATOM     36  N   UNL A   1      39.838  29.856  29.787  1.00  0.00    -0.354 N 
ATOM     37  C   UNL A   1      43.306  27.772  31.319  1.00  0.00     0.074 A 
ATOM     38  C   UNL A   1      43.639  26.653  30.464  1.00  0.00     0.031 C 
ATOM     39  C   UNL A   1      38.019  30.136  28.516  1.00  0.00     0.029 A 
ATOM     40  C   UNL A   1      38.767  30.705  29.631  1.00  0.00     0.049 A 
ATOM     41  H   UNL A   1      40.584  30.034  30.403  1.00  0.00     0.167 HD
ATOM     42  C   UNL A   1      44.036  28.170  32.389  1.00  0.00     0.037 A 
ATOM     43  C   UNL A   1      38.385  31.781  30.346  1.00  0.00     0.037 A 
ATOM     44  C   UNL A   1      43.716  29.316  33.199  1.00  0.00     0.049 A 
ATOM     45  C   UNL A   1      39.190  32.192  31.543  1.00  0.00     0.074 A 
ATOM     46  C   UNL A   1      44.394  29.812  34.300  1.00  0.00     0.029 A 
ATOM     47  N   UNL A   1      42.634  30.158  32.985  1.00  0.00    -0.354 N 
ATOM     48  N   UNL A   1      40.269  31.634  32.037  1.00  0.00    -0.248 NA
ATOM     49  C   UNL A   1      38.719  33.363  32.294  1.00  0.00     0.031 C 
ATOM     50  C   UNL A   1      43.710  30.940  34.764  1.00  0.00     0.029 A 
ATOM     51  C   UNL A   1      42.625  31.166  33.934  1.00  0.00     0.049 A 
ATOM     52  H   UNL A   1      41.971  30.053  32.265  1.00  0.00     0.167 HD
ATOM     53  C   UNL A   1      40.614  32.393  33.147  1.00  0.00     0.074 A 
ATOM     54  C   UNL A   1      39.633  33.454  33.252  1.00  0.00     0.031 C 
ATOM     55  C   UNL A   1      41.649  32.225  34.005  1.00  0.00     0.037 A 
BRANCH  42  56
ATOM     56  C   UNL A   1      45.230  27.342  32.772  1.00  0.00     0.058 A 
ATOM     57  C   UNL A   1      46.509  27.596  32.256  1.00  0.00     0.135 A 
ATOM     58  C   UNL A   1      45.098  26.304  33.710  1.00  0.00     0.135 A 
ATOM     59  F   UNL A   1      46.690  28.567  31.346  1.00  0.00    -0.206 F 
ATOM     60  C   UNL A   1      47.613  26.837  32.639  1.00  0.00     0.059 A 
ATOM     61  C   UNL A   1      46.189  25.546  34.123  1.00  0.00     0.059 A 
ATOM     62  F   UNL A   1      43.896  26.019  34.236  1.00  0.00    -0.206 F 
ATOM     63  C   UNL A   1      47.441  25.812  33.572  1.00  0.00     0.060 A 
BRANCH  63  64
ATOM     64  S   UNL A   1      48.880  24.838  34.069  1.00  0.00     0.124 S 
ATOM     65  O   UNL A   1      49.336  25.574  35.244  1.00  0.00    -0.237 OA
ATOM     66  O   UNL A   1      48.297  23.526  34.330  1.00  0.00    -0.237 OA
ATOM     67  O   UNL A   1      49.757  24.910  32.904  1.00  0.00    -0.744 OA
ENDBRANCH  63  64
ENDBRANCH  42  56
BRANCH  43  68
ATOM     68  C   UNL A   1      37.142  32.504  29.969  1.00  0.00     0.058 A 
ATOM     69  C   UNL A   1      35.895  32.092  30.458  1.00  0.00     0.135 A 
ATOM     70  C   UNL A   1      37.184  33.651  29.161  1.00  0.00     0.135 A 
ATOM     71  F   UNL A   1      35.805  30.996  31.227  1.00  0.00    -0.206 F 
ATOM     72  C   UNL A   1      34.731  32.794  30.165  1.00  0.00     0.059 A 
ATOM     73  C   UNL A   1      36.038  34.383  28.872  1.00  0.00     0.059 A 
ATOM     74  F   UNL A   1      38.356  34.093  28.680  1.00  0.00    -0.206 F 
ATOM     75  C   UNL A   1      34.814  33.944  29.376  1.00  0.00     0.060 A 
BRANCH  75  76
ATOM     76  S   UNL A   1      33.312  34.900  29.070  1.00  0.00     0.124 S 
ATOM     77  O   UNL A   1      33.860  36.135  28.520  1.00  0.00    -0.237 OA
ATOM     78  O   UNL A   1      32.587  34.049  28.132  1.00  0.00    -0.237 OA
ATOM     79  O   UNL A   1      32.711  35.008  30.396  1.00  0.00    -0.744 OA
ENDBRANCH  75  76
ENDBRANCH  43  68
BRANCH  55  80
ATOM     80  C   UNL A   1      41.809  33.233  35.104  1.00  0.00     0.058 A 
ATOM     81  C   UNL A   1      42.584  34.389  34.933  1.00  0.00     0.135 A 
ATOM     82  C   UNL A   1      41.110  33.079  36.311  1.00  0.00     0.135 A 
ATOM     83  F   UNL A   1      43.278  34.575  33.798  1.00  0.00    -0.206 F 
ATOM     84  C   UNL A   1      42.662  35.361  35.924  1.00  0.00     0.059 A 
ATOM     85  C   UNL A   1      41.160  34.046  37.309  1.00  0.00     0.059 A 
ATOM     86  F   UNL A   1      40.351  31.991  36.518  1.00  0.00    -0.206 F 
ATOM     87  C   UNL A   1      41.941  35.183  37.106  1.00  0.00     0.060 A 
BRANCH  87  88
ATOM     88  S   UNL A   1      41.994  36.481  38.361  1.00  0.00     0.124 S 
ATOM     89  O   UNL A   1      42.449  35.739  39.532  1.00  0.00    -0.237 OA
ATOM     90  O   UNL A   1      42.954  37.424  37.797  1.00  0.00    -0.237 OA
ATOM     91  O   UNL A   1      40.616  36.957  38.414  1.00  0.00    -0.744 OA
ENDBRANCH  87  88
ENDBRANCH  55  80
ENDBRANCH  29  30
ENDBRANCH  22  24
ENDBRANCH  21  22
ENDBRANCH  20  21
ENDBRANCH   1  20
TORSDOF 17
ENDMDL
MODEL 3
REMARK VINA RESULT:     -10.3      0.950      1.247
REMARK SMILES C[C@H]1[C@@H](C(=O)OCCOC(=O)c2ccc(-c3c4nc(c(-c5c(F)cc(S(=O)(=O)[O-])cc5F)c5ccc([nH]5)c(-c5c(F)cc(S(=O)(=O)[O-])cc5F)c5nc(c(-c6c(F)cc(S(=O)(=O)[O-])cc6F)c6ccc3[nH]6)C=C5)C=C4)cc2)CC[N@@H+]1CC1(O)CCCC1
REMARK SMILES IDX 7 1 6 2 4 3 5 4 3 5 1 6 2 7 80 8 78 9 79 10 81 12 82 13
REMARK SMILES IDX 84 14 87 15 85 16 86 17 83 18 8 20 9 21 10 22 11 23 12 24
REMARK SMILES IDX 13 25 77 26 14 27 76 28 15 29 16 30 17 31 70 32 18 33 75 34
REMARK SMILES IDX 69 35 71 36 19 37 74 38 68 39 67 40 20 42 54 43 33 44 53 45
REMARK SMILES IDX 34 46 37 47 52 48 72 49 35 50 36 51 51 53 73 54 38 55 21 56
REMARK SMILES IDX 22 57 31 58 23 59 24 60 30 61 32 62 25 63 26 64 27 65 28 66
REMARK SMILES IDX 29 67 55 68 56 69 65 70 57 71 58 72 64 73 66 74 59 75 60 76
REMARK SMILES IDX 61 77 62 78 63 79 39 80 40 81 49 82 41 83 42 84 48 85 50 86
REMARK SMILES IDX 43 87 44 88 45 89 46 90 47 91
REMARK H PARENT 80 11 83 19 71 41 37 52
REMARK Flexibility Score: inf
ROOT
ATOM      1  C   UNL A   1      32.864  29.771  25.611  1.00  0.00     0.274 C 
ENDROOT
BRANCH   1   2
ATOM      2  O   UNL A   1      33.125  28.360  25.747  1.00  0.00    -0.462 OA
BRANCH   2   3
ATOM      3  C   UNL A   1      32.137  27.526  25.345  1.00  0.00     0.315 C 
ATOM      4  O   UNL A   1      31.226  27.844  24.588  1.00  0.00    -0.252 OA
BRANCH   3   5
ATOM      5  C   UNL A   1      32.294  26.107  25.845  1.00  0.00     0.162 C 
ATOM      6  C   UNL A   1      33.711  25.397  23.788  1.00  0.00     0.076 C 
ATOM      7  C   UNL A   1      33.369  25.190  25.266  1.00  0.00     0.195 C 
ATOM      8  N   UNL A   1      32.819  23.833  25.394  1.00  0.00    -0.330 N 
ATOM      9  C   UNL A   1      30.998  25.310  25.818  1.00  0.00     0.083 C 
ATOM     10  C   UNL A   1      31.365  23.936  25.295  1.00  0.00     0.263 C 
ATOM     11  H   UNL A   1      33.196  23.289  24.619  1.00  0.00     0.348 HD
BRANCH   8  12
ATOM     12  C   UNL A   1      33.307  22.983  26.486  1.00  0.00     0.297 C 
BRANCH  12  13
ATOM     13  C   UNL A   1      34.512  21.999  26.362  1.00  0.00     0.113 C 
ATOM     14  C   UNL A   1      35.785  22.567  25.735  1.00  0.00     0.041 C 
ATOM     15  C   UNL A   1      34.149  20.866  25.386  1.00  0.00     0.041 C 
ATOM     16  C   UNL A   1      36.494  21.389  25.060  1.00  0.00     0.003 C 
ATOM     17  C   UNL A   1      35.483  20.253  24.983  1.00  0.00     0.003 C 
BRANCH  13  18
ATOM     18  O   UNL A   1      34.808  21.420  27.635  1.00  0.00    -0.384 OA
ATOM     19  H   UNL A   1      34.852  22.120  28.306  1.00  0.00     0.211 HD
ENDBRANCH  13  18
ENDBRANCH  12  13
ENDBRANCH   8  12
ENDBRANCH   3   5
ENDBRANCH   2   3
ENDBRANCH   1   2
BRANCH   1  20
ATOM     20  C   UNL A   1      33.062  30.459  26.955  1.00  0.00     0.275 C 
BRANCH  20  21
ATOM     21  O   UNL A   1      34.166  29.848  27.645  1.00  0.00    -0.458 OA
BRANCH  21  22
ATOM     22  C   UNL A   1      34.878  30.678  28.440  1.00  0.00     0.338 C 
ATOM     23  O   UNL A   1      34.506  31.730  28.932  1.00  0.00    -0.246 OA
BRANCH  22  24
ATOM     24  C   UNL A   1      36.238  30.145  28.637  1.00  0.00     0.060 A 
ATOM     25  C   UNL A   1      36.688  29.753  29.900  1.00  0.00     0.016 A 
ATOM     26  C   UNL A   1      37.106  30.150  27.546  1.00  0.00     0.016 A 
ATOM     27  C   UNL A   1      38.036  29.434  30.085  1.00  0.00     0.010 A 
ATOM     28  C   UNL A   1      38.426  29.736  27.717  1.00  0.00     0.010 A 
ATOM     29  C   UNL A   1      38.915  29.396  28.992  1.00  0.00    -0.014 A 
BRANCH  29  30
ATOM     30  C   UNL A   1      40.341  28.991  29.128  1.00  0.00     0.031 A 
ATOM     31  C   UNL A   1      41.384  30.027  29.452  1.00  0.00     0.074 A 
ATOM     32  C   UNL A   1      40.717  27.725  28.865  1.00  0.00     0.049 A 
ATOM     33  N   UNL A   1      42.677  29.987  29.267  1.00  0.00    -0.248 NA
ATOM     34  C   UNL A   1      40.900  31.287  30.040  1.00  0.00     0.031 C 
ATOM     35  C   UNL A   1      39.813  26.607  28.586  1.00  0.00     0.029 A 
ATOM     36  N   UNL A   1      41.970  27.172  28.752  1.00  0.00    -0.354 N 
ATOM     37  C   UNL A   1      43.156  31.235  29.651  1.00  0.00     0.074 A 
ATOM     38  C   UNL A   1      42.014  32.005  30.097  1.00  0.00     0.031 C 
ATOM     39  C   UNL A   1      40.537  25.507  28.333  1.00  0.00     0.029 A 
ATOM     40  C   UNL A   1      41.951  25.862  28.335  1.00  0.00     0.049 A 
ATOM     41  H   UNL A   1      42.799  27.665  28.950  1.00  0.00     0.167 HD
ATOM     42  C   UNL A   1      44.430  31.693  29.617  1.00  0.00     0.037 A 
ATOM     43  C   UNL A   1      42.949  25.052  27.929  1.00  0.00     0.037 A 
ATOM     44  C   UNL A   1      45.560  30.897  29.217  1.00  0.00     0.049 A 
ATOM     45  C   UNL A   1      44.350  25.584  27.873  1.00  0.00     0.074 A 
ATOM     46  C   UNL A   1      46.895  31.262  29.155  1.00  0.00     0.029 A 
ATOM     47  N   UNL A   1      45.491  29.567  28.826  1.00  0.00    -0.354 N 
ATOM     48  N   UNL A   1      44.784  26.786  28.168  1.00  0.00    -0.248 NA
ATOM     49  C   UNL A   1      45.396  24.662  27.408  1.00  0.00     0.031 C 
ATOM     50  C   UNL A   1      47.629  30.158  28.706  1.00  0.00     0.029 A 
ATOM     51  C   UNL A   1      46.758  29.098  28.520  1.00  0.00     0.049 A 
ATOM     52  H   UNL A   1      44.664  29.037  28.775  1.00  0.00     0.167 HD
ATOM     53  C   UNL A   1      46.154  26.761  27.939  1.00  0.00     0.074 A 
ATOM     54  C   UNL A   1      46.479  25.424  27.486  1.00  0.00     0.031 C 
ATOM     55  C   UNL A   1      47.060  27.757  28.090  1.00  0.00     0.037 A 
BRANCH  42  56
ATOM     56  C   UNL A   1      44.670  33.131  29.986  1.00  0.00     0.058 A 
ATOM     57  C   UNL A   1      44.497  34.174  29.065  1.00  0.00     0.135 A 
ATOM     58  C   UNL A   1      45.033  33.471  31.300  1.00  0.00     0.135 A 
ATOM     59  F   UNL A   1      44.164  33.905  27.793  1.00  0.00    -0.206 F 
ATOM     60  C   UNL A   1      44.698  35.504  29.427  1.00  0.00     0.059 A 
ATOM     61  C   UNL A   1      45.219  34.793  31.690  1.00  0.00     0.059 A 
ATOM     62  F   UNL A   1      45.210  32.510  32.221  1.00  0.00    -0.206 F 
ATOM     63  C   UNL A   1      45.061  35.803  30.742  1.00  0.00     0.060 A 
BRANCH  63  64
ATOM     64  S   UNL A   1      45.312  37.532  31.204  1.00  0.00     0.124 S 
ATOM     65  O   UNL A   1      45.744  38.111  29.936  1.00  0.00    -0.237 OA
ATOM     66  O   UNL A   1      43.986  37.931  31.663  1.00  0.00    -0.237 OA
ATOM     67  O   UNL A   1      46.335  37.460  32.243  1.00  0.00    -0.744 OA
ENDBRANCH  63  64
ENDBRANCH  42  56
BRANCH  43  68
ATOM     68  C   UNL A   1      42.632  23.667  27.491  1.00  0.00     0.058 A 
ATOM     69  C   UNL A   1      42.488  23.360  26.131  1.00  0.00     0.135 A 
ATOM     70  C   UNL A   1      42.525  22.618  28.417  1.00  0.00     0.135 A 
ATOM     71  F   UNL A   1      42.573  24.332  25.211  1.00  0.00    -0.206 F 
ATOM     72  C   UNL A   1      42.253  22.058  25.701  1.00  0.00     0.059 A 
ATOM     73  C   UNL A   1      42.315  21.305  28.011  1.00  0.00     0.059 A 
ATOM     74  F   UNL A   1      42.671  22.860  29.729  1.00  0.00    -0.206 F 
ATOM     75  C   UNL A   1      42.175  21.036  26.650  1.00  0.00     0.060 A 
BRANCH  75  76
ATOM     76  S   UNL A   1      41.957  19.335  26.080  1.00  0.00     0.124 S 
ATOM     77  O   UNL A   1      42.426  18.578  27.235  1.00  0.00    -0.237 OA
ATOM     78  O   UNL A   1      40.522  19.276  25.818  1.00  0.00    -0.237 OA
ATOM     79  O   UNL A   1      42.804  19.271  24.893  1.00  0.00    -0.744 OA
ENDBRANCH  75  76
ENDBRANCH  43  68
BRANCH  55  80
ATOM     80  C   UNL A   1      48.497  27.432  27.810  1.00  0.00     0.058 A 
ATOM     81  C   UNL A   1      49.361  26.991  28.823  1.00  0.00     0.135 A 
ATOM     82  C   UNL A   1      48.991  27.486  26.497  1.00  0.00     0.135 A 
ATOM     83  F   UNL A   1      48.936  26.932  30.095  1.00  0.00    -0.206 F 
ATOM     84  C   UNL A   1      50.670  26.613  28.543  1.00  0.00     0.059 A 
ATOM     85  C   UNL A   1      50.291  27.098  26.193  1.00  0.00     0.059 A 
ATOM     86  F   UNL A   1      48.199  27.899  25.495  1.00  0.00    -0.206 F 
ATOM     87  C   UNL A   1      51.123  26.664  27.224  1.00  0.00     0.060 A 
BRANCH  87  88
ATOM     88  S   UNL A   1      52.802  26.108  26.859  1.00  0.00     0.124 S 
ATOM     89  O   UNL A   1      52.555  24.798  26.265  1.00  0.00    -0.237 OA
ATOM     90  O   UNL A   1      53.283  27.138  25.944  1.00  0.00    -0.237 OA
ATOM     91  O   UNL A   1      53.447  26.093  28.168  1.00  0.00    -0.744 OA
ENDBRANCH  87  88
ENDBRANCH  55  80
ENDBRANCH  29  30
ENDBRANCH  22  24
ENDBRANCH  21  22
ENDBRANCH  20  21
ENDBRANCH   1  20
TORSDOF 17
ENDMDL
