MODEL 1
REMARK VINA RESULT:     -10.0      0.000      0.000
REMARK SMILES [NH3+][C@@H](CCCC(=O)OCCOC(=O)c1ccc(-c2c3nc(c(-c4c(F)cc(S(=O)(=O)[O-])cc4F)c4ccc([nH]4)c(-c4c(F)cc(S(=O)(=O)[O-])cc4F)c4nc(c(-c5c(F)cc(S(=O)(=O)[O-])cc5F)c5ccc2[nH]5)C=C4)C=C3)cc1)c1cnc2[nH]ccc2c1
REMARK SMILES IDX 9 1 8 2 6 3 7 4 5 5 4 6 3 7 2 8 1 9 80 13 81 14 88 15 82 16
REMARK SMILES IDX 87 17 83 18 86 19 84 20 85 21 10 23 11 24 12 25 13 26 14 27
REMARK SMILES IDX 15 28 79 29 16 30 78 31 17 32 18 33 19 34 72 35 20 36 77 37
REMARK SMILES IDX 71 38 73 39 21 40 76 41 70 42 69 43 22 45 56 46 35 47 55 48
REMARK SMILES IDX 36 49 39 50 54 51 74 52 37 53 38 54 53 56 75 57 40 58 23 59
REMARK SMILES IDX 24 60 33 61 25 62 26 63 32 64 34 65 27 66 28 67 29 68 30 69
REMARK SMILES IDX 31 70 57 71 58 72 67 73 59 74 60 75 66 76 68 77 61 78 62 79
REMARK SMILES IDX 63 80 64 81 65 82 41 83 42 84 51 85 43 86 44 87 50 88 52 89
REMARK SMILES IDX 45 90 46 91 47 92 48 93 49 94
REMARK H PARENT 1 10 1 11 1 12 84 22 73 44 39 55
REMARK Flexibility Score: inf
ROOT
ATOM      1  C   UNL A   1      40.937  19.819  26.251  1.00  0.00     0.274 C 
ENDROOT
BRANCH   1   2
ATOM      2  O   UNL A   1      42.239  20.059  25.704  1.00  0.00    -0.462 OA
BRANCH   2   3
ATOM      3  C   UNL A   1      43.010  18.952  25.546  1.00  0.00     0.305 C 
ATOM      4  O   UNL A   1      42.676  17.802  25.789  1.00  0.00    -0.252 OA
BRANCH   3   5
ATOM      5  C   UNL A   1      44.340  19.350  24.972  1.00  0.00     0.123 C 
BRANCH   5   6
ATOM      6  C   UNL A   1      44.719  20.814  25.202  1.00  0.00     0.018 C 
BRANCH   6   7
ATOM      7  C   UNL A   1      44.462  21.800  24.037  1.00  0.00     0.071 C 
BRANCH   7   8
ATOM      8  C   UNL A   1      45.247  23.129  23.951  1.00  0.00     0.213 C 
BRANCH   8   9
ATOM      9  N   UNL A   1      46.677  22.735  23.959  1.00  0.00    -0.351 N 
ATOM     10  H   UNL A   1      47.251  23.532  23.680  1.00  0.00     0.345 HD
ATOM     11  H   UNL A   1      46.822  21.967  23.305  1.00  0.00     0.345 HD
ATOM     12  H   UNL A   1      46.943  22.437  24.898  1.00  0.00     0.345 HD
ENDBRANCH   8   9
BRANCH   8  13
ATOM     13  C   UNL A   1      45.044  24.265  24.969  1.00  0.00     0.028 A 
ATOM     14  C   UNL A   1      46.195  24.642  25.667  1.00  0.00     0.123 A 
ATOM     15  C   UNL A   1      43.846  24.369  25.664  1.00  0.00     0.023 A 
ATOM     16  N   UNL A   1      46.336  24.521  27.007  1.00  0.00    -0.238 NA
ATOM     17  C   UNL A   1      43.952  23.978  27.000  1.00  0.00     0.019 A 
ATOM     18  C   UNL A   1      45.211  24.049  27.581  1.00  0.00     0.137 A 
ATOM     19  C   UNL A   1      43.078  23.385  27.945  1.00  0.00     0.029 A 
ATOM     20  N   UNL A   1      45.130  23.461  28.811  1.00  0.00    -0.346 N 
ATOM     21  C   UNL A   1      43.856  22.986  29.013  1.00  0.00     0.085 A 
ATOM     22  H   UNL A   1      45.871  23.388  29.455  1.00  0.00     0.167 HD
ENDBRANCH   8  13
ENDBRANCH   7   8
ENDBRANCH   6   7
ENDBRANCH   5   6
ENDBRANCH   3   5
ENDBRANCH   2   3
ENDBRANCH   1   2
BRANCH   1  23
ATOM     23  C   UNL A   1      40.539  21.083  27.008  1.00  0.00     0.275 C 
BRANCH  23  24
ATOM     24  O   UNL A   1      40.521  22.198  26.092  1.00  0.00    -0.458 OA
BRANCH  24  25
ATOM     25  C   UNL A   1      39.366  22.901  26.030  1.00  0.00     0.338 C 
ATOM     26  O   UNL A   1      38.330  22.568  25.485  1.00  0.00    -0.246 OA
BRANCH  25  27
ATOM     27  C   UNL A   1      39.531  24.201  26.704  1.00  0.00     0.060 A 
ATOM     28  C   UNL A   1      40.338  25.205  26.159  1.00  0.00     0.016 A 
ATOM     29  C   UNL A   1      38.962  24.363  27.967  1.00  0.00     0.016 A 
ATOM     30  C   UNL A   1      40.625  26.352  26.907  1.00  0.00     0.010 A 
ATOM     31  C   UNL A   1      39.204  25.533  28.688  1.00  0.00     0.010 A 
ATOM     32  C   UNL A   1      40.069  26.521  28.184  1.00  0.00    -0.014 A 
BRANCH  32  33
ATOM     33  C   UNL A   1      40.436  27.673  29.052  1.00  0.00     0.031 A 
ATOM     34  C   UNL A   1      41.698  27.601  29.874  1.00  0.00     0.074 A 
ATOM     35  C   UNL A   1      39.636  28.751  29.148  1.00  0.00     0.049 A 
ATOM     36  N   UNL A   1      42.093  28.365  30.860  1.00  0.00    -0.248 NA
ATOM     37  C   UNL A   1      42.627  26.506  29.554  1.00  0.00     0.031 C 
ATOM     38  C   UNL A   1      38.408  28.969  28.384  1.00  0.00     0.029 A 
ATOM     39  N   UNL A   1      39.729  29.861  29.953  1.00  0.00    -0.354 N 
ATOM     40  C   UNL A   1      43.290  27.817  31.309  1.00  0.00     0.074 A 
ATOM     41  C   UNL A   1      43.551  26.649  30.494  1.00  0.00     0.031 C 
ATOM     42  C   UNL A   1      37.860  30.138  28.757  1.00  0.00     0.029 A 
ATOM     43  C   UNL A   1      38.665  30.721  29.827  1.00  0.00     0.049 A 
ATOM     44  H   UNL A   1      40.486  30.023  30.560  1.00  0.00     0.167 HD
ATOM     45  C   UNL A   1      44.096  28.245  32.310  1.00  0.00     0.037 A 
ATOM     46  C   UNL A   1      38.351  31.831  30.523  1.00  0.00     0.037 A 
ATOM     47  C   UNL A   1      43.853  29.431  33.092  1.00  0.00     0.049 A 
ATOM     48  C   UNL A   1      39.252  32.283  31.640  1.00  0.00     0.074 A 
ATOM     49  C   UNL A   1      44.615  29.959  34.120  1.00  0.00     0.029 A 
ATOM     50  N   UNL A   1      42.769  30.280  32.922  1.00  0.00    -0.354 N 
ATOM     51  N   UNL A   1      40.358  31.732  32.084  1.00  0.00    -0.248 NA
ATOM     52  C   UNL A   1      38.859  33.504  32.357  1.00  0.00     0.031 C 
ATOM     53  C   UNL A   1      43.979  31.116  34.588  1.00  0.00     0.029 A 
ATOM     54  C   UNL A   1      42.841  31.327  33.827  1.00  0.00     0.049 A 
ATOM     55  H   UNL A   1      42.055  30.158  32.256  1.00  0.00     0.167 HD
ATOM     56  C   UNL A   1      40.799  32.547  33.121  1.00  0.00     0.074 A 
ATOM     57  C   UNL A   1      39.851  33.637  33.227  1.00  0.00     0.031 C 
ATOM     58  C   UNL A   1      41.888  32.405  33.916  1.00  0.00     0.037 A 
BRANCH  45  59
ATOM     59  C   UNL A   1      45.306  27.412  32.633  1.00  0.00     0.058 A 
ATOM     60  C   UNL A   1      45.262  26.378  33.582  1.00  0.00     0.135 A 
ATOM     61  C   UNL A   1      46.523  27.641  31.972  1.00  0.00     0.135 A 
ATOM     62  F   UNL A   1      44.130  26.128  34.259  1.00  0.00    -0.206 F 
ATOM     63  C   UNL A   1      46.390  25.621  33.885  1.00  0.00     0.059 A 
ATOM     64  C   UNL A   1      47.657  26.880  32.240  1.00  0.00     0.059 A 
ATOM     65  F   UNL A   1      46.621  28.618  31.055  1.00  0.00    -0.206 F 
ATOM     66  C   UNL A   1      47.585  25.883  33.211  1.00  0.00     0.060 A 
BRANCH  66  67
ATOM     67  S   UNL A   1      49.043  24.898  33.617  1.00  0.00     0.124 S 
ATOM     68  O   UNL A   1      48.433  23.691  34.167  1.00  0.00    -0.237 OA
ATOM     69  O   UNL A   1      49.690  24.743  32.317  1.00  0.00    -0.237 OA
ATOM     70  O   UNL A   1      49.761  25.731  34.574  1.00  0.00    -0.744 OA
ENDBRANCH  66  67
ENDBRANCH  45  59
BRANCH  46  71
ATOM     71  C   UNL A   1      37.111  32.585  30.198  1.00  0.00     0.058 A 
ATOM     72  C   UNL A   1      35.914  32.333  30.885  1.00  0.00     0.135 A 
ATOM     73  C   UNL A   1      37.098  33.573  29.202  1.00  0.00     0.135 A 
ATOM     74  F   UNL A   1      35.875  31.388  31.837  1.00  0.00    -0.206 F 
ATOM     75  C   UNL A   1      34.745  33.027  30.590  1.00  0.00     0.059 A 
ATOM     76  C   UNL A   1      35.948  34.297  28.906  1.00  0.00     0.059 A 
ATOM     77  F   UNL A   1      38.220  33.859  28.523  1.00  0.00    -0.206 F 
ATOM     78  C   UNL A   1      34.773  34.010  29.600  1.00  0.00     0.060 A 
BRANCH  78  79
ATOM     79  S   UNL A   1      33.265  34.944  29.260  1.00  0.00     0.124 S 
ATOM     80  O   UNL A   1      32.635  34.973  30.575  1.00  0.00    -0.237 OA
ATOM     81  O   UNL A   1      33.791  36.216  28.775  1.00  0.00    -0.237 OA
ATOM     82  O   UNL A   1      32.589  34.131  28.253  1.00  0.00    -0.744 OA
ENDBRANCH  78  79
ENDBRANCH  46  71
BRANCH  58  83
ATOM     83  C   UNL A   1      42.126  33.474  34.944  1.00  0.00     0.058 A 
ATOM     84  C   UNL A   1      41.773  33.294  36.290  1.00  0.00     0.135 A 
ATOM     85  C   UNL A   1      42.727  34.690  34.580  1.00  0.00     0.135 A 
ATOM     86  F   UNL A   1      41.191  32.152  36.689  1.00  0.00    -0.206 F 
ATOM     87  C   UNL A   1      41.974  34.297  37.235  1.00  0.00     0.059 A 
ATOM     88  C   UNL A   1      42.959  35.698  35.512  1.00  0.00     0.059 A 
ATOM     89  F   UNL A   1      43.095  34.908  33.308  1.00  0.00    -0.206 F 
ATOM     90  C   UNL A   1      42.562  35.498  36.834  1.00  0.00     0.060 A 
BRANCH  90  91
ATOM     91  S   UNL A   1      42.820  36.794  38.064  1.00  0.00     0.124 S 
ATOM     92  O   UNL A   1      41.453  37.243  38.307  1.00  0.00    -0.237 OA
ATOM     93  O   UNL A   1      43.453  36.068  39.161  1.00  0.00    -0.237 OA
ATOM     94  O   UNL A   1      43.682  37.748  37.373  1.00  0.00    -0.744 OA
ENDBRANCH  90  91
ENDBRANCH  58  83
ENDBRANCH  32  33
ENDBRANCH  25  27
ENDBRANCH  24  25
ENDBRANCH  23  24
ENDBRANCH   1  23
TORSDOF 19
ENDMDL
MODEL 2
REMARK VINA RESULT:      -9.8      4.324     10.715
REMARK SMILES [NH3+][C@@H](CCCC(=O)OCCOC(=O)c1ccc(-c2c3nc(c(-c4c(F)cc(S(=O)(=O)[O-])cc4F)c4ccc([nH]4)c(-c4c(F)cc(S(=O)(=O)[O-])cc4F)c4nc(c(-c5c(F)cc(S(=O)(=O)[O-])cc5F)c5ccc2[nH]5)C=C4)C=C3)cc1)c1cnc2[nH]ccc2c1
REMARK SMILES IDX 9 1 8 2 6 3 7 4 5 5 4 6 3 7 2 8 1 9 80 13 81 14 88 15 82 16
REMARK SMILES IDX 87 17 83 18 86 19 84 20 85 21 10 23 11 24 12 25 13 26 14 27
REMARK SMILES IDX 15 28 79 29 16 30 78 31 17 32 18 33 19 34 72 35 20 36 77 37
REMARK SMILES IDX 71 38 73 39 21 40 76 41 70 42 69 43 22 45 56 46 35 47 55 48
REMARK SMILES IDX 36 49 39 50 54 51 74 52 37 53 38 54 53 56 75 57 40 58 23 59
REMARK SMILES IDX 24 60 33 61 25 62 26 63 32 64 34 65 27 66 28 67 29 68 30 69
REMARK SMILES IDX 31 70 57 71 58 72 67 73 59 74 60 75 66 76 68 77 61 78 62 79
REMARK SMILES IDX 63 80 64 81 65 82 41 83 42 84 51 85 43 86 44 87 50 88 52 89
REMARK SMILES IDX 45 90 46 91 47 92 48 93 49 94
REMARK H PARENT 1 10 1 11 1 12 84 22 73 44 39 55
REMARK Flexibility Score: inf
ROOT
ATOM      1  C   UNL A   1      32.007  30.127  25.666  1.00  0.00     0.274 C 
ENDROOT
BRANCH   1   2
ATOM      2  O   UNL A   1      32.747  28.953  25.307  1.00  0.00    -0.462 OA
BRANCH   2   3
ATOM      3  C   UNL A   1      32.062  27.785  25.418  1.00  0.00     0.305 C 
ATOM      4  O   UNL A   1      30.951  27.556  24.961  1.00  0.00    -0.252 OA
BRANCH   3   5
ATOM      5  C   UNL A   1      32.902  26.784  26.157  1.00  0.00     0.123 C 
BRANCH   5   6
ATOM      6  C   UNL A   1      32.561  25.323  25.855  1.00  0.00     0.018 C 
BRANCH   6   7
ATOM      7  C   UNL A   1      33.525  24.246  26.405  1.00  0.00     0.071 C 
BRANCH   7   8
ATOM      8  C   UNL A   1      33.670  22.885  25.685  1.00  0.00     0.213 C 
BRANCH   8   9
ATOM      9  N   UNL A   1      33.712  21.876  26.772  1.00  0.00    -0.351 N 
ATOM     10  H   UNL A   1      33.368  20.981  26.419  1.00  0.00     0.345 HD
ATOM     11  H   UNL A   1      33.123  22.183  27.545  1.00  0.00     0.345 HD
ATOM     12  H   UNL A   1      34.672  21.766  27.099  1.00  0.00     0.345 HD
ENDBRANCH   8   9
BRANCH   8  13
ATOM     13  C   UNL A   1      34.821  22.599  24.704  1.00  0.00     0.028 A 
ATOM     14  C   UNL A   1      35.189  21.254  24.606  1.00  0.00     0.123 A 
ATOM     15  C   UNL A   1      35.842  23.525  24.542  1.00  0.00     0.023 A 
ATOM     16  N   UNL A   1      36.409  20.780  24.952  1.00  0.00    -0.238 NA
ATOM     17  C   UNL A   1      37.039  23.134  25.147  1.00  0.00     0.019 A 
ATOM     18  C   UNL A   1      37.231  21.774  25.345  1.00  0.00     0.137 A 
ATOM     19  C   UNL A   1      38.127  23.813  25.751  1.00  0.00     0.029 A 
ATOM     20  N   UNL A   1      38.360  21.624  26.100  1.00  0.00    -0.346 N 
ATOM     21  C   UNL A   1      38.871  22.860  26.416  1.00  0.00     0.085 A 
ATOM     22  H   UNL A   1      38.747  20.762  26.375  1.00  0.00     0.167 HD
ENDBRANCH   8  13
ENDBRANCH   7   8
ENDBRANCH   6   7
ENDBRANCH   5   6
ENDBRANCH   3   5
ENDBRANCH   2   3
ENDBRANCH   1   2
BRANCH   1  23
ATOM     23  C   UNL A   1      32.455  30.514  27.072  1.00  0.00     0.275 C 
BRANCH  23  24
ATOM     24  O   UNL A   1      33.829  30.115  27.261  1.00  0.00    -0.458 OA
BRANCH  24  25
ATOM     25  C   UNL A   1      34.540  30.830  28.161  1.00  0.00     0.338 C 
ATOM     26  O   UNL A   1      34.208  31.868  28.706  1.00  0.00    -0.246 OA
BRANCH  25  27
ATOM     27  C   UNL A   1      35.849  30.194  28.390  1.00  0.00     0.060 A 
ATOM     28  C   UNL A   1      36.240  29.772  29.665  1.00  0.00     0.016 A 
ATOM     29  C   UNL A   1      36.745  30.134  27.323  1.00  0.00     0.016 A 
ATOM     30  C   UNL A   1      37.554  29.345  29.885  1.00  0.00     0.010 A 
ATOM     31  C   UNL A   1      38.038  29.653  27.534  1.00  0.00     0.010 A 
ATOM     32  C   UNL A   1      38.468  29.292  28.824  1.00  0.00    -0.014 A 
BRANCH  32  33
ATOM     33  C   UNL A   1      39.900  28.948  29.039  1.00  0.00     0.031 A 
ATOM     34  C   UNL A   1      40.846  30.014  29.532  1.00  0.00     0.074 A 
ATOM     35  C   UNL A   1      40.367  27.718  28.756  1.00  0.00     0.049 A 
ATOM     36  N   UNL A   1      42.154  30.012  29.570  1.00  0.00    -0.248 NA
ATOM     37  C   UNL A   1      40.233  31.255  30.030  1.00  0.00     0.031 C 
ATOM     38  C   UNL A   1      39.559  26.584  28.308  1.00  0.00     0.029 A 
ATOM     39  N   UNL A   1      41.650  27.225  28.781  1.00  0.00    -0.354 N 
ATOM     40  C   UNL A   1      42.521  31.266  30.048  1.00  0.00     0.074 A 
ATOM     41  C   UNL A   1      41.298  32.005  30.278  1.00  0.00     0.031 C 
ATOM     42  C   UNL A   1      40.363  25.528  28.099  1.00  0.00     0.029 A 
ATOM     43  C   UNL A   1      41.747  25.927  28.339  1.00  0.00     0.049 A 
ATOM     44  H   UNL A   1      42.423  27.750  29.088  1.00  0.00     0.167 HD
ATOM     45  C   UNL A   1      43.764  31.757  30.272  1.00  0.00     0.037 A 
ATOM     46  C   UNL A   1      42.831  25.160  28.113  1.00  0.00     0.037 A 
ATOM     47  C   UNL A   1      44.977  31.003  30.080  1.00  0.00     0.049 A 
ATOM     48  C   UNL A   1      44.203  25.728  28.355  1.00  0.00     0.074 A 
ATOM     49  C   UNL A   1      46.286  31.404  30.291  1.00  0.00     0.029 A 
ATOM     50  N   UNL A   1      45.030  29.688  29.643  1.00  0.00    -0.354 N 
ATOM     51  N   UNL A   1      44.539  26.929  28.765  1.00  0.00    -0.248 NA
ATOM     52  C   UNL A   1      45.344  24.840  28.096  1.00  0.00     0.031 C 
ATOM     53  C   UNL A   1      47.130  30.338  29.959  1.00  0.00     0.029 A 
ATOM     54  C   UNL A   1      46.346  29.262  29.576  1.00  0.00     0.049 A 
ATOM     55  H   UNL A   1      44.246  29.137  29.415  1.00  0.00     0.167 HD
ATOM     56  C   UNL A   1      45.928  26.934  28.828  1.00  0.00     0.074 A 
ATOM     57  C   UNL A   1      46.369  25.612  28.430  1.00  0.00     0.031 C 
ATOM     58  C   UNL A   1      46.765  27.941  29.179  1.00  0.00     0.037 A 
BRANCH  45  59
ATOM     59  C   UNL A   1      43.875  33.185  30.728  1.00  0.00     0.058 A 
ATOM     60  C   UNL A   1      43.883  33.532  32.089  1.00  0.00     0.135 A 
ATOM     61  C   UNL A   1      43.993  34.223  29.789  1.00  0.00     0.135 A 
ATOM     62  F   UNL A   1      43.754  32.582  33.029  1.00  0.00    -0.206 F 
ATOM     63  C   UNL A   1      43.973  34.858  32.501  1.00  0.00     0.059 A 
ATOM     64  C   UNL A   1      44.109  35.554  30.179  1.00  0.00     0.059 A 
ATOM     65  F   UNL A   1      43.991  33.948  28.475  1.00  0.00    -0.206 F 
ATOM     66  C   UNL A   1      44.080  35.863  31.538  1.00  0.00     0.060 A 
BRANCH  66  67
ATOM     67  S   UNL A   1      44.190  37.581  32.085  1.00  0.00     0.124 S 
ATOM     68  O   UNL A   1      45.608  37.689  32.414  1.00  0.00    -0.237 OA
ATOM     69  O   UNL A   1      43.758  38.317  30.901  1.00  0.00    -0.237 OA
ATOM     70  O   UNL A   1      43.276  37.635  33.220  1.00  0.00    -0.744 OA
ENDBRANCH  66  67
ENDBRANCH  45  59
BRANCH  46  71
ATOM     71  C   UNL A   1      42.665  23.771  27.606  1.00  0.00     0.058 A 
ATOM     72  C   UNL A   1      42.550  22.691  28.493  1.00  0.00     0.135 A 
ATOM     73  C   UNL A   1      42.610  23.498  26.231  1.00  0.00     0.135 A 
ATOM     74  F   UNL A   1      42.610  22.901  29.817  1.00  0.00    -0.206 F 
ATOM     75  C   UNL A   1      42.399  21.385  28.035  1.00  0.00     0.059 A 
ATOM     76  C   UNL A   1      42.435  22.205  25.749  1.00  0.00     0.059 A 
ATOM     77  F   UNL A   1      42.704  24.499  25.342  1.00  0.00    -0.206 F 
ATOM     78  C   UNL A   1      42.339  21.154  26.660  1.00  0.00     0.060 A 
BRANCH  78  79
ATOM     79  S   UNL A   1      42.087  19.464  26.074  1.00  0.00     0.124 S 
ATOM     80  O   UNL A   1      42.546  18.685  27.218  1.00  0.00    -0.237 OA
ATOM     81  O   UNL A   1      40.650  19.436  25.818  1.00  0.00    -0.237 OA
ATOM     82  O   UNL A   1      42.928  19.395  24.883  1.00  0.00    -0.744 OA
ENDBRANCH  78  79
ENDBRANCH  46  71
BRANCH  58  83
ATOM     83  C   UNL A   1      48.237  27.637  29.181  1.00  0.00     0.058 A 
ATOM     84  C   UNL A   1      48.886  27.142  30.322  1.00  0.00     0.135 A 
ATOM     85  C   UNL A   1      49.004  27.833  28.022  1.00  0.00     0.135 A 
ATOM     86  F   UNL A   1      48.197  26.943  31.457  1.00  0.00    -0.206 F 
ATOM     87  C   UNL A   1      50.253  26.884  30.327  1.00  0.00     0.059 A 
ATOM     88  C   UNL A   1      50.369  27.560  27.996  1.00  0.00     0.059 A 
ATOM     89  F   UNL A   1      48.430  28.293  26.899  1.00  0.00    -0.206 F 
ATOM     90  C   UNL A   1      50.988  27.103  29.159  1.00  0.00     0.060 A 
BRANCH  90  91
ATOM     91  S   UNL A   1      52.762  26.766  29.171  1.00  0.00     0.124 S 
ATOM     92  O   UNL A   1      53.315  28.116  29.195  1.00  0.00    -0.237 OA
ATOM     93  O   UNL A   1      52.929  25.991  30.396  1.00  0.00    -0.237 OA
ATOM     94  O   UNL A   1      52.972  26.022  27.933  1.00  0.00    -0.744 OA
ENDBRANCH  90  91
ENDBRANCH  58  83
ENDBRANCH  32  33
ENDBRANCH  25  27
ENDBRANCH  24  25
ENDBRANCH  23  24
ENDBRANCH   1  23
TORSDOF 19
ENDMDL
MODEL 3
REMARK VINA RESULT:      -9.7      0.860      1.868
REMARK SMILES [NH3+][C@@H](CCCC(=O)OCCOC(=O)c1ccc(-c2c3nc(c(-c4c(F)cc(S(=O)(=O)[O-])cc4F)c4ccc([nH]4)c(-c4c(F)cc(S(=O)(=O)[O-])cc4F)c4nc(c(-c5c(F)cc(S(=O)(=O)[O-])cc5F)c5ccc2[nH]5)C=C4)C=C3)cc1)c1cnc2[nH]ccc2c1
REMARK SMILES IDX 9 1 8 2 6 3 7 4 5 5 4 6 3 7 2 8 1 9 80 13 81 14 88 15 82 16
REMARK SMILES IDX 87 17 83 18 86 19 84 20 85 21 10 23 11 24 12 25 13 26 14 27
REMARK SMILES IDX 15 28 79 29 16 30 78 31 17 32 18 33 19 34 72 35 20 36 77 37
REMARK SMILES IDX 71 38 73 39 21 40 76 41 70 42 69 43 22 45 56 46 35 47 55 48
REMARK SMILES IDX 36 49 39 50 54 51 74 52 37 53 38 54 53 56 75 57 40 58 23 59
REMARK SMILES IDX 24 60 33 61 25 62 26 63 32 64 34 65 27 66 28 67 29 68 30 69
REMARK SMILES IDX 31 70 57 71 58 72 67 73 59 74 60 75 66 76 68 77 61 78 62 79
REMARK SMILES IDX 63 80 64 81 65 82 41 83 42 84 51 85 43 86 44 87 50 88 52 89
REMARK SMILES IDX 45 90 46 91 47 92 48 93 49 94
REMARK H PARENT 1 10 1 11 1 12 84 22 73 44 39 55
REMARK Flexibility Score: inf
ROOT
ATOM      1  C   UNL A   1      41.785  20.093  26.582  1.00  0.00     0.274 C 
ENDROOT
BRANCH   1   2
ATOM      2  O   UNL A   1      42.541  19.968  25.371  1.00  0.00    -0.462 OA
BRANCH   2   3
ATOM      3  C   UNL A   1      43.411  18.926  25.340  1.00  0.00     0.305 C 
ATOM      4  O   UNL A   1      43.162  17.771  25.655  1.00  0.00    -0.252 OA
BRANCH   3   5
ATOM      5  C   UNL A   1      44.734  19.397  24.808  1.00  0.00     0.123 C 
BRANCH   5   6
ATOM      6  C   UNL A   1      44.785  20.886  24.459  1.00  0.00     0.018 C 
BRANCH   6   7
ATOM      7  C   UNL A   1      44.958  21.879  25.631  1.00  0.00     0.071 C 
BRANCH   7   8
ATOM      8  C   UNL A   1      43.891  22.966  25.899  1.00  0.00     0.213 C 
BRANCH   8   9
ATOM      9  N   UNL A   1      43.051  22.992  24.675  1.00  0.00    -0.351 N 
ATOM     10  H   UNL A   1      43.261  22.174  24.102  1.00  0.00     0.345 HD
ATOM     11  H   UNL A   1      43.251  23.839  24.144  1.00  0.00     0.345 HD
ATOM     12  H   UNL A   1      42.066  22.979  24.938  1.00  0.00     0.345 HD
ENDBRANCH   8   9
BRANCH   8  13
ATOM     13  C   UNL A   1      44.271  24.412  26.265  1.00  0.00     0.028 A 
ATOM     14  C   UNL A   1      44.497  25.255  25.174  1.00  0.00     0.123 A 
ATOM     15  C   UNL A   1      45.031  24.663  27.400  1.00  0.00     0.023 A 
ATOM     16  N   UNL A   1      45.689  25.838  24.908  1.00  0.00    -0.238 NA
ATOM     17  C   UNL A   1      46.352  25.008  27.109  1.00  0.00     0.019 A 
ATOM     18  C   UNL A   1      46.603  25.548  25.856  1.00  0.00     0.137 A 
ATOM     19  C   UNL A   1      47.601  24.837  27.758  1.00  0.00     0.029 A 
ATOM     20  N   UNL A   1      47.958  25.644  25.712  1.00  0.00    -0.346 N 
ATOM     21  C   UNL A   1      48.577  25.145  26.833  1.00  0.00     0.085 A 
ATOM     22  H   UNL A   1      48.420  26.014  24.926  1.00  0.00     0.167 HD
ENDBRANCH   8  13
ENDBRANCH   7   8
ENDBRANCH   6   7
ENDBRANCH   5   6
ENDBRANCH   3   5
ENDBRANCH   2   3
ENDBRANCH   1   2
BRANCH   1  23
ATOM     23  C   UNL A   1      40.437  20.694  26.197  1.00  0.00     0.275 C 
BRANCH  23  24
ATOM     24  O   UNL A   1      40.554  22.132  26.149  1.00  0.00    -0.458 OA
BRANCH  24  25
ATOM     25  C   UNL A   1      39.393  22.824  26.101  1.00  0.00     0.338 C 
ATOM     26  O   UNL A   1      38.346  22.472  25.588  1.00  0.00    -0.246 OA
BRANCH  25  27
ATOM     27  C   UNL A   1      39.564  24.139  26.744  1.00  0.00     0.060 A 
ATOM     28  C   UNL A   1      40.423  25.104  26.208  1.00  0.00     0.016 A 
ATOM     29  C   UNL A   1      38.942  24.355  27.973  1.00  0.00     0.016 A 
ATOM     30  C   UNL A   1      40.707  26.265  26.935  1.00  0.00     0.010 A 
ATOM     31  C   UNL A   1      39.183  25.540  28.670  1.00  0.00     0.010 A 
ATOM     32  C   UNL A   1      40.098  26.488  28.178  1.00  0.00    -0.014 A 
BRANCH  32  33
ATOM     33  C   UNL A   1      40.458  27.655  29.029  1.00  0.00     0.031 A 
ATOM     34  C   UNL A   1      41.715  27.601  29.859  1.00  0.00     0.074 A 
ATOM     35  C   UNL A   1      39.654  28.733  29.102  1.00  0.00     0.049 A 
ATOM     36  N   UNL A   1      42.103  28.383  30.833  1.00  0.00    -0.248 NA
ATOM     37  C   UNL A   1      42.649  26.503  29.562  1.00  0.00     0.031 C 
ATOM     38  C   UNL A   1      38.430  28.934  28.328  1.00  0.00     0.029 A 
ATOM     39  N   UNL A   1      39.740  29.856  29.889  1.00  0.00    -0.354 N 
ATOM     40  C   UNL A   1      43.299  27.845  31.297  1.00  0.00     0.074 A 
ATOM     41  C   UNL A   1      43.568  26.665  30.503  1.00  0.00     0.031 C 
ATOM     42  C   UNL A   1      37.876  30.107  28.679  1.00  0.00     0.029 A 
ATOM     43  C   UNL A   1      38.674  30.710  29.743  1.00  0.00     0.049 A 
ATOM     44  H   UNL A   1      40.493  30.031  30.497  1.00  0.00     0.167 HD
ATOM     45  C   UNL A   1      44.100  28.293  32.295  1.00  0.00     0.037 A 
ATOM     46  C   UNL A   1      38.353  31.831  30.419  1.00  0.00     0.037 A 
ATOM     47  C   UNL A   1      43.848  29.491  33.056  1.00  0.00     0.049 A 
ATOM     48  C   UNL A   1      39.247  32.304  31.533  1.00  0.00     0.074 A 
ATOM     49  C   UNL A   1      44.604  30.039  34.078  1.00  0.00     0.029 A 
ATOM     50  N   UNL A   1      42.764  30.334  32.866  1.00  0.00    -0.354 N 
ATOM     51  N   UNL A   1      40.352  31.764  31.992  1.00  0.00    -0.248 NA
ATOM     52  C   UNL A   1      38.847  33.536  32.227  1.00  0.00     0.031 C 
ATOM     53  C   UNL A   1      43.963  31.201  34.524  1.00  0.00     0.029 A 
ATOM     54  C   UNL A   1      42.828  31.396  33.754  1.00  0.00     0.049 A 
ATOM     55  H   UNL A   1      42.053  30.199  32.199  1.00  0.00     0.167 HD
ATOM     56  C   UNL A   1      40.786  32.598  33.017  1.00  0.00     0.074 A 
ATOM     57  C   UNL A   1      39.834  33.687  33.099  1.00  0.00     0.031 C 
ATOM     58  C   UNL A   1      41.871  32.473  33.820  1.00  0.00     0.037 A 
BRANCH  45  59
ATOM     59  C   UNL A   1      45.310  27.469  32.639  1.00  0.00     0.058 A 
ATOM     60  C   UNL A   1      46.524  27.610  31.947  1.00  0.00     0.135 A 
ATOM     61  C   UNL A   1      45.259  26.536  33.687  1.00  0.00     0.135 A 
ATOM     62  F   UNL A   1      46.623  28.473  30.924  1.00  0.00    -0.206 F 
ATOM     63  C   UNL A   1      47.634  26.834  32.263  1.00  0.00     0.059 A 
ATOM     64  C   UNL A   1      46.365  25.767  34.037  1.00  0.00     0.059 A 
ATOM     65  F   UNL A   1      44.123  26.361  34.381  1.00  0.00    -0.206 F 
ATOM     66  C   UNL A   1      47.544  25.910  33.308  1.00  0.00     0.060 A 
BRANCH  66  67
ATOM     67  S   UNL A   1      48.990  24.905  33.704  1.00  0.00     0.124 S 
ATOM     68  O   UNL A   1      48.374  23.616  34.001  1.00  0.00    -0.237 OA
ATOM     69  O   UNL A   1      49.764  24.966  32.468  1.00  0.00    -0.237 OA
ATOM     70  O   UNL A   1      49.582  25.597  34.844  1.00  0.00    -0.744 OA
ENDBRANCH  66  67
ENDBRANCH  45  59
BRANCH  46  71
ATOM     71  C   UNL A   1      37.112  32.576  30.075  1.00  0.00     0.058 A 
ATOM     72  C   UNL A   1      35.873  32.195  30.608  1.00  0.00     0.135 A 
ATOM     73  C   UNL A   1      37.142  33.684  29.214  1.00  0.00     0.135 A 
ATOM     74  F   UNL A   1      35.793  31.134  31.426  1.00  0.00    -0.206 F 
ATOM     75  C   UNL A   1      34.703  32.878  30.293  1.00  0.00     0.059 A 
ATOM     76  C   UNL A   1      35.990  34.398  28.904  1.00  0.00     0.059 A 
ATOM     77  F   UNL A   1      38.305  34.095  28.686  1.00  0.00    -0.206 F 
ATOM     78  C   UNL A   1      34.773  33.982  29.441  1.00  0.00     0.060 A 
BRANCH  78  79
ATOM     79  S   UNL A   1      33.258  34.897  29.080  1.00  0.00     0.124 S 
ATOM     80  O   UNL A   1      33.789  36.141  28.535  1.00  0.00    -0.237 OA
ATOM     81  O   UNL A   1      32.585  34.019  28.128  1.00  0.00    -0.237 OA
ATOM     82  O   UNL A   1      32.614  35.003  30.386  1.00  0.00    -0.744 OA
ENDBRANCH  78  79
ENDBRANCH  46  71
BRANCH  58  83
ATOM     83  C   UNL A   1      42.101  33.560  34.831  1.00  0.00     0.058 A 
ATOM     84  C   UNL A   1      42.815  34.725  34.511  1.00  0.00     0.135 A 
ATOM     85  C   UNL A   1      41.591  33.439  36.133  1.00  0.00     0.135 A 
ATOM     86  F   UNL A   1      43.327  34.887  33.281  1.00  0.00    -0.206 F 
ATOM     87  C   UNL A   1      43.046  35.719  35.457  1.00  0.00     0.059 A 
ATOM     88  C   UNL A   1      41.790  34.431  37.090  1.00  0.00     0.059 A 
ATOM     89  F   UNL A   1      40.891  32.350  36.488  1.00  0.00    -0.206 F 
ATOM     90  C   UNL A   1      42.534  35.560  36.746  1.00  0.00     0.060 A 
BRANCH  90  91
ATOM     91  S   UNL A   1      42.837  36.853  37.970  1.00  0.00     0.124 S 
ATOM     92  O   UNL A   1      43.566  37.839  37.179  1.00  0.00    -0.237 OA
ATOM     93  O   UNL A   1      41.485  37.233  38.368  1.00  0.00    -0.237 OA
ATOM     94  O   UNL A   1      43.617  36.170  38.997  1.00  0.00    -0.744 OA
ENDBRANCH  90  91
ENDBRANCH  58  83
ENDBRANCH  32  33
ENDBRANCH  25  27
ENDBRANCH  24  25
ENDBRANCH  23  24
ENDBRANCH   1  23
TORSDOF 19
ENDMDL
