MODEL 1
REMARK VINA RESULT:     -10.7      0.000      0.000
REMARK SMILES O=C(C[C@@H]([NH2+]C[C@H]1CCCO1)C(=O)OCCOC(=O)c1ccc(-c2c3nc(c(-c4c(F)cc(S(=O)(=O)[O-])cc4F)c4ccc([nH]4)c(-c4c(F)cc(S(=O)(=O)[O-])cc4F)c4nc(c(-c5c(F)cc(S(=O)(=O)[O-])cc5F)c5ccc2[nH]5)C=C4)C=C3)cc1)Nc1cccc(Cl)c1
REMARK SMILES IDX 15 1 14 2 12 3 13 4 4 5 3 6 2 7 1 8 86 9 87 11 88 12 93 13
REMARK SMILES IDX 89 14 91 15 90 16 92 17 5 18 6 21 7 22 8 23 11 24 9 25 10 26
REMARK SMILES IDX 16 27 17 28 18 29 19 30 20 31 21 32 85 33 22 34 84 35 23 36
REMARK SMILES IDX 24 37 25 38 78 39 26 40 83 41 77 42 79 43 27 44 82 45 76 46
REMARK SMILES IDX 75 47 28 49 62 50 41 51 61 52 42 53 45 54 60 55 80 56 43 57
REMARK SMILES IDX 44 58 59 60 81 61 46 62 29 63 30 64 39 65 31 66 32 67 38 68
REMARK SMILES IDX 40 69 33 70 34 71 35 72 36 73 37 74 63 75 64 76 73 77 65 78
REMARK SMILES IDX 66 79 72 80 74 81 67 82 68 83 69 84 70 85 71 86 47 87 48 88
REMARK SMILES IDX 57 89 49 90 50 91 56 92 58 93 51 94 52 95 53 96 54 97 55 98
REMARK H PARENT 86 10 5 19 5 20 79 48 45 59
REMARK Flexibility Score: inf
ROOT
ATOM      1  C   UNL A   1      34.145  28.065  24.993  1.00  0.00     0.274 C 
ENDROOT
BRANCH   1   2
ATOM      2  O   UNL A   1      33.911  28.484  23.632  1.00  0.00    -0.458 OA
BRANCH   2   3
ATOM      3  C   UNL A   1      33.594  27.494  22.754  1.00  0.00     0.365 C 
ATOM      4  O   UNL A   1      34.085  27.408  21.632  1.00  0.00    -0.245 OA
BRANCH   3   5
ATOM      5  C   UNL A   1      32.579  26.467  23.305  1.00  0.00     0.302 C 
BRANCH   5   6
ATOM      6  C   UNL A   1      31.303  26.388  22.443  1.00  0.00     0.177 C 
BRANCH   6   7
ATOM      7  C   UNL A   1      30.282  27.437  22.843  1.00  0.00     0.231 C 
ATOM      8  O   UNL A   1      29.299  27.144  23.515  1.00  0.00    -0.274 OA
ATOM      9  N   UNL A   1      30.573  28.687  22.327  1.00  0.00    -0.326 N 
ATOM     10  H   UNL A   1      31.431  28.776  21.851  1.00  0.00     0.169 HD
BRANCH   9  11
ATOM     11  C   UNL A   1      29.777  29.845  22.407  1.00  0.00     0.042 A 
ATOM     12  C   UNL A   1      29.542  30.366  23.686  1.00  0.00     0.026 A 
ATOM     13  C   UNL A   1      29.220  30.480  21.296  1.00  0.00     0.046 A 
ATOM     14  C   UNL A   1      28.780  31.525  23.854  1.00  0.00     0.004 A 
ATOM     15  C   UNL A   1      28.429  31.617  21.472  1.00  0.00     0.043 A 
ATOM     16  C   UNL A   1      28.215  32.148  22.744  1.00  0.00     0.020 A 
ATOM     17  Cl  UNL A   1      27.687  32.365  20.110  1.00  0.00    -0.084 Cl
ENDBRANCH   9  11
ENDBRANCH   6   7
ENDBRANCH   5   6
BRANCH   5  18
ATOM     18  N   UNL A   1      33.143  25.094  23.491  1.00  0.00    -0.332 N 
ATOM     19  H   UNL A   1      34.159  25.174  23.445  1.00  0.00     0.347 HD
ATOM     20  H   UNL A   1      32.713  24.535  22.755  1.00  0.00     0.347 HD
BRANCH  18  21
ATOM     21  C   UNL A   1      32.812  24.380  24.744  1.00  0.00     0.293 C 
BRANCH  21  22
ATOM     22  C   UNL A   1      33.809  23.276  25.158  1.00  0.00     0.173 C 
ATOM     23  C   UNL A   1      34.420  23.395  26.549  1.00  0.00     0.040 C 
ATOM     24  O   UNL A   1      33.125  21.996  25.115  1.00  0.00    -0.372 OA
ATOM     25  C   UNL A   1      33.798  22.256  27.324  1.00  0.00     0.031 C 
ATOM     26  C   UNL A   1      33.580  21.231  26.239  1.00  0.00     0.161 C 
ENDBRANCH  21  22
ENDBRANCH  18  21
ENDBRANCH   5  18
ENDBRANCH   3   5
ENDBRANCH   2   3
ENDBRANCH   1   2
BRANCH   1  27
ATOM     27  C   UNL A   1      33.235  28.771  26.007  1.00  0.00     0.275 C 
BRANCH  27  28
ATOM     28  O   UNL A   1      33.784  28.782  27.340  1.00  0.00    -0.458 OA
BRANCH  28  29
ATOM     29  C   UNL A   1      34.295  29.970  27.737  1.00  0.00     0.338 C 
ATOM     30  O   UNL A   1      33.672  31.011  27.902  1.00  0.00    -0.246 OA
BRANCH  29  31
ATOM     31  C   UNL A   1      35.703  29.821  28.138  1.00  0.00     0.060 A 
ATOM     32  C   UNL A   1      36.664  29.981  27.139  1.00  0.00     0.016 A 
ATOM     33  C   UNL A   1      36.087  29.438  29.424  1.00  0.00     0.016 A 
ATOM     34  C   UNL A   1      38.012  29.774  27.410  1.00  0.00     0.010 A 
ATOM     35  C   UNL A   1      37.447  29.217  29.695  1.00  0.00     0.010 A 
ATOM     36  C   UNL A   1      38.416  29.375  28.687  1.00  0.00    -0.014 A 
BRANCH  36  37
ATOM     37  C   UNL A   1      39.844  29.042  28.916  1.00  0.00     0.031 A 
ATOM     38  C   UNL A   1      40.754  30.064  29.534  1.00  0.00     0.074 A 
ATOM     39  C   UNL A   1      40.309  27.808  28.643  1.00  0.00     0.049 A 
ATOM     40  N   UNL A   1      42.044  30.006  29.741  1.00  0.00    -0.248 NA
ATOM     41  C   UNL A   1      40.126  31.316  29.988  1.00  0.00     0.031 C 
ATOM     42  C   UNL A   1      39.510  26.699  28.120  1.00  0.00     0.029 A 
ATOM     43  N   UNL A   1      41.569  27.278  28.777  1.00  0.00    -0.354 N 
ATOM     44  C   UNL A   1      42.391  31.222  30.318  1.00  0.00     0.074 A 
ATOM     45  C   UNL A   1      41.173  31.997  30.430  1.00  0.00     0.031 C 
ATOM     46  C   UNL A   1      40.298  25.620  27.980  1.00  0.00     0.029 A 
ATOM     47  C   UNL A   1      41.666  25.974  28.354  1.00  0.00     0.049 A 
ATOM     48  H   UNL A   1      42.330  27.785  29.141  1.00  0.00     0.167 HD
ATOM     49  C   UNL A   1      43.612  31.651  30.714  1.00  0.00     0.037 A 
ATOM     50  C   UNL A   1      42.741  25.168  28.247  1.00  0.00     0.037 A 
ATOM     51  C   UNL A   1      44.817  30.870  30.625  1.00  0.00     0.049 A 
ATOM     52  C   UNL A   1      44.099  25.689  28.637  1.00  0.00     0.074 A 
ATOM     53  C   UNL A   1      46.105  31.227  30.988  1.00  0.00     0.029 A 
ATOM     54  N   UNL A   1      44.883  29.569  30.149  1.00  0.00    -0.354 N 
ATOM     55  N   UNL A   1      44.422  26.861  29.128  1.00  0.00    -0.248 NA
ATOM     56  C   UNL A   1      45.241  24.783  28.441  1.00  0.00     0.031 C 
ATOM     57  C   UNL A   1      46.954  30.152  30.703  1.00  0.00     0.029 A 
ATOM     58  C   UNL A   1      46.190  29.113  30.196  1.00  0.00     0.049 A 
ATOM     59  H   UNL A   1      44.114  29.047  29.825  1.00  0.00     0.167 HD
ATOM     60  C   UNL A   1      45.800  26.831  29.312  1.00  0.00     0.074 A 
ATOM     61  C   UNL A   1      46.248  25.518  28.894  1.00  0.00     0.031 C 
ATOM     62  C   UNL A   1      46.620  27.802  29.781  1.00  0.00     0.037 A 
BRANCH  49  63
ATOM     63  C   UNL A   1      43.709  33.054  31.239  1.00  0.00     0.058 A 
ATOM     64  C   UNL A   1      43.845  34.158  30.384  1.00  0.00     0.135 A 
ATOM     65  C   UNL A   1      43.649  33.296  32.621  1.00  0.00     0.135 A 
ATOM     66  F   UNL A   1      43.927  33.978  29.056  1.00  0.00    -0.206 F 
ATOM     67  C   UNL A   1      43.943  35.453  30.883  1.00  0.00     0.059 A 
ATOM     68  C   UNL A   1      43.724  34.583  33.140  1.00  0.00     0.059 A 
ATOM     69  F   UNL A   1      43.522  32.273  33.481  1.00  0.00    -0.206 F 
ATOM     70  C   UNL A   1      43.887  35.655  32.263  1.00  0.00     0.060 A 
BRANCH  70  71
ATOM     71  S   UNL A   1      44.024  37.338  32.903  1.00  0.00     0.124 S 
ATOM     72  O   UNL A   1      43.921  38.124  31.678  1.00  0.00    -0.237 OA
ATOM     73  O   UNL A   1      42.882  37.424  33.809  1.00  0.00    -0.237 OA
ATOM     74  O   UNL A   1      45.332  37.349  33.550  1.00  0.00    -0.744 OA
ENDBRANCH  70  71
ENDBRANCH  49  63
BRANCH  50  75
ATOM     75  C   UNL A   1      42.586  23.792  27.706  1.00  0.00     0.058 A 
ATOM     76  C   UNL A   1      42.428  22.692  28.559  1.00  0.00     0.135 A 
ATOM     77  C   UNL A   1      42.597  23.555  26.324  1.00  0.00     0.135 A 
ATOM     78  F   UNL A   1      42.426  22.868  29.889  1.00  0.00    -0.206 F 
ATOM     79  C   UNL A   1      42.291  21.399  28.061  1.00  0.00     0.059 A 
ATOM     80  C   UNL A   1      42.439  22.276  25.800  1.00  0.00     0.059 A 
ATOM     81  F   UNL A   1      42.739  24.577  25.466  1.00  0.00    -0.206 F 
ATOM     82  C   UNL A   1      42.297  21.202  26.679  1.00  0.00     0.060 A 
BRANCH  82  83
ATOM     83  S   UNL A   1      42.062  19.532  26.034  1.00  0.00     0.124 S 
ATOM     84  O   UNL A   1      42.547  18.719  27.143  1.00  0.00    -0.237 OA
ATOM     85  O   UNL A   1      40.622  19.491  25.795  1.00  0.00    -0.237 OA
ATOM     86  O   UNL A   1      42.887  19.520  24.830  1.00  0.00    -0.744 OA
ENDBRANCH  82  83
ENDBRANCH  50  75
BRANCH  62  87
ATOM     87  C   UNL A   1      48.084  27.479  29.891  1.00  0.00     0.058 A 
ATOM     88  C   UNL A   1      48.981  27.784  28.857  1.00  0.00     0.135 A 
ATOM     89  C   UNL A   1      48.600  26.906  31.063  1.00  0.00     0.135 A 
ATOM     90  F   UNL A   1      48.535  28.326  27.712  1.00  0.00    -0.206 F 
ATOM     91  C   UNL A   1      50.342  27.517  28.974  1.00  0.00     0.059 A 
ATOM     92  C   UNL A   1      49.961  26.648  31.210  1.00  0.00     0.059 A 
ATOM     93  F   UNL A   1      47.784  26.603  32.085  1.00  0.00    -0.206 F 
ATOM     94  C   UNL A   1      50.822  26.948  30.155  1.00  0.00     0.060 A 
BRANCH  94  95
ATOM     95  S   UNL A   1      52.594  26.637  30.315  1.00  0.00     0.124 S 
ATOM     96  O   UNL A   1      52.617  25.573  31.313  1.00  0.00    -0.237 OA
ATOM     97  O   UNL A   1      52.969  26.243  28.960  1.00  0.00    -0.237 OA
ATOM     98  O   UNL A   1      53.125  27.924  30.755  1.00  0.00    -0.744 OA
ENDBRANCH  94  95
ENDBRANCH  62  87
ENDBRANCH  36  37
ENDBRANCH  29  31
ENDBRANCH  28  29
ENDBRANCH  27  28
ENDBRANCH   1  27
TORSDOF 20
ENDMDL
MODEL 2
REMARK VINA RESULT:     -10.6      3.048      5.227
REMARK SMILES O=C(C[C@@H]([NH2+]C[C@H]1CCCO1)C(=O)OCCOC(=O)c1ccc(-c2c3nc(c(-c4c(F)cc(S(=O)(=O)[O-])cc4F)c4ccc([nH]4)c(-c4c(F)cc(S(=O)(=O)[O-])cc4F)c4nc(c(-c5c(F)cc(S(=O)(=O)[O-])cc5F)c5ccc2[nH]5)C=C4)C=C3)cc1)Nc1cccc(Cl)c1
REMARK SMILES IDX 15 1 14 2 12 3 13 4 4 5 3 6 2 7 1 8 86 9 87 11 88 12 93 13
REMARK SMILES IDX 89 14 91 15 90 16 92 17 5 18 6 21 7 22 8 23 11 24 9 25 10 26
REMARK SMILES IDX 16 27 17 28 18 29 19 30 20 31 21 32 85 33 22 34 84 35 23 36
REMARK SMILES IDX 24 37 25 38 78 39 26 40 83 41 77 42 79 43 27 44 82 45 76 46
REMARK SMILES IDX 75 47 28 49 62 50 41 51 61 52 42 53 45 54 60 55 80 56 43 57
REMARK SMILES IDX 44 58 59 60 81 61 46 62 29 63 30 64 39 65 31 66 32 67 38 68
REMARK SMILES IDX 40 69 33 70 34 71 35 72 36 73 37 74 63 75 64 76 73 77 65 78
REMARK SMILES IDX 66 79 72 80 74 81 67 82 68 83 69 84 70 85 71 86 47 87 48 88
REMARK SMILES IDX 57 89 49 90 50 91 56 92 58 93 51 94 52 95 53 96 54 97 55 98
REMARK H PARENT 86 10 5 19 5 20 79 48 45 59
REMARK Flexibility Score: inf
ROOT
ATOM      1  C   UNL A   1      33.123  29.916  27.183  1.00  0.00     0.274 C 
ENDROOT
BRANCH   1   2
ATOM      2  O   UNL A   1      32.898  29.793  25.764  1.00  0.00    -0.458 OA
BRANCH   2   3
ATOM      3  C   UNL A   1      33.311  28.628  25.196  1.00  0.00     0.365 C 
ATOM      4  O   UNL A   1      34.486  28.383  24.938  1.00  0.00    -0.245 OA
BRANCH   3   5
ATOM      5  C   UNL A   1      32.169  27.620  24.931  1.00  0.00     0.302 C 
BRANCH   5   6
ATOM      6  C   UNL A   1      32.209  26.424  25.902  1.00  0.00     0.177 C 
BRANCH   6   7
ATOM      7  C   UNL A   1      32.904  25.220  25.291  1.00  0.00     0.231 C 
ATOM      8  O   UNL A   1      32.268  24.240  24.922  1.00  0.00    -0.274 OA
ATOM      9  N   UNL A   1      34.280  25.359  25.262  1.00  0.00    -0.326 N 
ATOM     10  H   UNL A   1      34.639  26.231  25.545  1.00  0.00     0.169 HD
BRANCH   9  11
ATOM     11  C   UNL A   1      35.222  24.388  24.873  1.00  0.00     0.042 A 
ATOM     12  C   UNL A   1      35.020  23.769  23.632  1.00  0.00     0.026 A 
ATOM     13  C   UNL A   1      36.321  24.020  25.651  1.00  0.00     0.046 A 
ATOM     14  C   UNL A   1      35.920  22.810  23.160  1.00  0.00     0.004 A 
ATOM     15  C   UNL A   1      37.197  23.035  25.191  1.00  0.00     0.043 A 
ATOM     16  C   UNL A   1      37.007  22.436  23.946  1.00  0.00     0.020 A 
ATOM     17  Cl  UNL A   1      38.516  22.531  26.177  1.00  0.00    -0.084 Cl
ENDBRANCH   9  11
ENDBRANCH   6   7
ENDBRANCH   5   6
BRANCH   5  18
ATOM     18  N   UNL A   1      30.803  28.232  24.946  1.00  0.00    -0.332 N 
ATOM     19  H   UNL A   1      30.922  29.242  25.026  1.00  0.00     0.347 HD
ATOM     20  H   UNL A   1      30.327  27.783  25.728  1.00  0.00     0.347 HD
BRANCH  18  21
ATOM     21  C   UNL A   1      29.927  27.981  23.781  1.00  0.00     0.293 C 
BRANCH  21  22
ATOM     22  C   UNL A   1      29.523  29.236  22.976  1.00  0.00     0.173 C 
ATOM     23  C   UNL A   1      28.085  29.291  22.475  1.00  0.00     0.040 C 
ATOM     24  O   UNL A   1      29.713  30.405  23.815  1.00  0.00    -0.372 OA
ATOM     25  C   UNL A   1      27.446  30.382  23.303  1.00  0.00     0.031 C 
ATOM     26  C   UNL A   1      28.619  31.296  23.561  1.00  0.00     0.161 C 
ENDBRANCH  21  22
ENDBRANCH  18  21
ENDBRANCH   5  18
ENDBRANCH   3   5
ENDBRANCH   2   3
ENDBRANCH   1   2
BRANCH   1  27
ATOM     27  C   UNL A   1      34.391  30.710  27.528  1.00  0.00     0.275 C 
BRANCH  27  28
ATOM     28  O   UNL A   1      35.482  29.868  27.950  1.00  0.00    -0.458 OA
BRANCH  28  29
ATOM     29  C   UNL A   1      36.153  30.305  29.040  1.00  0.00     0.338 C 
ATOM     30  O   UNL A   1      35.657  30.713  30.083  1.00  0.00    -0.246 OA
BRANCH  29  31
ATOM     31  C   UNL A   1      37.596  30.057  28.895  1.00  0.00     0.060 A 
ATOM     32  C   UNL A   1      38.061  29.764  27.613  1.00  0.00     0.016 A 
ATOM     33  C   UNL A   1      38.468  30.008  29.984  1.00  0.00     0.016 A 
ATOM     34  C   UNL A   1      39.394  29.433  27.399  1.00  0.00     0.010 A 
ATOM     35  C   UNL A   1      39.811  29.661  29.771  1.00  0.00     0.010 A 
ATOM     36  C   UNL A   1      40.280  29.364  28.478  1.00  0.00    -0.014 A 
BRANCH  36  37
ATOM     37  C   UNL A   1      41.665  28.888  28.238  1.00  0.00     0.031 A 
ATOM     38  C   UNL A   1      42.810  29.855  28.344  1.00  0.00     0.074 A 
ATOM     39  C   UNL A   1      41.909  27.585  28.002  1.00  0.00     0.049 A 
ATOM     40  N   UNL A   1      44.079  29.666  28.093  1.00  0.00    -0.248 NA
ATOM     41  C   UNL A   1      42.482  31.215  28.802  1.00  0.00     0.031 C 
ATOM     42  C   UNL A   1      40.896  26.529  27.957  1.00  0.00     0.029 A 
ATOM     43  N   UNL A   1      43.089  26.926  27.762  1.00  0.00    -0.354 N 
ATOM     44  C   UNL A   1      44.699  30.886  28.329  1.00  0.00     0.074 A 
ATOM     45  C   UNL A   1      43.664  31.810  28.747  1.00  0.00     0.031 C 
ATOM     46  C   UNL A   1      41.499  25.355  27.708  1.00  0.00     0.029 A 
ATOM     47  C   UNL A   1      42.931  25.581  27.524  1.00  0.00     0.049 A 
ATOM     48  H   UNL A   1      43.965  27.375  27.759  1.00  0.00     0.167 HD
ATOM     49  C   UNL A   1      46.009  31.207  28.207  1.00  0.00     0.037 A 
ATOM     50  C   UNL A   1      43.832  24.645  27.166  1.00  0.00     0.037 A 
ATOM     51  C   UNL A   1      47.039  30.282  27.816  1.00  0.00     0.049 A 
ATOM     52  C   UNL A   1      45.273  25.039  26.977  1.00  0.00     0.074 A 
ATOM     53  C   UNL A   1      48.393  30.519  27.649  1.00  0.00     0.029 A 
ATOM     54  N   UNL A   1      46.833  28.938  27.540  1.00  0.00    -0.354 N 
ATOM     55  N   UNL A   1      45.837  26.210  27.149  1.00  0.00    -0.248 NA
ATOM     56  C   UNL A   1      46.197  23.987  26.527  1.00  0.00     0.031 C 
ATOM     57  C   UNL A   1      49.000  29.325  27.244  1.00  0.00     0.029 A 
ATOM     58  C   UNL A   1      48.031  28.336  27.193  1.00  0.00     0.049 A 
ATOM     59  H   UNL A   1      45.963  28.480  27.584  1.00  0.00     0.167 HD
ATOM     60  C   UNL A   1      47.182  26.035  26.841  1.00  0.00     0.074 A 
ATOM     61  C   UNL A   1      47.351  24.641  26.487  1.00  0.00     0.031 C 
ATOM     62  C   UNL A   1      48.185  26.946  26.848  1.00  0.00     0.037 A 
BRANCH  49  63
ATOM     63  C   UNL A   1      46.391  32.637  28.455  1.00  0.00     0.058 A 
ATOM     64  C   UNL A   1      46.752  33.098  29.729  1.00  0.00     0.135 A 
ATOM     65  C   UNL A   1      46.412  33.556  27.393  1.00  0.00     0.135 A 
ATOM     66  F   UNL A   1      46.729  32.263  30.781  1.00  0.00    -0.206 F 
ATOM     67  C   UNL A   1      47.096  34.428  29.949  1.00  0.00     0.059 A 
ATOM     68  C   UNL A   1      46.773  34.885  27.585  1.00  0.00     0.059 A 
ATOM     69  F   UNL A   1      46.073  33.164  26.154  1.00  0.00    -0.206 F 
ATOM     70  C   UNL A   1      47.098  35.315  28.870  1.00  0.00     0.060 A 
BRANCH  70  71
ATOM     71  S   UNL A   1      47.538  37.042  29.164  1.00  0.00     0.124 S 
ATOM     72  O   UNL A   1      46.497  37.451  30.100  1.00  0.00    -0.237 OA
ATOM     73  O   UNL A   1      48.884  36.935  29.720  1.00  0.00    -0.237 OA
ATOM     74  O   UNL A   1      47.460  37.642  27.835  1.00  0.00    -0.744 OA
ENDBRANCH  70  71
ENDBRANCH  49  63
BRANCH  50  75
ATOM     75  C   UNL A   1      43.392  23.247  26.919  1.00  0.00     0.058 A 
ATOM     76  C   UNL A   1      43.283  22.741  25.617  1.00  0.00     0.135 A 
ATOM     77  C   UNL A   1      43.069  22.393  27.985  1.00  0.00     0.135 A 
ATOM     78  F   UNL A   1      43.568  23.525  24.566  1.00  0.00    -0.206 F 
ATOM     79  C   UNL A   1      42.863  21.436  25.378  1.00  0.00     0.059 A 
ATOM     80  C   UNL A   1      42.668  21.079  27.772  1.00  0.00     0.059 A 
ATOM     81  F   UNL A   1      43.163  22.830  29.250  1.00  0.00    -0.206 F 
ATOM     82  C   UNL A   1      42.559  20.612  26.463  1.00  0.00     0.060 A 
BRANCH  82  83
ATOM     83  S   UNL A   1      42.070  18.902  26.151  1.00  0.00     0.124 S 
ATOM     84  O   UNL A   1      43.008  18.515  25.104  1.00  0.00    -0.237 OA
ATOM     85  O   UNL A   1      42.274  18.278  27.454  1.00  0.00    -0.237 OA
ATOM     86  O   UNL A   1      40.674  19.025  25.738  1.00  0.00    -0.744 OA
ENDBRANCH  82  83
ENDBRANCH  50  75
BRANCH  62  87
ATOM     87  C   UNL A   1      49.561  26.464  26.484  1.00  0.00     0.058 A 
ATOM     88  C   UNL A   1      50.064  26.598  25.182  1.00  0.00     0.135 A 
ATOM     89  C   UNL A   1      50.402  25.909  27.462  1.00  0.00     0.135 A 
ATOM     90  F   UNL A   1      49.296  27.117  24.210  1.00  0.00    -0.206 F 
ATOM     91  C   UNL A   1      51.352  26.184  24.855  1.00  0.00     0.059 A 
ATOM     92  C   UNL A   1      51.700  25.505  27.162  1.00  0.00     0.059 A 
ATOM     93  F   UNL A   1      49.969  25.766  28.724  1.00  0.00    -0.206 F 
ATOM     94  C   UNL A   1      52.162  25.638  25.852  1.00  0.00     0.060 A 
BRANCH  94  95
ATOM     95  S   UNL A   1      53.845  25.135  25.429  1.00  0.00     0.124 S 
ATOM     96  O   UNL A   1      53.718  23.681  25.399  1.00  0.00    -0.237 OA
ATOM     97  O   UNL A   1      54.051  25.780  24.135  1.00  0.00    -0.237 OA
ATOM     98  O   UNL A   1      54.645  25.674  26.525  1.00  0.00    -0.744 OA
ENDBRANCH  94  95
ENDBRANCH  62  87
ENDBRANCH  36  37
ENDBRANCH  29  31
ENDBRANCH  28  29
ENDBRANCH  27  28
ENDBRANCH   1  27
TORSDOF 20
ENDMDL
MODEL 3
REMARK VINA RESULT:     -10.6      5.317      9.780
REMARK SMILES O=C(C[C@@H]([NH2+]C[C@H]1CCCO1)C(=O)OCCOC(=O)c1ccc(-c2c3nc(c(-c4c(F)cc(S(=O)(=O)[O-])cc4F)c4ccc([nH]4)c(-c4c(F)cc(S(=O)(=O)[O-])cc4F)c4nc(c(-c5c(F)cc(S(=O)(=O)[O-])cc5F)c5ccc2[nH]5)C=C4)C=C3)cc1)Nc1cccc(Cl)c1
REMARK SMILES IDX 15 1 14 2 12 3 13 4 4 5 3 6 2 7 1 8 86 9 87 11 88 12 93 13
REMARK SMILES IDX 89 14 91 15 90 16 92 17 5 18 6 21 7 22 8 23 11 24 9 25 10 26
REMARK SMILES IDX 16 27 17 28 18 29 19 30 20 31 21 32 85 33 22 34 84 35 23 36
REMARK SMILES IDX 24 37 25 38 78 39 26 40 83 41 77 42 79 43 27 44 82 45 76 46
REMARK SMILES IDX 75 47 28 49 62 50 41 51 61 52 42 53 45 54 60 55 80 56 43 57
REMARK SMILES IDX 44 58 59 60 81 61 46 62 29 63 30 64 39 65 31 66 32 67 38 68
REMARK SMILES IDX 40 69 33 70 34 71 35 72 36 73 37 74 63 75 64 76 73 77 65 78
REMARK SMILES IDX 66 79 72 80 74 81 67 82 68 83 69 84 70 85 71 86 47 87 48 88
REMARK SMILES IDX 57 89 49 90 50 91 56 92 58 93 51 94 52 95 53 96 54 97 55 98
REMARK H PARENT 86 10 5 19 5 20 79 48 45 59
REMARK Flexibility Score: inf
ROOT
ATOM      1  C   UNL A   1      37.327  23.318  25.826  1.00  0.00     0.274 C 
ENDROOT
BRANCH   1   2
ATOM      2  O   UNL A   1      37.043  22.520  24.658  1.00  0.00    -0.458 OA
BRANCH   2   3
ATOM      3  C   UNL A   1      36.602  21.255  24.897  1.00  0.00     0.365 C 
ATOM      4  O   UNL A   1      37.352  20.290  25.011  1.00  0.00    -0.245 OA
BRANCH   3   5
ATOM      5  C   UNL A   1      35.067  21.144  25.042  1.00  0.00     0.302 C 
BRANCH   5   6
ATOM      6  C   UNL A   1      34.319  21.913  23.934  1.00  0.00     0.177 C 
BRANCH   6   7
ATOM      7  C   UNL A   1      33.656  23.171  24.465  1.00  0.00     0.231 C 
ATOM      8  O   UNL A   1      32.558  23.129  25.007  1.00  0.00    -0.274 OA
ATOM      9  N   UNL A   1      34.400  24.310  24.216  1.00  0.00    -0.326 N 
ATOM     10  H   UNL A   1      35.291  24.174  23.819  1.00  0.00     0.169 HD
BRANCH   9  11
ATOM     11  C   UNL A   1      34.022  25.642  24.468  1.00  0.00     0.042 A 
ATOM     12  C   UNL A   1      34.041  26.065  25.804  1.00  0.00     0.026 A 
ATOM     13  C   UNL A   1      33.635  26.539  23.472  1.00  0.00     0.046 A 
ATOM     14  C   UNL A   1      33.702  27.378  26.140  1.00  0.00     0.004 A 
ATOM     15  C   UNL A   1      33.261  27.839  23.817  1.00  0.00     0.043 A 
ATOM     16  C   UNL A   1      33.302  28.266  25.144  1.00  0.00     0.020 A 
ATOM     17  Cl  UNL A   1      32.719  28.928  22.598  1.00  0.00    -0.084 Cl
ENDBRANCH   9  11
ENDBRANCH   6   7
ENDBRANCH   5   6
BRANCH   5  18
ATOM     18  N   UNL A   1      34.563  19.736  25.102  1.00  0.00    -0.332 N 
ATOM     19  H   UNL A   1      34.957  19.307  25.939  1.00  0.00     0.347 HD
ATOM     20  H   UNL A   1      34.851  19.320  24.217  1.00  0.00     0.347 HD
BRANCH  18  21
ATOM     21  C   UNL A   1      33.098  19.534  25.149  1.00  0.00     0.293 C 
BRANCH  21  22
ATOM     22  C   UNL A   1      32.602  18.172  24.614  1.00  0.00     0.173 C 
ATOM     23  C   UNL A   1      33.130  17.743  23.251  1.00  0.00     0.040 C 
ATOM     24  O   UNL A   1      32.992  17.137  25.553  1.00  0.00    -0.372 OA
ATOM     25  C   UNL A   1      34.048  16.582  23.558  1.00  0.00     0.031 C 
ATOM     26  C   UNL A   1      33.397  15.995  24.786  1.00  0.00     0.161 C 
ENDBRANCH  21  22
ENDBRANCH  18  21
ENDBRANCH   5  18
ENDBRANCH   3   5
ENDBRANCH   2   3
ENDBRANCH   1   2
BRANCH   1  27
ATOM     27  C   UNL A   1      38.817  23.343  26.193  1.00  0.00     0.275 C 
BRANCH  27  28
ATOM     28  O   UNL A   1      39.400  24.656  26.081  1.00  0.00    -0.458 OA
BRANCH  28  29
ATOM     29  C   UNL A   1      40.527  24.845  26.805  1.00  0.00     0.338 C 
ATOM     30  O   UNL A   1      41.636  24.390  26.555  1.00  0.00    -0.246 OA
BRANCH  29  31
ATOM     31  C   UNL A   1      40.302  25.842  27.864  1.00  0.00     0.060 A 
ATOM     32  C   UNL A   1      41.218  26.891  27.949  1.00  0.00     0.016 A 
ATOM     33  C   UNL A   1      39.290  25.716  28.818  1.00  0.00     0.016 A 
ATOM     34  C   UNL A   1      41.131  27.830  28.971  1.00  0.00     0.010 A 
ATOM     35  C   UNL A   1      39.210  26.657  29.858  1.00  0.00     0.010 A 
ATOM     36  C   UNL A   1      40.135  27.714  29.944  1.00  0.00    -0.014 A 
BRANCH  36  37
ATOM     37  C   UNL A   1      40.141  28.656  31.091  1.00  0.00     0.031 A 
ATOM     38  C   UNL A   1      39.168  29.800  31.116  1.00  0.00     0.074 A 
ATOM     39  C   UNL A   1      40.958  28.448  32.141  1.00  0.00     0.049 A 
ATOM     40  N   UNL A   1      39.064  30.779  31.977  1.00  0.00    -0.248 NA
ATOM     41  C   UNL A   1      38.174  29.842  30.031  1.00  0.00     0.031 C 
ATOM     42  C   UNL A   1      41.889  27.328  32.280  1.00  0.00     0.029 A 
ATOM     43  N   UNL A   1      41.129  29.170  33.296  1.00  0.00    -0.354 N 
ATOM     44  C   UNL A   1      38.018  31.573  31.523  1.00  0.00     0.074 A 
ATOM     45  C   UNL A   1      37.518  30.958  30.311  1.00  0.00     0.031 C 
ATOM     46  C   UNL A   1      42.533  27.436  33.455  1.00  0.00     0.029 A 
ATOM     47  C   UNL A   1      42.098  28.659  34.128  1.00  0.00     0.049 A 
ATOM     48  H   UNL A   1      40.609  29.978  33.508  1.00  0.00     0.167 HD
ATOM     49  C   UNL A   1      37.522  32.709  32.067  1.00  0.00     0.037 A 
ATOM     50  C   UNL A   1      42.600  29.138  35.282  1.00  0.00     0.037 A 
ATOM     51  C   UNL A   1      38.003  33.304  33.285  1.00  0.00     0.049 A 
ATOM     52  C   UNL A   1      42.075  30.437  35.836  1.00  0.00     0.074 A 
ATOM     53  C   UNL A   1      37.574  34.465  33.906  1.00  0.00     0.029 A 
ATOM     54  N   UNL A   1      39.016  32.781  34.076  1.00  0.00    -0.354 N 
ATOM     55  N   UNL A   1      41.124  31.208  35.367  1.00  0.00    -0.248 NA
ATOM     56  C   UNL A   1      42.705  30.939  37.066  1.00  0.00     0.031 C 
ATOM     57  C   UNL A   1      38.347  34.659  35.056  1.00  0.00     0.029 A 
ATOM     58  C   UNL A   1      39.233  33.600  35.171  1.00  0.00     0.049 A 
ATOM     59  H   UNL A   1      39.507  31.950  33.886  1.00  0.00     0.167 HD
ATOM     60  C   UNL A   1      41.032  32.279  36.249  1.00  0.00     0.074 A 
ATOM     61  C   UNL A   1      42.013  32.049  37.289  1.00  0.00     0.031 C 
ATOM     62  C   UNL A   1      40.211  33.356  36.201  1.00  0.00     0.037 A 
BRANCH  49  63
ATOM     63  C   UNL A   1      36.428  33.410  31.315  1.00  0.00     0.058 A 
ATOM     64  C   UNL A   1      35.099  33.404  31.762  1.00  0.00     0.135 A 
ATOM     65  C   UNL A   1      36.722  34.111  30.134  1.00  0.00     0.135 A 
ATOM     66  F   UNL A   1      34.764  32.731  32.875  1.00  0.00    -0.206 F 
ATOM     67  C   UNL A   1      34.092  34.049  31.052  1.00  0.00     0.059 A 
ATOM     68  C   UNL A   1      35.735  34.781  29.419  1.00  0.00     0.059 A 
ATOM     69  F   UNL A   1      37.978  34.145  29.663  1.00  0.00    -0.206 F 
ATOM     70  C   UNL A   1      34.419  34.731  29.878  1.00  0.00     0.060 A 
BRANCH  70  71
ATOM     71  S   UNL A   1      33.105  35.559  28.956  1.00  0.00     0.124 S 
ATOM     72  O   UNL A   1      32.528  34.446  28.210  1.00  0.00    -0.237 OA
ATOM     73  O   UNL A   1      32.271  36.108  30.021  1.00  0.00    -0.237 OA
ATOM     74  O   UNL A   1      33.824  36.547  28.157  1.00  0.00    -0.744 OA
ENDBRANCH  70  71
ENDBRANCH  49  63
BRANCH  50  75
ATOM     75  C   UNL A   1      43.694  28.409  35.975  1.00  0.00     0.058 A 
ATOM     76  C   UNL A   1      43.418  27.363  36.866  1.00  0.00     0.135 A 
ATOM     77  C   UNL A   1      45.038  28.749  35.759  1.00  0.00     0.135 A 
ATOM     78  F   UNL A   1      42.147  27.012  37.115  1.00  0.00    -0.206 F 
ATOM     79  C   UNL A   1      44.436  26.682  37.526  1.00  0.00     0.059 A 
ATOM     80  C   UNL A   1      46.075  28.068  36.388  1.00  0.00     0.059 A 
ATOM     81  F   UNL A   1      45.354  29.739  34.910  1.00  0.00    -0.206 F 
ATOM     82  C   UNL A   1      45.762  27.041  37.278  1.00  0.00     0.060 A 
BRANCH  82  83
ATOM     83  S   UNL A   1      47.083  26.116  38.091  1.00  0.00     0.124 S 
ATOM     84  O   UNL A   1      47.989  25.859  36.978  1.00  0.00    -0.237 OA
ATOM     85  O   UNL A   1      47.556  27.067  39.093  1.00  0.00    -0.237 OA
ATOM     86  O   UNL A   1      46.391  24.948  38.629  1.00  0.00    -0.744 OA
ENDBRANCH  82  83
ENDBRANCH  50  75
BRANCH  62  87
ATOM     87  C   UNL A   1      40.320  34.360  37.314  1.00  0.00     0.058 A 
ATOM     88  C   UNL A   1      41.228  35.427  37.253  1.00  0.00     0.135 A 
ATOM     89  C   UNL A   1      39.470  34.281  38.429  1.00  0.00     0.135 A 
ATOM     90  F   UNL A   1      42.067  35.541  36.211  1.00  0.00    -0.206 F 
ATOM     91  C   UNL A   1      41.303  36.375  38.268  1.00  0.00     0.059 A 
ATOM     92  C   UNL A   1      39.514  35.230  39.446  1.00  0.00     0.059 A 
ATOM     93  F   UNL A   1      38.578  33.284  38.530  1.00  0.00    -0.206 F 
ATOM     94  C   UNL A   1      40.442  36.268  39.361  1.00  0.00     0.060 A 
BRANCH  94  95
ATOM     95  S   UNL A   1      40.520  37.524  40.658  1.00  0.00     0.124 S 
ATOM     96  O   UNL A   1      39.104  37.796  40.887  1.00  0.00    -0.237 OA
ATOM     97  O   UNL A   1      41.212  36.823  41.735  1.00  0.00    -0.237 OA
ATOM     98  O   UNL A   1      41.276  38.606  40.036  1.00  0.00    -0.744 OA
ENDBRANCH  94  95
ENDBRANCH  62  87
ENDBRANCH  36  37
ENDBRANCH  29  31
ENDBRANCH  28  29
ENDBRANCH  27  28
ENDBRANCH   1  27
TORSDOF 20
ENDMDL
