MODEL 1
REMARK VINA RESULT:     -15.2      0.000      0.000
REMARK SMILES Cc1cccc(-n2c(C)cc(/C=N\c3ccc(O)c(C(=O)OCCOC(=O)c4ccc(-c5c6nc(c(-c7c(F)cc(S(=O)(=O)[O-])cc7F)c7ccc([nH]7)c(-c7c(F)cc(S(=O)(=O)[O-])cc7F)c7nc(c(-c8c(F)cc(S(=O)(=O)[O-])cc8F)c8ccc5[nH]8)C=C7)C=C6)cc4)c3)c2C)c1
REMARK SMILES IDX 23 1 22 2 20 3 21 4 19 5 14 6 15 7 94 8 16 9 17 10 13 11
REMARK SMILES IDX 12 12 11 13 7 14 8 15 95 16 9 17 10 18 96 19 6 20 1 21 2 22
REMARK SMILES IDX 3 23 97 24 4 25 5 26 18 27 24 29 25 30 26 31 27 32 28 33
REMARK SMILES IDX 29 34 93 35 30 36 92 37 31 38 32 39 33 40 86 41 34 42 91 43
REMARK SMILES IDX 85 44 87 45 35 46 90 47 84 48 83 49 36 51 70 52 49 53 69 54
REMARK SMILES IDX 50 55 53 56 68 57 88 58 51 59 52 60 67 62 89 63 54 64 37 65
REMARK SMILES IDX 38 66 47 67 39 68 40 69 46 70 48 71 41 72 42 73 43 74 44 75
REMARK SMILES IDX 45 76 71 77 72 78 81 79 73 80 74 81 80 82 82 83 75 84 76 85
REMARK SMILES IDX 77 86 78 87 79 88 55 89 56 90 65 91 57 92 58 93 64 94 66 95
REMARK SMILES IDX 59 96 60 97 61 98 62 99 63 100
REMARK H PARENT 18 28 87 50 53 61
REMARK Flexibility Score: inf
ROOT
ATOM      1  C   UNL A   1      39.832  21.170  26.225  1.00  0.00     0.275 C 
ENDROOT
BRANCH   1   2
ATOM      2  O   UNL A   1      38.696  21.889  25.691  1.00  0.00    -0.458 OA
BRANCH   2   3
ATOM      3  C   UNL A   1      37.595  21.059  25.062  1.00  0.00     0.342 C 
ATOM      4  O   UNL A   1      38.239  19.980  24.894  1.00  0.00    -0.246 OA
BRANCH   3   5
ATOM      5  C   UNL A   1      35.555  21.632  24.663  1.00  0.00     0.103 A 
ATOM      6  C   UNL A   1      33.694  22.849  23.016  1.00  0.00     0.064 A 
ATOM      7  C   UNL A   1      32.632  22.216  23.592  1.00  0.00     0.032 A 
ATOM      8  C   UNL A   1      35.004  22.510  23.471  1.00  0.00     0.048 A 
ATOM      9  C   UNL A   1      32.871  21.501  24.751  1.00  0.00     0.049 A 
ATOM     10  C   UNL A   1      34.193  21.316  25.305  1.00  0.00     0.130 A 
BRANCH   6  11
ATOM     11  N   UNL A   1      33.551  23.721  21.932  1.00  0.00    -0.256 NA
ATOM     12  C   UNL A   1      33.196  24.972  21.985  1.00  0.00     0.121 C 
BRANCH  12  13
ATOM     13  C   UNL A   1      32.796  25.859  23.079  1.00  0.00     0.014 A 
ATOM     14  N   UNL A   1      32.566  27.506  24.616  1.00  0.00    -0.318 N 
ATOM     15  C   UNL A   1      31.739  26.478  25.023  1.00  0.00     0.021 A 
ATOM     16  C   UNL A   1      33.133  27.174  23.387  1.00  0.00     0.029 A 
ATOM     17  C   UNL A   1      30.883  26.558  26.239  1.00  0.00     0.065 C 
ATOM     18  C   UNL A   1      31.842  25.474  24.080  1.00  0.00     0.033 A 
ATOM     19  C   UNL A   1      34.012  28.131  22.667  1.00  0.00     0.065 C 
BRANCH  14  20
ATOM     20  C   UNL A   1      32.948  28.636  25.385  1.00  0.00     0.046 A 
ATOM     21  C   UNL A   1      31.310  31.877  26.505  1.00  0.00     0.044 C 
ATOM     22  C   UNL A   1      32.239  30.703  26.414  1.00  0.00    -0.049 A 
ATOM     23  C   UNL A   1      33.232  30.531  27.391  1.00  0.00     0.003 A 
ATOM     24  C   UNL A   1      32.099  29.747  25.400  1.00  0.00     0.030 A 
ATOM     25  C   UNL A   1      34.115  29.453  27.327  1.00  0.00     0.002 A 
ATOM     26  C   UNL A   1      33.990  28.514  26.310  1.00  0.00     0.026 A 
ENDBRANCH  14  20
ENDBRANCH  12  13
ENDBRANCH   6  11
BRANCH  10  27
ATOM     27  O   UNL A   1      34.005  20.892  26.633  1.00  0.00    -0.507 OA
ATOM     28  H   UNL A   1      33.264  21.194  27.121  1.00  0.00     0.293 HD
ENDBRANCH  10  27
ENDBRANCH   3   5
ENDBRANCH   2   3
ENDBRANCH   1   2
BRANCH   1  29
ATOM     29  C   UNL A   1      41.088  22.055  26.127  1.00  0.00     0.275 C 
BRANCH  29  30
ATOM     30  O   UNL A   1      41.286  22.873  27.304  1.00  0.00    -0.458 OA
BRANCH  30  31
ATOM     31  C   UNL A   1      41.951  24.047  27.114  1.00  0.00     0.338 C 
ATOM     32  O   UNL A   1      43.106  24.168  26.734  1.00  0.00    -0.246 OA
BRANCH  31  33
ATOM     33  C   UNL A   1      40.923  25.081  26.839  1.00  0.00     0.060 A 
ATOM     34  C   UNL A   1      41.357  26.559  25.892  1.00  0.00     0.016 A 
ATOM     35  C   UNL A   1      39.892  25.231  28.310  1.00  0.00     0.016 A 
ATOM     36  C   UNL A   1      40.795  28.232  26.469  1.00  0.00     0.010 A 
ATOM     37  C   UNL A   1      39.366  26.894  28.893  1.00  0.00     0.010 A 
ATOM     38  C   UNL A   1      39.830  28.376  27.983  1.00  0.00    -0.014 A 
BRANCH  38  39
ATOM     39  C   UNL A   1      39.993  29.530  28.872  1.00  0.00     0.031 A 
ATOM     40  C   UNL A   1      38.904  30.519  28.961  1.00  0.00     0.074 A 
ATOM     41  C   UNL A   1      41.038  29.537  29.738  1.00  0.00     0.049 A 
ATOM     42  N   UNL A   1      39.049  31.680  29.491  1.00  0.00    -0.248 NA
ATOM     43  C   UNL A   1      37.553  30.309  28.446  1.00  0.00     0.031 C 
ATOM     44  C   UNL A   1      41.271  30.378  30.910  1.00  0.00     0.029 A 
ATOM     45  N   UNL A   1      42.213  28.805  29.700  1.00  0.00    -0.354 N 
ATOM     46  C   UNL A   1      37.806  32.251  29.640  1.00  0.00     0.074 A 
ATOM     47  C   UNL A   1      36.909  31.377  28.928  1.00  0.00     0.031 C 
ATOM     48  C   UNL A   1      42.580  30.326  31.232  1.00  0.00     0.029 A 
ATOM     49  C   UNL A   1      43.264  29.541  30.215  1.00  0.00     0.049 A 
ATOM     50  H   UNL A   1      42.289  27.887  29.354  1.00  0.00     0.167 HD
ATOM     51  C   UNL A   1      37.699  33.345  30.448  1.00  0.00     0.037 A 
ATOM     52  C   UNL A   1      44.253  29.979  29.375  1.00  0.00     0.037 A 
ATOM     53  C   UNL A   1      39.031  33.741  30.924  1.00  0.00     0.049 A 
ATOM     54  C   UNL A   1      44.095  31.481  29.088  1.00  0.00     0.074 A 
ATOM     55  C   UNL A   1      39.771  33.497  32.068  1.00  0.00     0.029 A 
ATOM     56  N   UNL A   1      39.948  34.161  29.979  1.00  0.00    -0.354 N 
ATOM     57  N   UNL A   1      43.151  32.225  29.611  1.00  0.00    -0.248 NA
ATOM     58  C   UNL A   1      44.945  32.267  28.194  1.00  0.00     0.031 C 
ATOM     59  C   UNL A   1      41.154  33.721  31.759  1.00  0.00     0.029 A 
ATOM     60  C   UNL A   1      41.248  34.130  30.439  1.00  0.00     0.049 A 
ATOM     61  H   UNL A   1      39.699  34.451  29.072  1.00  0.00     0.167 HD
ATOM     62  C   UNL A   1      43.213  33.506  29.141  1.00  0.00     0.074 A 
ATOM     63  C   UNL A   1      44.358  33.480  28.243  1.00  0.00     0.031 C 
ATOM     64  C   UNL A   1      42.321  34.483  29.506  1.00  0.00     0.037 A 
BRANCH  51  65
ATOM     65  C   UNL A   1      36.403  33.936  30.958  1.00  0.00     0.058 A 
ATOM     66  C   UNL A   1      35.398  34.319  30.044  1.00  0.00     0.135 A 
ATOM     67  C   UNL A   1      36.086  34.182  32.312  1.00  0.00     0.135 A 
ATOM     68  F   UNL A   1      35.523  34.088  28.731  1.00  0.00    -0.206 F 
ATOM     69  C   UNL A   1      34.220  34.963  30.428  1.00  0.00     0.059 A 
ATOM     70  C   UNL A   1      34.936  34.870  32.719  1.00  0.00     0.059 A 
ATOM     71  F   UNL A   1      36.849  33.715  33.309  1.00  0.00    -0.206 F 
ATOM     72  C   UNL A   1      34.007  35.259  31.766  1.00  0.00     0.060 A 
BRANCH  72  73
ATOM     73  S   UNL A   1      32.496  36.126  32.232  1.00  0.00     0.124 S 
ATOM     74  O   UNL A   1      32.166  36.847  31.006  1.00  0.00    -0.237 OA
ATOM     75  O   UNL A   1      31.608  35.022  32.580  1.00  0.00    -0.237 OA
ATOM     76  O   UNL A   1      32.916  36.967  33.350  1.00  0.00    -0.744 OA
ENDBRANCH  72  73
ENDBRANCH  51  65
BRANCH  52  77
ATOM     77  C   UNL A   1      44.795  28.879  28.489  1.00  0.00     0.058 A 
ATOM     78  C   UNL A   1      44.476  28.948  27.108  1.00  0.00     0.135 A 
ATOM     79  C   UNL A   1      45.831  27.997  28.826  1.00  0.00     0.135 A 
ATOM     80  F   UNL A   1      43.451  29.715  26.701  1.00  0.00    -0.206 F 
ATOM     81  C   UNL A   1      45.239  28.328  26.115  1.00  0.00     0.059 A 
ATOM     82  C   UNL A   1      46.603  27.340  27.840  1.00  0.00     0.059 A 
ATOM     83  F   UNL A   1      46.210  27.859  30.105  1.00  0.00    -0.206 F 
ATOM     84  C   UNL A   1      46.326  27.548  26.485  1.00  0.00     0.060 A 
BRANCH  84  85
ATOM     85  S   UNL A   1      47.432  26.935  25.173  1.00  0.00     0.124 S 
ATOM     86  O   UNL A   1      48.446  26.219  25.934  1.00  0.00    -0.237 OA
ATOM     87  O   UNL A   1      46.544  26.101  24.369  1.00  0.00    -0.237 OA
ATOM     88  O   UNL A   1      47.881  28.158  24.516  1.00  0.00    -0.744 OA
ENDBRANCH  84  85
ENDBRANCH  52  77
BRANCH  64  89
ATOM     89  C   UNL A   1      42.382  35.902  28.989  1.00  0.00     0.058 A 
ATOM     90  C   UNL A   1      41.734  36.296  27.808  1.00  0.00     0.135 A 
ATOM     91  C   UNL A   1      43.194  36.891  29.598  1.00  0.00     0.135 A 
ATOM     92  F   UNL A   1      41.014  35.418  27.094  1.00  0.00    -0.206 F 
ATOM     93  C   UNL A   1      41.816  37.601  27.318  1.00  0.00     0.059 A 
ATOM     94  C   UNL A   1      43.356  38.169  29.082  1.00  0.00     0.059 A 
ATOM     95  F   UNL A   1      43.833  36.679  30.756  1.00  0.00    -0.206 F 
ATOM     96  C   UNL A   1      42.626  38.531  27.966  1.00  0.00     0.060 A 
BRANCH  96  97
ATOM     97  S   UNL A   1      42.711  40.222  27.359  1.00  0.00     0.124 S 
ATOM     98  O   UNL A   1      43.292  40.934  28.492  1.00  0.00    -0.237 OA
ATOM     99  O   UNL A   1      43.578  40.065  26.196  1.00  0.00    -0.237 OA
ATOM    100  O   UNL A   1      41.320  40.550  27.065  1.00  0.00    -0.744 OA
ENDBRANCH  96  97
ENDBRANCH  64  89
ENDBRANCH  38  39
ENDBRANCH  31  33
ENDBRANCH  30  31
ENDBRANCH  29  30
ENDBRANCH   1  29
TORSDOF 18
ENDMDL
MODEL 2
REMARK VINA RESULT:     -14.9      4.703     11.852
REMARK SMILES Cc1cccc(-n2c(C)cc(/C=N\c3ccc(O)c(C(=O)OCCOC(=O)c4ccc(-c5c6nc(c(-c7c(F)cc(S(=O)(=O)[O-])cc7F)c7ccc([nH]7)c(-c7c(F)cc(S(=O)(=O)[O-])cc7F)c7nc(c(-c8c(F)cc(S(=O)(=O)[O-])cc8F)c8ccc5[nH]8)C=C7)C=C6)cc4)c3)c2C)c1
REMARK SMILES IDX 23 1 22 2 20 3 21 4 19 5 14 6 15 7 94 8 16 9 17 10 13 11
REMARK SMILES IDX 12 12 11 13 7 14 8 15 95 16 9 17 10 18 96 19 6 20 1 21 2 22
REMARK SMILES IDX 3 23 97 24 4 25 5 26 18 27 24 29 25 30 26 31 27 32 28 33
REMARK SMILES IDX 29 34 93 35 30 36 92 37 31 38 32 39 33 40 86 41 34 42 91 43
REMARK SMILES IDX 85 44 87 45 35 46 90 47 84 48 83 49 36 51 70 52 49 53 69 54
REMARK SMILES IDX 50 55 53 56 68 57 88 58 51 59 52 60 67 62 89 63 54 64 37 65
REMARK SMILES IDX 38 66 47 67 39 68 40 69 46 70 48 71 41 72 42 73 43 74 44 75
REMARK SMILES IDX 45 76 71 77 72 78 81 79 73 80 74 81 80 82 82 83 75 84 76 85
REMARK SMILES IDX 77 86 78 87 79 88 55 89 56 90 65 91 57 92 58 93 64 94 66 95
REMARK SMILES IDX 59 96 60 97 61 98 62 99 63 100
REMARK H PARENT 18 28 87 50 53 61
REMARK Flexibility Score: inf
ROOT
ATOM      1  C   UNL A   1      34.461  33.016  28.243  1.00  0.00     0.275 C 
ENDROOT
BRANCH   1   2
ATOM      2  O   UNL A   1      33.578  31.870  28.275  1.00  0.00    -0.458 OA
BRANCH   2   3
ATOM      3  C   UNL A   1      33.893  30.737  27.320  1.00  0.00     0.342 C 
ATOM      4  O   UNL A   1      35.128  30.968  27.146  1.00  0.00    -0.246 OA
BRANCH   3   5
ATOM      5  C   UNL A   1      32.564  29.208  26.578  1.00  0.00     0.103 A 
ATOM      6  C   UNL A   1      31.609  27.691  24.471  1.00  0.00     0.064 A 
ATOM      7  C   UNL A   1      31.072  26.734  25.282  1.00  0.00     0.032 A 
ATOM      8  C   UNL A   1      32.338  28.755  25.082  1.00  0.00     0.048 A 
ATOM      9  C   UNL A   1      31.035  26.999  26.637  1.00  0.00     0.049 A 
ATOM     10  C   UNL A   1      31.624  28.179  27.228  1.00  0.00     0.130 A 
BRANCH   6  11
ATOM     11  N   UNL A   1      31.566  27.604  23.076  1.00  0.00    -0.256 NA
ATOM     12  C   UNL A   1      31.920  26.583  22.351  1.00  0.00     0.121 C 
BRANCH  12  13
ATOM     13  C   UNL A   1      32.494  25.273  22.670  1.00  0.00     0.014 A 
ATOM     14  N   UNL A   1      32.925  23.156  23.345  1.00  0.00    -0.318 N 
ATOM     15  C   UNL A   1      34.147  23.720  23.037  1.00  0.00     0.021 A 
ATOM     16  C   UNL A   1      31.914  24.061  23.031  1.00  0.00     0.029 A 
ATOM     17  C   UNL A   1      35.433  22.977  23.138  1.00  0.00     0.065 C 
ATOM     18  C   UNL A   1      33.902  25.005  22.593  1.00  0.00     0.033 A 
ATOM     19  C   UNL A   1      30.483  23.693  23.187  1.00  0.00     0.065 C 
BRANCH  14  20
ATOM     20  C   UNL A   1      32.711  21.940  24.045  1.00  0.00     0.046 A 
ATOM     21  C   UNL A   1      32.454  18.258  23.139  1.00  0.00     0.044 C 
ATOM     22  C   UNL A   1      32.635  19.529  23.915  1.00  0.00    -0.049 A 
ATOM     23  C   UNL A   1      33.021  19.467  25.263  1.00  0.00     0.003 A 
ATOM     24  C   UNL A   1      32.476  20.779  23.302  1.00  0.00     0.030 A 
ATOM     25  C   UNL A   1      33.188  20.632  26.011  1.00  0.00     0.002 A 
ATOM     26  C   UNL A   1      33.011  21.873  25.409  1.00  0.00     0.026 A 
ENDBRANCH  14  20
ENDBRANCH  12  13
ENDBRANCH   6  11
BRANCH  10  27
ATOM     27  O   UNL A   1      31.068  28.292  28.515  1.00  0.00    -0.507 OA
ATOM     28  H   UNL A   1      31.626  28.295  29.268  1.00  0.00     0.293 HD
ENDBRANCH  10  27
ENDBRANCH   3   5
ENDBRANCH   2   3
ENDBRANCH   1   2
BRANCH   1  29
ATOM     29  C   UNL A   1      34.912  33.351  29.677  1.00  0.00     0.275 C 
BRANCH  29  30
ATOM     30  O   UNL A   1      35.415  32.195  30.387  1.00  0.00    -0.458 OA
BRANCH  30  31
ATOM     31  C   UNL A   1      36.743  31.931  30.240  1.00  0.00     0.338 C 
ATOM     32  O   UNL A   1      37.661  32.521  30.789  1.00  0.00    -0.246 OA
BRANCH  31  33
ATOM     33  C   UNL A   1      36.854  30.505  29.844  1.00  0.00     0.060 A 
ATOM     34  C   UNL A   1      37.025  29.225  31.110  1.00  0.00     0.016 A 
ATOM     35  C   UNL A   1      37.861  30.427  28.352  1.00  0.00     0.016 A 
ATOM     36  C   UNL A   1      38.280  27.873  30.903  1.00  0.00     0.010 A 
ATOM     37  C   UNL A   1      39.124  29.103  28.167  1.00  0.00     0.010 A 
ATOM     38  C   UNL A   1      39.334  27.851  29.442  1.00  0.00    -0.014 A 
BRANCH  38  39
ATOM     39  C   UNL A   1      40.722  27.388  29.523  1.00  0.00     0.031 A 
ATOM     40  C   UNL A   1      41.068  26.070  28.960  1.00  0.00     0.074 A 
ATOM     41  C   UNL A   1      41.677  28.269  29.916  1.00  0.00     0.049 A 
ATOM     42  N   UNL A   1      42.171  25.464  29.211  1.00  0.00    -0.248 NA
ATOM     43  C   UNL A   1      40.197  25.296  28.078  1.00  0.00     0.031 C 
ATOM     44  C   UNL A   1      43.131  28.180  29.802  1.00  0.00     0.029 A 
ATOM     45  N   UNL A   1      41.539  29.459  30.611  1.00  0.00    -0.354 N 
ATOM     46  C   UNL A   1      42.290  24.397  28.350  1.00  0.00     0.074 A 
ATOM     47  C   UNL A   1      41.010  24.304  27.696  1.00  0.00     0.031 C 
ATOM     48  C   UNL A   1      43.692  29.060  30.658  1.00  0.00     0.029 A 
ATOM     49  C   UNL A   1      42.626  29.671  31.438  1.00  0.00     0.049 A 
ATOM     50  H   UNL A   1      40.771  30.069  30.527  1.00  0.00     0.167 HD
ATOM     51  C   UNL A   1      43.511  23.799  28.238  1.00  0.00     0.037 A 
ATOM     52  C   UNL A   1      42.462  29.594  32.796  1.00  0.00     0.037 A 
ATOM     53  C   UNL A   1      44.450  24.410  29.190  1.00  0.00     0.049 A 
ATOM     54  C   UNL A   1      43.036  28.274  33.337  1.00  0.00     0.074 A 
ATOM     55  C   UNL A   1      45.404  25.409  29.114  1.00  0.00     0.029 A 
ATOM     56  N   UNL A   1      44.175  24.269  30.537  1.00  0.00    -0.354 N 
ATOM     57  N   UNL A   1      43.624  27.375  32.584  1.00  0.00    -0.248 NA
ATOM     58  C   UNL A   1      42.990  27.838  34.732  1.00  0.00     0.031 C 
ATOM     59  C   UNL A   1      45.641  25.900  30.441  1.00  0.00     0.029 A 
ATOM     60  C   UNL A   1      44.854  25.177  31.323  1.00  0.00     0.049 A 
ATOM     61  H   UNL A   1      43.560  23.591  30.897  1.00  0.00     0.167 HD
ATOM     62  C   UNL A   1      43.986  26.278  33.314  1.00  0.00     0.074 A 
ATOM     63  C   UNL A   1      43.557  26.617  34.663  1.00  0.00     0.031 C 
ATOM     64  C   UNL A   1      44.592  25.177  32.764  1.00  0.00     0.037 A 
BRANCH  51  65
ATOM     65  C   UNL A   1      43.912  22.816  27.161  1.00  0.00     0.058 A 
ATOM     66  C   UNL A   1      43.152  21.643  26.963  1.00  0.00     0.135 A 
ATOM     67  C   UNL A   1      45.033  22.937  26.309  1.00  0.00     0.135 A 
ATOM     68  F   UNL A   1      42.022  21.419  27.647  1.00  0.00    -0.206 F 
ATOM     69  C   UNL A   1      43.514  20.641  26.061  1.00  0.00     0.059 A 
ATOM     70  C   UNL A   1      45.444  21.924  25.434  1.00  0.00     0.059 A 
ATOM     71  F   UNL A   1      45.748  24.067  26.245  1.00  0.00    -0.206 F 
ATOM     72  C   UNL A   1      44.677  20.776  25.317  1.00  0.00     0.060 A 
BRANCH  72  73
ATOM     73  S   UNL A   1      45.142  19.449  24.189  1.00  0.00     0.124 S 
ATOM     74  O   UNL A   1      46.595  19.580  24.146  1.00  0.00    -0.237 OA
ATOM     75  O   UNL A   1      44.629  18.271  24.879  1.00  0.00    -0.237 OA
ATOM     76  O   UNL A   1      44.453  19.798  22.949  1.00  0.00    -0.744 OA
ENDBRANCH  72  73
ENDBRANCH  51  65
BRANCH  52  77
ATOM     77  C   UNL A   1      41.288  30.409  33.290  1.00  0.00     0.058 A 
ATOM     78  C   UNL A   1      40.114  29.695  33.649  1.00  0.00     0.135 A 
ATOM     79  C   UNL A   1      41.346  31.737  33.731  1.00  0.00     0.135 A 
ATOM     80  F   UNL A   1      39.941  28.437  33.210  1.00  0.00    -0.206 F 
ATOM     81  C   UNL A   1      39.152  30.201  34.528  1.00  0.00     0.059 A 
ATOM     82  C   UNL A   1      40.373  32.278  34.603  1.00  0.00     0.059 A 
ATOM     83  F   UNL A   1      42.413  32.498  33.444  1.00  0.00    -0.206 F 
ATOM     84  C   UNL A   1      39.303  31.485  35.031  1.00  0.00     0.060 A 
BRANCH  84  85
ATOM     85  S   UNL A   1      38.161  32.036  36.340  1.00  0.00     0.124 S 
ATOM     86  O   UNL A   1      37.834  30.785  37.010  1.00  0.00    -0.237 OA
ATOM     87  O   UNL A   1      38.980  32.966  37.110  1.00  0.00    -0.237 OA
ATOM     88  O   UNL A   1      37.071  32.656  35.593  1.00  0.00    -0.744 OA
ENDBRANCH  84  85
ENDBRANCH  52  77
BRANCH  64  89
ATOM     89  C   UNL A   1      44.994  23.959  33.565  1.00  0.00     0.058 A 
ATOM     90  C   UNL A   1      46.325  23.711  33.930  1.00  0.00     0.135 A 
ATOM     91  C   UNL A   1      44.070  22.936  33.892  1.00  0.00     0.135 A 
ATOM     92  F   UNL A   1      47.302  24.565  33.589  1.00  0.00    -0.206 F 
ATOM     93  C   UNL A   1      46.696  22.571  34.646  1.00  0.00     0.059 A 
ATOM     94  C   UNL A   1      44.432  21.757  34.530  1.00  0.00     0.059 A 
ATOM     95  F   UNL A   1      42.757  23.053  33.653  1.00  0.00    -0.206 F 
ATOM     96  C   UNL A   1      45.740  21.603  34.944  1.00  0.00     0.060 A 
BRANCH  96  97
ATOM     97  S   UNL A   1      46.205  20.148  35.894  1.00  0.00     0.124 S 
ATOM     98  O   UNL A   1      47.652  20.104  35.716  1.00  0.00    -0.237 OA
ATOM     99  O   UNL A   1      45.741  20.517  37.228  1.00  0.00    -0.237 OA
ATOM    100  O   UNL A   1      45.465  19.068  35.250  1.00  0.00    -0.744 OA
ENDBRANCH  96  97
ENDBRANCH  64  89
ENDBRANCH  38  39
ENDBRANCH  31  33
ENDBRANCH  30  31
ENDBRANCH  29  30
ENDBRANCH   1  29
TORSDOF 18
ENDMDL
MODEL 3
REMARK VINA RESULT:     -14.0      1.266      2.187
REMARK SMILES Cc1cccc(-n2c(C)cc(/C=N\c3ccc(O)c(C(=O)OCCOC(=O)c4ccc(-c5c6nc(c(-c7c(F)cc(S(=O)(=O)[O-])cc7F)c7ccc([nH]7)c(-c7c(F)cc(S(=O)(=O)[O-])cc7F)c7nc(c(-c8c(F)cc(S(=O)(=O)[O-])cc8F)c8ccc5[nH]8)C=C7)C=C6)cc4)c3)c2C)c1
REMARK SMILES IDX 23 1 22 2 20 3 21 4 19 5 14 6 15 7 94 8 16 9 17 10 13 11
REMARK SMILES IDX 12 12 11 13 7 14 8 15 95 16 9 17 10 18 96 19 6 20 1 21 2 22
REMARK SMILES IDX 3 23 97 24 4 25 5 26 18 27 24 29 25 30 26 31 27 32 28 33
REMARK SMILES IDX 29 34 93 35 30 36 92 37 31 38 32 39 33 40 86 41 34 42 91 43
REMARK SMILES IDX 85 44 87 45 35 46 90 47 84 48 83 49 36 51 70 52 49 53 69 54
REMARK SMILES IDX 50 55 53 56 68 57 88 58 51 59 52 60 67 62 89 63 54 64 37 65
REMARK SMILES IDX 38 66 47 67 39 68 40 69 46 70 48 71 41 72 42 73 43 74 44 75
REMARK SMILES IDX 45 76 71 77 72 78 81 79 73 80 74 81 80 82 82 83 75 84 76 85
REMARK SMILES IDX 77 86 78 87 79 88 55 89 56 90 65 91 57 92 58 93 64 94 66 95
REMARK SMILES IDX 59 96 60 97 61 98 62 99 63 100
REMARK H PARENT 18 28 87 50 53 61
REMARK Flexibility Score: inf
ROOT
ATOM      1  C   UNL A   1      41.376  20.707  27.302  1.00  0.00     0.275 C 
ENDROOT
BRANCH   1   2
ATOM      2  O   UNL A   1      41.040  20.387  25.931  1.00  0.00    -0.458 OA
BRANCH   2   3
ATOM      3  C   UNL A   1      39.603  20.001  25.650  1.00  0.00     0.342 C 
ATOM      4  O   UNL A   1      39.750  18.744  25.582  1.00  0.00    -0.246 OA
BRANCH   3   5
ATOM      5  C   UNL A   1      37.883  21.292  25.485  1.00  0.00     0.103 A 
ATOM      6  C   UNL A   1      35.151  21.603  25.175  1.00  0.00     0.064 A 
ATOM      7  C   UNL A   1      35.148  22.881  25.654  1.00  0.00     0.032 A 
ATOM      8  C   UNL A   1      36.387  20.888  25.181  1.00  0.00     0.048 A 
ATOM      9  C   UNL A   1      36.374  23.486  25.853  1.00  0.00     0.049 A 
ATOM     10  C   UNL A   1      37.633  22.797  25.678  1.00  0.00     0.130 A 
BRANCH   6  11
ATOM     11  N   UNL A   1      33.980  20.942  24.793  1.00  0.00    -0.256 NA
ATOM     12  C   UNL A   1      32.938  21.476  24.226  1.00  0.00     0.121 C 
BRANCH  12  13
ATOM     13  C   UNL A   1      32.589  22.848  23.849  1.00  0.00     0.014 A 
ATOM     14  N   UNL A   1      31.768  24.950  23.679  1.00  0.00    -0.318 N 
ATOM     15  C   UNL A   1      32.380  24.676  22.473  1.00  0.00     0.021 A 
ATOM     16  C   UNL A   1      31.977  23.883  24.549  1.00  0.00     0.029 A 
ATOM     17  C   UNL A   1      32.453  25.659  21.357  1.00  0.00     0.065 C 
ATOM     18  C   UNL A   1      32.915  23.406  22.568  1.00  0.00     0.033 A 
ATOM     19  C   UNL A   1      31.493  23.934  25.953  1.00  0.00     0.065 C 
BRANCH  14  20
ATOM     20  C   UNL A   1      30.899  26.039  23.955  1.00  0.00     0.046 A 
ATOM     21  C   UNL A   1      31.261  29.796  24.400  1.00  0.00     0.044 C 
ATOM     22  C   UNL A   1      30.678  28.436  24.155  1.00  0.00    -0.049 A 
ATOM     23  C   UNL A   1      29.333  28.320  23.771  1.00  0.00     0.003 A 
ATOM     24  C   UNL A   1      31.467  27.283  24.250  1.00  0.00     0.030 A 
ATOM     25  C   UNL A   1      28.761  27.069  23.544  1.00  0.00     0.002 A 
ATOM     26  C   UNL A   1      29.538  25.922  23.658  1.00  0.00     0.026 A 
ENDBRANCH  14  20
ENDBRANCH  12  13
ENDBRANCH   6  11
BRANCH  10  27
ATOM     27  O   UNL A   1      38.618  23.798  25.591  1.00  0.00    -0.507 OA
ATOM     28  H   UNL A   1      39.001  24.148  26.372  1.00  0.00     0.293 HD
ENDBRANCH  10  27
ENDBRANCH   3   5
ENDBRANCH   2   3
ENDBRANCH   1   2
BRANCH   1  29
ATOM     29  C   UNL A   1      42.424  21.834  27.320  1.00  0.00     0.275 C 
BRANCH  29  30
ATOM     30  O   UNL A   1      41.860  23.112  27.699  1.00  0.00    -0.458 OA
BRANCH  30  31
ATOM     31  C   UNL A   1      42.382  24.206  27.077  1.00  0.00     0.338 C 
ATOM     32  O   UNL A   1      43.382  24.230  26.377  1.00  0.00    -0.246 OA
BRANCH  31  33
ATOM     33  C   UNL A   1      41.259  25.156  26.874  1.00  0.00     0.060 A 
ATOM     34  C   UNL A   1      41.508  26.651  25.887  1.00  0.00     0.016 A 
ATOM     35  C   UNL A   1      40.332  25.246  28.416  1.00  0.00     0.016 A 
ATOM     36  C   UNL A   1      40.864  28.284  26.493  1.00  0.00     0.010 A 
ATOM     37  C   UNL A   1      39.725  26.872  29.026  1.00  0.00     0.010 A 
ATOM     38  C   UNL A   1      40.006  28.373  28.073  1.00  0.00    -0.014 A 
BRANCH  38  39
ATOM     39  C   UNL A   1      40.146  29.547  28.940  1.00  0.00     0.031 A 
ATOM     40  C   UNL A   1      39.039  30.518  29.007  1.00  0.00     0.074 A 
ATOM     41  C   UNL A   1      41.188  29.590  29.809  1.00  0.00     0.049 A 
ATOM     42  N   UNL A   1      39.162  31.691  29.514  1.00  0.00    -0.248 NA
ATOM     43  C   UNL A   1      37.694  30.274  28.493  1.00  0.00     0.031 C 
ATOM     44  C   UNL A   1      41.402  30.458  30.964  1.00  0.00     0.029 A 
ATOM     45  N   UNL A   1      42.375  28.878  29.789  1.00  0.00    -0.354 N 
ATOM     46  C   UNL A   1      37.908  32.243  29.649  1.00  0.00     0.074 A 
ATOM     47  C   UNL A   1      37.029  31.340  28.952  1.00  0.00     0.031 C 
ATOM     48  C   UNL A   1      42.711  30.436  31.291  1.00  0.00     0.029 A 
ATOM     49  C   UNL A   1      43.412  29.643  30.292  1.00  0.00     0.049 A 
ATOM     50  H   UNL A   1      42.469  27.955  29.460  1.00  0.00     0.167 HD
ATOM     51  C   UNL A   1      37.779  33.351  30.434  1.00  0.00     0.037 A 
ATOM     52  C   UNL A   1      44.396  30.081  29.446  1.00  0.00     0.037 A 
ATOM     53  C   UNL A   1      39.103  33.780  30.906  1.00  0.00     0.049 A 
ATOM     54  C   UNL A   1      44.212  31.574  29.129  1.00  0.00     0.074 A 
ATOM     55  C   UNL A   1      39.843  33.572  32.057  1.00  0.00     0.029 A 
ATOM     56  N   UNL A   1      40.015  34.197  29.956  1.00  0.00    -0.354 N 
ATOM     57  N   UNL A   1      43.253  32.312  29.635  1.00  0.00    -0.248 NA
ATOM     58  C   UNL A   1      45.051  32.358  28.222  1.00  0.00     0.031 C 
ATOM     59  C   UNL A   1      41.223  33.814  31.747  1.00  0.00     0.029 A 
ATOM     60  C   UNL A   1      41.315  34.198  30.419  1.00  0.00     0.049 A 
ATOM     61  H   UNL A   1      39.764  34.465  29.043  1.00  0.00     0.167 HD
ATOM     62  C   UNL A   1      43.293  33.585  29.140  1.00  0.00     0.074 A 
ATOM     63  C   UNL A   1      44.442  33.561  28.246  1.00  0.00     0.031 C 
ATOM     64  C   UNL A   1      42.383  34.552  29.483  1.00  0.00     0.037 A 
BRANCH  51  65
ATOM     65  C   UNL A   1      36.472  33.929  30.929  1.00  0.00     0.058 A 
ATOM     66  C   UNL A   1      35.478  34.314  30.003  1.00  0.00     0.135 A 
ATOM     67  C   UNL A   1      36.132  34.160  32.281  1.00  0.00     0.135 A 
ATOM     68  F   UNL A   1      35.626  34.095  28.690  1.00  0.00    -0.206 F 
ATOM     69  C   UNL A   1      34.291  34.946  30.374  1.00  0.00     0.059 A 
ATOM     70  C   UNL A   1      34.971  34.837  32.675  1.00  0.00     0.059 A 
ATOM     71  F   UNL A   1      36.882  33.689  33.285  1.00  0.00    -0.206 F 
ATOM     72  C   UNL A   1      34.054  35.229  31.712  1.00  0.00     0.060 A 
BRANCH  72  73
ATOM     73  S   UNL A   1      32.531  36.081  32.161  1.00  0.00     0.124 S 
ATOM     74  O   UNL A   1      32.969  36.930  33.265  1.00  0.00    -0.237 OA
ATOM     75  O   UNL A   1      32.194  36.774  30.921  1.00  0.00    -0.237 OA
ATOM     76  O   UNL A   1      31.629  34.995  32.535  1.00  0.00    -0.744 OA
ENDBRANCH  72  73
ENDBRANCH  51  65
BRANCH  52  77
ATOM     77  C   UNL A   1      44.960  28.974  28.584  1.00  0.00     0.058 A 
ATOM     78  C   UNL A   1      44.623  28.997  27.205  1.00  0.00     0.135 A 
ATOM     79  C   UNL A   1      46.024  28.132  28.931  1.00  0.00     0.135 A 
ATOM     80  F   UNL A   1      43.571  29.722  26.789  1.00  0.00    -0.206 F 
ATOM     81  C   UNL A   1      45.393  28.372  26.219  1.00  0.00     0.059 A 
ATOM     82  C   UNL A   1      46.805  27.471  27.954  1.00  0.00     0.059 A 
ATOM     83  F   UNL A   1      46.422  28.039  30.209  1.00  0.00    -0.206 F 
ATOM     84  C   UNL A   1      46.506  27.634  26.597  1.00  0.00     0.060 A 
BRANCH  84  85
ATOM     85  S   UNL A   1      47.615  27.018  25.289  1.00  0.00     0.124 S 
ATOM     86  O   UNL A   1      46.674  26.461  24.326  1.00  0.00    -0.237 OA
ATOM     87  O   UNL A   1      48.311  28.227  24.861  1.00  0.00    -0.237 OA
ATOM     88  O   UNL A   1      48.450  26.047  25.989  1.00  0.00    -0.744 OA
ENDBRANCH  84  85
ENDBRANCH  52  77
BRANCH  64  89
ATOM     89  C   UNL A   1      42.421  35.962  28.938  1.00  0.00     0.058 A 
ATOM     90  C   UNL A   1      41.842  36.303  27.707  1.00  0.00     0.135 A 
ATOM     91  C   UNL A   1      43.146  36.998  29.579  1.00  0.00     0.135 A 
ATOM     92  F   UNL A   1      41.211  35.379  26.965  1.00  0.00    -0.206 F 
ATOM     93  C   UNL A   1      41.903  37.600  27.193  1.00  0.00     0.059 A 
ATOM     94  C   UNL A   1      43.290  38.271  29.045  1.00  0.00     0.059 A 
ATOM     95  F   UNL A   1      43.710  36.837  30.783  1.00  0.00    -0.206 F 
ATOM     96  C   UNL A   1      42.626  38.577  27.873  1.00  0.00     0.060 A 
BRANCH  96  97
ATOM     97  S   UNL A   1      42.681  40.257  27.234  1.00  0.00     0.124 S 
ATOM     98  O   UNL A   1      43.042  41.032  28.417  1.00  0.00    -0.237 OA
ATOM     99  O   UNL A   1      43.717  40.141  26.213  1.00  0.00    -0.237 OA
ATOM    100  O   UNL A   1      41.329  40.479  26.733  1.00  0.00    -0.744 OA
ENDBRANCH  96  97
ENDBRANCH  64  89
ENDBRANCH  38  39
ENDBRANCH  31  33
ENDBRANCH  30  31
ENDBRANCH  29  30
ENDBRANCH   1  29
TORSDOF 18
ENDMDL
