MODEL 1
REMARK VINA RESULT:     -14.6      0.000      0.000
REMARK SMILES O=C(CC[C@@H]1CN(c2ccncc2)CC[C@H]1[NH+]1CCOCC1)OCCOC(=O)c1ccc(-c2c3nc(c(-c4c(F)cc(S(=O)(=O)[O-])cc4F)c4ccc([nH]4)c(-c4c(F)cc(S(=O)(=O)[O-])cc4F)c4nc(c(-c5c(F)cc(S(=O)(=O)[O-])cc5F)c5ccc2[nH]5)C=C4)C=C3)cc1
REMARK SMILES IDX 24 1 23 2 2 3 1 4 3 5 4 6 5 7 6 8 16 9 7 10 15 11 14 12
REMARK SMILES IDX 17 13 18 14 22 15 19 17 21 18 20 19 8 20 9 21 13 22 10 23
REMARK SMILES IDX 12 24 11 25 25 26 26 27 27 28 28 29 29 30 30 31 94 32 31 33
REMARK SMILES IDX 93 34 32 35 33 36 34 37 87 38 35 39 92 40 86 41 88 42 36 43
REMARK SMILES IDX 91 44 85 45 84 46 37 48 71 49 50 50 70 51 51 52 54 53 69 54
REMARK SMILES IDX 89 55 52 56 53 57 68 59 90 60 55 61 38 62 39 63 48 64 40 65
REMARK SMILES IDX 41 66 47 67 49 68 42 69 43 70 44 71 45 72 46 73 72 74 73 75
REMARK SMILES IDX 82 76 74 77 75 78 81 79 83 80 76 81 77 82 78 83 79 84 80 85
REMARK SMILES IDX 56 86 57 87 66 88 58 89 59 90 65 91 67 92 60 93 61 94 62 95
REMARK SMILES IDX 63 96 64 97
REMARK H PARENT 17 16 88 47 54 58
REMARK Flexibility Score: inf
ROOT
ATOM      1  C   UNL A   1      40.582  21.109  26.652  1.00  0.00     0.274 C 
ENDROOT
BRANCH   1   2
ATOM      2  O   UNL A   1      39.081  22.040  26.241  1.00  0.00    -0.462 OA
BRANCH   2   3
ATOM      3  C   UNL A   1      37.689  22.161  25.615  1.00  0.00     0.305 C 
ATOM      4  O   UNL A   1      37.037  23.179  25.887  1.00  0.00    -0.252 OA
BRANCH   3   5
ATOM      5  C   UNL A   1      36.833  20.832  24.647  1.00  0.00     0.123 C 
BRANCH   5   6
ATOM      6  C   UNL A   1      35.326  20.069  24.973  1.00  0.00     0.023 C 
BRANCH   6   7
ATOM      7  C   UNL A   1      34.192  21.089  25.177  1.00  0.00     0.067 C 
ATOM      8  C   UNL A   1      33.661  22.231  26.156  1.00  0.00     0.126 C 
ATOM      9  C   UNL A   1      33.054  20.527  24.304  1.00  0.00     0.190 C 
ATOM     10  N   UNL A   1      32.668  23.161  25.463  1.00  0.00    -0.371 N 
ATOM     11  C   UNL A   1      33.029  22.015  23.313  1.00  0.00     0.087 C 
ATOM     12  C   UNL A   1      32.512  23.223  24.019  1.00  0.00     0.122 C 
BRANCH   9  13
ATOM     13  N   UNL A   1      32.587  18.720  24.154  1.00  0.00    -0.328 N 
ATOM     14  C   UNL A   1      32.519  17.632  25.264  1.00  0.00     0.291 C 
ATOM     15  C   UNL A   1      32.962  17.703  23.022  1.00  0.00     0.291 C 
ATOM     16  H   UNL A   1      31.821  19.382  24.032  1.00  0.00     0.348 HD
ATOM     17  C   UNL A   1      33.732  16.668  25.502  1.00  0.00     0.221 C 
ATOM     18  C   UNL A   1      34.083  16.622  23.168  1.00  0.00     0.221 C 
ATOM     19  O   UNL A   1      34.019  15.867  24.363  1.00  0.00    -0.370 OA
ENDBRANCH   9  13
BRANCH  10  20
ATOM     20  C   UNL A   1      32.102  24.359  25.959  1.00  0.00     0.040 A 
ATOM     21  C   UNL A   1      30.709  24.543  25.878  1.00  0.00     0.046 A 
ATOM     22  C   UNL A   1      32.872  25.521  26.100  1.00  0.00     0.046 A 
ATOM     23  C   UNL A   1      30.168  25.826  25.900  1.00  0.00     0.113 A 
ATOM     24  C   UNL A   1      32.240  26.766  26.110  1.00  0.00     0.113 A 
ATOM     25  N   UNL A   1      30.906  26.947  26.006  1.00  0.00    -0.265 NA
ENDBRANCH  10  20
ENDBRANCH   6   7
ENDBRANCH   5   6
ENDBRANCH   3   5
ENDBRANCH   2   3
ENDBRANCH   1   2
BRANCH   1  26
ATOM     26  C   UNL A   1      42.261  21.599  27.363  1.00  0.00     0.275 C 
BRANCH  26  27
ATOM     27  O   UNL A   1      43.094  23.027  26.995  1.00  0.00    -0.458 OA
BRANCH  27  28
ATOM     28  C   UNL A   1      42.803  24.239  26.373  1.00  0.00     0.338 C 
ATOM     29  O   UNL A   1      42.772  24.344  25.149  1.00  0.00    -0.246 OA
BRANCH  28  30
ATOM     30  C   UNL A   1      42.386  25.505  27.229  1.00  0.00     0.060 A 
ATOM     31  C   UNL A   1      43.040  26.761  27.246  1.00  0.00     0.016 A 
ATOM     32  C   UNL A   1      41.491  25.328  28.299  1.00  0.00     0.016 A 
ATOM     33  C   UNL A   1      42.784  27.782  28.253  1.00  0.00     0.010 A 
ATOM     34  C   UNL A   1      41.236  26.336  29.299  1.00  0.00     0.010 A 
ATOM     35  C   UNL A   1      41.886  27.584  29.317  1.00  0.00    -0.014 A 
BRANCH  35  36
ATOM     36  C   UNL A   1      41.635  28.596  30.451  1.00  0.00     0.031 A 
ATOM     37  C   UNL A   1      42.430  28.540  31.763  1.00  0.00     0.074 A 
ATOM     38  C   UNL A   1      40.665  29.544  30.394  1.00  0.00     0.049 A 
ATOM     39  N   UNL A   1      42.288  29.237  32.872  1.00  0.00    -0.248 NA
ATOM     40  C   UNL A   1      43.527  27.567  31.822  1.00  0.00     0.031 C 
ATOM     41  C   UNL A   1      39.791  29.779  29.248  1.00  0.00     0.029 A 
ATOM     42  N   UNL A   1      40.225  30.473  31.328  1.00  0.00    -0.354 N 
ATOM     43  C   UNL A   1      43.276  28.792  33.757  1.00  0.00     0.074 A 
ATOM     44  C   UNL A   1      43.988  27.740  33.056  1.00  0.00     0.031 C 
ATOM     45  C   UNL A   1      38.913  30.754  29.549  1.00  0.00     0.029 A 
ATOM     46  C   UNL A   1      39.130  31.213  30.922  1.00  0.00     0.049 A 
ATOM     47  H   UNL A   1      40.657  30.593  32.205  1.00  0.00     0.167 HD
ATOM     48  C   UNL A   1      43.580  29.205  35.020  1.00  0.00     0.037 A 
ATOM     49  C   UNL A   1      38.367  32.133  31.562  1.00  0.00     0.037 A 
ATOM     50  C   UNL A   1      42.879  30.239  35.757  1.00  0.00     0.049 A 
ATOM     51  C   UNL A   1      38.684  32.548  32.983  1.00  0.00     0.074 A 
ATOM     52  C   UNL A   1      43.136  30.715  37.036  1.00  0.00     0.029 A 
ATOM     53  N   UNL A   1      41.786  30.952  35.293  1.00  0.00    -0.354 N 
ATOM     54  N   UNL A   1      39.639  32.123  33.775  1.00  0.00    -0.248 NA
ATOM     55  C   UNL A   1      37.825  33.578  33.595  1.00  0.00     0.031 C 
ATOM     56  C   UNL A   1      42.173  31.678  37.360  1.00  0.00     0.029 A 
ATOM     57  C   UNL A   1      41.348  31.847  36.263  1.00  0.00     0.049 A 
ATOM     58  H   UNL A   1      41.378  30.842  34.404  1.00  0.00     0.167 HD
ATOM     59  C   UNL A   1      39.507  32.846  34.960  1.00  0.00     0.074 A 
ATOM     60  C   UNL A   1      38.398  33.755  34.776  1.00  0.00     0.031 C 
ATOM     61  C   UNL A   1      40.241  32.757  36.099  1.00  0.00     0.037 A 
BRANCH  48  62
ATOM     62  C   UNL A   1      44.745  28.539  35.727  1.00  0.00     0.058 A 
ATOM     63  C   UNL A   1      44.570  27.372  36.490  1.00  0.00     0.135 A 
ATOM     64  C   UNL A   1      46.058  29.017  35.573  1.00  0.00     0.135 A 
ATOM     65  F   UNL A   1      43.342  26.860  36.669  1.00  0.00    -0.206 F 
ATOM     66  C   UNL A   1      45.645  26.726  37.099  1.00  0.00     0.059 A 
ATOM     67  C   UNL A   1      47.152  28.370  36.152  1.00  0.00     0.059 A 
ATOM     68  F   UNL A   1      46.297  30.114  34.838  1.00  0.00    -0.206 F 
ATOM     69  C   UNL A   1      46.933  27.233  36.926  1.00  0.00     0.060 A 
BRANCH  69  70
ATOM     70  S   UNL A   1      48.312  26.381  37.726  1.00  0.00     0.124 S 
ATOM     71  O   UNL A   1      47.663  25.821  38.908  1.00  0.00    -0.237 OA
ATOM     72  O   UNL A   1      48.716  25.417  36.709  1.00  0.00    -0.237 OA
ATOM     73  O   UNL A   1      49.270  27.452  37.987  1.00  0.00    -0.744 OA
ENDBRANCH  69  70
ENDBRANCH  48  62
BRANCH  49  74
ATOM     74  C   UNL A   1      37.179  32.737  30.875  1.00  0.00     0.058 A 
ATOM     75  C   UNL A   1      35.882  32.226  31.059  1.00  0.00     0.135 A 
ATOM     76  C   UNL A   1      37.324  33.818  29.991  1.00  0.00     0.135 A 
ATOM     77  F   UNL A   1      35.684  31.172  31.866  1.00  0.00    -0.206 F 
ATOM     78  C   UNL A   1      34.780  32.756  30.388  1.00  0.00     0.059 A 
ATOM     79  C   UNL A   1      36.235  34.386  29.334  1.00  0.00     0.059 A 
ATOM     80  F   UNL A   1      38.538  34.346  29.769  1.00  0.00    -0.206 F 
ATOM     81  C   UNL A   1      34.966  33.843  29.532  1.00  0.00     0.060 A 
BRANCH  81  82
ATOM     82  S   UNL A   1      33.525  34.567  28.716  1.00  0.00     0.124 S 
ATOM     83  O   UNL A   1      34.105  35.741  28.076  1.00  0.00    -0.237 OA
ATOM     84  O   UNL A   1      33.107  33.491  27.822  1.00  0.00    -0.237 OA
ATOM     85  O   UNL A   1      32.613  34.838  29.824  1.00  0.00    -0.744 OA
ENDBRANCH  81  82
ENDBRANCH  49  74
BRANCH  61  86
ATOM     86  C   UNL A   1      39.889  33.690  37.235  1.00  0.00     0.058 A 
ATOM     87  C   UNL A   1      40.536  34.925  37.410  1.00  0.00     0.135 A 
ATOM     88  C   UNL A   1      38.891  33.346  38.163  1.00  0.00     0.135 A 
ATOM     89  F   UNL A   1      41.497  35.310  36.556  1.00  0.00    -0.206 F 
ATOM     90  C   UNL A   1      40.244  35.758  38.489  1.00  0.00     0.059 A 
ATOM     91  C   UNL A   1      38.562  34.178  39.232  1.00  0.00     0.059 A 
ATOM     92  F   UNL A   1      38.226  32.187  38.041  1.00  0.00    -0.206 F 
ATOM     93  C   UNL A   1      39.261  35.372  39.399  1.00  0.00     0.060 A 
BRANCH  93  94
ATOM     94  S   UNL A   1      38.904  36.452  40.804  1.00  0.00     0.124 S 
ATOM     95  O   UNL A   1      38.410  37.650  40.136  1.00  0.00    -0.237 OA
ATOM     96  O   UNL A   1      37.910  35.685  41.546  1.00  0.00    -0.237 OA
ATOM     97  O   UNL A   1      40.200  36.591  41.465  1.00  0.00    -0.744 OA
ENDBRANCH  93  94
ENDBRANCH  61  86
ENDBRANCH  35  36
ENDBRANCH  28  30
ENDBRANCH  27  28
ENDBRANCH  26  27
ENDBRANCH   1  26
TORSDOF 18
ENDMDL
MODEL 2
REMARK VINA RESULT:     -14.5      0.830      8.164
REMARK SMILES O=C(CC[C@@H]1CN(c2ccncc2)CC[C@H]1[NH+]1CCOCC1)OCCOC(=O)c1ccc(-c2c3nc(c(-c4c(F)cc(S(=O)(=O)[O-])cc4F)c4ccc([nH]4)c(-c4c(F)cc(S(=O)(=O)[O-])cc4F)c4nc(c(-c5c(F)cc(S(=O)(=O)[O-])cc5F)c5ccc2[nH]5)C=C4)C=C3)cc1
REMARK SMILES IDX 24 1 23 2 2 3 1 4 3 5 4 6 5 7 6 8 16 9 7 10 15 11 14 12
REMARK SMILES IDX 17 13 18 14 22 15 19 17 21 18 20 19 8 20 9 21 13 22 10 23
REMARK SMILES IDX 12 24 11 25 25 26 26 27 27 28 28 29 29 30 30 31 94 32 31 33
REMARK SMILES IDX 93 34 32 35 33 36 34 37 87 38 35 39 92 40 86 41 88 42 36 43
REMARK SMILES IDX 91 44 85 45 84 46 37 48 71 49 50 50 70 51 51 52 54 53 69 54
REMARK SMILES IDX 89 55 52 56 53 57 68 59 90 60 55 61 38 62 39 63 48 64 40 65
REMARK SMILES IDX 41 66 47 67 49 68 42 69 43 70 44 71 45 72 46 73 72 74 73 75
REMARK SMILES IDX 82 76 74 77 75 78 81 79 83 80 76 81 77 82 78 83 79 84 80 85
REMARK SMILES IDX 56 86 57 87 66 88 58 89 59 90 65 91 67 92 60 93 61 94 62 95
REMARK SMILES IDX 63 96 64 97
REMARK H PARENT 17 16 88 47 54 58
REMARK Flexibility Score: inf
ROOT
ATOM      1  C   UNL A   1      40.571  22.322  26.555  1.00  0.00     0.274 C 
ENDROOT
BRANCH   1   2
ATOM      2  O   UNL A   1      38.937  21.954  25.857  1.00  0.00    -0.462 OA
BRANCH   2   3
ATOM      3  C   UNL A   1      37.835  20.984  25.423  1.00  0.00     0.305 C 
ATOM      4  O   UNL A   1      38.184  20.000  24.756  1.00  0.00    -0.252 OA
BRANCH   3   5
ATOM      5  C   UNL A   1      36.017  21.262  25.649  1.00  0.00     0.123 C 
BRANCH   5   6
ATOM      6  C   UNL A   1      34.704  20.397  24.949  1.00  0.00     0.023 C 
BRANCH   6   7
ATOM      7  C   UNL A   1      33.447  21.272  24.801  1.00  0.00     0.067 C 
ATOM      8  C   UNL A   1      32.612  22.437  25.498  1.00  0.00     0.126 C 
ATOM      9  C   UNL A   1      32.573  20.465  23.822  1.00  0.00     0.190 C 
ATOM     10  N   UNL A   1      31.678  23.139  24.514  1.00  0.00    -0.371 N 
ATOM     11  C   UNL A   1      32.580  21.812  22.646  1.00  0.00     0.087 C 
ATOM     12  C   UNL A   1      31.804  23.012  23.072  1.00  0.00     0.122 C 
BRANCH   9  13
ATOM     13  N   UNL A   1      32.347  18.607  23.843  1.00  0.00    -0.328 N 
ATOM     14  C   UNL A   1      32.323  17.637  25.060  1.00  0.00     0.291 C 
ATOM     15  C   UNL A   1      32.935  17.538  22.859  1.00  0.00     0.291 C 
ATOM     16  H   UNL A   1      31.517  19.145  23.596  1.00  0.00     0.348 HD
ATOM     17  C   UNL A   1      33.623  16.870  25.485  1.00  0.00     0.221 C 
ATOM     18  C   UNL A   1      34.166  16.634  23.199  1.00  0.00     0.221 C 
ATOM     19  O   UNL A   1      34.099  16.002  24.463  1.00  0.00    -0.370 OA
ENDBRANCH   9  13
BRANCH  10  20
ATOM     20  C   UNL A   1      30.897  24.299  24.729  1.00  0.00     0.040 A 
ATOM     21  C   UNL A   1      30.343  24.965  23.620  1.00  0.00     0.046 A 
ATOM     22  C   UNL A   1      31.026  25.053  25.902  1.00  0.00     0.046 A 
ATOM     23  C   UNL A   1      29.992  26.310  23.713  1.00  0.00     0.113 A 
ATOM     24  C   UNL A   1      30.648  26.397  25.899  1.00  0.00     0.113 A 
ATOM     25  N   UNL A   1      30.140  27.046  24.830  1.00  0.00    -0.265 NA
ENDBRANCH  10  20
ENDBRANCH   6   7
ENDBRANCH   5   6
ENDBRANCH   3   5
ENDBRANCH   2   3
ENDBRANCH   1   2
BRANCH   1  26
ATOM     26  C   UNL A   1      42.259  22.684  25.790  1.00  0.00     0.275 C 
BRANCH  26  27
ATOM     27  O   UNL A   1      42.852  24.229  25.432  1.00  0.00    -0.458 OA
BRANCH  27  28
ATOM     28  C   UNL A   1      42.456  25.546  25.660  1.00  0.00     0.338 C 
ATOM     29  O   UNL A   1      42.171  26.302  24.735  1.00  0.00    -0.246 OA
BRANCH  28  30
ATOM     30  C   UNL A   1      42.248  26.081  27.136  1.00  0.00     0.060 A 
ATOM     31  C   UNL A   1      41.187  25.743  28.011  1.00  0.00     0.016 A 
ATOM     32  C   UNL A   1      42.972  27.213  27.549  1.00  0.00     0.016 A 
ATOM     33  C   UNL A   1      40.897  26.476  29.237  1.00  0.00     0.010 A 
ATOM     34  C   UNL A   1      42.688  27.942  28.761  1.00  0.00     0.010 A 
ATOM     35  C   UNL A   1      41.634  27.608  29.632  1.00  0.00    -0.014 A 
BRANCH  35  36
ATOM     36  C   UNL A   1      41.324  28.465  30.873  1.00  0.00     0.031 A 
ATOM     37  C   UNL A   1      40.224  29.535  30.852  1.00  0.00     0.074 A 
ATOM     38  C   UNL A   1      42.036  28.380  32.025  1.00  0.00     0.049 A 
ATOM     39  N   UNL A   1      39.889  30.427  31.762  1.00  0.00    -0.248 NA
ATOM     40  C   UNL A   1      39.399  29.601  29.640  1.00  0.00     0.031 C 
ATOM     41  C   UNL A   1      43.123  27.436  32.270  1.00  0.00     0.029 A 
ATOM     42  N   UNL A   1      41.978  29.113  33.203  1.00  0.00    -0.354 N 
ATOM     43  C   UNL A   1      38.816  31.155  31.237  1.00  0.00     0.074 A 
ATOM     44  C   UNL A   1      38.582  30.613  29.912  1.00  0.00     0.031 C 
ATOM     45  C   UNL A   1      43.643  27.660  33.491  1.00  0.00     0.029 A 
ATOM     46  C   UNL A   1      42.951  28.782  34.128  1.00  0.00     0.049 A 
ATOM     47  H   UNL A   1      41.300  29.810  33.366  1.00  0.00     0.167 HD
ATOM     48  C   UNL A   1      38.085  32.167  31.785  1.00  0.00     0.037 A 
ATOM     49  C   UNL A   1      43.279  29.313  35.332  1.00  0.00     0.037 A 
ATOM     50  C   UNL A   1      38.302  32.745  33.097  1.00  0.00     0.049 A 
ATOM     51  C   UNL A   1      42.490  30.469  35.909  1.00  0.00     0.074 A 
ATOM     52  C   UNL A   1      37.596  33.766  33.720  1.00  0.00     0.029 A 
ATOM     53  N   UNL A   1      39.296  32.366  33.985  1.00  0.00    -0.354 N 
ATOM     54  N   UNL A   1      41.469  31.112  35.394  1.00  0.00    -0.248 NA
ATOM     55  C   UNL A   1      42.892  30.967  37.237  1.00  0.00     0.031 C 
ATOM     56  C   UNL A   1      38.190  34.033  34.960  1.00  0.00     0.029 A 
ATOM     57  C   UNL A   1      39.233  33.141  35.137  1.00  0.00     0.049 A 
ATOM     58  H   UNL A   1      39.952  31.650  33.823  1.00  0.00     0.167 HD
ATOM     59  C   UNL A   1      41.098  32.066  36.341  1.00  0.00     0.074 A 
ATOM     60  C   UNL A   1      41.983  31.903  37.472  1.00  0.00     0.031 C 
ATOM     61  C   UNL A   1      40.111  32.996  36.272  1.00  0.00     0.037 A 
BRANCH  48  62
ATOM     62  C   UNL A   1      36.945  32.746  30.968  1.00  0.00     0.058 A 
ATOM     63  C   UNL A   1      35.605  32.446  31.262  1.00  0.00     0.135 A 
ATOM     64  C   UNL A   1      37.186  33.674  29.940  1.00  0.00     0.135 A 
ATOM     65  F   UNL A   1      35.306  31.573  32.237  1.00  0.00    -0.206 F 
ATOM     66  C   UNL A   1      34.551  33.015  30.548  1.00  0.00     0.059 A 
ATOM     67  C   UNL A   1      36.146  34.277  29.230  1.00  0.00     0.059 A 
ATOM     68  F   UNL A   1      38.444  34.023  29.624  1.00  0.00    -0.206 F 
ATOM     69  C   UNL A   1      34.832  33.929  29.532  1.00  0.00     0.060 A 
BRANCH  69  70
ATOM     70  S   UNL A   1      33.452  34.654  28.616  1.00  0.00     0.124 S 
ATOM     71  O   UNL A   1      34.090  35.812  27.995  1.00  0.00    -0.237 OA
ATOM     72  O   UNL A   1      33.078  33.576  27.708  1.00  0.00    -0.237 OA
ATOM     73  O   UNL A   1      32.475  34.962  29.657  1.00  0.00    -0.744 OA
ENDBRANCH  69  70
ENDBRANCH  48  62
BRANCH  49  74
ATOM     74  C   UNL A   1      44.448  28.775  36.101  1.00  0.00     0.058 A 
ATOM     75  C   UNL A   1      44.308  27.716  37.014  1.00  0.00     0.135 A 
ATOM     76  C   UNL A   1      45.727  29.338  35.962  1.00  0.00     0.135 A 
ATOM     77  F   UNL A   1      43.104  27.159  37.215  1.00  0.00    -0.206 F 
ATOM     78  C   UNL A   1      45.384  27.242  37.763  1.00  0.00     0.059 A 
ATOM     79  C   UNL A   1      46.826  28.861  36.674  1.00  0.00     0.059 A 
ATOM     80  F   UNL A   1      45.924  30.357  35.110  1.00  0.00    -0.206 F 
ATOM     81  C   UNL A   1      46.642  27.817  37.580  1.00  0.00     0.060 A 
BRANCH  81  82
ATOM     82  S   UNL A   1      48.047  27.155  38.506  1.00  0.00     0.124 S 
ATOM     83  O   UNL A   1      49.140  27.993  38.028  1.00  0.00    -0.237 OA
ATOM     84  O   UNL A   1      47.632  27.374  39.889  1.00  0.00    -0.237 OA
ATOM     85  O   UNL A   1      48.094  25.756  38.091  1.00  0.00    -0.744 OA
ENDBRANCH  81  82
ENDBRANCH  49  74
BRANCH  61  86
ATOM     86  C   UNL A   1      39.913  33.898  37.468  1.00  0.00     0.058 A 
ATOM     87  C   UNL A   1      39.097  33.528  38.551  1.00  0.00     0.135 A 
ATOM     88  C   UNL A   1      40.546  35.152  37.535  1.00  0.00     0.135 A 
ATOM     89  F   UNL A   1      38.466  32.344  38.547  1.00  0.00    -0.206 F 
ATOM     90  C   UNL A   1      38.876  34.386  39.628  1.00  0.00     0.059 A 
ATOM     91  C   UNL A   1      40.363  36.012  38.616  1.00  0.00     0.059 A 
ATOM     92  F   UNL A   1      41.349  35.557  36.539  1.00  0.00    -0.206 F 
ATOM     93  C   UNL A   1      39.507  35.629  39.648  1.00  0.00     0.060 A 
BRANCH  93  94
ATOM     94  S   UNL A   1      39.198  36.740  41.040  1.00  0.00     0.124 S 
ATOM     95  O   UNL A   1      38.209  35.987  41.803  1.00  0.00    -0.237 OA
ATOM     96  O   UNL A   1      40.518  36.852  41.652  1.00  0.00    -0.237 OA
ATOM     97  O   UNL A   1      38.704  37.957  40.402  1.00  0.00    -0.744 OA
ENDBRANCH  93  94
ENDBRANCH  61  86
ENDBRANCH  35  36
ENDBRANCH  28  30
ENDBRANCH  27  28
ENDBRANCH  26  27
ENDBRANCH   1  26
TORSDOF 18
ENDMDL
MODEL 3
REMARK VINA RESULT:     -14.5      3.073      8.639
REMARK SMILES O=C(CC[C@@H]1CN(c2ccncc2)CC[C@H]1[NH+]1CCOCC1)OCCOC(=O)c1ccc(-c2c3nc(c(-c4c(F)cc(S(=O)(=O)[O-])cc4F)c4ccc([nH]4)c(-c4c(F)cc(S(=O)(=O)[O-])cc4F)c4nc(c(-c5c(F)cc(S(=O)(=O)[O-])cc5F)c5ccc2[nH]5)C=C4)C=C3)cc1
REMARK SMILES IDX 24 1 23 2 2 3 1 4 3 5 4 6 5 7 6 8 16 9 7 10 15 11 14 12
REMARK SMILES IDX 17 13 18 14 22 15 19 17 21 18 20 19 8 20 9 21 13 22 10 23
REMARK SMILES IDX 12 24 11 25 25 26 26 27 27 28 28 29 29 30 30 31 94 32 31 33
REMARK SMILES IDX 93 34 32 35 33 36 34 37 87 38 35 39 92 40 86 41 88 42 36 43
REMARK SMILES IDX 91 44 85 45 84 46 37 48 71 49 50 50 70 51 51 52 54 53 69 54
REMARK SMILES IDX 89 55 52 56 53 57 68 59 90 60 55 61 38 62 39 63 48 64 40 65
REMARK SMILES IDX 41 66 47 67 49 68 42 69 43 70 44 71 45 72 46 73 72 74 73 75
REMARK SMILES IDX 82 76 74 77 75 78 81 79 83 80 76 81 77 82 78 83 79 84 80 85
REMARK SMILES IDX 56 86 57 87 66 88 58 89 59 90 65 91 67 92 60 93 61 94 62 95
REMARK SMILES IDX 63 96 64 97
REMARK H PARENT 17 16 88 47 54 58
REMARK Flexibility Score: inf
ROOT
ATOM      1  C   UNL A   1      32.721  26.251  26.316  1.00  0.00     0.274 C 
ENDROOT
BRANCH   1   2
ATOM      2  O   UNL A   1      31.487  24.947  26.054  1.00  0.00    -0.462 OA
BRANCH   2   3
ATOM      3  C   UNL A   1      31.032  23.608  25.468  1.00  0.00     0.305 C 
ATOM      4  O   UNL A   1      30.471  22.819  26.239  1.00  0.00    -0.252 OA
BRANCH   3   5
ATOM      5  C   UNL A   1      31.421  23.003  23.760  1.00  0.00     0.123 C 
BRANCH   5   6
ATOM      6  C   UNL A   1      32.366  21.642  23.293  1.00  0.00     0.023 C 
BRANCH   6   7
ATOM      7  C   UNL A   1      33.737  21.623  23.989  1.00  0.00     0.067 C 
ATOM      8  C   UNL A   1      35.240  22.142  23.867  1.00  0.00     0.126 C 
ATOM      9  C   UNL A   1      33.644  20.392  24.913  1.00  0.00     0.190 C 
ATOM     10  N   UNL A   1      35.968  22.108  25.209  1.00  0.00    -0.371 N 
ATOM     11  C   UNL A   1      33.904  21.411  26.359  1.00  0.00     0.087 C 
ATOM     12  C   UNL A   1      35.279  21.974  26.482  1.00  0.00     0.122 C 
BRANCH   9  13
ATOM     13  N   UNL A   1      32.870  18.749  24.461  1.00  0.00    -0.328 N 
ATOM     14  C   UNL A   1      32.541  17.536  25.380  1.00  0.00     0.291 C 
ATOM     15  C   UNL A   1      33.123  17.864  23.193  1.00  0.00     0.291 C 
ATOM     16  H   UNL A   1      32.244  19.552  24.423  1.00  0.00     0.348 HD
ATOM     17  C   UNL A   1      33.545  16.337  25.497  1.00  0.00     0.221 C 
ATOM     18  C   UNL A   1      34.021  16.582  23.198  1.00  0.00     0.221 C 
ATOM     19  O   UNL A   1      33.751  15.680  24.253  1.00  0.00    -0.370 OA
ENDBRANCH   9  13
BRANCH  10  20
ATOM     20  C   UNL A   1      37.249  22.621  25.519  1.00  0.00     0.040 A 
ATOM     21  C   UNL A   1      38.327  21.727  25.662  1.00  0.00     0.046 A 
ATOM     22  C   UNL A   1      37.402  23.875  26.124  1.00  0.00     0.046 A 
ATOM     23  C   UNL A   1      39.449  22.092  26.403  1.00  0.00     0.113 A 
ATOM     24  C   UNL A   1      38.563  24.150  26.850  1.00  0.00     0.113 A 
ATOM     25  N   UNL A   1      39.587  23.286  27.010  1.00  0.00    -0.265 NA
ENDBRANCH  10  20
ENDBRANCH   6   7
ENDBRANCH   5   6
ENDBRANCH   3   5
ENDBRANCH   2   3
ENDBRANCH   1   2
BRANCH   1  26
ATOM     26  C   UNL A   1      33.476  27.570  25.196  1.00  0.00     0.275 C 
BRANCH  26  27
ATOM     27  O   UNL A   1      33.959  29.112  25.700  1.00  0.00    -0.458 OA
BRANCH  27  28
ATOM     28  C   UNL A   1      34.087  29.790  26.910  1.00  0.00     0.338 C 
ATOM     29  O   UNL A   1      33.109  30.231  27.508  1.00  0.00    -0.246 OA
BRANCH  28  30
ATOM     30  C   UNL A   1      35.498  29.916  27.618  1.00  0.00     0.060 A 
ATOM     31  C   UNL A   1      36.753  30.045  26.974  1.00  0.00     0.016 A 
ATOM     32  C   UNL A   1      35.603  29.572  28.977  1.00  0.00     0.016 A 
ATOM     33  C   UNL A   1      38.026  29.872  27.661  1.00  0.00     0.010 A 
ATOM     34  C   UNL A   1      36.861  29.399  29.661  1.00  0.00     0.010 A 
ATOM     35  C   UNL A   1      38.108  29.526  29.022  1.00  0.00    -0.014 A 
BRANCH  35  36
ATOM     36  C   UNL A   1      39.422  29.255  29.779  1.00  0.00     0.031 A 
ATOM     37  C   UNL A   1      40.373  28.129  29.353  1.00  0.00     0.074 A 
ATOM     38  C   UNL A   1      39.785  29.939  30.895  1.00  0.00     0.049 A 
ATOM     39  N   UNL A   1      41.469  27.680  29.930  1.00  0.00    -0.248 NA
ATOM     40  C   UNL A   1      40.034  27.421  28.114  1.00  0.00     0.031 C 
ATOM     41  C   UNL A   1      39.036  31.048  31.478  1.00  0.00     0.029 A 
ATOM     42  N   UNL A   1      40.861  29.789  31.759  1.00  0.00    -0.354 N 
ATOM     43  C   UNL A   1      41.952  26.643  29.124  1.00  0.00     0.074 A 
ATOM     44  C   UNL A   1      41.003  26.515  28.034  1.00  0.00     0.031 C 
ATOM     45  C   UNL A   1      39.649  31.457  32.605  1.00  0.00     0.029 A 
ATOM     46  C   UNL A   1      40.832  30.631  32.856  1.00  0.00     0.049 A 
ATOM     47  H   UNL A   1      41.584  29.137  31.605  1.00  0.00     0.167 HD
ATOM     48  C   UNL A   1      43.068  25.871  29.255  1.00  0.00     0.037 A 
ATOM     49  C   UNL A   1      41.630  30.731  33.948  1.00  0.00     0.037 A 
ATOM     50  C   UNL A   1      44.027  25.958  30.339  1.00  0.00     0.049 A 
ATOM     51  C   UNL A   1      42.839  29.833  34.107  1.00  0.00     0.074 A 
ATOM     52  C   UNL A   1      45.184  25.214  30.533  1.00  0.00     0.029 A 
ATOM     53  N   UNL A   1      43.946  26.830  31.413  1.00  0.00    -0.354 N 
ATOM     54  N   UNL A   1      43.275  28.885  33.313  1.00  0.00    -0.248 NA
ATOM     55  C   UNL A   1      43.672  30.028  35.308  1.00  0.00     0.031 C 
ATOM     56  C   UNL A   1      45.773  25.603  31.742  1.00  0.00     0.029 A 
ATOM     57  C   UNL A   1      45.016  26.631  32.277  1.00  0.00     0.049 A 
ATOM     58  H   UNL A   1      43.232  27.496  31.544  1.00  0.00     0.167 HD
ATOM     59  C   UNL A   1      44.436  28.390  33.905  1.00  0.00     0.074 A 
ATOM     60  C   UNL A   1      44.654  29.160  35.110  1.00  0.00     0.031 C 
ATOM     61  C   UNL A   1      45.246  27.384  33.485  1.00  0.00     0.037 A 
BRANCH  48  62
ATOM     62  C   UNL A   1      43.344  24.829  28.187  1.00  0.00     0.058 A 
ATOM     63  C   UNL A   1      44.114  25.130  27.051  1.00  0.00     0.135 A 
ATOM     64  C   UNL A   1      42.910  23.500  28.339  1.00  0.00     0.135 A 
ATOM     65  F   UNL A   1      44.564  26.378  26.851  1.00  0.00    -0.206 F 
ATOM     66  C   UNL A   1      44.413  24.163  26.092  1.00  0.00     0.059 A 
ATOM     67  C   UNL A   1      43.222  22.510  27.404  1.00  0.00     0.059 A 
ATOM     68  F   UNL A   1      42.190  23.141  29.413  1.00  0.00    -0.206 F 
ATOM     69  C   UNL A   1      43.962  22.856  26.276  1.00  0.00     0.060 A 
BRANCH  69  70
ATOM     70  S   UNL A   1      44.360  21.619  25.019  1.00  0.00     0.124 S 
ATOM     71  O   UNL A   1      44.153  22.377  23.788  1.00  0.00    -0.237 OA
ATOM     72  O   UNL A   1      45.746  21.289  25.333  1.00  0.00    -0.237 OA
ATOM     73  O   UNL A   1      43.393  20.554  25.268  1.00  0.00    -0.744 OA
ENDBRANCH  69  70
ENDBRANCH  48  62
BRANCH  49  74
ATOM     74  C   UNL A   1      41.310  31.719  35.029  1.00  0.00     0.058 A 
ATOM     75  C   UNL A   1      40.338  31.452  36.009  1.00  0.00     0.135 A 
ATOM     76  C   UNL A   1      41.947  32.969  35.080  1.00  0.00     0.135 A 
ATOM     77  F   UNL A   1      39.672  30.287  35.993  1.00  0.00    -0.206 F 
ATOM     78  C   UNL A   1      40.006  32.386  36.990  1.00  0.00     0.059 A 
ATOM     79  C   UNL A   1      41.656  33.907  36.068  1.00  0.00     0.059 A 
ATOM     80  F   UNL A   1      42.879  33.286  34.166  1.00  0.00    -0.206 F 
ATOM     81  C   UNL A   1      40.677  33.609  37.015  1.00  0.00     0.060 A 
BRANCH  81  82
ATOM     82  S   UNL A   1      40.288  34.790  38.328  1.00  0.00     0.124 S 
ATOM     83  O   UNL A   1      39.522  35.797  37.605  1.00  0.00    -0.237 OA
ATOM     84  O   UNL A   1      39.534  33.965  39.268  1.00  0.00    -0.237 OA
ATOM     85  O   UNL A   1      41.604  35.215  38.798  1.00  0.00    -0.744 OA
ENDBRANCH  81  82
ENDBRANCH  49  74
BRANCH  61  86
ATOM     86  C   UNL A   1      46.466  27.071  34.320  1.00  0.00     0.058 A 
ATOM     87  C   UNL A   1      47.696  27.719  34.112  1.00  0.00     0.135 A 
ATOM     88  C   UNL A   1      46.408  26.109  35.343  1.00  0.00     0.135 A 
ATOM     89  F   UNL A   1      47.815  28.648  33.150  1.00  0.00    -0.206 F 
ATOM     90  C   UNL A   1      48.832  27.389  34.849  1.00  0.00     0.059 A 
ATOM     91  C   UNL A   1      47.524  25.785  36.113  1.00  0.00     0.059 A 
ATOM     92  F   UNL A   1      45.259  25.466  35.602  1.00  0.00    -0.206 F 
ATOM     93  C   UNL A   1      48.738  26.415  35.843  1.00  0.00     0.060 A 
BRANCH  93  94
ATOM     94  S   UNL A   1      50.222  25.983  36.780  1.00  0.00     0.124 S 
ATOM     95  O   UNL A   1      51.270  26.593  35.969  1.00  0.00    -0.237 OA
ATOM     96  O   UNL A   1      49.973  26.613  38.072  1.00  0.00    -0.237 OA
ATOM     97  O   UNL A   1      50.206  24.522  36.789  1.00  0.00    -0.744 OA
ENDBRANCH  93  94
ENDBRANCH  61  86
ENDBRANCH  35  36
ENDBRANCH  28  30
ENDBRANCH  27  28
ENDBRANCH  26  27
ENDBRANCH   1  26
TORSDOF 18
ENDMDL
