MODEL 1
REMARK VINA RESULT:     -11.7      0.000      0.000
REMARK SMILES COC(=O)c1ccccc1N(C)S(=O)(=O)c1c[nH]c(C(=O)OCCOC(=O)c2ccc(-c3c4nc(c(-c5c(F)cc(S(=O)(=O)[O-])cc5F)c5ccc([nH]5)c(-c5c(F)cc(S(=O)(=O)[O-])cc5F)c5nc(c(-c6c(F)cc(S(=O)(=O)[O-])cc6F)c6ccc3[nH]6)C=C5)C=C4)cc2)c1
REMARK SMILES IDX 23 1 22 2 20 3 21 4 19 5 16 6 17 7 94 8 18 9 13 11 14 12
REMARK SMILES IDX 15 13 11 14 12 15 10 16 5 17 6 18 7 19 9 20 8 21 3 22 4 23
REMARK SMILES IDX 2 24 1 25 24 26 25 27 26 28 27 29 28 30 29 31 93 32 30 33
REMARK SMILES IDX 92 34 31 35 32 36 33 37 86 38 34 39 91 40 85 41 87 42 35 43
REMARK SMILES IDX 90 44 84 45 83 46 36 48 70 49 49 50 69 51 50 52 53 53 68 54
REMARK SMILES IDX 88 55 51 56 52 57 67 59 89 60 54 61 37 62 38 63 47 64 39 65
REMARK SMILES IDX 40 66 46 67 48 68 41 69 42 70 43 71 44 72 45 73 71 74 72 75
REMARK SMILES IDX 81 76 73 77 74 78 80 79 82 80 75 81 76 82 77 83 78 84 79 85
REMARK SMILES IDX 55 86 56 87 65 88 57 89 58 90 64 91 66 92 59 93 60 94 61 95
REMARK SMILES IDX 62 96 63 97
REMARK H PARENT 18 10 87 47 53 58
REMARK Flexibility Score: inf
ROOT
ATOM      1  C   UNL A   1      33.250  29.684  25.985  1.00  0.00     0.275 C 
ENDROOT
BRANCH   1   2
ATOM      2  O   UNL A   1      31.946  29.135  26.222  1.00  0.00    -0.457 OA
BRANCH   2   3
ATOM      3  C   UNL A   1      31.294  28.689  25.105  1.00  0.00     0.354 C 
ATOM      4  O   UNL A   1      31.019  29.356  24.134  1.00  0.00    -0.244 OA
BRANCH   3   5
ATOM      5  C   UNL A   1      31.003  27.278  25.235  1.00  0.00     0.126 A 
ATOM      6  C   UNL A   1      30.934  25.060  25.719  1.00  0.00     0.106 A 
ATOM      7  C   UNL A   1      29.873  25.372  24.884  1.00  0.00     0.105 A 
ATOM      8  C   UNL A   1      31.693  26.249  25.856  1.00  0.00     0.057 A 
ATOM      9  N   UNL A   1      29.924  26.706  24.601  1.00  0.00    -0.354 N 
ATOM     10  H   UNL A   1      29.284  27.187  24.028  1.00  0.00     0.166 HD
BRANCH   6  11
ATOM     11  S   UNL A   1      31.280  23.457  26.304  1.00  0.00     0.265 S 
ATOM     12  O   UNL A   1      29.997  22.795  26.210  1.00  0.00    -0.201 OA
ATOM     13  O   UNL A   1      31.912  23.766  27.569  1.00  0.00    -0.201 OA
BRANCH  11  14
ATOM     14  N   UNL A   1      32.419  22.559  25.356  1.00  0.00    -0.268 N 
ATOM     15  C   UNL A   1      32.298  21.098  25.591  1.00  0.00     0.164 C 
BRANCH  14  16
ATOM     16  C   UNL A   1      33.812  23.119  25.242  1.00  0.00     0.066 A 
ATOM     17  C   UNL A   1      34.419  23.710  24.105  1.00  0.00     0.084 A 
ATOM     18  C   UNL A   1      35.799  24.043  24.083  1.00  0.00     0.018 A 
ATOM     19  C   UNL A   1      36.627  23.781  25.164  1.00  0.00     0.001 A 
ATOM     20  C   UNL A   1      34.714  22.853  26.307  1.00  0.00     0.028 A 
ATOM     21  C   UNL A   1      36.081  23.178  26.278  1.00  0.00     0.002 A 
BRANCH  17  22
ATOM     22  C   UNL A   1      33.799  24.019  22.808  1.00  0.00     0.340 C 
ATOM     23  O   UNL A   1      33.927  23.314  21.821  1.00  0.00    -0.246 OA
BRANCH  22  24
ATOM     24  O   UNL A   1      33.291  25.272  22.877  1.00  0.00    -0.465 OA
ATOM     25  C   UNL A   1      32.155  25.522  22.042  1.00  0.00     0.282 C 
ENDBRANCH  22  24
ENDBRANCH  17  22
ENDBRANCH  14  16
ENDBRANCH  11  14
ENDBRANCH   6  11
ENDBRANCH   3   5
ENDBRANCH   2   3
ENDBRANCH   1   2
BRANCH   1  26
ATOM     26  C   UNL A   1      34.028  29.876  27.286  1.00  0.00     0.275 C 
BRANCH  26  27
ATOM     27  O   UNL A   1      35.415  29.525  27.196  1.00  0.00    -0.458 OA
BRANCH  27  28
ATOM     28  C   UNL A   1      36.246  30.428  27.766  1.00  0.00     0.338 C 
ATOM     29  O   UNL A   1      36.120  31.642  27.763  1.00  0.00    -0.246 OA
BRANCH  28  30
ATOM     30  C   UNL A   1      37.452  29.781  28.291  1.00  0.00     0.060 A 
ATOM     31  C   UNL A   1      38.610  29.809  27.506  1.00  0.00     0.016 A 
ATOM     32  C   UNL A   1      37.360  28.974  29.431  1.00  0.00     0.016 A 
ATOM     33  C   UNL A   1      39.680  28.998  27.851  1.00  0.00     0.010 A 
ATOM     34  C   UNL A   1      38.415  28.135  29.753  1.00  0.00     0.010 A 
ATOM     35  C   UNL A   1      39.573  28.152  28.963  1.00  0.00    -0.014 A 
BRANCH  35  36
ATOM     36  C   UNL A   1      40.778  27.423  29.402  1.00  0.00     0.031 A 
ATOM     37  C   UNL A   1      40.940  26.107  28.620  1.00  0.00     0.074 A 
ATOM     38  C   UNL A   1      41.511  27.987  30.412  1.00  0.00     0.049 A 
ATOM     39  N   UNL A   1      41.520  24.999  28.965  1.00  0.00    -0.248 NA
ATOM     40  C   UNL A   1      40.280  25.963  27.289  1.00  0.00     0.031 C 
ATOM     41  C   UNL A   1      41.196  29.284  31.051  1.00  0.00     0.029 A 
ATOM     42  N   UNL A   1      42.648  27.616  31.107  1.00  0.00    -0.354 N 
ATOM     43  C   UNL A   1      41.525  24.158  27.828  1.00  0.00     0.074 A 
ATOM     44  C   UNL A   1      40.613  24.734  26.893  1.00  0.00     0.031 C 
ATOM     45  C   UNL A   1      42.051  29.548  32.065  1.00  0.00     0.029 A 
ATOM     46  C   UNL A   1      43.029  28.482  32.172  1.00  0.00     0.049 A 
ATOM     47  H   UNL A   1      43.160  26.806  30.881  1.00  0.00     0.167 HD
ATOM     48  C   UNL A   1      42.423  23.145  27.655  1.00  0.00     0.037 A 
ATOM     49  C   UNL A   1      44.044  28.342  33.086  1.00  0.00     0.037 A 
ATOM     50  C   UNL A   1      43.271  23.060  28.794  1.00  0.00     0.049 A 
ATOM     51  C   UNL A   1      44.838  27.201  32.606  1.00  0.00     0.074 A 
ATOM     52  C   UNL A   1      43.049  22.686  30.092  1.00  0.00     0.029 A 
ATOM     53  N   UNL A   1      44.463  23.743  28.713  1.00  0.00    -0.354 N 
ATOM     54  N   UNL A   1      45.619  27.230  31.569  1.00  0.00    -0.248 NA
ATOM     55  C   UNL A   1      44.718  25.913  33.302  1.00  0.00     0.031 C 
ATOM     56  C   UNL A   1      43.879  23.554  30.827  1.00  0.00     0.029 A 
ATOM     57  C   UNL A   1      44.713  24.266  29.954  1.00  0.00     0.049 A 
ATOM     58  H   UNL A   1      45.029  23.839  27.914  1.00  0.00     0.167 HD
ATOM     59  C   UNL A   1      45.792  25.896  31.300  1.00  0.00     0.074 A 
ATOM     60  C   UNL A   1      45.519  25.184  32.530  1.00  0.00     0.031 C 
ATOM     61  C   UNL A   1      45.542  25.447  30.044  1.00  0.00     0.037 A 
BRANCH  48  62
ATOM     62  C   UNL A   1      42.866  22.383  26.431  1.00  0.00     0.058 A 
ATOM     63  C   UNL A   1      42.462  21.027  26.332  1.00  0.00     0.135 A 
ATOM     64  C   UNL A   1      43.948  22.765  25.624  1.00  0.00     0.135 A 
ATOM     65  F   UNL A   1      41.388  20.579  27.005  1.00  0.00    -0.206 F 
ATOM     66  C   UNL A   1      43.202  20.075  25.640  1.00  0.00     0.059 A 
ATOM     67  C   UNL A   1      44.674  21.834  24.878  1.00  0.00     0.059 A 
ATOM     68  F   UNL A   1      44.392  24.027  25.605  1.00  0.00    -0.206 F 
ATOM     69  C   UNL A   1      44.338  20.484  24.954  1.00  0.00     0.060 A 
BRANCH  69  70
ATOM     70  S   UNL A   1      45.397  19.224  24.218  1.00  0.00     0.124 S 
ATOM     71  O   UNL A   1      45.207  18.108  25.137  1.00  0.00    -0.237 OA
ATOM     72  O   UNL A   1      44.809  19.057  22.892  1.00  0.00    -0.237 OA
ATOM     73  O   UNL A   1      46.716  19.848  24.234  1.00  0.00    -0.744 OA
ENDBRANCH  69  70
ENDBRANCH  48  62
BRANCH  49  74
ATOM     74  C   UNL A   1      44.509  28.944  34.405  1.00  0.00     0.058 A 
ATOM     75  C   UNL A   1      45.555  29.858  34.582  1.00  0.00     0.135 A 
ATOM     76  C   UNL A   1      43.745  28.710  35.590  1.00  0.00     0.135 A 
ATOM     77  F   UNL A   1      46.448  30.086  33.613  1.00  0.00    -0.206 F 
ATOM     78  C   UNL A   1      45.717  30.599  35.772  1.00  0.00     0.059 A 
ATOM     79  C   UNL A   1      43.847  29.469  36.751  1.00  0.00     0.059 A 
ATOM     80  F   UNL A   1      42.819  27.744  35.659  1.00  0.00    -0.206 F 
ATOM     81  C   UNL A   1      44.819  30.443  36.826  1.00  0.00     0.060 A 
BRANCH  81  82
ATOM     82  S   UNL A   1      44.808  31.579  38.230  1.00  0.00     0.124 S 
ATOM     83  O   UNL A   1      44.746  32.879  37.573  1.00  0.00    -0.237 OA
ATOM     84  O   UNL A   1      43.608  31.175  38.958  1.00  0.00    -0.237 OA
ATOM     85  O   UNL A   1      46.066  31.275  38.910  1.00  0.00    -0.744 OA
ENDBRANCH  81  82
ENDBRANCH  49  74
BRANCH  61  86
ATOM     86  C   UNL A   1      45.792  26.467  28.943  1.00  0.00     0.058 A 
ATOM     87  C   UNL A   1      47.086  26.973  28.731  1.00  0.00     0.135 A 
ATOM     88  C   UNL A   1      44.780  27.034  28.149  1.00  0.00     0.135 A 
ATOM     89  F   UNL A   1      48.118  26.486  29.439  1.00  0.00    -0.206 F 
ATOM     90  C   UNL A   1      47.354  27.980  27.797  1.00  0.00     0.059 A 
ATOM     91  C   UNL A   1      45.019  28.036  27.204  1.00  0.00     0.059 A 
ATOM     92  F   UNL A   1      43.517  26.630  28.279  1.00  0.00    -0.206 F 
ATOM     93  C   UNL A   1      46.314  28.509  27.035  1.00  0.00     0.060 A 
BRANCH  93  94
ATOM     94  S   UNL A   1      46.675  29.805  25.827  1.00  0.00     0.124 S 
ATOM     95  O   UNL A   1      47.984  30.286  26.261  1.00  0.00    -0.237 OA
ATOM     96  O   UNL A   1      46.661  29.067  24.569  1.00  0.00    -0.237 OA
ATOM     97  O   UNL A   1      45.580  30.758  26.001  1.00  0.00    -0.744 OA
ENDBRANCH  93  94
ENDBRANCH  61  86
ENDBRANCH  35  36
ENDBRANCH  28  30
ENDBRANCH  27  28
ENDBRANCH  26  27
ENDBRANCH   1  26
TORSDOF 19
ENDMDL
MODEL 2
REMARK VINA RESULT:     -11.5      1.429      2.272
REMARK SMILES COC(=O)c1ccccc1N(C)S(=O)(=O)c1c[nH]c(C(=O)OCCOC(=O)c2ccc(-c3c4nc(c(-c5c(F)cc(S(=O)(=O)[O-])cc5F)c5ccc([nH]5)c(-c5c(F)cc(S(=O)(=O)[O-])cc5F)c5nc(c(-c6c(F)cc(S(=O)(=O)[O-])cc6F)c6ccc3[nH]6)C=C5)C=C4)cc2)c1
REMARK SMILES IDX 23 1 22 2 20 3 21 4 19 5 16 6 17 7 94 8 18 9 13 11 14 12
REMARK SMILES IDX 15 13 11 14 12 15 10 16 5 17 6 18 7 19 9 20 8 21 3 22 4 23
REMARK SMILES IDX 2 24 1 25 24 26 25 27 26 28 27 29 28 30 29 31 93 32 30 33
REMARK SMILES IDX 92 34 31 35 32 36 33 37 86 38 34 39 91 40 85 41 87 42 35 43
REMARK SMILES IDX 90 44 84 45 83 46 36 48 70 49 49 50 69 51 50 52 53 53 68 54
REMARK SMILES IDX 88 55 51 56 52 57 67 59 89 60 54 61 37 62 38 63 47 64 39 65
REMARK SMILES IDX 40 66 46 67 48 68 41 69 42 70 43 71 44 72 45 73 71 74 72 75
REMARK SMILES IDX 81 76 73 77 74 78 80 79 82 80 75 81 76 82 77 83 78 84 79 85
REMARK SMILES IDX 55 86 56 87 65 88 57 89 58 90 64 91 66 92 59 93 60 94 61 95
REMARK SMILES IDX 62 96 63 97
REMARK H PARENT 18 10 87 47 53 58
REMARK Flexibility Score: inf
ROOT
ATOM      1  C   UNL A   1      33.072  29.839  26.570  1.00  0.00     0.275 C 
ENDROOT
BRANCH   1   2
ATOM      2  O   UNL A   1      33.238  29.312  25.246  1.00  0.00    -0.457 OA
BRANCH   2   3
ATOM      3  C   UNL A   1      32.164  28.616  24.762  1.00  0.00     0.354 C 
ATOM      4  O   UNL A   1      31.070  29.077  24.527  1.00  0.00    -0.244 OA
BRANCH   3   5
ATOM      5  C   UNL A   1      32.533  27.235  24.538  1.00  0.00     0.126 A 
ATOM      6  C   UNL A   1      33.529  25.200  24.378  1.00  0.00     0.106 A 
ATOM      7  C   UNL A   1      32.242  25.112  23.872  1.00  0.00     0.105 A 
ATOM      8  C   UNL A   1      33.734  26.564  24.707  1.00  0.00     0.057 A 
ATOM      9  N   UNL A   1      31.653  26.340  23.973  1.00  0.00    -0.354 N 
ATOM     10  H   UNL A   1      30.736  26.552  23.686  1.00  0.00     0.166 HD
BRANCH   6  11
ATOM     11  S   UNL A   1      34.659  23.876  24.413  1.00  0.00     0.265 S 
ATOM     12  O   UNL A   1      35.826  24.465  25.033  1.00  0.00    -0.201 OA
ATOM     13  O   UNL A   1      34.631  23.465  23.026  1.00  0.00    -0.201 OA
BRANCH  11  14
ATOM     14  N   UNL A   1      34.169  22.518  25.371  1.00  0.00    -0.268 N 
ATOM     15  C   UNL A   1      34.117  22.855  26.815  1.00  0.00     0.164 C 
BRANCH  14  16
ATOM     16  C   UNL A   1      34.742  21.175  25.003  1.00  0.00     0.066 A 
ATOM     17  C   UNL A   1      34.038  19.971  24.748  1.00  0.00     0.084 A 
ATOM     18  C   UNL A   1      34.711  18.733  24.578  1.00  0.00     0.018 A 
ATOM     19  C   UNL A   1      36.090  18.636  24.683  1.00  0.00     0.001 A 
ATOM     20  C   UNL A   1      36.149  21.009  25.122  1.00  0.00     0.028 A 
ATOM     21  C   UNL A   1      36.810  19.779  24.961  1.00  0.00     0.002 A 
BRANCH  17  22
ATOM     22  C   UNL A   1      32.583  19.775  24.669  1.00  0.00     0.340 C 
ATOM     23  O   UNL A   1      32.028  18.745  25.012  1.00  0.00    -0.246 OA
BRANCH  22  24
ATOM     24  O   UNL A   1      32.060  20.812  23.973  1.00  0.00    -0.465 OA
ATOM     25  C   UNL A   1      32.093  20.676  22.549  1.00  0.00     0.282 C 
ENDBRANCH  22  24
ENDBRANCH  17  22
ENDBRANCH  14  16
ENDBRANCH  11  14
ENDBRANCH   6  11
ENDBRANCH   3   5
ENDBRANCH   2   3
ENDBRANCH   1   2
BRANCH   1  26
ATOM     26  C   UNL A   1      34.160  29.339  27.518  1.00  0.00     0.275 C 
BRANCH  26  27
ATOM     27  O   UNL A   1      35.493  29.493  27.014  1.00  0.00    -0.458 OA
BRANCH  27  28
ATOM     28  C   UNL A   1      36.243  30.378  27.711  1.00  0.00     0.338 C 
ATOM     29  O   UNL A   1      36.052  31.579  27.812  1.00  0.00    -0.246 OA
BRANCH  28  30
ATOM     30  C   UNL A   1      37.452  29.744  28.244  1.00  0.00     0.060 A 
ATOM     31  C   UNL A   1      38.605  29.750  27.451  1.00  0.00     0.016 A 
ATOM     32  C   UNL A   1      37.368  28.968  29.406  1.00  0.00     0.016 A 
ATOM     33  C   UNL A   1      39.677  28.948  27.810  1.00  0.00     0.010 A 
ATOM     34  C   UNL A   1      38.425  28.137  29.743  1.00  0.00     0.010 A 
ATOM     35  C   UNL A   1      39.577  28.132  28.944  1.00  0.00    -0.014 A 
BRANCH  35  36
ATOM     36  C   UNL A   1      40.785  27.413  29.394  1.00  0.00     0.031 A 
ATOM     37  C   UNL A   1      40.958  26.092  28.623  1.00  0.00     0.074 A 
ATOM     38  C   UNL A   1      41.510  27.990  30.402  1.00  0.00     0.049 A 
ATOM     39  N   UNL A   1      41.543  24.990  28.978  1.00  0.00    -0.248 NA
ATOM     40  C   UNL A   1      40.304  25.934  27.290  1.00  0.00     0.031 C 
ATOM     41  C   UNL A   1      41.184  29.290  31.030  1.00  0.00     0.029 A 
ATOM     42  N   UNL A   1      42.647  27.631  31.104  1.00  0.00    -0.354 N 
ATOM     43  C   UNL A   1      41.558  24.141  27.849  1.00  0.00     0.074 A 
ATOM     44  C   UNL A   1      40.646  24.704  26.905  1.00  0.00     0.031 C 
ATOM     45  C   UNL A   1      42.034  29.567  32.045  1.00  0.00     0.029 A 
ATOM     46  C   UNL A   1      43.018  28.508  32.164  1.00  0.00     0.049 A 
ATOM     47  H   UNL A   1      43.164  26.823  30.887  1.00  0.00     0.167 HD
ATOM     48  C   UNL A   1      42.463  23.132  27.687  1.00  0.00     0.037 A 
ATOM     49  C   UNL A   1      44.030  28.381  33.083  1.00  0.00     0.037 A 
ATOM     50  C   UNL A   1      43.307  23.061  28.830  1.00  0.00     0.049 A 
ATOM     51  C   UNL A   1      44.833  27.242  32.616  1.00  0.00     0.074 A 
ATOM     52  C   UNL A   1      43.082  22.696  30.130  1.00  0.00     0.029 A 
ATOM     53  N   UNL A   1      44.495  23.751  28.749  1.00  0.00    -0.354 N 
ATOM     54  N   UNL A   1      45.618  27.267  31.582  1.00  0.00    -0.248 NA
ATOM     55  C   UNL A   1      44.718  25.959  33.321  1.00  0.00     0.031 C 
ATOM     56  C   UNL A   1      43.904  23.575  30.861  1.00  0.00     0.029 A 
ATOM     57  C   UNL A   1      44.736  24.285  29.986  1.00  0.00     0.049 A 
ATOM     58  H   UNL A   1      45.063  23.845  27.951  1.00  0.00     0.167 HD
ATOM     59  C   UNL A   1      45.800  25.932  31.324  1.00  0.00     0.074 A 
ATOM     60  C   UNL A   1      45.527  25.228  32.558  1.00  0.00     0.031 C 
ATOM     61  C   UNL A   1      45.558  25.472  30.070  1.00  0.00     0.037 A 
BRANCH  48  62
ATOM     62  C   UNL A   1      42.916  22.363  26.471  1.00  0.00     0.058 A 
ATOM     63  C   UNL A   1      42.531  21.000  26.387  1.00  0.00     0.135 A 
ATOM     64  C   UNL A   1      43.990  22.753  25.657  1.00  0.00     0.135 A 
ATOM     65  F   UNL A   1      41.465  20.544  27.067  1.00  0.00    -0.206 F 
ATOM     66  C   UNL A   1      43.285  20.053  25.705  1.00  0.00     0.059 A 
ATOM     67  C   UNL A   1      44.729  21.824  24.920  1.00  0.00     0.059 A 
ATOM     68  F   UNL A   1      44.416  24.021  25.624  1.00  0.00    -0.206 F 
ATOM     69  C   UNL A   1      44.413  20.470  25.012  1.00  0.00     0.060 A 
BRANCH  69  70
ATOM     70  S   UNL A   1      45.490  19.218  24.289  1.00  0.00     0.124 S 
ATOM     71  O   UNL A   1      46.776  19.906  24.282  1.00  0.00    -0.237 OA
ATOM     72  O   UNL A   1      45.368  18.115  25.237  1.00  0.00    -0.237 OA
ATOM     73  O   UNL A   1      44.888  18.977  22.981  1.00  0.00    -0.744 OA
ENDBRANCH  69  70
ENDBRANCH  48  62
BRANCH  49  74
ATOM     74  C   UNL A   1      44.486  28.996  34.399  1.00  0.00     0.058 A 
ATOM     75  C   UNL A   1      43.860  28.864  35.644  1.00  0.00     0.135 A 
ATOM     76  C   UNL A   1      45.753  29.654  34.463  1.00  0.00     0.135 A 
ATOM     77  F   UNL A   1      42.611  28.395  35.745  1.00  0.00    -0.206 F 
ATOM     78  C   UNL A   1      44.505  29.194  36.855  1.00  0.00     0.059 A 
ATOM     79  C   UNL A   1      46.435  29.933  35.643  1.00  0.00     0.059 A 
ATOM     80  F   UNL A   1      46.419  30.023  33.359  1.00  0.00    -0.206 F 
ATOM     81  C   UNL A   1      45.816  29.668  36.846  1.00  0.00     0.060 A 
BRANCH  81  82
ATOM     82  S   UNL A   1      46.777  29.811  38.369  1.00  0.00     0.124 S 
ATOM     83  O   UNL A   1      47.573  28.590  38.345  1.00  0.00    -0.237 OA
ATOM     84  O   UNL A   1      47.512  31.056  38.167  1.00  0.00    -0.237 OA
ATOM     85  O   UNL A   1      45.746  29.872  39.404  1.00  0.00    -0.744 OA
ENDBRANCH  81  82
ENDBRANCH  49  74
BRANCH  61  86
ATOM     86  C   UNL A   1      45.807  26.485  28.962  1.00  0.00     0.058 A 
ATOM     87  C   UNL A   1      47.106  26.963  28.721  1.00  0.00     0.135 A 
ATOM     88  C   UNL A   1      44.790  27.073  28.190  1.00  0.00     0.135 A 
ATOM     89  F   UNL A   1      48.142  26.453  29.407  1.00  0.00    -0.206 F 
ATOM     90  C   UNL A   1      47.376  27.962  27.779  1.00  0.00     0.059 A 
ATOM     91  C   UNL A   1      45.030  28.069  27.237  1.00  0.00     0.059 A 
ATOM     92  F   UNL A   1      43.521  26.697  28.347  1.00  0.00    -0.206 F 
ATOM     93  C   UNL A   1      46.331  28.512  27.039  1.00  0.00     0.060 A 
BRANCH  93  94
ATOM     94  S   UNL A   1      46.693  29.799  25.822  1.00  0.00     0.124 S 
ATOM     95  O   UNL A   1      45.578  30.726  25.999  1.00  0.00    -0.237 OA
ATOM     96  O   UNL A   1      47.994  30.287  26.268  1.00  0.00    -0.237 OA
ATOM     97  O   UNL A   1      46.702  29.081  24.548  1.00  0.00    -0.744 OA
ENDBRANCH  93  94
ENDBRANCH  61  86
ENDBRANCH  35  36
ENDBRANCH  28  30
ENDBRANCH  27  28
ENDBRANCH  26  27
ENDBRANCH   1  26
TORSDOF 19
ENDMDL
MODEL 3
REMARK VINA RESULT:     -10.4      3.611      9.085
REMARK SMILES COC(=O)c1ccccc1N(C)S(=O)(=O)c1c[nH]c(C(=O)OCCOC(=O)c2ccc(-c3c4nc(c(-c5c(F)cc(S(=O)(=O)[O-])cc5F)c5ccc([nH]5)c(-c5c(F)cc(S(=O)(=O)[O-])cc5F)c5nc(c(-c6c(F)cc(S(=O)(=O)[O-])cc6F)c6ccc3[nH]6)C=C5)C=C4)cc2)c1
REMARK SMILES IDX 23 1 22 2 20 3 21 4 19 5 16 6 17 7 94 8 18 9 13 11 14 12
REMARK SMILES IDX 15 13 11 14 12 15 10 16 5 17 6 18 7 19 9 20 8 21 3 22 4 23
REMARK SMILES IDX 2 24 1 25 24 26 25 27 26 28 27 29 28 30 29 31 93 32 30 33
REMARK SMILES IDX 92 34 31 35 32 36 33 37 86 38 34 39 91 40 85 41 87 42 35 43
REMARK SMILES IDX 90 44 84 45 83 46 36 48 70 49 49 50 69 51 50 52 53 53 68 54
REMARK SMILES IDX 88 55 51 56 52 57 67 59 89 60 54 61 37 62 38 63 47 64 39 65
REMARK SMILES IDX 40 66 46 67 48 68 41 69 42 70 43 71 44 72 45 73 71 74 72 75
REMARK SMILES IDX 81 76 73 77 74 78 80 79 82 80 75 81 76 82 77 83 78 84 79 85
REMARK SMILES IDX 55 86 56 87 65 88 57 89 58 90 64 91 66 92 59 93 60 94 61 95
REMARK SMILES IDX 62 96 63 97
REMARK H PARENT 18 10 87 47 53 58
REMARK Flexibility Score: inf
ROOT
ATOM      1  C   UNL A   1      37.929  19.879  25.033  1.00  0.00     0.275 C 
ENDROOT
BRANCH   1   2
ATOM      2  O   UNL A   1      36.908  20.883  25.108  1.00  0.00    -0.457 OA
BRANCH   2   3
ATOM      3  C   UNL A   1      35.626  20.409  25.045  1.00  0.00     0.354 C 
ATOM      4  O   UNL A   1      35.297  19.309  24.665  1.00  0.00    -0.244 OA
BRANCH   3   5
ATOM      5  C   UNL A   1      34.705  21.414  25.533  1.00  0.00     0.126 A 
ATOM      6  C   UNL A   1      32.935  22.734  26.062  1.00  0.00     0.106 A 
ATOM      7  C   UNL A   1      34.077  23.260  26.643  1.00  0.00     0.105 A 
ATOM      8  C   UNL A   1      33.358  21.625  25.287  1.00  0.00     0.057 A 
ATOM      9  N   UNL A   1      35.135  22.459  26.319  1.00  0.00    -0.354 N 
ATOM     10  H   UNL A   1      36.064  22.606  26.605  1.00  0.00     0.166 HD
BRANCH   6  11
ATOM     11  S   UNL A   1      31.355  23.455  26.183  1.00  0.00     0.265 S 
ATOM     12  O   UNL A   1      31.051  23.333  27.592  1.00  0.00    -0.201 OA
ATOM     13  O   UNL A   1      30.645  22.717  25.161  1.00  0.00    -0.201 OA
BRANCH  11  14
ATOM     14  N   UNL A   1      31.280  25.135  25.761  1.00  0.00    -0.268 N 
ATOM     15  C   UNL A   1      29.884  25.638  25.755  1.00  0.00     0.164 C 
BRANCH  14  16
ATOM     16  C   UNL A   1      32.180  25.605  24.650  1.00  0.00     0.066 A 
ATOM     17  C   UNL A   1      33.008  26.757  24.632  1.00  0.00     0.084 A 
ATOM     18  C   UNL A   1      33.678  27.177  23.453  1.00  0.00     0.018 A 
ATOM     19  C   UNL A   1      33.532  26.498  22.253  1.00  0.00     0.001 A 
ATOM     20  C   UNL A   1      32.051  24.966  23.387  1.00  0.00     0.028 A 
ATOM     21  C   UNL A   1      32.709  25.391  22.221  1.00  0.00     0.002 A 
BRANCH  17  22
ATOM     22  C   UNL A   1      33.272  27.696  25.731  1.00  0.00     0.340 C 
ATOM     23  O   UNL A   1      34.271  27.643  26.430  1.00  0.00    -0.246 OA
BRANCH  22  24
ATOM     24  O   UNL A   1      32.152  28.427  25.933  1.00  0.00    -0.465 OA
ATOM     25  C   UNL A   1      31.718  28.525  27.294  1.00  0.00     0.282 C 
ENDBRANCH  22  24
ENDBRANCH  17  22
ENDBRANCH  14  16
ENDBRANCH  11  14
ENDBRANCH   6  11
ENDBRANCH   3   5
ENDBRANCH   2   3
ENDBRANCH   1   2
BRANCH   1  26
ATOM     26  C   UNL A   1      39.295  20.428  25.444  1.00  0.00     0.275 C 
BRANCH  26  27
ATOM     27  O   UNL A   1      40.016  19.586  26.352  1.00  0.00    -0.458 OA
BRANCH  27  28
ATOM     28  C   UNL A   1      41.343  19.513  26.095  1.00  0.00     0.338 C 
ATOM     29  O   UNL A   1      41.965  18.526  25.737  1.00  0.00    -0.246 OA
BRANCH  28  30
ATOM     30  C   UNL A   1      42.020  20.764  26.446  1.00  0.00     0.060 A 
ATOM     31  C   UNL A   1      42.098  21.115  27.798  1.00  0.00     0.016 A 
ATOM     32  C   UNL A   1      42.362  21.669  25.434  1.00  0.00     0.016 A 
ATOM     33  C   UNL A   1      42.500  22.397  28.141  1.00  0.00     0.010 A 
ATOM     34  C   UNL A   1      42.726  22.962  25.776  1.00  0.00     0.010 A 
ATOM     35  C   UNL A   1      42.795  23.321  27.130  1.00  0.00    -0.014 A 
BRANCH  35  36
ATOM     36  C   UNL A   1      43.372  24.622  27.521  1.00  0.00     0.031 A 
ATOM     37  C   UNL A   1      42.265  25.627  27.887  1.00  0.00     0.074 A 
ATOM     38  C   UNL A   1      44.735  24.736  27.468  1.00  0.00     0.049 A 
ATOM     39  N   UNL A   1      42.262  26.922  27.823  1.00  0.00    -0.248 NA
ATOM     40  C   UNL A   1      40.923  25.117  28.298  1.00  0.00     0.031 C 
ATOM     41  C   UNL A   1      45.654  23.639  27.089  1.00  0.00     0.029 A 
ATOM     42  N   UNL A   1      45.631  25.762  27.714  1.00  0.00    -0.354 N 
ATOM     43  C   UNL A   1      41.060  27.368  28.420  1.00  0.00     0.074 A 
ATOM     44  C   UNL A   1      40.217  26.222  28.539  1.00  0.00     0.031 C 
ATOM     45  C   UNL A   1      46.936  24.068  27.055  1.00  0.00     0.029 A 
ATOM     46  C   UNL A   1      46.997  25.464  27.441  1.00  0.00     0.049 A 
ATOM     47  H   UNL A   1      45.343  26.639  28.054  1.00  0.00     0.167 HD
ATOM     48  C   UNL A   1      40.911  28.616  28.952  1.00  0.00     0.037 A 
ATOM     49  C   UNL A   1      48.094  26.287  27.501  1.00  0.00     0.037 A 
ATOM     50  C   UNL A   1      42.105  29.364  28.754  1.00  0.00     0.049 A 
ATOM     51  C   UNL A   1      47.615  27.521  28.141  1.00  0.00     0.074 A 
ATOM     52  C   UNL A   1      42.705  29.876  27.635  1.00  0.00     0.029 A 
ATOM     53  N   UNL A   1      43.010  29.345  29.790  1.00  0.00    -0.354 N 
ATOM     54  N   UNL A   1      47.318  27.631  29.400  1.00  0.00    -0.248 NA
ATOM     55  C   UNL A   1      47.400  28.712  27.309  1.00  0.00     0.031 C 
ATOM     56  C   UNL A   1      44.079  29.718  27.902  1.00  0.00     0.029 A 
ATOM     57  C   UNL A   1      44.260  29.315  29.233  1.00  0.00     0.049 A 
ATOM     58  H   UNL A   1      42.799  29.350  30.751  1.00  0.00     0.167 HD
ATOM     59  C   UNL A   1      46.564  28.777  29.421  1.00  0.00     0.074 A 
ATOM     60  C   UNL A   1      46.925  29.534  28.241  1.00  0.00     0.031 C 
ATOM     61  C   UNL A   1      45.339  28.740  30.004  1.00  0.00     0.037 A 
BRANCH  48  62
ATOM     62  C   UNL A   1      39.917  29.186  29.933  1.00  0.00     0.058 A 
ATOM     63  C   UNL A   1      39.052  30.205  29.459  1.00  0.00     0.135 A 
ATOM     64  C   UNL A   1      40.055  29.092  31.326  1.00  0.00     0.135 A 
ATOM     65  F   UNL A   1      38.792  30.329  28.145  1.00  0.00    -0.206 F 
ATOM     66  C   UNL A   1      38.525  31.185  30.291  1.00  0.00     0.059 A 
ATOM     67  C   UNL A   1      39.489  30.036  32.186  1.00  0.00     0.059 A 
ATOM     68  F   UNL A   1      40.815  28.145  31.889  1.00  0.00    -0.206 F 
ATOM     69  C   UNL A   1      38.791  31.117  31.652  1.00  0.00     0.060 A 
BRANCH  69  70
ATOM     70  S   UNL A   1      38.268  32.488  32.700  1.00  0.00     0.124 S 
ATOM     71  O   UNL A   1      37.937  31.799  33.942  1.00  0.00    -0.237 OA
ATOM     72  O   UNL A   1      39.464  33.325  32.741  1.00  0.00    -0.237 OA
ATOM     73  O   UNL A   1      37.142  33.057  31.965  1.00  0.00    -0.744 OA
ENDBRANCH  69  70
ENDBRANCH  48  62
BRANCH  49  74
ATOM     74  C   UNL A   1      49.551  26.313  27.058  1.00  0.00     0.058 A 
ATOM     75  C   UNL A   1      50.663  25.946  27.825  1.00  0.00     0.135 A 
ATOM     76  C   UNL A   1      49.863  26.582  25.690  1.00  0.00     0.135 A 
ATOM     77  F   UNL A   1      50.570  25.793  29.151  1.00  0.00    -0.206 F 
ATOM     78  C   UNL A   1      51.929  25.699  27.253  1.00  0.00     0.059 A 
ATOM     79  C   UNL A   1      51.084  26.289  25.090  1.00  0.00     0.059 A 
ATOM     80  F   UNL A   1      48.965  27.110  24.847  1.00  0.00    -0.206 F 
ATOM     81  C   UNL A   1      52.111  25.811  25.875  1.00  0.00     0.060 A 
BRANCH  81  82
ATOM     82  S   UNL A   1      53.616  25.215  25.072  1.00  0.00     0.124 S 
ATOM     83  O   UNL A   1      54.655  25.945  25.788  1.00  0.00    -0.237 OA
ATOM     84  O   UNL A   1      53.561  23.777  25.319  1.00  0.00    -0.237 OA
ATOM     85  O   UNL A   1      53.420  25.603  23.677  1.00  0.00    -0.744 OA
ENDBRANCH  81  82
ENDBRANCH  49  74
BRANCH  61  86
ATOM     86  C   UNL A   1      45.209  27.744  31.146  1.00  0.00     0.058 A 
ATOM     87  C   UNL A   1      45.929  27.937  32.337  1.00  0.00     0.135 A 
ATOM     88  C   UNL A   1      44.469  26.551  31.070  1.00  0.00     0.135 A 
ATOM     89  F   UNL A   1      46.659  29.051  32.503  1.00  0.00    -0.206 F 
ATOM     90  C   UNL A   1      45.919  27.004  33.381  1.00  0.00     0.059 A 
ATOM     91  C   UNL A   1      44.434  25.603  32.098  1.00  0.00     0.059 A 
ATOM     92  F   UNL A   1      43.758  26.268  29.979  1.00  0.00    -0.206 F 
ATOM     93  C   UNL A   1      45.167  25.836  33.254  1.00  0.00     0.060 A 
BRANCH  93  94
ATOM     94  S   UNL A   1      45.158  24.641  34.611  1.00  0.00     0.124 S 
ATOM     95  O   UNL A   1      45.864  25.359  35.669  1.00  0.00    -0.237 OA
ATOM     96  O   UNL A   1      43.730  24.439  34.834  1.00  0.00    -0.237 OA
ATOM     97  O   UNL A   1      45.872  23.489  34.066  1.00  0.00    -0.744 OA
ENDBRANCH  93  94
ENDBRANCH  61  86
ENDBRANCH  35  36
ENDBRANCH  28  30
ENDBRANCH  27  28
ENDBRANCH  26  27
ENDBRANCH   1  26
TORSDOF 19
ENDMDL
