MODEL 1
REMARK VINA RESULT:     -10.4      0.000      0.000
REMARK SMILES C[C@]1(C(=O)OCCOC(=O)c2ccc(-c3c4nc(c(-c5c(F)cc(S(=O)(=O)[O-])cc5F)c5ccc([nH]5)c(-c5c(F)cc(S(=O)(=O)[O-])cc5F)c5nc(c(-c6c(F)cc(S(=O)(=O)[O-])cc6F)c6ccc3[nH]6)C=C5)C=C4)cc2)CCN(c2ccc([N+](=O)[O-])c(N)n2)C1
REMARK SMILES IDX 7 1 6 2 5 3 3 4 4 5 2 6 1 7 77 8 90 9 78 10 79 11 80 12
REMARK SMILES IDX 81 13 89 14 82 15 87 16 83 17 88 18 84 21 85 22 86 23 8 24
REMARK SMILES IDX 9 25 10 26 11 27 12 28 76 29 13 30 75 31 14 32 15 33 16 34
REMARK SMILES IDX 69 35 17 36 74 37 68 38 70 39 18 40 73 41 67 42 66 43 19 45
REMARK SMILES IDX 53 46 32 47 52 48 33 49 36 50 51 51 71 52 34 53 35 54 50 56
REMARK SMILES IDX 72 57 37 58 20 59 21 60 30 61 22 62 23 63 29 64 31 65 24 66
REMARK SMILES IDX 25 67 26 68 27 69 28 70 54 71 55 72 64 73 56 74 57 75 63 76
REMARK SMILES IDX 65 77 58 78 59 79 60 80 61 81 62 82 38 83 39 84 48 85 40 86
REMARK SMILES IDX 41 87 47 88 49 89 42 90 43 91 44 92 45 93 46 94
REMARK H PARENT 88 19 88 20 70 44 36 55
REMARK Flexibility Score: inf
ROOT
ATOM      1  C   UNL A   1      34.558  33.249  28.083  1.00  0.00     0.275 C 
ENDROOT
BRANCH   1   2
ATOM      2  C   UNL A   1      33.760  34.431  28.630  1.00  0.00     0.274 C 
BRANCH   2   3
ATOM      3  O   UNL A   1      33.398  34.215  30.011  1.00  0.00    -0.462 OA
BRANCH   3   4
ATOM      4  C   UNL A   1      33.562  35.282  30.837  1.00  0.00     0.313 C 
ATOM      5  O   UNL A   1      33.089  36.393  30.622  1.00  0.00    -0.252 OA
BRANCH   4   6
ATOM      6  C   UNL A   1      34.394  34.979  32.073  1.00  0.00     0.084 C 
ATOM      7  C   UNL A   1      34.628  36.303  32.817  1.00  0.00     0.026 C 
ATOM      8  C   UNL A   1      33.665  33.955  32.954  1.00  0.00     0.042 C 
ATOM      9  C   UNL A   1      35.722  34.257  31.816  1.00  0.00     0.136 C 
ATOM     10  C   UNL A   1      34.747  33.334  33.831  1.00  0.00     0.119 C 
ATOM     11  N   UNL A   1      35.971  33.552  33.071  1.00  0.00    -0.355 N 
BRANCH  11  12
ATOM     12  C   UNL A   1      37.046  32.719  33.244  1.00  0.00     0.131 A 
ATOM     13  C   UNL A   1      38.324  33.240  33.420  1.00  0.00     0.054 A 
ATOM     14  N   UNL A   1      36.835  31.383  33.266  1.00  0.00    -0.207 NA
ATOM     15  C   UNL A   1      39.395  32.378  33.627  1.00  0.00     0.093 A 
ATOM     16  C   UNL A   1      37.869  30.529  33.415  1.00  0.00     0.204 A 
ATOM     17  C   UNL A   1      39.157  31.002  33.618  1.00  0.00     0.311 A 
BRANCH  16  18
ATOM     18  N   UNL A   1      37.505  29.198  33.431  1.00  0.00    -0.378 N 
ATOM     19  H   UNL A   1      36.719  28.896  32.921  1.00  0.00     0.158 HD
ATOM     20  H   UNL A   1      38.031  28.550  33.953  1.00  0.00     0.158 HD
ENDBRANCH  16  18
BRANCH  17  21
ATOM     21  N   UNL A   1      40.272  30.096  33.811  1.00  0.00     0.066 N 
ATOM     22  O   UNL A   1      40.536  29.314  32.884  1.00  0.00    -0.258 OA
ATOM     23  O   UNL A   1      40.859  30.111  34.904  1.00  0.00    -0.258 OA
ENDBRANCH  17  21
ENDBRANCH  11  12
ENDBRANCH   4   6
ENDBRANCH   3   4
ENDBRANCH   2   3
ENDBRANCH   1   2
BRANCH   1  24
ATOM     24  O   UNL A   1      34.347  32.097  28.916  1.00  0.00    -0.458 OA
BRANCH  24  25
ATOM     25  C   UNL A   1      34.351  30.905  28.276  1.00  0.00     0.338 C 
ATOM     26  O   UNL A   1      33.425  30.405  27.661  1.00  0.00    -0.246 OA
BRANCH  25  27
ATOM     27  C   UNL A   1      35.673  30.255  28.403  1.00  0.00     0.060 A 
ATOM     28  C   UNL A   1      36.130  29.804  29.639  1.00  0.00     0.016 A 
ATOM     29  C   UNL A   1      36.523  30.223  27.297  1.00  0.00     0.016 A 
ATOM     30  C   UNL A   1      37.472  29.462  29.805  1.00  0.00     0.010 A 
ATOM     31  C   UNL A   1      37.835  29.759  27.441  1.00  0.00     0.010 A 
ATOM     32  C   UNL A   1      38.346  29.428  28.708  1.00  0.00    -0.014 A 
BRANCH  32  33
ATOM     33  C   UNL A   1      39.794  29.110  28.893  1.00  0.00     0.031 A 
ATOM     34  C   UNL A   1      40.727  30.130  29.501  1.00  0.00     0.074 A 
ATOM     35  C   UNL A   1      40.281  27.899  28.548  1.00  0.00     0.049 A 
ATOM     36  N   UNL A   1      42.035  30.108  29.588  1.00  0.00    -0.248 NA
ATOM     37  C   UNL A   1      40.115  31.343  30.068  1.00  0.00     0.031 C 
ATOM     38  C   UNL A   1      39.501  26.800  27.976  1.00  0.00     0.029 A 
ATOM     39  N   UNL A   1      41.551  27.385  28.643  1.00  0.00    -0.354 N 
ATOM     40  C   UNL A   1      42.402  31.328  30.147  1.00  0.00     0.074 A 
ATOM     41  C   UNL A   1      41.180  32.065  30.388  1.00  0.00     0.031 C 
ATOM     42  C   UNL A   1      40.291  25.725  27.833  1.00  0.00     0.029 A 
ATOM     43  C   UNL A   1      41.653  26.082  28.217  1.00  0.00     0.049 A 
ATOM     44  H   UNL A   1      42.317  27.901  28.984  1.00  0.00     0.167 HD
ATOM     45  C   UNL A   1      43.643  31.794  30.431  1.00  0.00     0.037 A 
ATOM     46  C   UNL A   1      42.722  25.268  28.114  1.00  0.00     0.037 A 
ATOM     47  C   UNL A   1      44.853  31.032  30.268  1.00  0.00     0.049 A 
ATOM     48  C   UNL A   1      44.082  25.789  28.474  1.00  0.00     0.074 A 
ATOM     49  C   UNL A   1      46.159  31.417  30.529  1.00  0.00     0.029 A 
ATOM     50  N   UNL A   1      44.906  29.716  29.834  1.00  0.00    -0.354 N 
ATOM     51  N   UNL A   1      44.418  26.979  28.913  1.00  0.00    -0.248 NA
ATOM     52  C   UNL A   1      45.213  24.868  28.301  1.00  0.00     0.031 C 
ATOM     53  C   UNL A   1      47.002  30.336  30.241  1.00  0.00     0.029 A 
ATOM     54  C   UNL A   1      46.219  29.272  29.826  1.00  0.00     0.049 A 
ATOM     55  H   UNL A   1      44.126  29.178  29.569  1.00  0.00     0.167 HD
ATOM     56  C   UNL A   1      45.799  26.951  29.062  1.00  0.00     0.074 A 
ATOM     57  C   UNL A   1      46.233  25.618  28.695  1.00  0.00     0.031 C 
ATOM     58  C   UNL A   1      46.633  27.944  29.454  1.00  0.00     0.037 A 
BRANCH  45  59
ATOM     59  C   UNL A   1      43.757  33.211  30.921  1.00  0.00     0.058 A 
ATOM     60  C   UNL A   1      43.905  34.294  30.043  1.00  0.00     0.135 A 
ATOM     61  C   UNL A   1      43.693  33.486  32.298  1.00  0.00     0.135 A 
ATOM     62  F   UNL A   1      43.990  34.085  28.720  1.00  0.00    -0.206 F 
ATOM     63  C   UNL A   1      44.010  35.600  30.513  1.00  0.00     0.059 A 
ATOM     64  C   UNL A   1      43.775  34.785  32.788  1.00  0.00     0.059 A 
ATOM     65  F   UNL A   1      43.552  32.485  33.181  1.00  0.00    -0.206 F 
ATOM     66  C   UNL A   1      43.950  35.835  31.888  1.00  0.00     0.060 A 
BRANCH  66  67
ATOM     67  S   UNL A   1      44.093  37.532  32.491  1.00  0.00     0.124 S 
ATOM     68  O   UNL A   1      43.816  38.295  31.279  1.00  0.00    -0.237 OA
ATOM     69  O   UNL A   1      43.063  37.589  33.524  1.00  0.00    -0.237 OA
ATOM     70  O   UNL A   1      45.467  37.602  32.978  1.00  0.00    -0.744 OA
ENDBRANCH  66  67
ENDBRANCH  45  59
BRANCH  46  71
ATOM     71  C   UNL A   1      42.544  23.878  27.620  1.00  0.00     0.058 A 
ATOM     72  C   UNL A   1      42.512  23.602  26.246  1.00  0.00     0.135 A 
ATOM     73  C   UNL A   1      42.440  22.798  28.510  1.00  0.00     0.135 A 
ATOM     74  F   UNL A   1      42.597  24.605  25.358  1.00  0.00    -0.206 F 
ATOM     75  C   UNL A   1      42.383  22.302  25.769  1.00  0.00     0.059 A 
ATOM     76  C   UNL A   1      42.335  21.488  28.057  1.00  0.00     0.059 A 
ATOM     77  F   UNL A   1      42.479  23.013  29.834  1.00  0.00    -0.206 F 
ATOM     78  C   UNL A   1      42.301  21.250  26.683  1.00  0.00     0.060 A 
BRANCH  78  79
ATOM     79  S   UNL A   1      42.219  19.555  26.066  1.00  0.00     0.124 S 
ATOM     80  O   UNL A   1      43.206  19.586  24.993  1.00  0.00    -0.237 OA
ATOM     81  O   UNL A   1      42.582  18.773  27.244  1.00  0.00    -0.237 OA
ATOM     82  O   UNL A   1      40.827  19.425  25.645  1.00  0.00    -0.744 OA
ENDBRANCH  78  79
ENDBRANCH  46  71
BRANCH  58  83
ATOM     83  C   UNL A   1      48.096  27.616  29.515  1.00  0.00     0.058 A 
ATOM     84  C   UNL A   1      48.927  27.786  28.396  1.00  0.00     0.135 A 
ATOM     85  C   UNL A   1      48.675  27.143  30.701  1.00  0.00     0.135 A 
ATOM     86  F   UNL A   1      48.418  28.230  27.237  1.00  0.00    -0.206 F 
ATOM     87  C   UNL A   1      50.281  27.469  28.445  1.00  0.00     0.059 A 
ATOM     88  C   UNL A   1      50.030  26.835  30.778  1.00  0.00     0.059 A 
ATOM     89  F   UNL A   1      47.922  26.972  31.799  1.00  0.00    -0.206 F 
ATOM     90  C   UNL A   1      50.821  26.986  29.639  1.00  0.00     0.060 A 
BRANCH  90  91
ATOM     91  S   UNL A   1      52.579  26.581  29.699  1.00  0.00     0.124 S 
ATOM     92  O   UNL A   1      53.170  27.886  29.973  1.00  0.00    -0.237 OA
ATOM     93  O   UNL A   1      52.647  25.614  30.789  1.00  0.00    -0.237 OA
ATOM     94  O   UNL A   1      52.844  26.037  28.370  1.00  0.00    -0.744 OA
ENDBRANCH  90  91
ENDBRANCH  58  83
ENDBRANCH  32  33
ENDBRANCH  25  27
ENDBRANCH  24  25
ENDBRANCH   1  24
TORSDOF 17
ENDMDL
MODEL 2
REMARK VINA RESULT:     -10.3      3.470      5.726
REMARK SMILES C[C@]1(C(=O)OCCOC(=O)c2ccc(-c3c4nc(c(-c5c(F)cc(S(=O)(=O)[O-])cc5F)c5ccc([nH]5)c(-c5c(F)cc(S(=O)(=O)[O-])cc5F)c5nc(c(-c6c(F)cc(S(=O)(=O)[O-])cc6F)c6ccc3[nH]6)C=C5)C=C4)cc2)CCN(c2ccc([N+](=O)[O-])c(N)n2)C1
REMARK SMILES IDX 7 1 6 2 5 3 3 4 4 5 2 6 1 7 77 8 90 9 78 10 79 11 80 12
REMARK SMILES IDX 81 13 89 14 82 15 87 16 83 17 88 18 84 21 85 22 86 23 8 24
REMARK SMILES IDX 9 25 10 26 11 27 12 28 76 29 13 30 75 31 14 32 15 33 16 34
REMARK SMILES IDX 69 35 17 36 74 37 68 38 70 39 18 40 73 41 67 42 66 43 19 45
REMARK SMILES IDX 53 46 32 47 52 48 33 49 36 50 51 51 71 52 34 53 35 54 50 56
REMARK SMILES IDX 72 57 37 58 20 59 21 60 30 61 22 62 23 63 29 64 31 65 24 66
REMARK SMILES IDX 25 67 26 68 27 69 28 70 54 71 55 72 64 73 56 74 57 75 63 76
REMARK SMILES IDX 65 77 58 78 59 79 60 80 61 81 62 82 38 83 39 84 48 85 40 86
REMARK SMILES IDX 41 87 47 88 49 89 42 90 43 91 44 92 45 93 46 94
REMARK H PARENT 88 19 88 20 70 44 36 55
REMARK Flexibility Score: inf
ROOT
ATOM      1  C   UNL A   1      34.884  31.188  27.714  1.00  0.00     0.275 C 
ENDROOT
BRANCH   1   2
ATOM      2  C   UNL A   1      33.461  30.830  27.290  1.00  0.00     0.274 C 
BRANCH   2   3
ATOM      3  O   UNL A   1      33.467  29.989  26.116  1.00  0.00    -0.462 OA
BRANCH   3   4
ATOM      4  C   UNL A   1      32.278  29.414  25.797  1.00  0.00     0.313 C 
ATOM      5  O   UNL A   1      31.360  30.004  25.238  1.00  0.00    -0.252 OA
BRANCH   4   6
ATOM      6  C   UNL A   1      32.177  27.950  26.197  1.00  0.00     0.084 C 
ATOM      7  C   UNL A   1      31.538  27.887  27.593  1.00  0.00     0.026 C 
ATOM      8  C   UNL A   1      31.348  27.182  25.159  1.00  0.00     0.042 C 
ATOM      9  C   UNL A   1      33.494  27.163  26.165  1.00  0.00     0.136 C 
ATOM     10  C   UNL A   1      31.739  25.719  25.332  1.00  0.00     0.119 C 
ATOM     11  N   UNL A   1      33.059  25.786  25.947  1.00  0.00    -0.355 N 
BRANCH  11  12
ATOM     12  C   UNL A   1      33.945  24.752  25.788  1.00  0.00     0.131 A 
ATOM     13  C   UNL A   1      34.901  24.790  24.779  1.00  0.00     0.054 A 
ATOM     14  N   UNL A   1      33.887  23.709  26.648  1.00  0.00    -0.207 NA
ATOM     15  C   UNL A   1      35.812  23.747  24.656  1.00  0.00     0.093 A 
ATOM     16  C   UNL A   1      34.730  22.664  26.514  1.00  0.00     0.204 A 
ATOM     17  C   UNL A   1      35.715  22.668  25.538  1.00  0.00     0.311 A 
BRANCH  16  18
ATOM     18  N   UNL A   1      34.565  21.680  27.467  1.00  0.00    -0.378 N 
ATOM     19  H   UNL A   1      34.744  20.739  27.239  1.00  0.00     0.158 HD
ATOM     20  H   UNL A   1      34.269  21.919  28.375  1.00  0.00     0.158 HD
ENDBRANCH  16  18
BRANCH  17  21
ATOM     21  N   UNL A   1      36.647  21.565  25.402  1.00  0.00     0.066 N 
ATOM     22  O   UNL A   1      37.855  21.845  25.359  1.00  0.00    -0.258 OA
ATOM     23  O   UNL A   1      36.188  20.419  25.279  1.00  0.00    -0.258 OA
ENDBRANCH  17  21
ENDBRANCH  11  12
ENDBRANCH   4   6
ENDBRANCH   3   4
ENDBRANCH   2   3
ENDBRANCH   1   2
BRANCH   1  24
ATOM     24  O   UNL A   1      35.218  30.488  28.924  1.00  0.00    -0.458 OA
BRANCH  24  25
ATOM     25  C   UNL A   1      36.255  30.998  29.626  1.00  0.00     0.338 C 
ATOM     26  O   UNL A   1      36.217  31.936  30.405  1.00  0.00    -0.246 OA
BRANCH  25  27
ATOM     27  C   UNL A   1      37.494  30.245  29.338  1.00  0.00     0.060 A 
ATOM     28  C   UNL A   1      38.288  29.756  30.374  1.00  0.00     0.016 A 
ATOM     29  C   UNL A   1      37.939  30.148  28.020  1.00  0.00     0.016 A 
ATOM     30  C   UNL A   1      39.582  29.307  30.108  1.00  0.00     0.010 A 
ATOM     31  C   UNL A   1      39.188  29.581  27.746  1.00  0.00     0.010 A 
ATOM     32  C   UNL A   1      40.053  29.207  28.791  1.00  0.00    -0.014 A 
BRANCH  32  33
ATOM     33  C   UNL A   1      41.454  28.774  28.510  1.00  0.00     0.031 A 
ATOM     34  C   UNL A   1      42.597  29.752  28.652  1.00  0.00     0.074 A 
ATOM     35  C   UNL A   1      41.722  27.500  28.153  1.00  0.00     0.049 A 
ATOM     36  N   UNL A   1      43.851  29.618  28.294  1.00  0.00    -0.248 NA
ATOM     37  C   UNL A   1      42.289  31.058  29.257  1.00  0.00     0.031 C 
ATOM     38  C   UNL A   1      40.731  26.433  28.001  1.00  0.00     0.029 A 
ATOM     39  N   UNL A   1      42.915  26.882  27.870  1.00  0.00    -0.354 N 
ATOM     40  C   UNL A   1      44.458  30.841  28.561  1.00  0.00     0.074 A 
ATOM     41  C   UNL A   1      43.439  31.703  29.119  1.00  0.00     0.031 C 
ATOM     42  C   UNL A   1      41.360  25.283  27.717  1.00  0.00     0.029 A 
ATOM     43  C   UNL A   1      42.789  25.544  27.578  1.00  0.00     0.049 A 
ATOM     44  H   UNL A   1      43.780  27.352  27.874  1.00  0.00     0.167 HD
ATOM     45  C   UNL A   1      45.745  31.214  28.357  1.00  0.00     0.037 A 
ATOM     46  C   UNL A   1      43.708  24.631  27.209  1.00  0.00     0.037 A 
ATOM     47  C   UNL A   1      46.779  30.333  27.879  1.00  0.00     0.049 A 
ATOM     48  C   UNL A   1      45.137  25.054  27.030  1.00  0.00     0.074 A 
ATOM     49  C   UNL A   1      48.115  30.618  27.641  1.00  0.00     0.029 A 
ATOM     50  N   UNL A   1      46.604  28.987  27.597  1.00  0.00    -0.354 N 
ATOM     51  N   UNL A   1      45.671  26.239  27.198  1.00  0.00    -0.248 NA
ATOM     52  C   UNL A   1      46.083  24.021  26.587  1.00  0.00     0.031 C 
ATOM     53  C   UNL A   1      48.743  29.445  27.204  1.00  0.00     0.029 A 
ATOM     54  C   UNL A   1      47.805  28.426  27.195  1.00  0.00     0.049 A 
ATOM     55  H   UNL A   1      45.750  28.502  27.672  1.00  0.00     0.167 HD
ATOM     56  C   UNL A   1      47.015  26.098  26.874  1.00  0.00     0.074 A 
ATOM     57  C   UNL A   1      47.218  24.706  26.529  1.00  0.00     0.031 C 
ATOM     58  C   UNL A   1      47.988  27.040  26.852  1.00  0.00     0.037 A 
BRANCH  45  59
ATOM     59  C   UNL A   1      46.103  32.650  28.623  1.00  0.00     0.058 A 
ATOM     60  C   UNL A   1      46.575  33.082  29.871  1.00  0.00     0.135 A 
ATOM     61  C   UNL A   1      45.992  33.603  27.596  1.00  0.00     0.135 A 
ATOM     62  F   UNL A   1      46.682  32.215  30.890  1.00  0.00    -0.206 F 
ATOM     63  C   UNL A   1      46.901  34.415  30.101  1.00  0.00     0.059 A 
ATOM     64  C   UNL A   1      46.332  34.937  27.799  1.00  0.00     0.059 A 
ATOM     65  F   UNL A   1      45.546  33.242  26.383  1.00  0.00    -0.206 F 
ATOM     66  C   UNL A   1      46.771  35.337  29.060  1.00  0.00     0.060 A 
BRANCH  66  67
ATOM     67  S   UNL A   1      47.191  37.067  29.367  1.00  0.00     0.124 S 
ATOM     68  O   UNL A   1      46.055  37.753  28.760  1.00  0.00    -0.237 OA
ATOM     69  O   UNL A   1      47.259  37.123  30.824  1.00  0.00    -0.237 OA
ATOM     70  O   UNL A   1      48.467  37.232  28.679  1.00  0.00    -0.744 OA
ENDBRANCH  66  67
ENDBRANCH  45  59
BRANCH  46  71
ATOM     71  C   UNL A   1      43.291  23.227  26.958  1.00  0.00     0.058 A 
ATOM     72  C   UNL A   1      43.210  22.724  25.651  1.00  0.00     0.135 A 
ATOM     73  C   UNL A   1      43.002  22.354  28.017  1.00  0.00     0.135 A 
ATOM     74  F   UNL A   1      43.466  23.526  24.606  1.00  0.00    -0.206 F 
ATOM     75  C   UNL A   1      42.857  21.402  25.403  1.00  0.00     0.059 A 
ATOM     76  C   UNL A   1      42.671  21.022  27.795  1.00  0.00     0.059 A 
ATOM     77  F   UNL A   1      43.079  22.787  29.285  1.00  0.00    -0.206 F 
ATOM     78  C   UNL A   1      42.595  20.556  26.482  1.00  0.00     0.060 A 
BRANCH  78  79
ATOM     79  S   UNL A   1      42.219  18.819  26.165  1.00  0.00     0.124 S 
ATOM     80  O   UNL A   1      43.201  18.489  25.139  1.00  0.00    -0.237 OA
ATOM     81  O   UNL A   1      42.433  18.207  27.473  1.00  0.00    -0.237 OA
ATOM     82  O   UNL A   1      40.828  18.858  25.722  1.00  0.00    -0.744 OA
ENDBRANCH  78  79
ENDBRANCH  46  71
BRANCH  58  83
ATOM     83  C   UNL A   1      49.361  26.586  26.450  1.00  0.00     0.058 A 
ATOM     84  C   UNL A   1      49.820  26.734  25.132  1.00  0.00     0.135 A 
ATOM     85  C   UNL A   1      50.229  26.012  27.390  1.00  0.00     0.135 A 
ATOM     86  F   UNL A   1      49.024  27.272  24.195  1.00  0.00    -0.206 F 
ATOM     87  C   UNL A   1      51.087  26.301  24.753  1.00  0.00     0.059 A 
ATOM     88  C   UNL A   1      51.506  25.587  27.038  1.00  0.00     0.059 A 
ATOM     89  F   UNL A   1      49.837  25.857  28.665  1.00  0.00    -0.206 F 
ATOM     90  C   UNL A   1      51.919  25.721  25.712  1.00  0.00     0.060 A 
BRANCH  90  91
ATOM     91  S   UNL A   1      53.564  25.165  25.217  1.00  0.00     0.124 S 
ATOM     92  O   UNL A   1      53.416  23.715  25.290  1.00  0.00    -0.237 OA
ATOM     93  O   UNL A   1      53.698  25.721  23.875  1.00  0.00    -0.237 OA
ATOM     94  O   UNL A   1      54.437  25.759  26.225  1.00  0.00    -0.744 OA
ENDBRANCH  90  91
ENDBRANCH  58  83
ENDBRANCH  32  33
ENDBRANCH  25  27
ENDBRANCH  24  25
ENDBRANCH   1  24
TORSDOF 17
ENDMDL
MODEL 3
REMARK VINA RESULT:     -10.2      5.502     12.165
REMARK SMILES C[C@]1(C(=O)OCCOC(=O)c2ccc(-c3c4nc(c(-c5c(F)cc(S(=O)(=O)[O-])cc5F)c5ccc([nH]5)c(-c5c(F)cc(S(=O)(=O)[O-])cc5F)c5nc(c(-c6c(F)cc(S(=O)(=O)[O-])cc6F)c6ccc3[nH]6)C=C5)C=C4)cc2)CCN(c2ccc([N+](=O)[O-])c(N)n2)C1
REMARK SMILES IDX 7 1 6 2 5 3 3 4 4 5 2 6 1 7 77 8 90 9 78 10 79 11 80 12
REMARK SMILES IDX 81 13 89 14 82 15 87 16 83 17 88 18 84 21 85 22 86 23 8 24
REMARK SMILES IDX 9 25 10 26 11 27 12 28 76 29 13 30 75 31 14 32 15 33 16 34
REMARK SMILES IDX 69 35 17 36 74 37 68 38 70 39 18 40 73 41 67 42 66 43 19 45
REMARK SMILES IDX 53 46 32 47 52 48 33 49 36 50 51 51 71 52 34 53 35 54 50 56
REMARK SMILES IDX 72 57 37 58 20 59 21 60 30 61 22 62 23 63 29 64 31 65 24 66
REMARK SMILES IDX 25 67 26 68 27 69 28 70 54 71 55 72 64 73 56 74 57 75 63 76
REMARK SMILES IDX 65 77 58 78 59 79 60 80 61 81 62 82 38 83 39 84 48 85 40 86
REMARK SMILES IDX 41 87 47 88 49 89 42 90 43 91 44 92 45 93 46 94
REMARK H PARENT 88 19 88 20 70 44 36 55
REMARK Flexibility Score: inf
ROOT
ATOM      1  C   UNL A   1      39.247  22.450  26.355  1.00  0.00     0.275 C 
ENDROOT
BRANCH   1   2
ATOM      2  C   UNL A   1      38.114  23.347  25.862  1.00  0.00     0.274 C 
BRANCH   2   3
ATOM      3  O   UNL A   1      36.897  22.591  25.683  1.00  0.00    -0.462 OA
BRANCH   3   4
ATOM      4  C   UNL A   1      36.284  22.737  24.480  1.00  0.00     0.313 C 
ATOM      5  O   UNL A   1      36.853  22.607  23.401  1.00  0.00    -0.252 OA
BRANCH   4   6
ATOM      6  C   UNL A   1      34.806  23.080  24.581  1.00  0.00     0.084 C 
ATOM      7  C   UNL A   1      34.005  21.811  24.252  1.00  0.00     0.026 C 
ATOM      8  C   UNL A   1      34.488  23.603  25.989  1.00  0.00     0.042 C 
ATOM      9  C   UNL A   1      34.339  24.258  23.716  1.00  0.00     0.136 C 
ATOM     10  C   UNL A   1      33.192  24.392  25.844  1.00  0.00     0.119 C 
ATOM     11  N   UNL A   1      33.171  24.762  24.434  1.00  0.00    -0.355 N 
BRANCH  11  12
ATOM     12  C   UNL A   1      32.480  25.873  24.024  1.00  0.00     0.131 A 
ATOM     13  C   UNL A   1      31.225  25.749  23.438  1.00  0.00     0.054 A 
ATOM     14  N   UNL A   1      33.032  27.092  24.225  1.00  0.00    -0.207 NA
ATOM     15  C   UNL A   1      30.528  26.890  23.060  1.00  0.00     0.093 A 
ATOM     16  C   UNL A   1      32.393  28.208  23.820  1.00  0.00     0.204 A 
ATOM     17  C   UNL A   1      31.130  28.135  23.252  1.00  0.00     0.311 A 
BRANCH  16  18
ATOM     18  N   UNL A   1      33.067  29.379  24.100  1.00  0.00    -0.378 N 
ATOM     19  H   UNL A   1      32.741  29.976  24.812  1.00  0.00     0.158 HD
ATOM     20  H   UNL A   1      33.874  29.618  23.589  1.00  0.00     0.158 HD
ENDBRANCH  16  18
BRANCH  17  21
ATOM     21  N   UNL A   1      30.418  29.330  22.839  1.00  0.00     0.066 N 
ATOM     22  O   UNL A   1      29.999  30.079  23.735  1.00  0.00    -0.258 OA
ATOM     23  O   UNL A   1      30.216  29.504  21.627  1.00  0.00    -0.258 OA
ENDBRANCH  17  21
ENDBRANCH  11  12
ENDBRANCH   4   6
ENDBRANCH   3   4
ENDBRANCH   2   3
ENDBRANCH   1   2
BRANCH   1  24
ATOM     24  O   UNL A   1      39.952  23.105  27.423  1.00  0.00    -0.458 OA
BRANCH  24  25
ATOM     25  C   UNL A   1      40.846  24.046  27.041  1.00  0.00     0.338 C 
ATOM     26  O   UNL A   1      41.703  23.932  26.181  1.00  0.00    -0.246 OA
BRANCH  25  27
ATOM     27  C   UNL A   1      40.645  25.292  27.812  1.00  0.00     0.060 A 
ATOM     28  C   UNL A   1      41.630  26.277  27.843  1.00  0.00     0.016 A 
ATOM     29  C   UNL A   1      39.518  25.414  28.624  1.00  0.00     0.016 A 
ATOM     30  C   UNL A   1      41.562  27.301  28.788  1.00  0.00     0.010 A 
ATOM     31  C   UNL A   1      39.393  26.512  29.481  1.00  0.00     0.010 A 
ATOM     32  C   UNL A   1      40.441  27.440  29.619  1.00  0.00    -0.014 A 
BRANCH  32  33
ATOM     33  C   UNL A   1      40.389  28.507  30.663  1.00  0.00     0.031 A 
ATOM     34  C   UNL A   1      41.390  28.515  31.795  1.00  0.00     0.074 A 
ATOM     35  C   UNL A   1      39.469  29.492  30.595  1.00  0.00     0.049 A 
ATOM     36  N   UNL A   1      41.407  29.248  32.881  1.00  0.00    -0.248 NA
ATOM     37  C   UNL A   1      42.507  27.560  31.706  1.00  0.00     0.031 C 
ATOM     38  C   UNL A   1      38.455  29.638  29.549  1.00  0.00     0.029 A 
ATOM     39  N   UNL A   1      39.250  30.570  31.417  1.00  0.00    -0.354 N 
ATOM     40  C   UNL A   1      42.485  28.795  33.633  1.00  0.00     0.074 A 
ATOM     41  C   UNL A   1      43.105  27.727  32.878  1.00  0.00     0.031 C 
ATOM     42  C   UNL A   1      37.767  30.771  29.755  1.00  0.00     0.029 A 
ATOM     43  C   UNL A   1      38.227  31.387  30.995  1.00  0.00     0.049 A 
ATOM     44  H   UNL A   1      39.774  30.742  32.233  1.00  0.00     0.167 HD
ATOM     45  C   UNL A   1      42.918  29.224  34.844  1.00  0.00     0.037 A 
ATOM     46  C   UNL A   1      37.694  32.492  31.552  1.00  0.00     0.037 A 
ATOM     47  C   UNL A   1      42.353  30.338  35.560  1.00  0.00     0.049 A 
ATOM     48  C   UNL A   1      38.216  32.977  32.873  1.00  0.00     0.074 A 
ATOM     49  C   UNL A   1      42.723  30.850  36.793  1.00  0.00     0.029 A 
ATOM     50  N   UNL A   1      41.319  31.135  35.093  1.00  0.00    -0.354 N 
ATOM     51  N   UNL A   1      39.176  32.476  33.613  1.00  0.00    -0.248 NA
ATOM     52  C   UNL A   1      37.566  34.162  33.449  1.00  0.00     0.031 C 
ATOM     53  C   UNL A   1      41.904  31.951  37.076  1.00  0.00     0.029 A 
ATOM     54  C   UNL A   1      41.043  32.139  36.007  1.00  0.00     0.049 A 
ATOM     55  H   UNL A   1      40.851  31.007  34.237  1.00  0.00     0.167 HD
ATOM     56  C   UNL A   1      39.241  33.280  34.744  1.00  0.00     0.074 A 
ATOM     57  C   UNL A   1      38.243  34.317  34.579  1.00  0.00     0.031 C 
ATOM     58  C   UNL A   1      40.045  33.160  35.828  1.00  0.00     0.037 A 
BRANCH  45  59
ATOM     59  C   UNL A   1      44.044  28.464  35.489  1.00  0.00     0.058 A 
ATOM     60  C   UNL A   1      45.389  28.779  35.249  1.00  0.00     0.135 A 
ATOM     61  C   UNL A   1      43.763  27.416  36.383  1.00  0.00     0.135 A 
ATOM     62  F   UNL A   1      45.711  29.759  34.391  1.00  0.00    -0.206 F 
ATOM     63  C   UNL A   1      46.420  28.065  35.854  1.00  0.00     0.059 A 
ATOM     64  C   UNL A   1      44.778  26.703  37.013  1.00  0.00     0.059 A 
ATOM     65  F   UNL A   1      42.493  27.074  36.646  1.00  0.00    -0.206 F 
ATOM     66  C   UNL A   1      46.105  27.024  36.730  1.00  0.00     0.060 A 
BRANCH  66  67
ATOM     67  S   UNL A   1      47.447  26.099  37.507  1.00  0.00     0.124 S 
ATOM     68  O   UNL A   1      47.035  26.110  38.906  1.00  0.00    -0.237 OA
ATOM     69  O   UNL A   1      47.371  24.806  36.835  1.00  0.00    -0.237 OA
ATOM     70  O   UNL A   1      48.630  26.894  37.193  1.00  0.00    -0.744 OA
ENDBRANCH  66  67
ENDBRANCH  45  59
BRANCH  46  71
ATOM     71  C   UNL A   1      36.581  33.198  30.867  1.00  0.00     0.058 A 
ATOM     72  C   UNL A   1      35.268  33.114  31.355  1.00  0.00     0.135 A 
ATOM     73  C   UNL A   1      36.811  33.995  29.736  1.00  0.00     0.135 A 
ATOM     74  F   UNL A   1      34.998  32.354  32.428  1.00  0.00    -0.206 F 
ATOM     75  C   UNL A   1      34.222  33.799  30.746  1.00  0.00     0.059 A 
ATOM     76  C   UNL A   1      35.786  34.708  29.125  1.00  0.00     0.059 A 
ATOM     77  F   UNL A   1      38.053  34.115  29.241  1.00  0.00    -0.206 F 
ATOM     78  C   UNL A   1      34.492  34.599  29.634  1.00  0.00     0.060 A 
BRANCH  78  79
ATOM     79  S   UNL A   1      33.151  35.554  28.894  1.00  0.00     0.124 S 
ATOM     80  O   UNL A   1      33.884  36.635  28.245  1.00  0.00    -0.237 OA
ATOM     81  O   UNL A   1      32.527  34.581  28.002  1.00  0.00    -0.237 OA
ATOM     82  O   UNL A   1      32.343  35.938  30.048  1.00  0.00    -0.744 OA
ENDBRANCH  78  79
ENDBRANCH  46  71
BRANCH  58  83
ATOM     83  C   UNL A   1      39.880  34.187  36.910  1.00  0.00     0.058 A 
ATOM     84  C   UNL A   1      39.051  33.951  38.018  1.00  0.00     0.135 A 
ATOM     85  C   UNL A   1      40.566  35.409  36.848  1.00  0.00     0.135 A 
ATOM     86  F   UNL A   1      38.370  32.799  38.119  1.00  0.00    -0.206 F 
ATOM     87  C   UNL A   1      38.886  34.906  39.015  1.00  0.00     0.059 A 
ATOM     88  C   UNL A   1      40.428  36.372  37.842  1.00  0.00     0.059 A 
ATOM     89  F   UNL A   1      41.376  35.676  35.811  1.00  0.00    -0.206 F 
ATOM     90  C   UNL A   1      39.572  36.117  38.913  1.00  0.00     0.060 A 
BRANCH  90  91
ATOM     91  S   UNL A   1      39.358  37.353  40.213  1.00  0.00     0.124 S 
ATOM     92  O   UNL A   1      40.720  37.854  40.366  1.00  0.00    -0.237 OA
ATOM     93  O   UNL A   1      38.405  38.282  39.616  1.00  0.00    -0.237 OA
ATOM     94  O   UNL A   1      38.844  36.574  41.336  1.00  0.00    -0.744 OA
ENDBRANCH  90  91
ENDBRANCH  58  83
ENDBRANCH  32  33
ENDBRANCH  25  27
ENDBRANCH  24  25
ENDBRANCH   1  24
TORSDOF 17
ENDMDL
