MODEL 1
REMARK VINA RESULT:     -11.4      0.000      0.000
REMARK SMILES O=C(OCCOC(=O)c1ccc(-c2c3nc(c(-c4c(F)cc(S(=O)(=O)[O-])cc4F)c4ccc([nH]4)c(-c4c(F)cc(S(=O)(=O)[O-])cc4F)c4nc(c(-c5c(F)cc(S(=O)(=O)[O-])cc5F)c5ccc2[nH]5)C=C4)C=C3)cc1)c1ccc(N/C=C\C(=O)c2ccco2)cc1
REMARK SMILES IDX 4 1 3 2 2 3 1 4 75 5 76 6 90 7 77 8 89 9 78 10 79 11 80 13
REMARK SMILES IDX 81 14 82 15 83 16 84 17 85 18 88 19 86 20 87 21 5 22 6 23
REMARK SMILES IDX 7 24 8 25 9 26 10 27 74 28 11 29 73 30 12 31 13 32 14 33
REMARK SMILES IDX 67 34 15 35 72 36 66 37 68 38 16 39 71 40 65 41 64 42 17 44
REMARK SMILES IDX 51 45 30 46 50 47 31 48 34 49 49 50 69 51 32 52 33 53 48 55
REMARK SMILES IDX 70 56 35 57 18 58 19 59 28 60 20 61 21 62 27 63 29 64 22 65
REMARK SMILES IDX 23 66 24 67 25 68 26 69 52 70 53 71 62 72 54 73 55 74 61 75
REMARK SMILES IDX 63 76 56 77 57 78 58 79 59 80 60 81 36 82 37 83 46 84 38 85
REMARK SMILES IDX 39 86 45 87 47 88 40 89 41 90 42 91 43 92 44 93
REMARK H PARENT 79 12 68 43 34 54
REMARK Flexibility Score: inf
ROOT
ATOM      1  C   UNL A   1      40.790  21.464  26.134  1.00  0.00     0.275 C 
ENDROOT
BRANCH   1   2
ATOM      2  O   UNL A   1      39.677  22.154  26.729  1.00  0.00    -0.458 OA
BRANCH   2   3
ATOM      3  C   UNL A   1      38.656  22.803  26.114  1.00  0.00     0.338 C 
ATOM      4  O   UNL A   1      38.691  24.028  26.025  1.00  0.00    -0.246 OA
BRANCH   3   5
ATOM      5  C   UNL A   1      37.396  22.107  25.712  1.00  0.00     0.060 A 
ATOM      6  C   UNL A   1      37.318  20.866  25.078  1.00  0.00     0.018 A 
ATOM      7  C   UNL A   1      36.195  22.769  25.999  1.00  0.00     0.018 A 
ATOM      8  C   UNL A   1      36.084  20.231  24.889  1.00  0.00     0.027 A 
ATOM      9  C   UNL A   1      34.964  22.148  25.765  1.00  0.00     0.027 A 
ATOM     10  C   UNL A   1      34.891  20.846  25.261  1.00  0.00     0.038 A 
BRANCH  10  11
ATOM     11  N   UNL A   1      33.638  20.232  25.145  1.00  0.00    -0.362 N 
ATOM     12  H   UNL A   1      33.446  19.530  25.808  1.00  0.00     0.166 HD
BRANCH  11  13
ATOM     13  C   UNL A   1      32.646  20.475  24.235  1.00  0.00     0.087 C 
ATOM     14  C   UNL A   1      32.196  19.708  23.232  1.00  0.00     0.074 C 
BRANCH  14  15
ATOM     15  C   UNL A   1      32.583  18.302  22.904  1.00  0.00     0.222 C 
ATOM     16  O   UNL A   1      32.341  17.896  21.767  1.00  0.00    -0.286 OA
BRANCH  15  17
ATOM     17  C   UNL A   1      33.179  17.490  23.935  1.00  0.00     0.173 A 
ATOM     18  C   UNL A   1      34.371  16.790  23.998  1.00  0.00     0.054 A 
ATOM     19  O   UNL A   1      32.418  17.198  25.029  1.00  0.00    -0.461 OA
ATOM     20  C   UNL A   1      34.330  16.031  25.194  1.00  0.00     0.043 A 
ATOM     21  C   UNL A   1      33.127  16.327  25.786  1.00  0.00     0.196 A 
ENDBRANCH  15  17
ENDBRANCH  14  15
ENDBRANCH  11  13
ENDBRANCH  10  11
ENDBRANCH   3   5
ENDBRANCH   2   3
ENDBRANCH   1   2
BRANCH   1  22
ATOM     22  C   UNL A   1      42.088  22.274  26.063  1.00  0.00     0.275 C 
BRANCH  22  23
ATOM     23  O   UNL A   1      42.185  23.287  27.076  1.00  0.00    -0.458 OA
BRANCH  23  24
ATOM     24  C   UNL A   1      42.325  24.551  26.598  1.00  0.00     0.338 C 
ATOM     25  O   UNL A   1      42.685  24.852  25.471  1.00  0.00    -0.246 OA
BRANCH  24  26
ATOM     26  C   UNL A   1      41.877  25.557  27.593  1.00  0.00     0.060 A 
ATOM     27  C   UNL A   1      42.733  26.635  27.853  1.00  0.00     0.016 A 
ATOM     28  C   UNL A   1      40.658  25.466  28.274  1.00  0.00     0.016 A 
ATOM     29  C   UNL A   1      42.391  27.602  28.804  1.00  0.00     0.010 A 
ATOM     30  C   UNL A   1      40.310  26.448  29.217  1.00  0.00     0.010 A 
ATOM     31  C   UNL A   1      41.183  27.513  29.510  1.00  0.00    -0.014 A 
BRANCH  31  32
ATOM     32  C   UNL A   1      40.901  28.463  30.626  1.00  0.00     0.031 A 
ATOM     33  C   UNL A   1      41.660  28.324  31.923  1.00  0.00     0.074 A 
ATOM     34  C   UNL A   1      40.023  29.479  30.490  1.00  0.00     0.049 A 
ATOM     35  N   UNL A   1      41.612  29.079  32.992  1.00  0.00    -0.248 NA
ATOM     36  C   UNL A   1      42.609  27.205  32.021  1.00  0.00     0.031 C 
ATOM     37  C   UNL A   1      39.251  29.788  29.289  1.00  0.00     0.029 A 
ATOM     38  N   UNL A   1      39.625  30.442  31.390  1.00  0.00    -0.354 N 
ATOM     39  C   UNL A   1      42.561  28.560  33.865  1.00  0.00     0.074 A 
ATOM     40  C   UNL A   1      43.104  27.373  33.238  1.00  0.00     0.031 C 
ATOM     41  C   UNL A   1      38.436  30.829  29.541  1.00  0.00     0.029 A 
ATOM     42  C   UNL A   1      38.630  31.266  30.921  1.00  0.00     0.049 A 
ATOM     43  H   UNL A   1      40.018  30.531  32.288  1.00  0.00     0.167 HD
ATOM     44  C   UNL A   1      42.982  29.048  35.058  1.00  0.00     0.037 A 
ATOM     45  C   UNL A   1      37.946  32.256  31.531  1.00  0.00     0.037 A 
ATOM     46  C   UNL A   1      42.443  30.215  35.704  1.00  0.00     0.049 A 
ATOM     47  C   UNL A   1      38.327  32.692  32.917  1.00  0.00     0.074 A 
ATOM     48  C   UNL A   1      42.833  30.793  36.901  1.00  0.00     0.029 A 
ATOM     49  N   UNL A   1      41.390  30.976  35.221  1.00  0.00    -0.354 N 
ATOM     50  N   UNL A   1      39.265  32.221  33.700  1.00  0.00    -0.248 NA
ATOM     51  C   UNL A   1      37.584  33.829  33.479  1.00  0.00     0.031 C 
ATOM     52  C   UNL A   1      41.988  31.877  37.163  1.00  0.00     0.029 A 
ATOM     53  C   UNL A   1      41.102  32.003  36.108  1.00  0.00     0.049 A 
ATOM     54  H   UNL A   1      40.916  30.812  34.374  1.00  0.00     0.167 HD
ATOM     55  C   UNL A   1      39.257  33.035  34.828  1.00  0.00     0.074 A 
ATOM     56  C   UNL A   1      38.213  34.019  34.630  1.00  0.00     0.031 C 
ATOM     57  C   UNL A   1      40.064  32.984  35.916  1.00  0.00     0.037 A 
BRANCH  44  58
ATOM     58  C   UNL A   1      44.115  28.327  35.732  1.00  0.00     0.058 A 
ATOM     59  C   UNL A   1      43.871  27.290  36.648  1.00  0.00     0.135 A 
ATOM     60  C   UNL A   1      45.450  28.638  35.431  1.00  0.00     0.135 A 
ATOM     61  F   UNL A   1      42.612  26.963  36.980  1.00  0.00    -0.206 F 
ATOM     62  C   UNL A   1      44.912  26.603  37.260  1.00  0.00     0.059 A 
ATOM     63  C   UNL A   1      46.507  27.946  36.015  1.00  0.00     0.059 A 
ATOM     64  F   UNL A   1      45.736  29.620  34.562  1.00  0.00    -0.206 F 
ATOM     65  C   UNL A   1      46.228  26.938  36.938  1.00  0.00     0.060 A 
BRANCH  65  66
ATOM     66  S   UNL A   1      47.567  26.033  37.740  1.00  0.00     0.124 S 
ATOM     67  O   UNL A   1      48.693  26.939  37.536  1.00  0.00    -0.237 OA
ATOM     68  O   UNL A   1      47.088  25.916  39.114  1.00  0.00    -0.237 OA
ATOM     69  O   UNL A   1      47.626  24.781  36.992  1.00  0.00    -0.744 OA
ENDBRANCH  65  66
ENDBRANCH  44  58
BRANCH  45  70
ATOM     70  C   UNL A   1      36.805  32.918  30.847  1.00  0.00     0.058 A 
ATOM     71  C   UNL A   1      37.000  33.915  29.884  1.00  0.00     0.135 A 
ATOM     72  C   UNL A   1      35.488  32.597  31.203  1.00  0.00     0.135 A 
ATOM     73  F   UNL A   1      38.244  34.288  29.548  1.00  0.00    -0.206 F 
ATOM     74  C   UNL A   1      35.924  34.566  29.287  1.00  0.00     0.059 A 
ATOM     75  C   UNL A   1      34.396  33.209  30.600  1.00  0.00     0.059 A 
ATOM     76  F   UNL A   1      35.256  31.696  32.168  1.00  0.00    -0.206 F 
ATOM     77  C   UNL A   1      34.625  34.202  29.648  1.00  0.00     0.060 A 
BRANCH  77  78
ATOM     78  S   UNL A   1      33.226  35.006  28.837  1.00  0.00     0.124 S 
ATOM     79  O   UNL A   1      33.880  36.118  28.160  1.00  0.00    -0.237 OA
ATOM     80  O   UNL A   1      32.712  33.945  27.976  1.00  0.00    -0.237 OA
ATOM     81  O   UNL A   1      32.360  35.362  29.957  1.00  0.00    -0.744 OA
ENDBRANCH  77  78
ENDBRANCH  45  70
BRANCH  57  82
ATOM     82  C   UNL A   1      39.890  34.051  36.961  1.00  0.00     0.058 A 
ATOM     83  C   UNL A   1      40.401  35.348  36.792  1.00  0.00     0.135 A 
ATOM     84  C   UNL A   1      39.178  33.776  38.141  1.00  0.00     0.135 A 
ATOM     85  F   UNL A   1      41.097  35.660  35.688  1.00  0.00    -0.206 F 
ATOM     86  C   UNL A   1      40.236  36.327  37.768  1.00  0.00     0.059 A 
ATOM     87  C   UNL A   1      38.978  34.748  39.118  1.00  0.00     0.059 A 
ATOM     88  F   UNL A   1      38.662  32.555  38.350  1.00  0.00    -0.206 F 
ATOM     89  C   UNL A   1      39.524  36.016  38.929  1.00  0.00     0.060 A 
BRANCH  89  90
ATOM     90  S   UNL A   1      39.298  37.299  40.180  1.00  0.00     0.124 S 
ATOM     91  O   UNL A   1      38.554  38.308  39.435  1.00  0.00    -0.237 OA
ATOM     92  O   UNL A   1      38.550  36.596  41.218  1.00  0.00    -0.237 OA
ATOM     93  O   UNL A   1      40.665  37.664  40.542  1.00  0.00    -0.744 OA
ENDBRANCH  89  90
ENDBRANCH  57  82
ENDBRANCH  31  32
ENDBRANCH  24  26
ENDBRANCH  23  24
ENDBRANCH  22  23
ENDBRANCH   1  22
TORSDOF 18
ENDMDL
MODEL 2
REMARK VINA RESULT:     -11.3      7.148     12.755
REMARK SMILES O=C(OCCOC(=O)c1ccc(-c2c3nc(c(-c4c(F)cc(S(=O)(=O)[O-])cc4F)c4ccc([nH]4)c(-c4c(F)cc(S(=O)(=O)[O-])cc4F)c4nc(c(-c5c(F)cc(S(=O)(=O)[O-])cc5F)c5ccc2[nH]5)C=C4)C=C3)cc1)c1ccc(N/C=C\C(=O)c2ccco2)cc1
REMARK SMILES IDX 4 1 3 2 2 3 1 4 75 5 76 6 90 7 77 8 89 9 78 10 79 11 80 13
REMARK SMILES IDX 81 14 82 15 83 16 84 17 85 18 88 19 86 20 87 21 5 22 6 23
REMARK SMILES IDX 7 24 8 25 9 26 10 27 74 28 11 29 73 30 12 31 13 32 14 33
REMARK SMILES IDX 67 34 15 35 72 36 66 37 68 38 16 39 71 40 65 41 64 42 17 44
REMARK SMILES IDX 51 45 30 46 50 47 31 48 34 49 49 50 69 51 32 52 33 53 48 55
REMARK SMILES IDX 70 56 35 57 18 58 19 59 28 60 20 61 21 62 27 63 29 64 22 65
REMARK SMILES IDX 23 66 24 67 25 68 26 69 52 70 53 71 62 72 54 73 55 74 61 75
REMARK SMILES IDX 63 76 56 77 57 78 58 79 59 80 60 81 36 82 37 83 46 84 38 85
REMARK SMILES IDX 39 86 45 87 47 88 40 89 41 90 42 91 43 92 44 93
REMARK H PARENT 79 12 68 43 34 54
REMARK Flexibility Score: inf
ROOT
ATOM      1  C   UNL A   1      34.765  32.107  28.413  1.00  0.00     0.275 C 
ENDROOT
BRANCH   1   2
ATOM      2  O   UNL A   1      34.039  30.920  28.048  1.00  0.00    -0.458 OA
BRANCH   2   3
ATOM      3  C   UNL A   1      34.504  29.791  27.455  1.00  0.00     0.338 C 
ATOM      4  O   UNL A   1      35.713  29.661  27.278  1.00  0.00    -0.246 OA
BRANCH   3   5
ATOM      5  C   UNL A   1      33.593  28.786  26.830  1.00  0.00     0.060 A 
ATOM      6  C   UNL A   1      32.377  28.349  27.358  1.00  0.00     0.018 A 
ATOM      7  C   UNL A   1      34.007  28.238  25.608  1.00  0.00     0.018 A 
ATOM      8  C   UNL A   1      31.524  27.524  26.614  1.00  0.00     0.027 A 
ATOM      9  C   UNL A   1      33.170  27.376  24.892  1.00  0.00     0.027 A 
ATOM     10  C   UNL A   1      31.892  27.053  25.356  1.00  0.00     0.038 A 
BRANCH  10  11
ATOM     11  N   UNL A   1      31.054  26.271  24.551  1.00  0.00    -0.362 N 
ATOM     12  H   UNL A   1      31.493  25.532  24.072  1.00  0.00     0.166 HD
BRANCH  11  13
ATOM     13  C   UNL A   1      29.708  26.396  24.342  1.00  0.00     0.087 C 
ATOM     14  C   UNL A   1      29.033  27.300  23.617  1.00  0.00     0.074 C 
BRANCH  14  15
ATOM     15  C   UNL A   1      29.588  28.366  22.728  1.00  0.00     0.222 C 
ATOM     16  O   UNL A   1      30.562  28.075  22.032  1.00  0.00    -0.286 OA
BRANCH  15  17
ATOM     17  C   UNL A   1      28.987  29.675  22.759  1.00  0.00     0.173 A 
ATOM     18  C   UNL A   1      28.179  30.350  21.860  1.00  0.00     0.054 A 
ATOM     19  O   UNL A   1      29.352  30.516  23.768  1.00  0.00    -0.461 OA
ATOM     20  C   UNL A   1      28.050  31.674  22.351  1.00  0.00     0.043 A 
ATOM     21  C   UNL A   1      28.772  31.714  23.518  1.00  0.00     0.196 A 
ENDBRANCH  15  17
ENDBRANCH  14  15
ENDBRANCH  11  13
ENDBRANCH  10  11
ENDBRANCH   3   5
ENDBRANCH   2   3
ENDBRANCH   1   2
BRANCH   1  22
ATOM     22  C   UNL A   1      34.992  32.289  29.917  1.00  0.00     0.275 C 
BRANCH  22  23
ATOM     23  O   UNL A   1      36.361  32.114  30.313  1.00  0.00    -0.458 OA
BRANCH  23  24
ATOM     24  C   UNL A   1      36.687  30.843  30.669  1.00  0.00     0.338 C 
ATOM     25  O   UNL A   1      35.934  30.031  31.183  1.00  0.00    -0.246 OA
BRANCH  24  26
ATOM     26  C   UNL A   1      38.071  30.504  30.252  1.00  0.00     0.060 A 
ATOM     27  C   UNL A   1      38.337  30.453  28.879  1.00  0.00     0.016 A 
ATOM     28  C   UNL A   1      39.096  30.232  31.164  1.00  0.00     0.016 A 
ATOM     29  C   UNL A   1      39.610  30.105  28.413  1.00  0.00     0.010 A 
ATOM     30  C   UNL A   1      40.379  29.900  30.694  1.00  0.00     0.010 A 
ATOM     31  C   UNL A   1      40.643  29.809  29.314  1.00  0.00    -0.014 A 
BRANCH  31  32
ATOM     32  C   UNL A   1      41.948  29.294  28.806  1.00  0.00     0.031 A 
ATOM     33  C   UNL A   1      43.096  30.254  28.611  1.00  0.00     0.074 A 
ATOM     34  C   UNL A   1      42.150  27.981  28.565  1.00  0.00     0.049 A 
ATOM     35  N   UNL A   1      44.327  30.006  28.239  1.00  0.00    -0.248 NA
ATOM     36  C   UNL A   1      42.828  31.674  28.892  1.00  0.00     0.031 C 
ATOM     37  C   UNL A   1      41.168  26.916  28.755  1.00  0.00     0.029 A 
ATOM     38  N   UNL A   1      43.261  27.320  28.093  1.00  0.00    -0.354 N 
ATOM     39  C   UNL A   1      44.992  31.225  28.294  1.00  0.00     0.074 A 
ATOM     40  C   UNL A   1      44.008  32.226  28.647  1.00  0.00     0.031 C 
ATOM     41  C   UNL A   1      41.699  25.746  28.355  1.00  0.00     0.029 A 
ATOM     42  C   UNL A   1      43.063  25.975  27.884  1.00  0.00     0.049 A 
ATOM     43  H   UNL A   1      44.120  27.769  27.922  1.00  0.00     0.167 HD
ATOM     44  C   UNL A   1      46.311  31.487  28.117  1.00  0.00     0.037 A 
ATOM     45  C   UNL A   1      43.880  25.035  27.366  1.00  0.00     0.037 A 
ATOM     46  C   UNL A   1      47.300  30.509  27.749  1.00  0.00     0.049 A 
ATOM     47  C   UNL A   1      45.305  25.376  27.033  1.00  0.00     0.074 A 
ATOM     48  C   UNL A   1      48.663  30.687  27.577  1.00  0.00     0.029 A 
ATOM     49  N   UNL A   1      47.038  29.174  27.482  1.00  0.00    -0.354 N 
ATOM     50  N   UNL A   1      45.925  26.523  27.146  1.00  0.00    -0.248 NA
ATOM     51  C   UNL A   1      46.150  24.276  26.547  1.00  0.00     0.031 C 
ATOM     52  C   UNL A   1      49.218  29.471  27.164  1.00  0.00     0.029 A 
ATOM     53  C   UNL A   1      48.209  28.524  27.122  1.00  0.00     0.049 A 
ATOM     54  H   UNL A   1      46.151  28.750  27.538  1.00  0.00     0.167 HD
ATOM     55  C   UNL A   1      47.247  26.272  26.792  1.00  0.00     0.074 A 
ATOM     56  C   UNL A   1      47.332  24.868  26.449  1.00  0.00     0.031 C 
ATOM     57  C   UNL A   1      48.299  27.128  26.780  1.00  0.00     0.037 A 
BRANCH  44  58
ATOM     58  C   UNL A   1      46.767  32.899  28.353  1.00  0.00     0.058 A 
ATOM     59  C   UNL A   1      47.227  33.310  29.614  1.00  0.00     0.135 A 
ATOM     60  C   UNL A   1      46.790  33.834  27.307  1.00  0.00     0.135 A 
ATOM     61  F   UNL A   1      47.214  32.457  30.651  1.00  0.00    -0.206 F 
ATOM     62  C   UNL A   1      47.673  34.608  29.837  1.00  0.00     0.059 A 
ATOM     63  C   UNL A   1      47.255  35.132  27.503  1.00  0.00     0.059 A 
ATOM     64  F   UNL A   1      46.362  33.491  26.083  1.00  0.00    -0.206 F 
ATOM     65  C   UNL A   1      47.682  35.513  28.775  1.00  0.00     0.060 A 
BRANCH  65  66
ATOM     66  S   UNL A   1      48.266  37.192  29.082  1.00  0.00     0.124 S 
ATOM     67  O   UNL A   1      49.511  37.210  28.321  1.00  0.00    -0.237 OA
ATOM     68  O   UNL A   1      47.181  38.005  28.542  1.00  0.00    -0.237 OA
ATOM     69  O   UNL A   1      48.417  37.239  30.534  1.00  0.00    -0.744 OA
ENDBRANCH  65  66
ENDBRANCH  44  58
BRANCH  45  70
ATOM     70  C   UNL A   1      43.381  23.660  27.109  1.00  0.00     0.058 A 
ATOM     71  C   UNL A   1      43.172  22.745  28.148  1.00  0.00     0.135 A 
ATOM     72  C   UNL A   1      43.165  23.222  25.795  1.00  0.00     0.135 A 
ATOM     73  F   UNL A   1      43.413  23.107  29.418  1.00  0.00    -0.206 F 
ATOM     74  C   UNL A   1      42.754  21.442  27.893  1.00  0.00     0.059 A 
ATOM     75  C   UNL A   1      42.717  21.937  25.515  1.00  0.00     0.059 A 
ATOM     76  F   UNL A   1      43.416  24.044  24.766  1.00  0.00    -0.206 F 
ATOM     77  C   UNL A   1      42.524  21.049  26.573  1.00  0.00     0.060 A 
BRANCH  77  78
ATOM     78  S   UNL A   1      41.930  19.375  26.241  1.00  0.00     0.124 S 
ATOM     79  O   UNL A   1      40.493  19.591  26.136  1.00  0.00    -0.237 OA
ATOM     80  O   UNL A   1      42.620  19.039  25.000  1.00  0.00    -0.237 OA
ATOM     81  O   UNL A   1      42.378  18.632  27.415  1.00  0.00    -0.744 OA
ENDBRANCH  77  78
ENDBRANCH  45  70
BRANCH  57  82
ATOM     82  C   UNL A   1      49.649  26.564  26.433  1.00  0.00     0.058 A 
ATOM     83  C   UNL A   1      50.118  26.515  25.111  1.00  0.00     0.135 A 
ATOM     84  C   UNL A   1      50.497  26.086  27.447  1.00  0.00     0.135 A 
ATOM     85  F   UNL A   1      49.344  26.948  24.104  1.00  0.00    -0.206 F 
ATOM     86  C   UNL A   1      51.369  25.986  24.803  1.00  0.00     0.059 A 
ATOM     87  C   UNL A   1      51.762  25.579  27.164  1.00  0.00     0.059 A 
ATOM     88  F   UNL A   1      50.102  26.116  28.730  1.00  0.00    -0.206 F 
ATOM     89  C   UNL A   1      52.183  25.520  25.836  1.00  0.00     0.060 A 
BRANCH  89  90
ATOM     90  S   UNL A   1      53.812  24.855  25.428  1.00  0.00     0.124 S 
ATOM     91  O   UNL A   1      54.511  24.988  26.701  1.00  0.00    -0.237 OA
ATOM     92  O   UNL A   1      53.499  23.490  25.016  1.00  0.00    -0.237 OA
ATOM     93  O   UNL A   1      54.278  25.733  24.359  1.00  0.00    -0.744 OA
ENDBRANCH  89  90
ENDBRANCH  57  82
ENDBRANCH  31  32
ENDBRANCH  24  26
ENDBRANCH  23  24
ENDBRANCH  22  23
ENDBRANCH   1  22
TORSDOF 18
ENDMDL
MODEL 3
REMARK VINA RESULT:     -11.1      1.186      1.954
REMARK SMILES O=C(OCCOC(=O)c1ccc(-c2c3nc(c(-c4c(F)cc(S(=O)(=O)[O-])cc4F)c4ccc([nH]4)c(-c4c(F)cc(S(=O)(=O)[O-])cc4F)c4nc(c(-c5c(F)cc(S(=O)(=O)[O-])cc5F)c5ccc2[nH]5)C=C4)C=C3)cc1)c1ccc(N/C=C\C(=O)c2ccco2)cc1
REMARK SMILES IDX 4 1 3 2 2 3 1 4 75 5 76 6 90 7 77 8 89 9 78 10 79 11 80 13
REMARK SMILES IDX 81 14 82 15 83 16 84 17 85 18 88 19 86 20 87 21 5 22 6 23
REMARK SMILES IDX 7 24 8 25 9 26 10 27 74 28 11 29 73 30 12 31 13 32 14 33
REMARK SMILES IDX 67 34 15 35 72 36 66 37 68 38 16 39 71 40 65 41 64 42 17 44
REMARK SMILES IDX 51 45 30 46 50 47 31 48 34 49 49 50 69 51 32 52 33 53 48 55
REMARK SMILES IDX 70 56 35 57 18 58 19 59 28 60 20 61 21 62 27 63 29 64 22 65
REMARK SMILES IDX 23 66 24 67 25 68 26 69 52 70 53 71 62 72 54 73 55 74 61 75
REMARK SMILES IDX 63 76 56 77 57 78 58 79 59 80 60 81 36 82 37 83 46 84 38 85
REMARK SMILES IDX 39 86 45 87 47 88 40 89 41 90 42 91 43 92 44 93
REMARK H PARENT 79 12 68 43 34 54
REMARK Flexibility Score: inf
ROOT
ATOM      1  C   UNL A   1      42.718  21.254  25.812  1.00  0.00     0.275 C 
ENDROOT
BRANCH   1   2
ATOM      2  O   UNL A   1      41.309  21.427  25.581  1.00  0.00    -0.458 OA
BRANCH   2   3
ATOM      3  C   UNL A   1      40.324  21.650  26.488  1.00  0.00     0.338 C 
ATOM      4  O   UNL A   1      40.432  21.181  27.619  1.00  0.00    -0.246 OA
BRANCH   3   5
ATOM      5  C   UNL A   1      39.021  22.278  26.112  1.00  0.00     0.060 A 
ATOM      6  C   UNL A   1      38.580  23.540  26.510  1.00  0.00     0.018 A 
ATOM      7  C   UNL A   1      38.176  21.522  25.287  1.00  0.00     0.018 A 
ATOM      8  C   UNL A   1      37.413  24.098  25.971  1.00  0.00     0.027 A 
ATOM      9  C   UNL A   1      36.989  22.068  24.790  1.00  0.00     0.027 A 
ATOM     10  C   UNL A   1      36.619  23.385  25.077  1.00  0.00     0.038 A 
BRANCH  10  11
ATOM     11  N   UNL A   1      35.476  23.918  24.469  1.00  0.00    -0.362 N 
ATOM     12  H   UNL A   1      35.148  24.765  24.848  1.00  0.00     0.166 HD
BRANCH  11  13
ATOM     13  C   UNL A   1      34.754  23.422  23.418  1.00  0.00     0.087 C 
ATOM     14  C   UNL A   1      33.780  22.500  23.406  1.00  0.00     0.074 C 
BRANCH  14  15
ATOM     15  C   UNL A   1      33.123  21.841  24.576  1.00  0.00     0.222 C 
ATOM     16  O   UNL A   1      32.795  22.559  25.522  1.00  0.00    -0.286 OA
BRANCH  15  17
ATOM     17  C   UNL A   1      32.943  20.412  24.554  1.00  0.00     0.173 A 
ATOM     18  C   UNL A   1      32.529  19.540  23.562  1.00  0.00     0.054 A 
ATOM     19  O   UNL A   1      33.049  19.742  25.737  1.00  0.00    -0.461 OA
ATOM     20  C   UNL A   1      32.373  18.274  24.178  1.00  0.00     0.043 A 
ATOM     21  C   UNL A   1      32.715  18.452  25.496  1.00  0.00     0.196 A 
ENDBRANCH  15  17
ENDBRANCH  14  15
ENDBRANCH  11  13
ENDBRANCH  10  11
ENDBRANCH   3   5
ENDBRANCH   2   3
ENDBRANCH   1   2
BRANCH   1  22
ATOM     22  C   UNL A   1      43.569  22.507  25.582  1.00  0.00     0.275 C 
BRANCH  22  23
ATOM     23  O   UNL A   1      43.355  23.531  26.567  1.00  0.00    -0.458 OA
BRANCH  23  24
ATOM     24  C   UNL A   1      43.058  24.753  26.054  1.00  0.00     0.338 C 
ATOM     25  O   UNL A   1      43.119  25.066  24.875  1.00  0.00    -0.246 OA
BRANCH  24  26
ATOM     26  C   UNL A   1      42.532  25.665  27.101  1.00  0.00     0.060 A 
ATOM     27  C   UNL A   1      43.212  26.871  27.308  1.00  0.00     0.016 A 
ATOM     28  C   UNL A   1      41.409  25.365  27.879  1.00  0.00     0.016 A 
ATOM     29  C   UNL A   1      42.794  27.762  28.302  1.00  0.00     0.010 A 
ATOM     30  C   UNL A   1      40.981  26.270  28.865  1.00  0.00     0.010 A 
ATOM     31  C   UNL A   1      41.683  27.466  29.104  1.00  0.00    -0.014 A 
BRANCH  31  32
ATOM     32  C   UNL A   1      41.341  28.351  30.256  1.00  0.00     0.031 A 
ATOM     33  C   UNL A   1      42.081  28.184  31.561  1.00  0.00     0.074 A 
ATOM     34  C   UNL A   1      40.422  29.334  30.150  1.00  0.00     0.049 A 
ATOM     35  N   UNL A   1      41.982  28.885  32.662  1.00  0.00    -0.248 NA
ATOM     36  C   UNL A   1      43.076  27.102  31.626  1.00  0.00     0.031 C 
ATOM     37  C   UNL A   1      39.659  29.666  28.949  1.00  0.00     0.029 A 
ATOM     38  N   UNL A   1      39.966  30.236  31.085  1.00  0.00    -0.354 N 
ATOM     39  C   UNL A   1      42.937  28.367  33.529  1.00  0.00     0.074 A 
ATOM     40  C   UNL A   1      43.542  27.235  32.859  1.00  0.00     0.031 C 
ATOM     41  C   UNL A   1      38.795  30.658  29.232  1.00  0.00     0.029 A 
ATOM     42  C   UNL A   1      38.945  31.039  30.635  1.00  0.00     0.049 A 
ATOM     43  H   UNL A   1      40.339  30.300  31.994  1.00  0.00     0.167 HD
ATOM     44  C   UNL A   1      43.315  28.816  34.751  1.00  0.00     0.037 A 
ATOM     45  C   UNL A   1      38.208  31.969  31.276  1.00  0.00     0.037 A 
ATOM     46  C   UNL A   1      42.714  29.928  35.439  1.00  0.00     0.049 A 
ATOM     47  C   UNL A   1      38.546  32.355  32.688  1.00  0.00     0.074 A 
ATOM     48  C   UNL A   1      43.058  30.465  36.669  1.00  0.00     0.029 A 
ATOM     49  N   UNL A   1      41.638  30.665  34.971  1.00  0.00    -0.354 N 
ATOM     50  N   UNL A   1      39.489  31.889  33.467  1.00  0.00    -0.248 NA
ATOM     51  C   UNL A   1      37.744  33.432  33.287  1.00  0.00     0.031 C 
ATOM     52  C   UNL A   1      42.163  31.499  36.964  1.00  0.00     0.029 A 
ATOM     53  C   UNL A   1      41.290  31.636  35.898  1.00  0.00     0.049 A 
ATOM     54  H   UNL A   1      41.187  30.521  34.108  1.00  0.00     0.167 HD
ATOM     55  C   UNL A   1      39.426  32.648  34.631  1.00  0.00     0.074 A 
ATOM     56  C   UNL A   1      38.344  33.595  34.458  1.00  0.00     0.031 C 
ATOM     57  C   UNL A   1      40.215  32.580  35.731  1.00  0.00     0.037 A 
BRANCH  44  58
ATOM     58  C   UNL A   1      44.466  28.113  35.414  1.00  0.00     0.058 A 
ATOM     59  C   UNL A   1      44.251  27.022  36.272  1.00  0.00     0.135 A 
ATOM     60  C   UNL A   1      45.791  28.498  35.158  1.00  0.00     0.135 A 
ATOM     61  F   UNL A   1      43.002  26.623  36.560  1.00  0.00    -0.206 F 
ATOM     62  C   UNL A   1      45.310  26.352  36.873  1.00  0.00     0.059 A 
ATOM     63  C   UNL A   1      46.867  27.824  35.729  1.00  0.00     0.059 A 
ATOM     64  F   UNL A   1      46.050  29.533  34.344  1.00  0.00    -0.206 F 
ATOM     65  C   UNL A   1      46.615  26.761  36.596  1.00  0.00     0.060 A 
BRANCH  65  66
ATOM     66  S   UNL A   1      47.978  25.877  37.382  1.00  0.00     0.124 S 
ATOM     67  O   UNL A   1      48.075  24.687  36.542  1.00  0.00    -0.237 OA
ATOM     68  O   UNL A   1      49.078  26.828  37.265  1.00  0.00    -0.237 OA
ATOM     69  O   UNL A   1      47.495  25.647  38.741  1.00  0.00    -0.744 OA
ENDBRANCH  65  66
ENDBRANCH  44  58
BRANCH  45  70
ATOM     70  C   UNL A   1      37.052  32.613  30.601  1.00  0.00     0.058 A 
ATOM     71  C   UNL A   1      37.221  33.664  29.692  1.00  0.00     0.135 A 
ATOM     72  C   UNL A   1      35.744  32.217  30.912  1.00  0.00     0.135 A 
ATOM     73  F   UNL A   1      38.453  34.108  29.402  1.00  0.00    -0.206 F 
ATOM     74  C   UNL A   1      36.128  34.296  29.105  1.00  0.00     0.059 A 
ATOM     75  C   UNL A   1      34.638  32.809  30.316  1.00  0.00     0.059 A 
ATOM     76  F   UNL A   1      35.535  31.259  31.827  1.00  0.00    -0.206 F 
ATOM     77  C   UNL A   1      34.840  33.857  29.419  1.00  0.00     0.060 A 
BRANCH  77  78
ATOM     78  S   UNL A   1      33.422  34.638  28.618  1.00  0.00     0.124 S 
ATOM     79  O   UNL A   1      34.043  35.796  27.989  1.00  0.00    -0.237 OA
ATOM     80  O   UNL A   1      32.957  33.590  27.715  1.00  0.00    -0.237 OA
ATOM     81  O   UNL A   1      32.531  34.924  29.739  1.00  0.00    -0.744 OA
ENDBRANCH  77  78
ENDBRANCH  45  70
BRANCH  57  82
ATOM     82  C   UNL A   1      39.976  33.590  36.820  1.00  0.00     0.058 A 
ATOM     83  C   UNL A   1      39.027  33.382  37.832  1.00  0.00     0.135 A 
ATOM     84  C   UNL A   1      40.730  34.776  36.862  1.00  0.00     0.135 A 
ATOM     85  F   UNL A   1      38.274  32.271  37.833  1.00  0.00    -0.206 F 
ATOM     86  C   UNL A   1      38.813  34.326  38.833  1.00  0.00     0.059 A 
ATOM     87  C   UNL A   1      40.551  35.720  37.868  1.00  0.00     0.059 A 
ATOM     88  F   UNL A   1      41.656  35.022  35.922  1.00  0.00    -0.206 F 
ATOM     89  C   UNL A   1      39.579  35.493  38.842  1.00  0.00     0.060 A 
BRANCH  89  90
ATOM     90  S   UNL A   1      39.308  36.702  40.155  1.00  0.00     0.124 S 
ATOM     91  O   UNL A   1      40.657  36.871  40.683  1.00  0.00    -0.237 OA
ATOM     92  O   UNL A   1      38.766  37.843  39.424  1.00  0.00    -0.237 OA
ATOM     93  O   UNL A   1      38.364  36.031  41.044  1.00  0.00    -0.744 OA
ENDBRANCH  89  90
ENDBRANCH  57  82
ENDBRANCH  31  32
ENDBRANCH  24  26
ENDBRANCH  23  24
ENDBRANCH  22  23
ENDBRANCH   1  22
TORSDOF 18
ENDMDL
