MODEL 1
REMARK VINA RESULT:      -9.6      0.000      0.000
REMARK SMILES [NH3+][C@@H](CC(=O)OCCOC(=O)c1ccc(-c2c3nc(c(-c4c(F)cc(S(=O)(=O)[O-])cc4F)c4ccc([nH]4)c(-c4c(F)cc(S(=O)(=O)[O-])cc4F)c4nc(c(-c5c(F)cc(S(=O)(=O)[O-])cc5F)c5ccc2[nH]5)C=C4)C=C3)cc1)Cc1ccc(F)cc1
REMARK SMILES IDX 7 1 6 2 4 3 5 4 3 5 2 6 1 7 78 11 79 12 80 13 85 14 81 15
REMARK SMILES IDX 84 16 82 17 83 18 8 19 9 20 10 21 11 22 12 23 13 24 77 25
REMARK SMILES IDX 14 26 76 27 15 28 16 29 17 30 70 31 18 32 75 33 69 34 71 35
REMARK SMILES IDX 19 36 74 37 68 38 67 39 20 41 54 42 33 43 53 44 34 45 37 46
REMARK SMILES IDX 52 47 72 48 35 49 36 50 51 52 73 53 38 54 21 55 22 56 31 57
REMARK SMILES IDX 23 58 24 59 30 60 32 61 25 62 26 63 27 64 28 65 29 66 55 67
REMARK SMILES IDX 56 68 65 69 57 70 58 71 64 72 66 73 59 74 60 75 61 76 62 77
REMARK SMILES IDX 63 78 39 79 40 80 49 81 41 82 42 83 48 84 50 85 43 86 44 87
REMARK SMILES IDX 45 88 46 89 47 90
REMARK H PARENT 1 8 1 9 1 10 71 40 37 51
REMARK Flexibility Score: inf
ROOT
ATOM      1  C   UNL A   1      33.352  33.713  27.999  1.00  0.00     0.274 C 
ENDROOT
BRANCH   1   2
ATOM      2  O   UNL A   1      32.881  34.323  29.219  1.00  0.00    -0.462 OA
BRANCH   2   3
ATOM      3  C   UNL A   1      33.163  35.644  29.368  1.00  0.00     0.311 C 
ATOM      4  O   UNL A   1      33.782  36.319  28.553  1.00  0.00    -0.252 OA
BRANCH   3   5
ATOM      5  C   UNL A   1      32.705  36.225  30.689  1.00  0.00     0.187 C 
BRANCH   5   6
ATOM      6  C   UNL A   1      32.796  35.364  31.959  1.00  0.00     0.196 C 
BRANCH   6   7
ATOM      7  N   UNL A   1      31.578  35.479  32.778  1.00  0.00    -0.354 N 
ATOM      8  H   UNL A   1      30.850  34.878  32.391  1.00  0.00     0.344 HD
ATOM      9  H   UNL A   1      31.256  36.447  32.776  1.00  0.00     0.344 HD
ATOM     10  H   UNL A   1      31.783  35.191  33.735  1.00  0.00     0.344 HD
ENDBRANCH   6   7
BRANCH   6  11
ATOM     11  C   UNL A   1      34.096  35.630  32.760  1.00  0.00     0.101 C 
BRANCH  11  12
ATOM     12  C   UNL A   1      35.105  34.503  32.661  1.00  0.00    -0.042 A 
ATOM     13  C   UNL A   1      36.458  34.712  32.970  1.00  0.00     0.007 A 
ATOM     14  C   UNL A   1      34.693  33.234  32.225  1.00  0.00     0.007 A 
ATOM     15  C   UNL A   1      37.380  33.670  32.835  1.00  0.00     0.039 A 
ATOM     16  C   UNL A   1      35.616  32.198  32.084  1.00  0.00     0.039 A 
ATOM     17  C   UNL A   1      36.951  32.426  32.387  1.00  0.00     0.123 A 
ATOM     18  F   UNL A   1      37.839  31.433  32.241  1.00  0.00    -0.207 F 
ENDBRANCH  11  12
ENDBRANCH   6  11
ENDBRANCH   5   6
ENDBRANCH   3   5
ENDBRANCH   2   3
ENDBRANCH   1   2
BRANCH   1  19
ATOM     19  C   UNL A   1      34.592  32.864  28.263  1.00  0.00     0.275 C 
BRANCH  19  20
ATOM     20  O   UNL A   1      34.196  31.593  28.800  1.00  0.00    -0.458 OA
BRANCH  20  21
ATOM     21  C   UNL A   1      34.472  30.513  28.032  1.00  0.00     0.338 C 
ATOM     22  O   UNL A   1      33.718  29.927  27.278  1.00  0.00    -0.246 OA
BRANCH  21  23
ATOM     23  C   UNL A   1      35.867  30.110  28.271  1.00  0.00     0.060 A 
ATOM     24  C   UNL A   1      36.806  30.147  27.238  1.00  0.00     0.016 A 
ATOM     25  C   UNL A   1      36.225  29.659  29.542  1.00  0.00     0.016 A 
ATOM     26  C   UNL A   1      38.116  29.729  27.473  1.00  0.00     0.010 A 
ATOM     27  C   UNL A   1      37.548  29.293  29.788  1.00  0.00     0.010 A 
ATOM     28  C   UNL A   1      38.503  29.325  28.759  1.00  0.00    -0.014 A 
BRANCH  28  29
ATOM     29  C   UNL A   1      39.914  28.982  29.059  1.00  0.00     0.031 A 
ATOM     30  C   UNL A   1      40.854  30.033  29.575  1.00  0.00     0.074 A 
ATOM     31  C   UNL A   1      40.360  27.739  28.798  1.00  0.00     0.049 A 
ATOM     32  N   UNL A   1      42.154  29.984  29.704  1.00  0.00    -0.248 NA
ATOM     33  C   UNL A   1      40.252  31.308  29.994  1.00  0.00     0.031 C 
ATOM     34  C   UNL A   1      39.534  26.628  28.320  1.00  0.00     0.029 A 
ATOM     35  N   UNL A   1      41.623  27.207  28.872  1.00  0.00    -0.354 N 
ATOM     36  C   UNL A   1      42.533  31.228  30.193  1.00  0.00     0.074 A 
ATOM     37  C   UNL A   1      41.325  32.014  30.330  1.00  0.00     0.031 C 
ATOM     38  C   UNL A   1      40.312  25.550  28.137  1.00  0.00     0.029 A 
ATOM     39  C   UNL A   1      41.696  25.911  28.419  1.00  0.00     0.049 A 
ATOM     40  H   UNL A   1      42.399  27.705  29.216  1.00  0.00     0.167 HD
ATOM     41  C   UNL A   1      43.777  31.669  30.497  1.00  0.00     0.037 A 
ATOM     42  C   UNL A   1      42.763  25.118  28.203  1.00  0.00     0.037 A 
ATOM     43  C   UNL A   1      44.970  30.872  30.366  1.00  0.00     0.049 A 
ATOM     44  C   UNL A   1      44.140  25.657  28.467  1.00  0.00     0.074 A 
ATOM     45  C   UNL A   1      46.273  31.211  30.687  1.00  0.00     0.029 A 
ATOM     46  N   UNL A   1      45.006  29.578  29.865  1.00  0.00    -0.354 N 
ATOM     47  N   UNL A   1      44.487  26.834  28.929  1.00  0.00    -0.248 NA
ATOM     48  C   UNL A   1      45.270  24.770  28.160  1.00  0.00     0.031 C 
ATOM     49  C   UNL A   1      47.102  30.137  30.340  1.00  0.00     0.029 A 
ATOM     50  C   UNL A   1      46.311  29.116  29.837  1.00  0.00     0.049 A 
ATOM     51  H   UNL A   1      44.219  29.065  29.573  1.00  0.00     0.167 HD
ATOM     52  C   UNL A   1      45.876  26.832  28.967  1.00  0.00     0.074 A 
ATOM     53  C   UNL A   1      46.304  25.529  28.500  1.00  0.00     0.031 C 
ATOM     54  C   UNL A   1      46.720  27.822  29.350  1.00  0.00     0.037 A 
BRANCH  41  55
ATOM     55  C   UNL A   1      43.915  33.088  30.972  1.00  0.00     0.058 A 
ATOM     56  C   UNL A   1      44.086  34.154  30.076  1.00  0.00     0.135 A 
ATOM     57  C   UNL A   1      43.846  33.388  32.342  1.00  0.00     0.135 A 
ATOM     58  F   UNL A   1      44.172  33.920  28.757  1.00  0.00    -0.206 F 
ATOM     59  C   UNL A   1      44.210  35.465  30.522  1.00  0.00     0.059 A 
ATOM     60  C   UNL A   1      43.947  34.695  32.810  1.00  0.00     0.059 A 
ATOM     61  F   UNL A   1      43.684  32.404  33.242  1.00  0.00    -0.206 F 
ATOM     62  C   UNL A   1      44.144  35.726  31.893  1.00  0.00     0.060 A 
BRANCH  62  63
ATOM     63  S   UNL A   1      44.314  37.432  32.459  1.00  0.00     0.124 S 
ATOM     64  O   UNL A   1      44.110  38.171  31.217  1.00  0.00    -0.237 OA
ATOM     65  O   UNL A   1      43.245  37.544  33.446  1.00  0.00    -0.237 OA
ATOM     66  O   UNL A   1      45.669  37.476  33.001  1.00  0.00    -0.744 OA
ENDBRANCH  62  63
ENDBRANCH  41  55
BRANCH  42  67
ATOM     67  C   UNL A   1      42.562  23.750  27.662  1.00  0.00     0.058 A 
ATOM     68  C   UNL A   1      42.572  23.514  26.281  1.00  0.00     0.135 A 
ATOM     69  C   UNL A   1      42.403  22.647  28.517  1.00  0.00     0.135 A 
ATOM     70  F   UNL A   1      42.709  24.539  25.427  1.00  0.00    -0.206 F 
ATOM     71  C   UNL A   1      42.439  22.230  25.764  1.00  0.00     0.059 A 
ATOM     72  C   UNL A   1      42.290  21.352  28.024  1.00  0.00     0.059 A 
ATOM     73  F   UNL A   1      42.398  22.823  29.847  1.00  0.00    -0.206 F 
ATOM     74  C   UNL A   1      42.306  21.153  26.643  1.00  0.00     0.060 A 
BRANCH  74  75
ATOM     75  S   UNL A   1      42.219  19.481  25.966  1.00  0.00     0.124 S 
ATOM     76  O   UNL A   1      40.791  19.345  25.706  1.00  0.00    -0.237 OA
ATOM     77  O   UNL A   1      43.075  19.580  24.789  1.00  0.00    -0.237 OA
ATOM     78  O   UNL A   1      42.747  18.655  27.048  1.00  0.00    -0.744 OA
ENDBRANCH  74  75
ENDBRANCH  42  67
BRANCH  54  79
ATOM     79  C   UNL A   1      48.190  27.535  29.273  1.00  0.00     0.058 A 
ATOM     80  C   UNL A   1      48.939  27.874  28.136  1.00  0.00     0.135 A 
ATOM     81  C   UNL A   1      48.866  26.961  30.361  1.00  0.00     0.135 A 
ATOM     82  F   UNL A   1      48.334  28.414  27.065  1.00  0.00    -0.206 F 
ATOM     83  C   UNL A   1      50.309  27.644  28.074  1.00  0.00     0.059 A 
ATOM     84  C   UNL A   1      50.240  26.740  30.328  1.00  0.00     0.059 A 
ATOM     85  F   UNL A   1      48.195  26.624  31.472  1.00  0.00    -0.206 F 
ATOM     86  C   UNL A   1      50.951  27.078  29.177  1.00  0.00     0.060 A 
BRANCH  86  87
ATOM     87  S   UNL A   1      52.737  26.823  29.104  1.00  0.00     0.124 S 
ATOM     88  O   UNL A   1      52.875  26.071  27.862  1.00  0.00    -0.237 OA
ATOM     89  O   UNL A   1      53.249  28.190  29.078  1.00  0.00    -0.237 OA
ATOM     90  O   UNL A   1      53.023  26.077  30.325  1.00  0.00    -0.744 OA
ENDBRANCH  86  87
ENDBRANCH  54  79
ENDBRANCH  28  29
ENDBRANCH  21  23
ENDBRANCH  20  21
ENDBRANCH  19  20
ENDBRANCH   1  19
TORSDOF 18
ENDMDL
MODEL 2
REMARK VINA RESULT:      -9.6      1.183      2.079
REMARK SMILES [NH3+][C@@H](CC(=O)OCCOC(=O)c1ccc(-c2c3nc(c(-c4c(F)cc(S(=O)(=O)[O-])cc4F)c4ccc([nH]4)c(-c4c(F)cc(S(=O)(=O)[O-])cc4F)c4nc(c(-c5c(F)cc(S(=O)(=O)[O-])cc5F)c5ccc2[nH]5)C=C4)C=C3)cc1)Cc1ccc(F)cc1
REMARK SMILES IDX 7 1 6 2 4 3 5 4 3 5 2 6 1 7 78 11 79 12 80 13 85 14 81 15
REMARK SMILES IDX 84 16 82 17 83 18 8 19 9 20 10 21 11 22 12 23 13 24 77 25
REMARK SMILES IDX 14 26 76 27 15 28 16 29 17 30 70 31 18 32 75 33 69 34 71 35
REMARK SMILES IDX 19 36 74 37 68 38 67 39 20 41 54 42 33 43 53 44 34 45 37 46
REMARK SMILES IDX 52 47 72 48 35 49 36 50 51 52 73 53 38 54 21 55 22 56 31 57
REMARK SMILES IDX 23 58 24 59 30 60 32 61 25 62 26 63 27 64 28 65 29 66 55 67
REMARK SMILES IDX 56 68 65 69 57 70 58 71 64 72 66 73 59 74 60 75 61 76 62 77
REMARK SMILES IDX 63 78 39 79 40 80 49 81 41 82 42 83 48 84 50 85 43 86 44 87
REMARK SMILES IDX 45 88 46 89 47 90
REMARK H PARENT 1 8 1 9 1 10 71 40 37 51
REMARK Flexibility Score: inf
ROOT
ATOM      1  C   UNL A   1      33.201  33.277  28.104  1.00  0.00     0.274 C 
ENDROOT
BRANCH   1   2
ATOM      2  O   UNL A   1      33.943  34.372  28.681  1.00  0.00    -0.462 OA
BRANCH   2   3
ATOM      3  C   UNL A   1      33.603  34.714  29.951  1.00  0.00     0.311 C 
ATOM      4  O   UNL A   1      32.573  35.304  30.260  1.00  0.00    -0.252 OA
BRANCH   3   5
ATOM      5  C   UNL A   1      34.653  34.365  30.984  1.00  0.00     0.187 C 
BRANCH   5   6
ATOM      6  C   UNL A   1      34.583  33.004  31.695  1.00  0.00     0.196 C 
BRANCH   6   7
ATOM      7  N   UNL A   1      33.954  33.119  33.021  1.00  0.00    -0.354 N 
ATOM      8  H   UNL A   1      33.010  33.492  32.919  1.00  0.00     0.344 HD
ATOM      9  H   UNL A   1      34.506  33.747  33.606  1.00  0.00     0.344 HD
ATOM     10  H   UNL A   1      33.911  32.198  33.458  1.00  0.00     0.344 HD
ENDBRANCH   6   7
BRANCH   6  11
ATOM     11  C   UNL A   1      35.956  32.286  31.731  1.00  0.00     0.101 C 
BRANCH  11  12
ATOM     12  C   UNL A   1      37.053  33.047  31.014  1.00  0.00    -0.042 A 
ATOM     13  C   UNL A   1      37.921  33.899  31.713  1.00  0.00     0.007 A 
ATOM     14  C   UNL A   1      37.191  32.925  29.622  1.00  0.00     0.007 A 
ATOM     15  C   UNL A   1      38.901  34.622  31.029  1.00  0.00     0.039 A 
ATOM     16  C   UNL A   1      38.165  33.654  28.939  1.00  0.00     0.039 A 
ATOM     17  C   UNL A   1      39.009  34.498  29.648  1.00  0.00     0.123 A 
ATOM     18  F   UNL A   1      39.938  35.205  28.991  1.00  0.00    -0.207 F 
ENDBRANCH  11  12
ENDBRANCH   6  11
ENDBRANCH   5   6
ENDBRANCH   3   5
ENDBRANCH   2   3
ENDBRANCH   1   2
BRANCH   1  19
ATOM     19  C   UNL A   1      34.145  32.183  27.612  1.00  0.00     0.275 C 
BRANCH  19  20
ATOM     20  O   UNL A   1      34.371  31.236  28.667  1.00  0.00    -0.458 OA
BRANCH  20  21
ATOM     21  C   UNL A   1      34.638  29.968  28.278  1.00  0.00     0.338 C 
ATOM     22  O   UNL A   1      33.856  29.146  27.840  1.00  0.00    -0.246 OA
BRANCH  21  23
ATOM     23  C   UNL A   1      36.068  29.700  28.499  1.00  0.00     0.060 A 
ATOM     24  C   UNL A   1      36.532  29.293  29.753  1.00  0.00     0.016 A 
ATOM     25  C   UNL A   1      36.957  29.889  27.440  1.00  0.00     0.016 A 
ATOM     26  C   UNL A   1      37.894  29.076  29.954  1.00  0.00     0.010 A 
ATOM     27  C   UNL A   1      38.312  29.619  27.629  1.00  0.00     0.010 A 
ATOM     28  C   UNL A   1      38.792  29.210  28.885  1.00  0.00    -0.014 A 
BRANCH  28  29
ATOM     29  C   UNL A   1      40.228  28.877  29.046  1.00  0.00     0.031 A 
ATOM     30  C   UNL A   1      41.210  29.940  29.445  1.00  0.00     0.074 A 
ATOM     31  C   UNL A   1      40.651  27.631  28.762  1.00  0.00     0.049 A 
ATOM     32  N   UNL A   1      42.516  29.899  29.442  1.00  0.00    -0.248 NA
ATOM     33  C   UNL A   1      40.647  31.221  29.900  1.00  0.00     0.031 C 
ATOM     34  C   UNL A   1      39.787  26.509  28.390  1.00  0.00     0.029 A 
ATOM     35  N   UNL A   1      41.918  27.105  28.717  1.00  0.00    -0.354 N 
ATOM     36  C   UNL A   1      42.936  31.152  29.867  1.00  0.00     0.074 A 
ATOM     37  C   UNL A   1      41.744  31.936  30.113  1.00  0.00     0.031 C 
ATOM     38  C   UNL A   1      40.548  25.430  28.149  1.00  0.00     0.029 A 
ATOM     39  C   UNL A   1      41.952  25.801  28.282  1.00  0.00     0.049 A 
ATOM     40  H   UNL A   1      42.723  27.611  28.971  1.00  0.00     0.167 HD
ATOM     41  C   UNL A   1      44.203  31.603  30.035  1.00  0.00     0.037 A 
ATOM     42  C   UNL A   1      42.995  25.008  27.972  1.00  0.00     0.037 A 
ATOM     43  C   UNL A   1      45.380  30.808  29.797  1.00  0.00     0.049 A 
ATOM     44  C   UNL A   1      44.389  25.556  28.085  1.00  0.00     0.074 A 
ATOM     45  C   UNL A   1      46.707  31.158  29.977  1.00  0.00     0.029 A 
ATOM     46  N   UNL A   1      45.372  29.505  29.318  1.00  0.00    -0.354 N 
ATOM     47  N   UNL A   1      44.775  26.743  28.488  1.00  0.00    -0.248 NA
ATOM     48  C   UNL A   1      45.487  24.668  27.681  1.00  0.00     0.031 C 
ATOM     49  C   UNL A   1      47.502  30.080  29.567  1.00  0.00     0.029 A 
ATOM     50  C   UNL A   1      46.670  29.047  29.165  1.00  0.00     0.049 A 
ATOM     51  H   UNL A   1      44.562  28.984  29.116  1.00  0.00     0.167 HD
ATOM     52  C   UNL A   1      46.160  26.747  28.385  1.00  0.00     0.074 A 
ATOM     53  C   UNL A   1      46.546  25.436  27.899  1.00  0.00     0.031 C 
ATOM     54  C   UNL A   1      47.033  27.746  28.662  1.00  0.00     0.037 A 
BRANCH  41  55
ATOM     55  C   UNL A   1      44.380  33.031  30.469  1.00  0.00     0.058 A 
ATOM     56  C   UNL A   1      44.480  33.384  31.823  1.00  0.00     0.135 A 
ATOM     57  C   UNL A   1      44.479  34.056  29.515  1.00  0.00     0.135 A 
ATOM     58  F   UNL A   1      44.378  32.444  32.776  1.00  0.00    -0.206 F 
ATOM     59  C   UNL A   1      44.647  34.707  32.218  1.00  0.00     0.059 A 
ATOM     60  C   UNL A   1      44.665  35.384  29.886  1.00  0.00     0.059 A 
ATOM     61  F   UNL A   1      44.387  33.771  28.205  1.00  0.00    -0.206 F 
ATOM     62  C   UNL A   1      44.733  35.702  31.241  1.00  0.00     0.060 A 
BRANCH  62  63
ATOM     63  S   UNL A   1      44.942  37.417  31.768  1.00  0.00     0.124 S 
ATOM     64  O   UNL A   1      43.994  38.105  30.896  1.00  0.00    -0.237 OA
ATOM     65  O   UNL A   1      44.577  37.360  33.179  1.00  0.00    -0.237 OA
ATOM     66  O   UNL A   1      46.351  37.685  31.499  1.00  0.00    -0.744 OA
ENDBRANCH  62  63
ENDBRANCH  41  55
BRANCH  42  67
ATOM     67  C   UNL A   1      42.747  23.629  27.479  1.00  0.00     0.058 A 
ATOM     68  C   UNL A   1      42.777  23.340  26.109  1.00  0.00     0.135 A 
ATOM     69  C   UNL A   1      42.523  22.568  28.371  1.00  0.00     0.135 A 
ATOM     70  F   UNL A   1      42.975  24.324  25.220  1.00  0.00    -0.206 F 
ATOM     71  C   UNL A   1      42.600  22.044  25.637  1.00  0.00     0.059 A 
ATOM     72  C   UNL A   1      42.366  21.261  27.925  1.00  0.00     0.059 A 
ATOM     73  F   UNL A   1      42.497  22.795  29.693  1.00  0.00    -0.206 F 
ATOM     74  C   UNL A   1      42.402  21.009  26.553  1.00  0.00     0.060 A 
BRANCH  74  75
ATOM     75  S   UNL A   1      42.258  19.317  25.938  1.00  0.00     0.124 S 
ATOM     76  O   UNL A   1      43.087  19.369  24.740  1.00  0.00    -0.237 OA
ATOM     77  O   UNL A   1      42.791  18.537  27.050  1.00  0.00    -0.237 OA
ATOM     78  O   UNL A   1      40.824  19.166  25.709  1.00  0.00    -0.744 OA
ENDBRANCH  74  75
ENDBRANCH  42  67
BRANCH  54  79
ATOM     79  C   UNL A   1      48.490  27.463  28.441  1.00  0.00     0.058 A 
ATOM     80  C   UNL A   1      49.217  26.658  29.330  1.00  0.00     0.135 A 
ATOM     81  C   UNL A   1      49.152  27.959  27.307  1.00  0.00     0.135 A 
ATOM     82  F   UNL A   1      48.631  26.170  30.435  1.00  0.00    -0.206 F 
ATOM     83  C   UNL A   1      50.559  26.362  29.110  1.00  0.00     0.059 A 
ATOM     84  C   UNL A   1      50.488  27.660  27.057  1.00  0.00     0.059 A 
ATOM     85  F   UNL A   1      48.498  28.729  26.425  1.00  0.00    -0.206 F 
ATOM     86  C   UNL A   1      51.185  26.866  27.968  1.00  0.00     0.060 A 
BRANCH  86  87
ATOM     87  S   UNL A   1      52.914  26.441  27.668  1.00  0.00     0.124 S 
ATOM     88  O   UNL A   1      52.784  25.208  26.899  1.00  0.00    -0.237 OA
ATOM     89  O   UNL A   1      53.399  27.602  26.928  1.00  0.00    -0.237 OA
ATOM     90  O   UNL A   1      53.463  26.288  29.012  1.00  0.00    -0.744 OA
ENDBRANCH  86  87
ENDBRANCH  54  79
ENDBRANCH  28  29
ENDBRANCH  21  23
ENDBRANCH  20  21
ENDBRANCH  19  20
ENDBRANCH   1  19
TORSDOF 18
ENDMDL
MODEL 3
REMARK VINA RESULT:      -9.1      5.009     11.771
REMARK SMILES [NH3+][C@@H](CC(=O)OCCOC(=O)c1ccc(-c2c3nc(c(-c4c(F)cc(S(=O)(=O)[O-])cc4F)c4ccc([nH]4)c(-c4c(F)cc(S(=O)(=O)[O-])cc4F)c4nc(c(-c5c(F)cc(S(=O)(=O)[O-])cc5F)c5ccc2[nH]5)C=C4)C=C3)cc1)Cc1ccc(F)cc1
REMARK SMILES IDX 7 1 6 2 4 3 5 4 3 5 2 6 1 7 78 11 79 12 80 13 85 14 81 15
REMARK SMILES IDX 84 16 82 17 83 18 8 19 9 20 10 21 11 22 12 23 13 24 77 25
REMARK SMILES IDX 14 26 76 27 15 28 16 29 17 30 70 31 18 32 75 33 69 34 71 35
REMARK SMILES IDX 19 36 74 37 68 38 67 39 20 41 54 42 33 43 53 44 34 45 37 46
REMARK SMILES IDX 52 47 72 48 35 49 36 50 51 52 73 53 38 54 21 55 22 56 31 57
REMARK SMILES IDX 23 58 24 59 30 60 32 61 25 62 26 63 27 64 28 65 29 66 55 67
REMARK SMILES IDX 56 68 65 69 57 70 58 71 64 72 66 73 59 74 60 75 61 76 62 77
REMARK SMILES IDX 63 78 39 79 40 80 49 81 41 82 42 83 48 84 50 85 43 86 44 87
REMARK SMILES IDX 45 88 46 89 47 90
REMARK H PARENT 1 8 1 9 1 10 71 40 37 51
REMARK Flexibility Score: inf
ROOT
ATOM      1  C   UNL A   1      36.375  22.956  23.712  1.00  0.00     0.274 C 
ENDROOT
BRANCH   1   2
ATOM      2  O   UNL A   1      35.168  23.353  24.397  1.00  0.00    -0.462 OA
BRANCH   2   3
ATOM      3  C   UNL A   1      34.006  22.894  23.863  1.00  0.00     0.311 C 
ATOM      4  O   UNL A   1      33.655  23.077  22.702  1.00  0.00    -0.252 OA
BRANCH   3   5
ATOM      5  C   UNL A   1      33.114  22.177  24.855  1.00  0.00     0.187 C 
BRANCH   5   6
ATOM      6  C   UNL A   1      33.638  20.916  25.559  1.00  0.00     0.196 C 
BRANCH   6   7
ATOM      7  N   UNL A   1      34.460  21.254  26.732  1.00  0.00    -0.354 N 
ATOM      8  H   UNL A   1      34.393  20.506  27.422  1.00  0.00     0.344 HD
ATOM      9  H   UNL A   1      34.126  22.126  27.143  1.00  0.00     0.344 HD
ATOM     10  H   UNL A   1      35.433  21.366  26.445  1.00  0.00     0.344 HD
ENDBRANCH   6   7
BRANCH   6  11
ATOM     11  C   UNL A   1      34.344  19.944  24.580  1.00  0.00     0.101 C 
BRANCH  11  12
ATOM     12  C   UNL A   1      33.890  18.505  24.727  1.00  0.00    -0.042 A 
ATOM     13  C   UNL A   1      34.510  17.472  24.009  1.00  0.00     0.007 A 
ATOM     14  C   UNL A   1      32.811  18.197  25.571  1.00  0.00     0.007 A 
ATOM     15  C   UNL A   1      34.051  16.157  24.129  1.00  0.00     0.039 A 
ATOM     16  C   UNL A   1      32.349  16.886  25.683  1.00  0.00     0.039 A 
ATOM     17  C   UNL A   1      32.972  15.879  24.959  1.00  0.00     0.123 A 
ATOM     18  F   UNL A   1      32.521  14.620  25.059  1.00  0.00    -0.207 F 
ENDBRANCH  11  12
ENDBRANCH   6  11
ENDBRANCH   5   6
ENDBRANCH   3   5
ENDBRANCH   2   3
ENDBRANCH   1   2
BRANCH   1  19
ATOM     19  C   UNL A   1      37.298  22.181  24.647  1.00  0.00     0.275 C 
BRANCH  19  20
ATOM     20  O   UNL A   1      37.727  23.039  25.715  1.00  0.00    -0.458 OA
BRANCH  20  21
ATOM     21  C   UNL A   1      39.038  22.966  26.045  1.00  0.00     0.338 C 
ATOM     22  O   UNL A   1      39.819  22.071  25.783  1.00  0.00    -0.246 OA
BRANCH  21  23
ATOM     23  C   UNL A   1      39.394  24.160  26.828  1.00  0.00     0.060 A 
ATOM     24  C   UNL A   1      38.838  24.374  28.091  1.00  0.00     0.016 A 
ATOM     25  C   UNL A   1      40.272  25.089  26.271  1.00  0.00     0.016 A 
ATOM     26  C   UNL A   1      39.161  25.527  28.806  1.00  0.00     0.010 A 
ATOM     27  C   UNL A   1      40.635  26.214  27.010  1.00  0.00     0.010 A 
ATOM     28  C   UNL A   1      40.084  26.443  28.282  1.00  0.00    -0.014 A 
BRANCH  28  29
ATOM     29  C   UNL A   1      40.526  27.619  29.070  1.00  0.00     0.031 A 
ATOM     30  C   UNL A   1      41.807  27.567  29.851  1.00  0.00     0.074 A 
ATOM     31  C   UNL A   1      39.733  28.705  29.134  1.00  0.00     0.049 A 
ATOM     32  N   UNL A   1      42.258  28.403  30.749  1.00  0.00    -0.248 NA
ATOM     33  C   UNL A   1      42.692  26.421  29.592  1.00  0.00     0.031 C 
ATOM     34  C   UNL A   1      38.479  28.880  28.398  1.00  0.00     0.029 A 
ATOM     35  N   UNL A   1      39.850  29.856  29.871  1.00  0.00    -0.354 N 
ATOM     36  C   UNL A   1      43.467  27.874  31.185  1.00  0.00     0.074 A 
ATOM     37  C   UNL A   1      43.674  26.639  30.457  1.00  0.00     0.031 C 
ATOM     38  C   UNL A   1      37.939  30.064  28.725  1.00  0.00     0.029 A 
ATOM     39  C   UNL A   1      38.771  30.699  29.741  1.00  0.00     0.049 A 
ATOM     40  H   UNL A   1      40.629  30.058  30.437  1.00  0.00     0.167 HD
ATOM     41  C   UNL A   1      44.320  28.376  32.109  1.00  0.00     0.037 A 
ATOM     42  C   UNL A   1      38.458  31.829  30.403  1.00  0.00     0.037 A 
ATOM     43  C   UNL A   1      44.106  29.611  32.818  1.00  0.00     0.049 A 
ATOM     44  C   UNL A   1      39.378  32.323  31.483  1.00  0.00     0.074 A 
ATOM     45  C   UNL A   1      44.931  30.228  33.744  1.00  0.00     0.029 A 
ATOM     46  N   UNL A   1      42.982  30.414  32.687  1.00  0.00    -0.354 N 
ATOM     47  N   UNL A   1      40.518  31.814  31.888  1.00  0.00    -0.248 NA
ATOM     48  C   UNL A   1      38.960  33.528  32.212  1.00  0.00     0.031 C 
ATOM     49  C   UNL A   1      44.284  31.382  34.203  1.00  0.00     0.029 A 
ATOM     50  C   UNL A   1      43.075  31.503  33.537  1.00  0.00     0.049 A 
ATOM     51  H   UNL A   1      42.229  30.235  32.080  1.00  0.00     0.167 HD
ATOM     52  C   UNL A   1      40.954  32.636  32.919  1.00  0.00     0.074 A 
ATOM     53  C   UNL A   1      39.965  33.685  33.064  1.00  0.00     0.031 C 
ATOM     54  C   UNL A   1      42.070  32.528  33.681  1.00  0.00     0.037 A 
BRANCH  41  55
ATOM     55  C   UNL A   1      45.549  27.572  32.428  1.00  0.00     0.058 A 
ATOM     56  C   UNL A   1      46.754  27.757  31.732  1.00  0.00     0.135 A 
ATOM     57  C   UNL A   1      45.530  26.623  33.463  1.00  0.00     0.135 A 
ATOM     58  F   UNL A   1      46.823  28.641  30.724  1.00  0.00    -0.206 F 
ATOM     59  C   UNL A   1      47.889  27.012  32.034  1.00  0.00     0.059 A 
ATOM     60  C   UNL A   1      46.658  25.881  33.796  1.00  0.00     0.059 A 
ATOM     61  F   UNL A   1      44.401  26.407  34.159  1.00  0.00    -0.206 F 
ATOM     62  C   UNL A   1      47.830  26.072  33.065  1.00  0.00     0.060 A 
BRANCH  62  63
ATOM     63  S   UNL A   1      49.308  25.106  33.442  1.00  0.00     0.124 S 
ATOM     64  O   UNL A   1      49.898  24.950  32.115  1.00  0.00    -0.237 OA
ATOM     65  O   UNL A   1      50.032  25.981  34.357  1.00  0.00    -0.237 OA
ATOM     66  O   UNL A   1      48.773  23.885  34.038  1.00  0.00    -0.744 OA
ENDBRANCH  62  63
ENDBRANCH  41  55
BRANCH  42  67
ATOM     67  C   UNL A   1      37.190  32.536  30.089  1.00  0.00     0.058 A 
ATOM     68  C   UNL A   1      36.006  32.224  30.770  1.00  0.00     0.135 A 
ATOM     69  C   UNL A   1      37.150  33.567  29.137  1.00  0.00     0.135 A 
ATOM     70  F   UNL A   1      35.995  31.238  31.679  1.00  0.00    -0.206 F 
ATOM     71  C   UNL A   1      34.824  32.915  30.523  1.00  0.00     0.059 A 
ATOM     72  C   UNL A   1      35.986  34.287  28.889  1.00  0.00     0.059 A 
ATOM     73  F   UNL A   1      38.262  33.908  28.467  1.00  0.00    -0.206 F 
ATOM     74  C   UNL A   1      34.825  33.950  29.586  1.00  0.00     0.060 A 
BRANCH  74  75
ATOM     75  S   UNL A   1      33.309  34.898  29.334  1.00  0.00     0.124 S 
ATOM     76  O   UNL A   1      32.716  34.861  30.665  1.00  0.00    -0.237 OA
ATOM     77  O   UNL A   1      33.822  36.192  28.898  1.00  0.00    -0.237 OA
ATOM     78  O   UNL A   1      32.605  34.134  28.307  1.00  0.00    -0.744 OA
ENDBRANCH  74  75
ENDBRANCH  42  67
BRANCH  54  79
ATOM     79  C   UNL A   1      42.277  33.567  34.743  1.00  0.00     0.058 A 
ATOM     80  C   UNL A   1      42.938  34.771  34.463  1.00  0.00     0.135 A 
ATOM     81  C   UNL A   1      41.768  33.379  36.038  1.00  0.00     0.135 A 
ATOM     82  F   UNL A   1      43.453  34.992  33.242  1.00  0.00    -0.206 F 
ATOM     83  C   UNL A   1      43.100  35.754  35.434  1.00  0.00     0.059 A 
ATOM     84  C   UNL A   1      41.901  34.356  37.020  1.00  0.00     0.059 A 
ATOM     85  F   UNL A   1      41.124  32.246  36.353  1.00  0.00    -0.206 F 
ATOM     86  C   UNL A   1      42.576  35.537  36.710  1.00  0.00     0.060 A 
BRANCH  86  87
ATOM     87  S   UNL A   1      42.753  36.836  37.952  1.00  0.00     0.124 S 
ATOM     88  O   UNL A   1      43.523  36.151  38.984  1.00  0.00    -0.237 OA
ATOM     89  O   UNL A   1      43.463  37.879  37.217  1.00  0.00    -0.237 OA
ATOM     90  O   UNL A   1      41.373  37.157  38.306  1.00  0.00    -0.744 OA
ENDBRANCH  86  87
ENDBRANCH  54  79
ENDBRANCH  28  29
ENDBRANCH  21  23
ENDBRANCH  20  21
ENDBRANCH  19  20
ENDBRANCH   1  19
TORSDOF 18
ENDMDL
