MODEL 1
REMARK VINA RESULT:     -12.1      0.000      0.000
REMARK SMILES CCCc1cc2c(cc1Cl)C=C(C(=O)OCCOC(=O)c1ccc(-c3c4nc(c(-c5c(F)cc(S(=O)(=O)[O-])cc5F)c5ccc([nH]5)c(-c5c(F)cc(S(=O)(=O)[O-])cc5F)c5nc(c(-c6c(F)cc(S(=O)(=O)[O-])cc6F)c6ccc3[nH]6)C=C5)C=C4)cc1)[C@H](C(F)(F)F)O2
REMARK SMILES IDX 17 1 16 2 15 3 13 4 14 5 12 6 4 7 5 8 9 9 6 10 8 11 10 12
REMARK SMILES IDX 7 13 92 14 11 15 87 16 3 17 2 18 1 19 88 20 89 21 90 22
REMARK SMILES IDX 91 23 18 24 19 25 20 26 21 27 22 28 86 29 23 30 85 31 24 32
REMARK SMILES IDX 25 33 26 34 79 35 27 36 84 37 78 38 80 39 28 40 83 41 77 42
REMARK SMILES IDX 76 43 29 45 63 46 42 47 62 48 43 49 46 50 61 51 81 52 44 53
REMARK SMILES IDX 45 54 60 56 82 57 47 58 30 59 31 60 40 61 32 62 33 63 39 64
REMARK SMILES IDX 41 65 34 66 35 67 36 68 37 69 38 70 64 71 65 72 74 73 66 74
REMARK SMILES IDX 67 75 73 76 75 77 68 78 69 79 70 80 71 81 72 82 48 83 49 84
REMARK SMILES IDX 58 85 50 86 51 87 57 88 59 89 52 90 53 91 54 92 55 93 56 94
REMARK H PARENT 80 44 46 55
REMARK Flexibility Score: inf
ROOT
ATOM      1  C   UNL A   1      40.847  22.481  26.454  1.00  0.00     0.275 C 
ENDROOT
BRANCH   1   2
ATOM      2  C   UNL A   1      39.727  21.467  26.215  1.00  0.00     0.275 C 
BRANCH   2   3
ATOM      3  O   UNL A   1      38.517  22.137  25.806  1.00  0.00    -0.459 OA
BRANCH   3   4
ATOM      4  C   UNL A   1      37.564  21.360  25.244  1.00  0.00     0.338 C 
ATOM      5  O   UNL A   1      37.733  20.256  24.763  1.00  0.00    -0.246 OA
BRANCH   4   6
ATOM      6  C   UNL A   1      36.242  22.012  25.339  1.00  0.00     0.087 C 
ATOM      7  C   UNL A   1      32.649  25.473  25.939  1.00  0.00    -0.026 A 
ATOM      8  C   UNL A   1      32.898  24.201  26.497  1.00  0.00     0.052 A 
ATOM      9  C   UNL A   1      33.539  25.970  24.972  1.00  0.00     0.045 A 
ATOM     10  C   UNL A   1      34.006  23.454  26.110  1.00  0.00     0.128 A 
ATOM     11  C   UNL A   1      34.678  25.244  24.623  1.00  0.00     0.032 A 
ATOM     12  Cl  UNL A   1      33.300  27.494  24.196  1.00  0.00    -0.084 Cl
ATOM     13  C   UNL A   1      34.917  23.998  25.208  1.00  0.00     0.019 A 
ATOM     14  O   UNL A   1      34.188  22.224  26.694  1.00  0.00    -0.475 OA
ATOM     15  C   UNL A   1      36.165  23.301  24.982  1.00  0.00     0.027 C 
ATOM     16  C   UNL A   1      35.087  21.303  25.990  1.00  0.00     0.316 C 
BRANCH   7  17
ATOM     17  C   UNL A   1      31.442  26.249  26.410  1.00  0.00     0.037 C 
BRANCH  17  18
ATOM     18  C   UNL A   1      30.118  25.756  25.821  1.00  0.00     0.001 C 
ATOM     19  C   UNL A   1      29.804  26.354  24.455  1.00  0.00     0.004 C 
ENDBRANCH  17  18
ENDBRANCH   7  17
BRANCH  16  20
ATOM     20  C   UNL A   1      34.268  20.375  25.074  1.00  0.00     0.430 C 
ATOM     21  F   UNL A   1      33.921  21.039  23.938  1.00  0.00    -0.167 F 
ATOM     22  F   UNL A   1      34.955  19.274  24.695  1.00  0.00    -0.167 F 
ATOM     23  F   UNL A   1      33.111  19.956  25.629  1.00  0.00    -0.167 F 
ENDBRANCH  16  20
ENDBRANCH   4   6
ENDBRANCH   3   4
ENDBRANCH   2   3
ENDBRANCH   1   2
BRANCH   1  24
ATOM     24  O   UNL A   1      40.294  23.802  26.602  1.00  0.00    -0.458 OA
BRANCH  24  25
ATOM     25  C   UNL A   1      41.174  24.824  26.522  1.00  0.00     0.338 C 
ATOM     26  O   UNL A   1      42.072  24.973  25.708  1.00  0.00    -0.246 OA
BRANCH  25  27
ATOM     27  C   UNL A   1      40.835  25.833  27.535  1.00  0.00     0.060 A 
ATOM     28  C   UNL A   1      39.801  25.640  28.444  1.00  0.00     0.016 A 
ATOM     29  C   UNL A   1      41.666  26.942  27.653  1.00  0.00     0.016 A 
ATOM     30  C   UNL A   1      39.603  26.583  29.462  1.00  0.00     0.010 A 
ATOM     31  C   UNL A   1      41.558  27.795  28.744  1.00  0.00     0.010 A 
ATOM     32  C   UNL A   1      40.502  27.653  29.649  1.00  0.00    -0.014 A 
BRANCH  32  33
ATOM     33  C   UNL A   1      40.358  28.631  30.766  1.00  0.00     0.031 A 
ATOM     34  C   UNL A   1      41.246  28.542  31.989  1.00  0.00     0.074 A 
ATOM     35  C   UNL A   1      39.383  29.563  30.720  1.00  0.00     0.049 A 
ATOM     36  N   UNL A   1      41.210  29.247  33.093  1.00  0.00    -0.248 NA
ATOM     37  C   UNL A   1      42.280  27.494  31.993  1.00  0.00     0.031 C 
ATOM     38  C   UNL A   1      38.401  29.712  29.643  1.00  0.00     0.029 A 
ATOM     39  N   UNL A   1      39.057  30.568  31.599  1.00  0.00    -0.354 N 
ATOM     40  C   UNL A   1      42.186  28.706  33.925  1.00  0.00     0.074 A 
ATOM     41  C   UNL A   1      42.750  27.572  33.229  1.00  0.00     0.031 C 
ATOM     42  C   UNL A   1      37.629  30.780  29.892  1.00  0.00     0.029 A 
ATOM     43  C   UNL A   1      38.024  31.366  31.168  1.00  0.00     0.049 A 
ATOM     44  H   UNL A   1      39.521  30.703  32.457  1.00  0.00     0.167 HD
ATOM     45  C   UNL A   1      42.604  29.133  35.142  1.00  0.00     0.037 A 
ATOM     46  C   UNL A   1      37.460  32.453  31.730  1.00  0.00     0.037 A 
ATOM     47  C   UNL A   1      42.085  30.301  35.806  1.00  0.00     0.049 A 
ATOM     48  C   UNL A   1      37.984  32.950  33.048  1.00  0.00     0.074 A 
ATOM     49  C   UNL A   1      42.481  30.856  37.010  1.00  0.00     0.029 A 
ATOM     50  N   UNL A   1      41.070  31.106  35.311  1.00  0.00    -0.354 N 
ATOM     51  N   UNL A   1      38.929  32.444  33.802  1.00  0.00    -0.248 NA
ATOM     52  C   UNL A   1      37.370  34.172  33.587  1.00  0.00     0.031 C 
ATOM     53  C   UNL A   1      41.690  31.984  37.254  1.00  0.00     0.029 A 
ATOM     54  C   UNL A   1      40.831  32.156  36.182  1.00  0.00     0.049 A 
ATOM     55  H   UNL A   1      40.590  30.955  34.464  1.00  0.00     0.167 HD
ATOM     56  C   UNL A   1      39.042  33.297  34.893  1.00  0.00     0.074 A 
ATOM     57  C   UNL A   1      38.076  34.359  34.694  1.00  0.00     0.031 C 
ATOM     58  C   UNL A   1      39.870  33.209  35.965  1.00  0.00     0.037 A 
BRANCH  45  59
ATOM     59  C   UNL A   1      43.703  28.355  35.820  1.00  0.00     0.058 A 
ATOM     60  C   UNL A   1      45.059  28.645  35.592  1.00  0.00     0.135 A 
ATOM     61  C   UNL A   1      43.403  27.335  36.739  1.00  0.00     0.135 A 
ATOM     62  F   UNL A   1      45.407  29.600  34.714  1.00  0.00    -0.206 F 
ATOM     63  C   UNL A   1      46.074  27.932  36.221  1.00  0.00     0.059 A 
ATOM     64  C   UNL A   1      44.403  26.630  37.405  1.00  0.00     0.059 A 
ATOM     65  F   UNL A   1      42.126  27.015  37.000  1.00  0.00    -0.206 F 
ATOM     66  C   UNL A   1      45.737  26.927  37.127  1.00  0.00     0.060 A 
BRANCH  66  67
ATOM     67  S   UNL A   1      47.071  26.024  37.944  1.00  0.00     0.124 S 
ATOM     68  O   UNL A   1      48.159  26.993  37.882  1.00  0.00    -0.237 OA
ATOM     69  O   UNL A   1      46.515  25.781  39.271  1.00  0.00    -0.237 OA
ATOM     70  O   UNL A   1      47.239  24.838  37.110  1.00  0.00    -0.744 OA
ENDBRANCH  66  67
ENDBRANCH  45  59
BRANCH  46  71
ATOM     71  C   UNL A   1      36.382  33.179  31.006  1.00  0.00     0.058 A 
ATOM     72  C   UNL A   1      35.065  33.172  31.493  1.00  0.00     0.135 A 
ATOM     73  C   UNL A   1      36.649  33.933  29.853  1.00  0.00     0.135 A 
ATOM     74  F   UNL A   1      34.760  32.461  32.589  1.00  0.00    -0.206 F 
ATOM     75  C   UNL A   1      34.052  33.885  30.862  1.00  0.00     0.059 A 
ATOM     76  C   UNL A   1      35.656  34.675  29.218  1.00  0.00     0.059 A 
ATOM     77  F   UNL A   1      37.895  33.985  29.358  1.00  0.00    -0.206 F 
ATOM     78  C   UNL A   1      34.359  34.642  29.730  1.00  0.00     0.060 A 
BRANCH  78  79
ATOM     79  S   UNL A   1      33.049  35.628  28.971  1.00  0.00     0.124 S 
ATOM     80  O   UNL A   1      33.819  36.631  28.245  1.00  0.00    -0.237 OA
ATOM     81  O   UNL A   1      32.358  34.638  28.152  1.00  0.00    -0.237 OA
ATOM     82  O   UNL A   1      32.292  36.121  30.118  1.00  0.00    -0.744 OA
ENDBRANCH  78  79
ENDBRANCH  46  71
BRANCH  58  83
ATOM     83  C   UNL A   1      39.797  34.311  36.984  1.00  0.00     0.058 A 
ATOM     84  C   UNL A   1      40.427  35.548  36.779  1.00  0.00     0.135 A 
ATOM     85  C   UNL A   1      39.055  34.137  38.163  1.00  0.00     0.135 A 
ATOM     86  F   UNL A   1      41.150  35.764  35.669  1.00  0.00    -0.206 F 
ATOM     87  C   UNL A   1      40.354  36.563  37.728  1.00  0.00     0.059 A 
ATOM     88  C   UNL A   1      38.946  35.148  39.112  1.00  0.00     0.059 A 
ATOM     89  F   UNL A   1      38.422  32.977  38.399  1.00  0.00    -0.206 F 
ATOM     90  C   UNL A   1      39.614  36.352  38.892  1.00  0.00     0.060 A 
BRANCH  90  91
ATOM     91  S   UNL A   1      39.523  37.680  40.112  1.00  0.00     0.124 S 
ATOM     92  O   UNL A   1      38.563  38.585  39.488  1.00  0.00    -0.237 OA
ATOM     93  O   UNL A   1      39.052  36.980  41.302  1.00  0.00    -0.237 OA
ATOM     94  O   UNL A   1      40.896  38.172  40.182  1.00  0.00    -0.744 OA
ENDBRANCH  90  91
ENDBRANCH  58  83
ENDBRANCH  32  33
ENDBRANCH  25  27
ENDBRANCH  24  25
ENDBRANCH   1  24
TORSDOF 17
ENDMDL
MODEL 2
REMARK VINA RESULT:     -11.8      6.783     12.401
REMARK SMILES CCCc1cc2c(cc1Cl)C=C(C(=O)OCCOC(=O)c1ccc(-c3c4nc(c(-c5c(F)cc(S(=O)(=O)[O-])cc5F)c5ccc([nH]5)c(-c5c(F)cc(S(=O)(=O)[O-])cc5F)c5nc(c(-c6c(F)cc(S(=O)(=O)[O-])cc6F)c6ccc3[nH]6)C=C5)C=C4)cc1)[C@H](C(F)(F)F)O2
REMARK SMILES IDX 17 1 16 2 15 3 13 4 14 5 12 6 4 7 5 8 9 9 6 10 8 11 10 12
REMARK SMILES IDX 7 13 92 14 11 15 87 16 3 17 2 18 1 19 88 20 89 21 90 22
REMARK SMILES IDX 91 23 18 24 19 25 20 26 21 27 22 28 86 29 23 30 85 31 24 32
REMARK SMILES IDX 25 33 26 34 79 35 27 36 84 37 78 38 80 39 28 40 83 41 77 42
REMARK SMILES IDX 76 43 29 45 63 46 42 47 62 48 43 49 46 50 61 51 81 52 44 53
REMARK SMILES IDX 45 54 60 56 82 57 47 58 30 59 31 60 40 61 32 62 33 63 39 64
REMARK SMILES IDX 41 65 34 66 35 67 36 68 37 69 38 70 64 71 65 72 74 73 66 74
REMARK SMILES IDX 67 75 73 76 75 77 68 78 69 79 70 80 71 81 72 82 48 83 49 84
REMARK SMILES IDX 58 85 50 86 51 87 57 88 59 89 52 90 53 91 54 92 55 93 56 94
REMARK H PARENT 80 44 46 55
REMARK Flexibility Score: inf
ROOT
ATOM      1  C   UNL A   1      34.710  31.836  29.144  1.00  0.00     0.275 C 
ENDROOT
BRANCH   1   2
ATOM      2  C   UNL A   1      34.514  31.420  27.685  1.00  0.00     0.275 C 
BRANCH   2   3
ATOM      3  O   UNL A   1      33.938  30.099  27.609  1.00  0.00    -0.459 OA
BRANCH   3   4
ATOM      4  C   UNL A   1      32.822  29.976  26.856  1.00  0.00     0.338 C 
ATOM      5  O   UNL A   1      31.885  30.751  26.833  1.00  0.00    -0.246 OA
BRANCH   4   6
ATOM      6  C   UNL A   1      32.906  28.777  25.998  1.00  0.00     0.087 C 
ATOM      7  C   UNL A   1      34.306  24.336  24.111  1.00  0.00    -0.026 A 
ATOM      8  C   UNL A   1      34.147  25.631  23.573  1.00  0.00     0.052 A 
ATOM      9  C   UNL A   1      34.015  24.129  25.469  1.00  0.00     0.045 A 
ATOM     10  C   UNL A   1      33.722  26.689  24.370  1.00  0.00     0.128 A 
ATOM     11  C   UNL A   1      33.638  25.201  26.280  1.00  0.00     0.032 A 
ATOM     12  Cl  UNL A   1      34.132  22.575  26.212  1.00  0.00    -0.084 Cl
ATOM     13  C   UNL A   1      33.513  26.480  25.731  1.00  0.00     0.019 A 
ATOM     14  O   UNL A   1      33.590  27.924  23.782  1.00  0.00    -0.475 OA
ATOM     15  C   UNL A   1      33.280  27.630  26.579  1.00  0.00     0.027 C 
ATOM     16  C   UNL A   1      32.762  28.896  24.506  1.00  0.00     0.316 C 
BRANCH   7  17
ATOM     17  C   UNL A   1      34.789  23.228  23.204  1.00  0.00     0.037 C 
BRANCH  17  18
ATOM     18  C   UNL A   1      36.312  23.078  23.161  1.00  0.00     0.001 C 
ATOM     19  C   UNL A   1      36.844  22.040  24.140  1.00  0.00     0.004 C 
ENDBRANCH  17  18
ENDBRANCH   7  17
BRANCH  16  20
ATOM     20  C   UNL A   1      31.320  28.855  23.966  1.00  0.00     0.430 C 
ATOM     21  F   UNL A   1      30.640  27.831  24.548  1.00  0.00    -0.167 F 
ATOM     22  F   UNL A   1      30.632  29.988  24.228  1.00  0.00    -0.167 F 
ATOM     23  F   UNL A   1      31.250  28.641  22.635  1.00  0.00    -0.167 F 
ENDBRANCH  16  20
ENDBRANCH   4   6
ENDBRANCH   3   4
ENDBRANCH   2   3
ENDBRANCH   1   2
BRANCH   1  24
ATOM     24  O   UNL A   1      36.109  31.811  29.481  1.00  0.00    -0.458 OA
BRANCH  24  25
ATOM     25  C   UNL A   1      36.502  30.815  30.305  1.00  0.00     0.338 C 
ATOM     26  O   UNL A   1      35.915  30.384  31.285  1.00  0.00    -0.246 OA
BRANCH  25  27
ATOM     27  C   UNL A   1      37.744  30.222  29.790  1.00  0.00     0.060 A 
ATOM     28  C   UNL A   1      38.009  30.146  28.428  1.00  0.00     0.016 A 
ATOM     29  C   UNL A   1      38.720  29.855  30.710  1.00  0.00     0.016 A 
ATOM     30  C   UNL A   1      39.261  29.680  28.002  1.00  0.00     0.010 A 
ATOM     31  C   UNL A   1      40.004  29.532  30.290  1.00  0.00     0.010 A 
ATOM     32  C   UNL A   1      40.288  29.404  28.927  1.00  0.00    -0.014 A 
BRANCH  32  33
ATOM     33  C   UNL A   1      41.652  28.975  28.500  1.00  0.00     0.031 A 
ATOM     34  C   UNL A   1      42.790  29.972  28.440  1.00  0.00     0.074 A 
ATOM     35  C   UNL A   1      41.861  27.705  28.099  1.00  0.00     0.049 A 
ATOM     36  N   UNL A   1      44.018  29.805  28.013  1.00  0.00    -0.248 NA
ATOM     37  C   UNL A   1      42.500  31.349  28.873  1.00  0.00     0.031 C 
ATOM     38  C   UNL A   1      40.838  26.659  28.024  1.00  0.00     0.029 A 
ATOM     39  N   UNL A   1      43.006  27.070  27.680  1.00  0.00    -0.354 N 
ATOM     40  C   UNL A   1      44.626  31.053  28.095  1.00  0.00     0.074 A 
ATOM     41  C   UNL A   1      43.616  31.984  28.546  1.00  0.00     0.031 C 
ATOM     42  C   UNL A   1      41.410  25.505  27.650  1.00  0.00     0.029 A 
ATOM     43  C   UNL A   1      42.830  25.734  27.410  1.00  0.00     0.049 A 
ATOM     44  H   UNL A   1      43.871  27.530  27.583  1.00  0.00     0.167 HD
ATOM     45  C   UNL A   1      45.916  31.393  27.855  1.00  0.00     0.037 A 
ATOM     46  C   UNL A   1      43.713  24.792  27.020  1.00  0.00     0.037 A 
ATOM     47  C   UNL A   1      46.936  30.453  27.467  1.00  0.00     0.049 A 
ATOM     48  C   UNL A   1      45.152  25.176  26.825  1.00  0.00     0.074 A 
ATOM     49  C   UNL A   1      48.285  30.681  27.259  1.00  0.00     0.029 A 
ATOM     50  N   UNL A   1      46.723  29.100  27.250  1.00  0.00    -0.354 N 
ATOM     51  N   UNL A   1      45.713  26.356  26.939  1.00  0.00    -0.248 NA
ATOM     52  C   UNL A   1      46.081  24.099  26.455  1.00  0.00     0.031 C 
ATOM     53  C   UNL A   1      48.884  29.470  26.894  1.00  0.00     0.029 A 
ATOM     54  C   UNL A   1      47.915  28.480  26.916  1.00  0.00     0.049 A 
ATOM     55  H   UNL A   1      45.852  28.646  27.323  1.00  0.00     0.167 HD
ATOM     56  C   UNL A   1      47.065  26.160  26.680  1.00  0.00     0.074 A 
ATOM     57  C   UNL A   1      47.238  24.746  26.415  1.00  0.00     0.031 C 
ATOM     58  C   UNL A   1      48.072  27.070  26.662  1.00  0.00     0.037 A 
BRANCH  45  59
ATOM     59  C   UNL A   1      46.308  32.837  28.039  1.00  0.00     0.058 A 
ATOM     60  C   UNL A   1      46.841  33.306  29.251  1.00  0.00     0.135 A 
ATOM     61  C   UNL A   1      46.190  33.757  26.982  1.00  0.00     0.135 A 
ATOM     62  F   UNL A   1      46.965  32.477  30.300  1.00  0.00    -0.206 F 
ATOM     63  C   UNL A   1      47.209  34.637  29.422  1.00  0.00     0.059 A 
ATOM     64  C   UNL A   1      46.583  35.087  27.121  1.00  0.00     0.059 A 
ATOM     65  F   UNL A   1      45.691  33.367  25.799  1.00  0.00    -0.206 F 
ATOM     66  C   UNL A   1      47.078  35.520  28.350  1.00  0.00     0.060 A 
BRANCH  66  67
ATOM     67  S   UNL A   1      47.576  37.240  28.588  1.00  0.00     0.124 S 
ATOM     68  O   UNL A   1      46.387  37.802  29.222  1.00  0.00    -0.237 OA
ATOM     69  O   UNL A   1      48.748  37.109  29.447  1.00  0.00    -0.237 OA
ATOM     70  O   UNL A   1      47.843  37.708  27.232  1.00  0.00    -0.744 OA
ENDBRANCH  66  67
ENDBRANCH  45  59
BRANCH  46  71
ATOM     71  C   UNL A   1      43.262  23.383  26.861  1.00  0.00     0.058 A 
ATOM     72  C   UNL A   1      42.993  22.860  25.587  1.00  0.00     0.135 A 
ATOM     73  C   UNL A   1      43.143  22.520  27.961  1.00  0.00     0.135 A 
ATOM     74  F   UNL A   1      43.088  23.648  24.505  1.00  0.00    -0.206 F 
ATOM     75  C   UNL A   1      42.621  21.533  25.408  1.00  0.00     0.059 A 
ATOM     76  C   UNL A   1      42.795  21.181  27.805  1.00  0.00     0.059 A 
ATOM     77  F   UNL A   1      43.406  22.968  29.198  1.00  0.00    -0.206 F 
ATOM     78  C   UNL A   1      42.533  20.697  26.523  1.00  0.00     0.060 A 
BRANCH  78  79
ATOM     79  S   UNL A   1      42.129  18.955  26.266  1.00  0.00     0.124 S 
ATOM     80  O   UNL A   1      42.287  18.415  27.611  1.00  0.00    -0.237 OA
ATOM     81  O   UNL A   1      40.760  19.031  25.765  1.00  0.00    -0.237 OA
ATOM     82  O   UNL A   1      43.123  18.521  25.290  1.00  0.00    -0.744 OA
ENDBRANCH  78  79
ENDBRANCH  46  71
BRANCH  58  83
ATOM     83  C   UNL A   1      49.457  26.557  26.385  1.00  0.00     0.058 A 
ATOM     84  C   UNL A   1      50.036  26.645  25.110  1.00  0.00     0.135 A 
ATOM     85  C   UNL A   1      50.227  26.003  27.420  1.00  0.00     0.135 A 
ATOM     86  F   UNL A   1      49.341  27.165  24.085  1.00  0.00    -0.206 F 
ATOM     87  C   UNL A   1      51.319  26.168  24.863  1.00  0.00     0.059 A 
ATOM     88  C   UNL A   1      51.522  25.545  27.202  1.00  0.00     0.059 A 
ATOM     89  F   UNL A   1      49.724  25.909  28.662  1.00  0.00    -0.206 F 
ATOM     90  C   UNL A   1      52.053  25.617  25.915  1.00  0.00     0.060 A 
BRANCH  90  91
ATOM     91  S   UNL A   1      53.719  25.007  25.581  1.00  0.00     0.124 S 
ATOM     92  O   UNL A   1      53.470  23.588  25.347  1.00  0.00    -0.237 OA
ATOM     93  O   UNL A   1      54.107  25.784  24.409  1.00  0.00    -0.237 OA
ATOM     94  O   UNL A   1      54.448  25.323  26.805  1.00  0.00    -0.744 OA
ENDBRANCH  90  91
ENDBRANCH  58  83
ENDBRANCH  32  33
ENDBRANCH  25  27
ENDBRANCH  24  25
ENDBRANCH   1  24
TORSDOF 17
ENDMDL
MODEL 3
REMARK VINA RESULT:     -11.6      5.011     10.585
REMARK SMILES CCCc1cc2c(cc1Cl)C=C(C(=O)OCCOC(=O)c1ccc(-c3c4nc(c(-c5c(F)cc(S(=O)(=O)[O-])cc5F)c5ccc([nH]5)c(-c5c(F)cc(S(=O)(=O)[O-])cc5F)c5nc(c(-c6c(F)cc(S(=O)(=O)[O-])cc6F)c6ccc3[nH]6)C=C5)C=C4)cc1)[C@H](C(F)(F)F)O2
REMARK SMILES IDX 17 1 16 2 15 3 13 4 14 5 12 6 4 7 5 8 9 9 6 10 8 11 10 12
REMARK SMILES IDX 7 13 92 14 11 15 87 16 3 17 2 18 1 19 88 20 89 21 90 22
REMARK SMILES IDX 91 23 18 24 19 25 20 26 21 27 22 28 86 29 23 30 85 31 24 32
REMARK SMILES IDX 25 33 26 34 79 35 27 36 84 37 78 38 80 39 28 40 83 41 77 42
REMARK SMILES IDX 76 43 29 45 63 46 42 47 62 48 43 49 46 50 61 51 81 52 44 53
REMARK SMILES IDX 45 54 60 56 82 57 47 58 30 59 31 60 40 61 32 62 33 63 39 64
REMARK SMILES IDX 41 65 34 66 35 67 36 68 37 69 38 70 64 71 65 72 74 73 66 74
REMARK SMILES IDX 67 75 73 76 75 77 68 78 69 79 70 80 71 81 72 82 48 83 49 84
REMARK SMILES IDX 58 85 50 86 51 87 57 88 59 89 52 90 53 91 54 92 55 93 56 94
REMARK H PARENT 80 44 46 55
REMARK Flexibility Score: inf
ROOT
ATOM      1  C   UNL A   1      32.679  29.067  26.689  1.00  0.00     0.275 C 
ENDROOT
BRANCH   1   2
ATOM      2  C   UNL A   1      32.990  29.760  25.361  1.00  0.00     0.275 C 
BRANCH   2   3
ATOM      3  O   UNL A   1      32.534  28.956  24.253  1.00  0.00    -0.459 OA
BRANCH   3   4
ATOM      4  C   UNL A   1      33.494  28.451  23.446  1.00  0.00     0.338 C 
ATOM      5  O   UNL A   1      34.304  29.094  22.809  1.00  0.00    -0.246 OA
BRANCH   4   6
ATOM      6  C   UNL A   1      33.471  26.974  23.479  1.00  0.00     0.087 C 
ATOM      7  C   UNL A   1      34.474  22.202  24.689  1.00  0.00    -0.026 A 
ATOM      8  C   UNL A   1      34.426  22.925  23.478  1.00  0.00     0.052 A 
ATOM      9  C   UNL A   1      34.170  22.872  25.886  1.00  0.00     0.045 A 
ATOM     10  C   UNL A   1      34.097  24.276  23.463  1.00  0.00     0.128 A 
ATOM     11  C   UNL A   1      33.890  24.238  25.876  1.00  0.00     0.032 A 
ATOM     12  Cl  UNL A   1      34.154  22.068  27.414  1.00  0.00    -0.084 Cl
ATOM     13  C   UNL A   1      33.875  24.939  24.667  1.00  0.00     0.019 A 
ATOM     14  O   UNL A   1      34.071  24.918  22.249  1.00  0.00    -0.475 OA
ATOM     15  C   UNL A   1      33.746  26.381  24.648  1.00  0.00     0.027 C 
ATOM     16  C   UNL A   1      33.333  26.185  22.207  1.00  0.00     0.316 C 
BRANCH   7  17
ATOM     17  C   UNL A   1      34.856  20.741  24.648  1.00  0.00     0.037 C 
BRANCH  17  18
ATOM     18  C   UNL A   1      36.275  20.455  25.144  1.00  0.00     0.001 C 
ATOM     19  C   UNL A   1      37.326  21.370  24.529  1.00  0.00     0.004 C 
ENDBRANCH  17  18
ENDBRANCH   7  17
BRANCH  16  20
ATOM     20  C   UNL A   1      31.892  25.933  21.727  1.00  0.00     0.430 C 
ATOM     21  F   UNL A   1      31.893  25.657  20.394  1.00  0.00    -0.167 F 
ATOM     22  F   UNL A   1      31.310  24.883  22.348  1.00  0.00    -0.167 F 
ATOM     23  F   UNL A   1      31.078  26.997  21.887  1.00  0.00    -0.167 F 
ENDBRANCH  16  20
ENDBRANCH   4   6
ENDBRANCH   3   4
ENDBRANCH   2   3
ENDBRANCH   1   2
BRANCH   1  24
ATOM     24  O   UNL A   1      33.865  29.003  27.502  1.00  0.00    -0.458 OA
BRANCH  24  25
ATOM     25  C   UNL A   1      34.369  30.188  27.909  1.00  0.00     0.338 C 
ATOM     26  O   UNL A   1      33.774  31.248  28.033  1.00  0.00    -0.246 OA
BRANCH  25  27
ATOM     27  C   UNL A   1      35.776  30.009  28.294  1.00  0.00     0.060 A 
ATOM     28  C   UNL A   1      36.136  29.512  29.541  1.00  0.00     0.016 A 
ATOM     29  C   UNL A   1      36.749  30.226  27.325  1.00  0.00     0.016 A 
ATOM     30  C   UNL A   1      37.487  29.251  29.807  1.00  0.00     0.010 A 
ATOM     31  C   UNL A   1      38.063  29.832  27.540  1.00  0.00     0.010 A 
ATOM     32  C   UNL A   1      38.464  29.370  28.798  1.00  0.00    -0.014 A 
BRANCH  32  33
ATOM     33  C   UNL A   1      39.898  29.031  29.031  1.00  0.00     0.031 A 
ATOM     34  C   UNL A   1      40.840  30.043  29.649  1.00  0.00     0.074 A 
ATOM     35  C   UNL A   1      40.379  27.838  28.626  1.00  0.00     0.049 A 
ATOM     36  N   UNL A   1      42.132  29.961  29.848  1.00  0.00    -0.248 NA
ATOM     37  C   UNL A   1      40.263  31.336  30.055  1.00  0.00     0.031 C 
ATOM     38  C   UNL A   1      39.607  26.799  27.941  1.00  0.00     0.029 A 
ATOM     39  N   UNL A   1      41.635  27.291  28.735  1.00  0.00    -0.354 N 
ATOM     40  C   UNL A   1      42.520  31.193  30.364  1.00  0.00     0.074 A 
ATOM     41  C   UNL A   1      41.342  32.029  30.385  1.00  0.00     0.031 C 
ATOM     42  C   UNL A   1      40.384  25.723  27.749  1.00  0.00     0.029 A 
ATOM     43  C   UNL A   1      41.723  26.007  28.252  1.00  0.00     0.049 A 
ATOM     44  H   UNL A   1      42.401  27.773  29.123  1.00  0.00     0.167 HD
ATOM     45  C   UNL A   1      43.736  31.584  30.818  1.00  0.00     0.037 A 
ATOM     46  C   UNL A   1      42.761  25.148  28.222  1.00  0.00     0.037 A 
ATOM     47  C   UNL A   1      44.894  30.729  30.856  1.00  0.00     0.049 A 
ATOM     48  C   UNL A   1      44.083  25.579  28.791  1.00  0.00     0.074 A 
ATOM     49  C   UNL A   1      46.156  31.006  31.352  1.00  0.00     0.029 A 
ATOM     50  N   UNL A   1      44.925  29.420  30.398  1.00  0.00    -0.354 N 
ATOM     51  N   UNL A   1      44.420  26.737  29.305  1.00  0.00    -0.248 NA
ATOM     52  C   UNL A   1      45.164  24.583  28.784  1.00  0.00     0.031 C 
ATOM     53  C   UNL A   1      46.957  29.872  31.174  1.00  0.00     0.029 A 
ATOM     54  C   UNL A   1      46.181  28.875  30.606  1.00  0.00     0.049 A 
ATOM     55  H   UNL A   1      44.165  28.947  29.987  1.00  0.00     0.167 HD
ATOM     56  C   UNL A   1      45.745  26.603  29.706  1.00  0.00     0.074 A 
ATOM     57  C   UNL A   1      46.142  25.247  29.386  1.00  0.00     0.031 C 
ATOM     58  C   UNL A   1      46.559  27.521  30.286  1.00  0.00     0.037 A 
BRANCH  45  59
ATOM     59  C   UNL A   1      43.870  32.991  31.344  1.00  0.00     0.058 A 
ATOM     60  C   UNL A   1      44.277  34.051  30.516  1.00  0.00     0.135 A 
ATOM     61  C   UNL A   1      43.552  33.295  32.679  1.00  0.00     0.135 A 
ATOM     62  F   UNL A   1      44.607  33.819  29.235  1.00  0.00    -0.206 F 
ATOM     63  C   UNL A   1      44.395  35.351  30.998  1.00  0.00     0.059 A 
ATOM     64  C   UNL A   1      43.632  34.595  33.174  1.00  0.00     0.059 A 
ATOM     65  F   UNL A   1      43.154  32.325  33.517  1.00  0.00    -0.206 F 
ATOM     66  C   UNL A   1      44.069  35.613  32.328  1.00  0.00     0.060 A 
BRANCH  66  67
ATOM     67  S   UNL A   1      44.216  37.311  32.929  1.00  0.00     0.124 S 
ATOM     68  O   UNL A   1      43.993  38.073  31.705  1.00  0.00    -0.237 OA
ATOM     69  O   UNL A   1      43.150  37.383  33.922  1.00  0.00    -0.237 OA
ATOM     70  O   UNL A   1      45.573  37.366  33.464  1.00  0.00    -0.744 OA
ENDBRANCH  66  67
ENDBRANCH  45  59
BRANCH  46  71
ATOM     71  C   UNL A   1      42.561  23.771  27.693  1.00  0.00     0.058 A 
ATOM     72  C   UNL A   1      42.605  23.524  26.312  1.00  0.00     0.135 A 
ATOM     73  C   UNL A   1      42.378  22.674  28.548  1.00  0.00     0.135 A 
ATOM     74  F   UNL A   1      42.773  24.542  25.454  1.00  0.00    -0.206 F 
ATOM     75  C   UNL A   1      42.473  22.240  25.798  1.00  0.00     0.059 A 
ATOM     76  C   UNL A   1      42.268  21.376  28.058  1.00  0.00     0.059 A 
ATOM     77  F   UNL A   1      42.347  22.856  29.877  1.00  0.00    -0.206 F 
ATOM     78  C   UNL A   1      42.314  21.169  26.680  1.00  0.00     0.060 A 
BRANCH  78  79
ATOM     79  S   UNL A   1      42.226  19.497  26.000  1.00  0.00     0.124 S 
ATOM     80  O   UNL A   1      43.137  19.593  24.866  1.00  0.00    -0.237 OA
ATOM     81  O   UNL A   1      42.687  18.687  27.123  1.00  0.00    -0.237 OA
ATOM     82  O   UNL A   1      40.814  19.345  25.664  1.00  0.00    -0.744 OA
ENDBRANCH  78  79
ENDBRANCH  46  71
BRANCH  58  83
ATOM     83  C   UNL A   1      47.948  27.077  30.649  1.00  0.00     0.058 A 
ATOM     84  C   UNL A   1      48.229  26.464  31.880  1.00  0.00     0.135 A 
ATOM     85  C   UNL A   1      49.003  27.236  29.737  1.00  0.00     0.135 A 
ATOM     86  F   UNL A   1      47.255  26.290  32.788  1.00  0.00    -0.206 F 
ATOM     87  C   UNL A   1      49.518  26.056  32.208  1.00  0.00     0.059 A 
ATOM     88  C   UNL A   1      50.294  26.811  30.034  1.00  0.00     0.059 A 
ATOM     89  F   UNL A   1      48.784  27.804  28.541  1.00  0.00    -0.206 F 
ATOM     90  C   UNL A   1      50.544  26.236  31.279  1.00  0.00     0.060 A 
BRANCH  90  91
ATOM     91  S   UNL A   1      52.211  25.697  31.716  1.00  0.00     0.124 S 
ATOM     92  O   UNL A   1      52.936  25.955  30.476  1.00  0.00    -0.237 OA
ATOM     93  O   UNL A   1      52.539  26.572  32.837  1.00  0.00    -0.237 OA
ATOM     94  O   UNL A   1      52.033  24.289  32.058  1.00  0.00    -0.744 OA
ENDBRANCH  90  91
ENDBRANCH  58  83
ENDBRANCH  32  33
ENDBRANCH  25  27
ENDBRANCH  24  25
ENDBRANCH   1  24
TORSDOF 17
ENDMDL
