MODEL 1
REMARK VINA RESULT:     -11.6      0.000      0.000
REMARK SMILES Nc1nc(Nc2ccc(C(=O)OCCOC(=O)c3ccc(-c4c5nc(c(-c6c(F)cc(S(=O)(=O)[O-])cc6F)c6ccc([nH]6)c(-c6c(F)cc(S(=O)(=O)[O-])cc6F)c6nc(c(-c7c(F)cc(S(=O)(=O)[O-])cc7F)c7ccc4[nH]7)C=C6)C=C5)cc3)cc2)ccc1[N+](=O)[O-]
REMARK SMILES IDX 13 1 12 2 10 3 11 4 9 5 6 6 7 7 85 8 8 9 84 10 5 11 4 13
REMARK SMILES IDX 2 14 3 15 88 16 87 17 86 18 1 19 89 22 90 23 91 24 14 25
REMARK SMILES IDX 15 26 16 27 17 28 18 29 19 30 83 31 20 32 82 33 21 34 22 35
REMARK SMILES IDX 23 36 76 37 24 38 81 39 75 40 77 41 25 42 80 43 74 44 73 45
REMARK SMILES IDX 26 47 60 48 39 49 59 50 40 51 43 52 58 53 78 54 41 55 42 56
REMARK SMILES IDX 57 58 79 59 44 60 27 61 28 62 37 63 29 64 30 65 36 66 38 67
REMARK SMILES IDX 31 68 32 69 33 70 34 71 35 72 61 73 62 74 71 75 63 76 64 77
REMARK SMILES IDX 70 78 72 79 65 80 66 81 67 82 68 83 69 84 45 85 46 86 55 87
REMARK SMILES IDX 47 88 48 89 54 90 56 91 49 92 50 93 51 94 52 95 53 96
REMARK H PARENT 5 12 1 20 1 21 77 46 43 57
REMARK Flexibility Score: inf
ROOT
ATOM      1  C   UNL A   1      33.580  29.960  27.254  1.00  0.00     0.275 C 
ENDROOT
BRANCH   1   2
ATOM      2  O   UNL A   1      33.660  29.812  25.822  1.00  0.00    -0.458 OA
BRANCH   2   3
ATOM      3  C   UNL A   1      32.595  29.196  25.251  1.00  0.00     0.338 C 
ATOM      4  O   UNL A   1      31.489  29.676  25.065  1.00  0.00    -0.246 OA
BRANCH   3   5
ATOM      5  C   UNL A   1      32.959  27.838  24.792  1.00  0.00     0.060 A 
ATOM      6  C   UNL A   1      33.896  25.302  24.037  1.00  0.00     0.040 A 
ATOM      7  C   UNL A   1      33.643  25.588  25.382  1.00  0.00     0.027 A 
ATOM      8  C   UNL A   1      33.649  26.291  23.074  1.00  0.00     0.027 A 
ATOM      9  C   UNL A   1      33.207  26.856  25.757  1.00  0.00     0.018 A 
ATOM     10  C   UNL A   1      33.157  27.548  23.441  1.00  0.00     0.018 A 
BRANCH   6  11
ATOM     11  N   UNL A   1      34.579  24.112  23.716  1.00  0.00    -0.340 N 
ATOM     12  H   UNL A   1      35.519  24.178  23.432  1.00  0.00     0.168 HD
BRANCH  11  13
ATOM     13  C   UNL A   1      33.994  22.830  23.780  1.00  0.00     0.133 A 
ATOM     14  C   UNL A   1      32.493  21.251  22.916  1.00  0.00     0.204 A 
ATOM     15  N   UNL A   1      33.016  22.493  22.905  1.00  0.00    -0.207 NA
ATOM     16  C   UNL A   1      32.913  20.310  23.845  1.00  0.00     0.311 A 
ATOM     17  C   UNL A   1      33.895  20.652  24.781  1.00  0.00     0.093 A 
ATOM     18  C   UNL A   1      34.435  21.935  24.749  1.00  0.00     0.054 A 
BRANCH  14  19
ATOM     19  N   UNL A   1      31.476  21.068  22.000  1.00  0.00    -0.378 N 
ATOM     20  H   UNL A   1      31.314  20.176  21.615  1.00  0.00     0.158 HD
ATOM     21  H   UNL A   1      30.912  21.830  21.732  1.00  0.00     0.158 HD
ENDBRANCH  14  19
BRANCH  16  22
ATOM     22  N   UNL A   1      32.356  18.969  23.859  1.00  0.00     0.066 N 
ATOM     23  O   UNL A   1      32.146  18.452  24.967  1.00  0.00    -0.258 OA
ATOM     24  O   UNL A   1      32.153  18.403  22.772  1.00  0.00    -0.258 OA
ENDBRANCH  16  22
ENDBRANCH  11  13
ENDBRANCH   6  11
ENDBRANCH   3   5
ENDBRANCH   2   3
ENDBRANCH   1   2
BRANCH   1  25
ATOM     25  C   UNL A   1      34.192  31.289  27.695  1.00  0.00     0.275 C 
BRANCH  25  26
ATOM     26  O   UNL A   1      35.620  31.158  27.786  1.00  0.00    -0.458 OA
BRANCH  26  27
ATOM     27  C   UNL A   1      36.110  30.837  29.006  1.00  0.00     0.338 C 
ATOM     28  O   UNL A   1      35.588  31.057  30.085  1.00  0.00    -0.246 OA
BRANCH  27  29
ATOM     29  C   UNL A   1      37.422  30.169  28.864  1.00  0.00     0.060 A 
ATOM     30  C   UNL A   1      38.217  29.921  29.980  1.00  0.00     0.016 A 
ATOM     31  C   UNL A   1      37.910  29.878  27.591  1.00  0.00     0.016 A 
ATOM     32  C   UNL A   1      39.532  29.477  29.827  1.00  0.00     0.010 A 
ATOM     33  C   UNL A   1      39.191  29.332  27.445  1.00  0.00     0.010 A 
ATOM     34  C   UNL A   1      40.037  29.163  28.556  1.00  0.00    -0.014 A 
BRANCH  34  35
ATOM     35  C   UNL A   1      41.451  28.711  28.375  1.00  0.00     0.031 A 
ATOM     36  C   UNL A   1      42.586  29.696  28.533  1.00  0.00     0.074 A 
ATOM     37  C   UNL A   1      41.738  27.427  28.074  1.00  0.00     0.049 A 
ATOM     38  N   UNL A   1      43.848  29.564  28.212  1.00  0.00    -0.248 NA
ATOM     39  C   UNL A   1      42.253  31.007  29.113  1.00  0.00     0.031 C 
ATOM     40  C   UNL A   1      40.762  26.347  27.926  1.00  0.00     0.029 A 
ATOM     41  N   UNL A   1      42.946  26.811  27.843  1.00  0.00    -0.354 N 
ATOM     42  C   UNL A   1      44.441  30.794  28.478  1.00  0.00     0.074 A 
ATOM     43  C   UNL A   1      43.403  31.656  28.999  1.00  0.00     0.031 C 
ATOM     44  C   UNL A   1      41.408  25.197  27.677  1.00  0.00     0.029 A 
ATOM     45  C   UNL A   1      42.836  25.469  27.557  1.00  0.00     0.049 A 
ATOM     46  H   UNL A   1      43.808  27.284  27.878  1.00  0.00     0.167 HD
ATOM     47  C   UNL A   1      45.731  31.171  28.302  1.00  0.00     0.037 A 
ATOM     48  C   UNL A   1      43.767  24.564  27.198  1.00  0.00     0.037 A 
ATOM     49  C   UNL A   1      46.781  30.293  27.856  1.00  0.00     0.049 A 
ATOM     50  C   UNL A   1      45.195  24.999  27.022  1.00  0.00     0.074 A 
ATOM     51  C   UNL A   1      48.120  30.584  27.651  1.00  0.00     0.029 A 
ATOM     52  N   UNL A   1      46.621  28.945  27.575  1.00  0.00    -0.354 N 
ATOM     53  N   UNL A   1      45.719  26.189  27.194  1.00  0.00    -0.248 NA
ATOM     54  C   UNL A   1      46.152  23.976  26.577  1.00  0.00     0.031 C 
ATOM     55  C   UNL A   1      48.766  29.415  27.233  1.00  0.00     0.029 A 
ATOM     56  C   UNL A   1      47.834  28.390  27.203  1.00  0.00     0.049 A 
ATOM     57  H   UNL A   1      45.768  28.456  27.631  1.00  0.00     0.167 HD
ATOM     58  C   UNL A   1      47.066  26.058  26.875  1.00  0.00     0.074 A 
ATOM     59  C   UNL A   1      47.281  24.669  26.523  1.00  0.00     0.031 C 
ATOM     60  C   UNL A   1      48.033  27.006  26.861  1.00  0.00     0.037 A 
BRANCH  47  61
ATOM     61  C   UNL A   1      46.078  32.610  28.565  1.00  0.00     0.058 A 
ATOM     62  C   UNL A   1      46.557  33.043  29.810  1.00  0.00     0.135 A 
ATOM     63  C   UNL A   1      45.962  33.562  27.538  1.00  0.00     0.135 A 
ATOM     64  F   UNL A   1      46.670  32.177  30.829  1.00  0.00    -0.206 F 
ATOM     65  C   UNL A   1      46.889  34.376  30.035  1.00  0.00     0.059 A 
ATOM     66  C   UNL A   1      46.307  34.895  27.735  1.00  0.00     0.059 A 
ATOM     67  F   UNL A   1      45.508  33.199  26.328  1.00  0.00    -0.206 F 
ATOM     68  C   UNL A   1      46.756  35.295  28.992  1.00  0.00     0.060 A 
BRANCH  68  69
ATOM     69  S   UNL A   1      47.194  37.022  29.293  1.00  0.00     0.124 S 
ATOM     70  O   UNL A   1      46.930  37.141  30.724  1.00  0.00    -0.237 OA
ATOM     71  O   UNL A   1      48.599  37.065  28.904  1.00  0.00    -0.237 OA
ATOM     72  O   UNL A   1      46.283  37.758  28.422  1.00  0.00    -0.744 OA
ENDBRANCH  68  69
ENDBRANCH  47  61
BRANCH  48  73
ATOM     73  C   UNL A   1      43.369  23.155  26.940  1.00  0.00     0.058 A 
ATOM     74  C   UNL A   1      43.325  22.648  25.633  1.00  0.00     0.135 A 
ATOM     75  C   UNL A   1      43.048  22.285  27.993  1.00  0.00     0.135 A 
ATOM     76  F   UNL A   1      43.610  23.447  24.594  1.00  0.00    -0.206 F 
ATOM     77  C   UNL A   1      42.972  21.327  25.378  1.00  0.00     0.059 A 
ATOM     78  C   UNL A   1      42.717  20.953  27.764  1.00  0.00     0.059 A 
ATOM     79  F   UNL A   1      43.086  22.721  29.262  1.00  0.00    -0.206 F 
ATOM     80  C   UNL A   1      42.674  20.486  26.452  1.00  0.00     0.060 A 
BRANCH  80  81
ATOM     81  S   UNL A   1      42.287  18.751  26.125  1.00  0.00     0.124 S 
ATOM     82  O   UNL A   1      40.880  18.832  25.751  1.00  0.00    -0.237 OA
ATOM     83  O   UNL A   1      43.216  18.420  25.049  1.00  0.00    -0.237 OA
ATOM     84  O   UNL A   1      42.567  18.105  27.404  1.00  0.00    -0.744 OA
ENDBRANCH  80  81
ENDBRANCH  48  73
BRANCH  60  85
ATOM     85  C   UNL A   1      49.415  26.569  26.474  1.00  0.00     0.058 A 
ATOM     86  C   UNL A   1      50.311  26.054  27.423  1.00  0.00     0.135 A 
ATOM     87  C   UNL A   1      49.837  26.635  25.136  1.00  0.00     0.135 A 
ATOM     88  F   UNL A   1      49.955  25.978  28.715  1.00  0.00    -0.206 F 
ATOM     89  C   UNL A   1      51.587  25.636  27.062  1.00  0.00     0.059 A 
ATOM     90  C   UNL A   1      51.102  26.206  24.751  1.00  0.00     0.059 A 
ATOM     91  F   UNL A   1      49.013  27.114  24.192  1.00  0.00    -0.206 F 
ATOM     92  C   UNL A   1      51.975  25.719  25.723  1.00  0.00     0.060 A 
BRANCH  92  93
ATOM     93  S   UNL A   1      53.625  25.150  25.258  1.00  0.00     0.124 S 
ATOM     94  O   UNL A   1      53.443  23.703  25.246  1.00  0.00    -0.237 OA
ATOM     95  O   UNL A   1      53.820  25.776  23.954  1.00  0.00    -0.237 OA
ATOM     96  O   UNL A   1      54.474  25.669  26.326  1.00  0.00    -0.744 OA
ENDBRANCH  92  93
ENDBRANCH  60  85
ENDBRANCH  34  35
ENDBRANCH  27  29
ENDBRANCH  26  27
ENDBRANCH  25  26
ENDBRANCH   1  25
TORSDOF 18
ENDMDL
MODEL 2
REMARK VINA RESULT:     -11.5      5.447     12.078
REMARK SMILES Nc1nc(Nc2ccc(C(=O)OCCOC(=O)c3ccc(-c4c5nc(c(-c6c(F)cc(S(=O)(=O)[O-])cc6F)c6ccc([nH]6)c(-c6c(F)cc(S(=O)(=O)[O-])cc6F)c6nc(c(-c7c(F)cc(S(=O)(=O)[O-])cc7F)c7ccc4[nH]7)C=C6)C=C5)cc3)cc2)ccc1[N+](=O)[O-]
REMARK SMILES IDX 13 1 12 2 10 3 11 4 9 5 6 6 7 7 85 8 8 9 84 10 5 11 4 13
REMARK SMILES IDX 2 14 3 15 88 16 87 17 86 18 1 19 89 22 90 23 91 24 14 25
REMARK SMILES IDX 15 26 16 27 17 28 18 29 19 30 83 31 20 32 82 33 21 34 22 35
REMARK SMILES IDX 23 36 76 37 24 38 81 39 75 40 77 41 25 42 80 43 74 44 73 45
REMARK SMILES IDX 26 47 60 48 39 49 59 50 40 51 43 52 58 53 78 54 41 55 42 56
REMARK SMILES IDX 57 58 79 59 44 60 27 61 28 62 37 63 29 64 30 65 36 66 38 67
REMARK SMILES IDX 31 68 32 69 33 70 34 71 35 72 61 73 62 74 71 75 63 76 64 77
REMARK SMILES IDX 70 78 72 79 65 80 66 81 67 82 68 83 69 84 45 85 46 86 55 87
REMARK SMILES IDX 47 88 48 89 54 90 56 91 49 92 50 93 51 94 52 95 53 96
REMARK H PARENT 5 12 1 20 1 21 77 46 43 57
REMARK Flexibility Score: inf
ROOT
ATOM      1  C   UNL A   1      39.225  19.614  25.528  1.00  0.00     0.275 C 
ENDROOT
BRANCH   1   2
ATOM      2  O   UNL A   1      40.191  19.840  26.574  1.00  0.00    -0.458 OA
BRANCH   2   3
ATOM      3  C   UNL A   1      41.483  19.653  26.209  1.00  0.00     0.338 C 
ATOM      4  O   UNL A   1      41.963  18.647  25.712  1.00  0.00    -0.246 OA
BRANCH   3   5
ATOM      5  C   UNL A   1      42.273  20.885  26.426  1.00  0.00     0.060 A 
ATOM      6  C   UNL A   1      43.977  23.059  26.925  1.00  0.00     0.040 A 
ATOM      7  C   UNL A   1      44.242  22.184  25.868  1.00  0.00     0.027 A 
ATOM      8  C   UNL A   1      42.835  22.848  27.712  1.00  0.00     0.027 A 
ATOM      9  C   UNL A   1      43.412  21.089  25.641  1.00  0.00     0.018 A 
ATOM     10  C   UNL A   1      41.968  21.781  27.452  1.00  0.00     0.018 A 
BRANCH   6  11
ATOM     11  N   UNL A   1      44.965  23.995  27.292  1.00  0.00    -0.340 N 
ATOM     12  H   UNL A   1      45.375  23.911  28.183  1.00  0.00     0.168 HD
BRANCH  11  13
ATOM     13  C   UNL A   1      45.401  25.043  26.456  1.00  0.00     0.133 A 
ATOM     14  C   UNL A   1      44.934  27.020  25.286  1.00  0.00     0.204 A 
ATOM     15  N   UNL A   1      44.517  25.979  26.034  1.00  0.00    -0.207 NA
ATOM     16  C   UNL A   1      46.263  27.132  24.900  1.00  0.00     0.311 A 
ATOM     17  C   UNL A   1      47.182  26.155  25.295  1.00  0.00     0.093 A 
ATOM     18  C   UNL A   1      46.739  25.092  26.078  1.00  0.00     0.054 A 
BRANCH  14  19
ATOM     19  N   UNL A   1      43.916  27.865  24.893  1.00  0.00    -0.378 N 
ATOM     20  H   UNL A   1      44.072  28.526  24.179  1.00  0.00     0.158 HD
ATOM     21  H   UNL A   1      43.032  27.806  25.324  1.00  0.00     0.158 HD
ENDBRANCH  14  19
BRANCH  16  22
ATOM     22  N   UNL A   1      46.719  28.253  24.098  1.00  0.00     0.066 N 
ATOM     23  O   UNL A   1      47.294  27.992  23.031  1.00  0.00    -0.258 OA
ATOM     24  O   UNL A   1      46.541  29.401  24.535  1.00  0.00    -0.258 OA
ENDBRANCH  16  22
ENDBRANCH  11  13
ENDBRANCH   6  11
ENDBRANCH   3   5
ENDBRANCH   2   3
ENDBRANCH   1   2
BRANCH   1  25
ATOM     25  C   UNL A   1      38.370  20.860  25.303  1.00  0.00     0.275 C 
BRANCH  25  26
ATOM     26  O   UNL A   1      38.923  21.966  26.035  1.00  0.00    -0.458 OA
BRANCH  26  27
ATOM     27  C   UNL A   1      38.452  23.191  25.704  1.00  0.00     0.338 C 
ATOM     28  O   UNL A   1      37.660  23.455  24.816  1.00  0.00    -0.246 OA
BRANCH  27  29
ATOM     29  C   UNL A   1      39.055  24.217  26.582  1.00  0.00     0.060 A 
ATOM     30  C   UNL A   1      38.758  24.250  27.943  1.00  0.00     0.016 A 
ATOM     31  C   UNL A   1      39.845  25.221  26.025  1.00  0.00     0.016 A 
ATOM     32  C   UNL A   1      39.163  25.330  28.729  1.00  0.00     0.010 A 
ATOM     33  C   UNL A   1      40.340  26.249  26.837  1.00  0.00     0.010 A 
ATOM     34  C   UNL A   1      39.972  26.343  28.192  1.00  0.00    -0.014 A 
BRANCH  34  35
ATOM     35  C   UNL A   1      40.392  27.517  29.015  1.00  0.00     0.031 A 
ATOM     36  C   UNL A   1      41.741  27.522  29.695  1.00  0.00     0.074 A 
ATOM     37  C   UNL A   1      39.583  28.588  29.163  1.00  0.00     0.049 A 
ATOM     38  N   UNL A   1      42.203  28.331  30.615  1.00  0.00    -0.248 NA
ATOM     39  C   UNL A   1      42.688  26.466  29.300  1.00  0.00     0.031 C 
ATOM     40  C   UNL A   1      38.269  28.757  28.542  1.00  0.00     0.029 A 
ATOM     41  N   UNL A   1      39.755  29.747  29.883  1.00  0.00    -0.354 N 
ATOM     42  C   UNL A   1      43.457  27.840  30.961  1.00  0.00     0.074 A 
ATOM     43  C   UNL A   1      43.690  26.669  30.144  1.00  0.00     0.031 C 
ATOM     44  C   UNL A   1      37.776  29.963  28.868  1.00  0.00     0.029 A 
ATOM     45  C   UNL A   1      38.694  30.618  29.792  1.00  0.00     0.049 A 
ATOM     46  H   UNL A   1      40.562  29.936  30.414  1.00  0.00     0.167 HD
ATOM     47  C   UNL A   1      44.334  28.318  31.877  1.00  0.00     0.037 A 
ATOM     48  C   UNL A   1      38.460  31.792  30.410  1.00  0.00     0.037 A 
ATOM     49  C   UNL A   1      44.138  29.526  32.637  1.00  0.00     0.049 A 
ATOM     50  C   UNL A   1      39.451  32.313  31.414  1.00  0.00     0.074 A 
ATOM     51  C   UNL A   1      44.973  30.093  33.586  1.00  0.00     0.029 A 
ATOM     52  N   UNL A   1      43.046  30.371  32.513  1.00  0.00    -0.354 N 
ATOM     53  N   UNL A   1      40.591  31.787  31.792  1.00  0.00    -0.248 NA
ATOM     54  C   UNL A   1      39.111  33.571  32.092  1.00  0.00     0.031 C 
ATOM     55  C   UNL A   1      44.378  31.273  34.046  1.00  0.00     0.029 A 
ATOM     56  C   UNL A   1      43.186  31.454  33.364  1.00  0.00     0.049 A 
ATOM     57  H   UNL A   1      42.283  30.221  31.909  1.00  0.00     0.167 HD
ATOM     58  C   UNL A   1      41.102  32.648  32.755  1.00  0.00     0.074 A 
ATOM     59  C   UNL A   1      40.161  33.742  32.885  1.00  0.00     0.031 C 
ATOM     60  C   UNL A   1      42.243  32.536  33.478  1.00  0.00     0.037 A 
BRANCH  47  61
ATOM     61  C   UNL A   1      45.579  27.517  32.135  1.00  0.00     0.058 A 
ATOM     62  C   UNL A   1      46.787  27.788  31.475  1.00  0.00     0.135 A 
ATOM     63  C   UNL A   1      45.568  26.483  33.086  1.00  0.00     0.135 A 
ATOM     64  F   UNL A   1      46.847  28.753  30.545  1.00  0.00    -0.206 F 
ATOM     65  C   UNL A   1      47.936  27.047  31.735  1.00  0.00     0.059 A 
ATOM     66  C   UNL A   1      46.711  25.744  33.376  1.00  0.00     0.059 A 
ATOM     67  F   UNL A   1      44.438  26.184  33.745  1.00  0.00    -0.206 F 
ATOM     68  C   UNL A   1      47.887  26.024  32.684  1.00  0.00     0.060 A 
BRANCH  68  69
ATOM     69  S   UNL A   1      49.386  25.072  33.016  1.00  0.00     0.124 S 
ATOM     70  O   UNL A   1      49.852  24.787  31.662  1.00  0.00    -0.237 OA
ATOM     71  O   UNL A   1      50.198  26.015  33.779  1.00  0.00    -0.237 OA
ATOM     72  O   UNL A   1      48.895  23.922  33.768  1.00  0.00    -0.744 OA
ENDBRANCH  68  69
ENDBRANCH  47  61
BRANCH  48  73
ATOM     73  C   UNL A   1      37.206  32.540  30.128  1.00  0.00     0.058 A 
ATOM     74  C   UNL A   1      36.032  32.276  30.847  1.00  0.00     0.135 A 
ATOM     75  C   UNL A   1      37.165  33.547  29.151  1.00  0.00     0.135 A 
ATOM     76  F   UNL A   1      36.021  31.313  31.781  1.00  0.00    -0.206 F 
ATOM     77  C   UNL A   1      34.858  32.981  30.606  1.00  0.00     0.059 A 
ATOM     78  C   UNL A   1      36.009  34.283  28.910  1.00  0.00     0.059 A 
ATOM     79  F   UNL A   1      38.266  33.844  28.443  1.00  0.00    -0.206 F 
ATOM     80  C   UNL A   1      34.858  33.987  29.637  1.00  0.00     0.060 A 
BRANCH  80  81
ATOM     81  S   UNL A   1      33.353  34.951  29.375  1.00  0.00     0.124 S 
ATOM     82  O   UNL A   1      33.898  36.231  28.938  1.00  0.00    -0.237 OA
ATOM     83  O   UNL A   1      32.655  34.172  28.356  1.00  0.00    -0.237 OA
ATOM     84  O   UNL A   1      32.725  34.946  30.693  1.00  0.00    -0.744 OA
ENDBRANCH  80  81
ENDBRANCH  48  73
BRANCH  60  85
ATOM     85  C   UNL A   1      42.546  33.633  34.456  1.00  0.00     0.058 A 
ATOM     86  C   UNL A   1      43.329  34.738  34.093  1.00  0.00     0.135 A 
ATOM     87  C   UNL A   1      42.019  33.595  35.757  1.00  0.00     0.135 A 
ATOM     88  F   UNL A   1      43.860  34.816  32.862  1.00  0.00    -0.206 F 
ATOM     89  C   UNL A   1      43.598  35.763  34.995  1.00  0.00     0.059 A 
ATOM     90  C   UNL A   1      42.261  34.617  36.668  1.00  0.00     0.059 A 
ATOM     91  F   UNL A   1      41.258  32.562  36.147  1.00  0.00    -0.206 F 
ATOM     92  C   UNL A   1      43.062  35.691  36.282  1.00  0.00     0.060 A 
BRANCH  92  93
ATOM     93  S   UNL A   1      43.394  37.037  37.440  1.00  0.00     0.124 S 
ATOM     94  O   UNL A   1      43.768  38.117  36.533  1.00  0.00    -0.237 OA
ATOM     95  O   UNL A   1      42.112  37.194  38.120  1.00  0.00    -0.237 OA
ATOM     96  O   UNL A   1      44.474  36.509  38.269  1.00  0.00    -0.744 OA
ENDBRANCH  92  93
ENDBRANCH  60  85
ENDBRANCH  34  35
ENDBRANCH  27  29
ENDBRANCH  26  27
ENDBRANCH  25  26
ENDBRANCH   1  25
TORSDOF 18
ENDMDL
MODEL 3
REMARK VINA RESULT:     -11.5      1.898      2.608
REMARK SMILES Nc1nc(Nc2ccc(C(=O)OCCOC(=O)c3ccc(-c4c5nc(c(-c6c(F)cc(S(=O)(=O)[O-])cc6F)c6ccc([nH]6)c(-c6c(F)cc(S(=O)(=O)[O-])cc6F)c6nc(c(-c7c(F)cc(S(=O)(=O)[O-])cc7F)c7ccc4[nH]7)C=C6)C=C5)cc3)cc2)ccc1[N+](=O)[O-]
REMARK SMILES IDX 13 1 12 2 10 3 11 4 9 5 6 6 7 7 85 8 8 9 84 10 5 11 4 13
REMARK SMILES IDX 2 14 3 15 88 16 87 17 86 18 1 19 89 22 90 23 91 24 14 25
REMARK SMILES IDX 15 26 16 27 17 28 18 29 19 30 83 31 20 32 82 33 21 34 22 35
REMARK SMILES IDX 23 36 76 37 24 38 81 39 75 40 77 41 25 42 80 43 74 44 73 45
REMARK SMILES IDX 26 47 60 48 39 49 59 50 40 51 43 52 58 53 78 54 41 55 42 56
REMARK SMILES IDX 57 58 79 59 44 60 27 61 28 62 37 63 29 64 30 65 36 66 38 67
REMARK SMILES IDX 31 68 32 69 33 70 34 71 35 72 61 73 62 74 71 75 63 76 64 77
REMARK SMILES IDX 70 78 72 79 65 80 66 81 67 82 68 83 69 84 45 85 46 86 55 87
REMARK SMILES IDX 47 88 48 89 54 90 56 91 49 92 50 93 51 94 52 95 53 96
REMARK H PARENT 5 12 1 20 1 21 77 46 43 57
REMARK Flexibility Score: inf
ROOT
ATOM      1  C   UNL A   1      31.725  29.401  26.210  1.00  0.00     0.275 C 
ENDROOT
BRANCH   1   2
ATOM      2  O   UNL A   1      32.480  28.390  25.512  1.00  0.00    -0.458 OA
BRANCH   2   3
ATOM      3  C   UNL A   1      31.823  27.221  25.313  1.00  0.00     0.338 C 
ATOM      4  O   UNL A   1      30.656  27.087  24.981  1.00  0.00    -0.246 OA
BRANCH   3   5
ATOM      5  C   UNL A   1      32.736  26.070  25.484  1.00  0.00     0.060 A 
ATOM      6  C   UNL A   1      34.380  23.797  25.562  1.00  0.00     0.040 A 
ATOM      7  C   UNL A   1      34.645  24.827  24.656  1.00  0.00     0.027 A 
ATOM      8  C   UNL A   1      33.298  23.930  26.445  1.00  0.00     0.027 A 
ATOM      9  C   UNL A   1      33.811  25.940  24.598  1.00  0.00     0.018 A 
ATOM     10  C   UNL A   1      32.491  25.073  26.428  1.00  0.00     0.018 A 
BRANCH   6  11
ATOM     11  N   UNL A   1      35.073  22.577  25.422  1.00  0.00    -0.340 N 
ATOM     12  H   UNL A   1      36.021  22.549  25.686  1.00  0.00     0.168 HD
BRANCH  11  13
ATOM     13  C   UNL A   1      34.487  21.395  24.925  1.00  0.00     0.133 A 
ATOM     14  C   UNL A   1      34.574  19.072  24.620  1.00  0.00     0.204 A 
ATOM     15  N   UNL A   1      35.150  20.218  25.034  1.00  0.00    -0.207 NA
ATOM     16  C   UNL A   1      33.314  19.079  24.038  1.00  0.00     0.311 A 
ATOM     17  C   UNL A   1      32.630  20.288  23.882  1.00  0.00     0.093 A 
ATOM     18  C   UNL A   1      33.233  21.463  24.327  1.00  0.00     0.054 A 
BRANCH  14  19
ATOM     19  N   UNL A   1      35.386  17.963  24.752  1.00  0.00    -0.378 N 
ATOM     20  H   UNL A   1      36.191  18.007  25.318  1.00  0.00     0.158 HD
ATOM     21  H   UNL A   1      35.160  17.128  24.281  1.00  0.00     0.158 HD
ENDBRANCH  14  19
BRANCH  16  22
ATOM     22  N   UNL A   1      32.687  17.847  23.593  1.00  0.00     0.066 N 
ATOM     23  O   UNL A   1      32.472  16.977  24.451  1.00  0.00    -0.258 OA
ATOM     24  O   UNL A   1      32.433  17.717  22.385  1.00  0.00    -0.258 OA
ENDBRANCH  16  22
ENDBRANCH  11  13
ENDBRANCH   6  11
ENDBRANCH   3   5
ENDBRANCH   2   3
ENDBRANCH   1   2
BRANCH   1  25
ATOM     25  C   UNL A   1      32.656  30.451  26.814  1.00  0.00     0.275 C 
BRANCH  25  26
ATOM     26  O   UNL A   1      33.755  29.801  27.474  1.00  0.00    -0.458 OA
BRANCH  26  27
ATOM     27  C   UNL A   1      34.513  30.586  28.275  1.00  0.00     0.338 C 
ATOM     28  O   UNL A   1      34.166  31.609  28.839  1.00  0.00    -0.246 OA
BRANCH  27  29
ATOM     29  C   UNL A   1      35.881  30.031  28.375  1.00  0.00     0.060 A 
ATOM     30  C   UNL A   1      36.373  29.570  29.594  1.00  0.00     0.016 A 
ATOM     31  C   UNL A   1      36.719  30.066  27.262  1.00  0.00     0.016 A 
ATOM     32  C   UNL A   1      37.721  29.236  29.732  1.00  0.00     0.010 A 
ATOM     33  C   UNL A   1      38.045  29.630  27.376  1.00  0.00     0.010 A 
ATOM     34  C   UNL A   1      38.578  29.249  28.621  1.00  0.00    -0.014 A 
BRANCH  34  35
ATOM     35  C   UNL A   1      40.029  28.918  28.760  1.00  0.00     0.031 A 
ATOM     36  C   UNL A   1      40.998  29.960  29.269  1.00  0.00     0.074 A 
ATOM     37  C   UNL A   1      40.499  27.694  28.439  1.00  0.00     0.049 A 
ATOM     38  N   UNL A   1      42.307  29.951  29.259  1.00  0.00    -0.248 NA
ATOM     39  C   UNL A   1      40.416  31.181  29.849  1.00  0.00     0.031 C 
ATOM     40  C   UNL A   1      39.691  26.566  27.972  1.00  0.00     0.029 A 
ATOM     41  N   UNL A   1      41.778  27.190  28.465  1.00  0.00    -0.354 N 
ATOM     42  C   UNL A   1      42.703  31.187  29.758  1.00  0.00     0.074 A 
ATOM     43  C   UNL A   1      41.494  31.919  30.073  1.00  0.00     0.031 C 
ATOM     44  C   UNL A   1      40.481  25.495  27.800  1.00  0.00     0.029 A 
ATOM     45  C   UNL A   1      41.865  25.879  28.058  1.00  0.00     0.049 A 
ATOM     46  H   UNL A   1      42.559  27.718  28.749  1.00  0.00     0.167 HD
ATOM     47  C   UNL A   1      43.956  31.671  29.935  1.00  0.00     0.037 A 
ATOM     48  C   UNL A   1      42.934  25.081  27.870  1.00  0.00     0.037 A 
ATOM     49  C   UNL A   1      45.159  30.917  29.695  1.00  0.00     0.049 A 
ATOM     50  C   UNL A   1      44.317  25.632  28.085  1.00  0.00     0.074 A 
ATOM     51  C   UNL A   1      46.476  31.321  29.850  1.00  0.00     0.029 A 
ATOM     52  N   UNL A   1      45.196  29.595  29.278  1.00  0.00    -0.354 N 
ATOM     53  N   UNL A   1      44.672  26.833  28.473  1.00  0.00    -0.248 NA
ATOM     54  C   UNL A   1      45.442  24.728  27.811  1.00  0.00     0.031 C 
ATOM     55  C   UNL A   1      47.308  30.247  29.513  1.00  0.00     0.029 A 
ATOM     56  C   UNL A   1      46.509  29.167  29.175  1.00  0.00     0.049 A 
ATOM     57  H   UNL A   1      44.404  29.044  29.084  1.00  0.00     0.167 HD
ATOM     58  C   UNL A   1      46.061  26.830  28.486  1.00  0.00     0.074 A 
ATOM     59  C   UNL A   1      46.483  25.501  28.092  1.00  0.00     0.031 C 
ATOM     60  C   UNL A   1      46.912  27.841  28.785  1.00  0.00     0.037 A 
BRANCH  47  61
ATOM     61  C   UNL A   1      44.095  33.097  30.387  1.00  0.00     0.058 A 
ATOM     62  C   UNL A   1      44.150  34.163  29.478  1.00  0.00     0.135 A 
ATOM     63  C   UNL A   1      44.139  33.401  31.759  1.00  0.00     0.135 A 
ATOM     64  F   UNL A   1      44.130  33.926  28.157  1.00  0.00    -0.206 F 
ATOM     65  C   UNL A   1      44.265  35.481  29.911  1.00  0.00     0.059 A 
ATOM     66  C   UNL A   1      44.232  34.712  32.214  1.00  0.00     0.059 A 
ATOM     67  F   UNL A   1      44.089  32.417  32.670  1.00  0.00    -0.206 F 
ATOM     68  C   UNL A   1      44.309  35.745  31.282  1.00  0.00     0.060 A 
BRANCH  68  69
ATOM     69  S   UNL A   1      44.453  37.459  31.834  1.00  0.00     0.124 S 
ATOM     70  O   UNL A   1      43.760  37.408  33.117  1.00  0.00    -0.237 OA
ATOM     71  O   UNL A   1      45.899  37.648  31.903  1.00  0.00    -0.237 OA
ATOM     72  O   UNL A   1      43.776  38.210  30.782  1.00  0.00    -0.744 OA
ENDBRANCH  68  69
ENDBRANCH  47  61
BRANCH  48  73
ATOM     73  C   UNL A   1      42.742  23.680  27.412  1.00  0.00     0.058 A 
ATOM     74  C   UNL A   1      42.779  23.357  26.048  1.00  0.00     0.135 A 
ATOM     75  C   UNL A   1      42.541  22.636  28.329  1.00  0.00     0.135 A 
ATOM     76  F   UNL A   1      42.956  24.323  25.135  1.00  0.00    -0.206 F 
ATOM     77  C   UNL A   1      42.620  22.047  25.607  1.00  0.00     0.059 A 
ATOM     78  C   UNL A   1      42.404  21.316  27.913  1.00  0.00     0.059 A 
ATOM     79  F   UNL A   1      42.508  22.894  29.646  1.00  0.00    -0.206 F 
ATOM     80  C   UNL A   1      42.437  21.033  26.549  1.00  0.00     0.060 A 
BRANCH  80  81
ATOM     81  S   UNL A   1      42.302  19.323  25.980  1.00  0.00     0.124 S 
ATOM     82  O   UNL A   1      43.185  19.331  24.819  1.00  0.00    -0.237 OA
ATOM     83  O   UNL A   1      42.774  18.569  27.137  1.00  0.00    -0.237 OA
ATOM     84  O   UNL A   1      40.877  19.183  25.692  1.00  0.00    -0.744 OA
ENDBRANCH  80  81
ENDBRANCH  48  73
BRANCH  60  85
ATOM     85  C   UNL A   1      48.381  27.544  28.718  1.00  0.00     0.058 A 
ATOM     86  C   UNL A   1      49.071  27.020  29.822  1.00  0.00     0.135 A 
ATOM     87  C   UNL A   1      49.098  27.753  27.529  1.00  0.00     0.135 A 
ATOM     88  F   UNL A   1      48.429  26.809  30.982  1.00  0.00    -0.206 F 
ATOM     89  C   UNL A   1      50.430  26.730  29.755  1.00  0.00     0.059 A 
ATOM     90  C   UNL A   1      50.453  27.454  27.436  1.00  0.00     0.059 A 
ATOM     91  F   UNL A   1      48.480  28.246  26.446  1.00  0.00    -0.206 F 
ATOM     92  C   UNL A   1      51.113  26.954  28.558  1.00  0.00     0.060 A 
BRANCH  92  93
ATOM     93  S   UNL A   1      52.872  26.552  28.472  1.00  0.00     0.124 S 
ATOM     94  O   UNL A   1      53.135  26.094  29.832  1.00  0.00    -0.237 OA
ATOM     95  O   UNL A   1      52.912  25.523  27.437  1.00  0.00    -0.237 OA
ATOM     96  O   UNL A   1      53.491  27.823  28.105  1.00  0.00    -0.744 OA
ENDBRANCH  92  93
ENDBRANCH  60  85
ENDBRANCH  34  35
ENDBRANCH  27  29
ENDBRANCH  26  27
ENDBRANCH  25  26
ENDBRANCH   1  25
TORSDOF 18
ENDMDL
