MODEL 1
REMARK VINA RESULT:     -10.1      0.000      0.000
REMARK SMILES Cc1nn(C)c(OCC(C)(C)[NH+](C)C)c1C(=O)OCCOC(=O)c1ccc(-c2c3nc(c(-c4c(F)cc(S(=O)(=O)[O-])cc4F)c4ccc([nH]4)c(-c4c(F)cc(S(=O)(=O)[O-])cc4F)c4nc(c(-c5c(F)cc(S(=O)(=O)[O-])cc5F)c5ccc2[nH]5)C=C4)C=C3)cc1
REMARK SMILES IDX 19 1 18 2 16 3 17 4 15 5 1 6 2 7 3 8 4 9 6 10 5 11 7 12 8 13
REMARK SMILES IDX 9 14 10 15 11 16 12 17 13 18 14 19 20 21 21 22 22 23 23 24
REMARK SMILES IDX 24 25 25 26 89 27 26 28 88 29 27 30 28 31 29 32 82 33 30 34
REMARK SMILES IDX 87 35 81 36 83 37 31 38 86 39 80 40 79 41 32 43 66 44 45 45
REMARK SMILES IDX 65 46 46 47 49 48 64 49 84 50 47 51 48 52 63 54 85 55 50 56
REMARK SMILES IDX 33 57 34 58 43 59 35 60 36 61 42 62 44 63 37 64 38 65 39 66
REMARK SMILES IDX 40 67 41 68 67 69 68 70 77 71 69 72 70 73 76 74 78 75 71 76
REMARK SMILES IDX 72 77 73 78 74 79 75 80 51 81 52 82 61 83 53 84 54 85 60 86
REMARK SMILES IDX 62 87 55 88 56 89 57 90 58 91 59 92
REMARK H PARENT 12 20 83 42 49 53
REMARK Flexibility Score: inf
ROOT
ATOM      1  C   UNL A   1      38.552  21.134  25.375  1.00  0.00     0.275 C 
ENDROOT
BRANCH   1   2
ATOM      2  O   UNL A   1      37.163  21.066  24.978  1.00  0.00    -0.458 OA
BRANCH   2   3
ATOM      3  C   UNL A   1      36.459  22.164  25.391  1.00  0.00     0.345 C 
ATOM      4  O   UNL A   1      37.019  23.055  26.004  1.00  0.00    -0.246 OA
BRANCH   3   5
ATOM      5  C   UNL A   1      35.052  22.209  25.034  1.00  0.00     0.144 A 
ATOM      6  C   UNL A   1      34.781  24.443  23.639  1.00  0.00     0.070 C 
ATOM      7  C   UNL A   1      34.314  23.230  24.356  1.00  0.00     0.078 A 
ATOM      8  N   UNL A   1      32.999  22.979  24.346  1.00  0.00    -0.174 NA
ATOM      9  N   UNL A   1      32.901  21.794  24.966  1.00  0.00    -0.236 N 
ATOM     10  C   UNL A   1      34.112  21.185  25.198  1.00  0.00     0.227 A 
ATOM     11  C   UNL A   1      31.593  21.277  25.301  1.00  0.00     0.178 C 
BRANCH  10  12
ATOM     12  O   UNL A   1      34.073  19.882  25.499  1.00  0.00    -0.471 OA
BRANCH  12  13
ATOM     13  C   UNL A   1      34.545  18.862  24.627  1.00  0.00     0.299 C 
BRANCH  13  14
ATOM     14  C   UNL A   1      33.682  17.550  24.464  1.00  0.00     0.126 C 
ATOM     15  C   UNL A   1      32.153  17.789  24.420  1.00  0.00     0.082 C 
ATOM     16  C   UNL A   1      34.119  16.954  23.092  1.00  0.00     0.082 C 
BRANCH  14  17
ATOM     17  N   UNL A   1      34.038  16.559  25.531  1.00  0.00    -0.333 N 
ATOM     18  C   UNL A   1      33.008  15.540  25.751  1.00  0.00     0.333 C 
ATOM     19  C   UNL A   1      35.341  15.911  25.376  1.00  0.00     0.333 C 
ATOM     20  H   UNL A   1      34.100  17.152  26.359  1.00  0.00     0.348 HD
ENDBRANCH  14  17
ENDBRANCH  13  14
ENDBRANCH  12  13
ENDBRANCH  10  12
ENDBRANCH   3   5
ENDBRANCH   2   3
ENDBRANCH   1   2
BRANCH   1  21
ATOM     21  C   UNL A   1      39.240  19.760  25.525  1.00  0.00     0.275 C 
BRANCH  21  22
ATOM     22  O   UNL A   1      40.183  19.676  26.619  1.00  0.00    -0.458 OA
BRANCH  22  23
ATOM     23  C   UNL A   1      41.492  19.563  26.265  1.00  0.00     0.338 C 
ATOM     24  O   UNL A   1      41.997  18.575  25.750  1.00  0.00    -0.246 OA
BRANCH  23  25
ATOM     25  C   UNL A   1      42.217  20.859  26.397  1.00  0.00     0.060 A 
ATOM     26  C   UNL A   1      42.345  21.399  27.686  1.00  0.00     0.016 A 
ATOM     27  C   UNL A   1      42.792  21.535  25.316  1.00  0.00     0.016 A 
ATOM     28  C   UNL A   1      43.068  22.581  27.899  1.00  0.00     0.010 A 
ATOM     29  C   UNL A   1      43.482  22.746  25.527  1.00  0.00     0.010 A 
ATOM     30  C   UNL A   1      43.627  23.281  26.819  1.00  0.00    -0.014 A 
BRANCH  30  31
ATOM     31  C   UNL A   1      44.196  24.645  27.036  1.00  0.00     0.031 A 
ATOM     32  C   UNL A   1      43.256  25.750  27.449  1.00  0.00     0.074 A 
ATOM     33  C   UNL A   1      45.509  24.921  26.891  1.00  0.00     0.049 A 
ATOM     34  N   UNL A   1      43.513  27.006  27.711  1.00  0.00    -0.248 NA
ATOM     35  C   UNL A   1      41.837  25.385  27.585  1.00  0.00     0.031 C 
ATOM     36  C   UNL A   1      46.545  23.959  26.531  1.00  0.00     0.029 A 
ATOM     37  N   UNL A   1      46.197  26.108  27.032  1.00  0.00    -0.354 N 
ATOM     38  C   UNL A   1      42.294  27.576  28.059  1.00  0.00     0.074 A 
ATOM     39  C   UNL A   1      41.296  26.532  27.962  1.00  0.00     0.031 C 
ATOM     40  C   UNL A   1      47.735  24.586  26.483  1.00  0.00     0.029 A 
ATOM     41  C   UNL A   1      47.545  26.008  26.763  1.00  0.00     0.049 A 
ATOM     42  H   UNL A   1      45.764  26.950  27.301  1.00  0.00     0.167 HD
ATOM     43  C   UNL A   1      42.020  28.853  28.415  1.00  0.00     0.037 A 
ATOM     44  C   UNL A   1      48.508  26.956  26.721  1.00  0.00     0.037 A 
ATOM     45  C   UNL A   1      42.988  29.916  28.452  1.00  0.00     0.049 A 
ATOM     46  C   UNL A   1      48.153  28.397  27.015  1.00  0.00     0.074 A 
ATOM     47  C   UNL A   1      42.788  31.246  28.780  1.00  0.00     0.029 A 
ATOM     48  N   UNL A   1      44.328  29.782  28.123  1.00  0.00    -0.354 N 
ATOM     49  N   UNL A   1      47.004  28.908  27.387  1.00  0.00    -0.248 NA
ATOM     50  C   UNL A   1      49.229  29.394  26.877  1.00  0.00     0.031 C 
ATOM     51  C   UNL A   1      43.993  31.928  28.591  1.00  0.00     0.029 A 
ATOM     52  C   UNL A   1      44.959  31.012  28.209  1.00  0.00     0.049 A 
ATOM     53  H   UNL A   1      44.765  28.938  27.866  1.00  0.00     0.167 HD
ATOM     54  C   UNL A   1      47.229  30.273  27.561  1.00  0.00     0.074 A 
ATOM     55  C   UNL A   1      48.623  30.509  27.262  1.00  0.00     0.031 C 
ATOM     56  C   UNL A   1      46.356  31.241  27.935  1.00  0.00     0.037 A 
BRANCH  43  57
ATOM     57  C   UNL A   1      40.594  29.182  28.747  1.00  0.00     0.058 A 
ATOM     58  C   UNL A   1      40.153  29.285  30.075  1.00  0.00     0.135 A 
ATOM     59  C   UNL A   1      39.663  29.422  27.724  1.00  0.00     0.135 A 
ATOM     60  F   UNL A   1      40.998  29.041  31.090  1.00  0.00    -0.206 F 
ATOM     61  C   UNL A   1      38.832  29.599  30.377  1.00  0.00     0.059 A 
ATOM     62  C   UNL A   1      38.344  29.762  28.002  1.00  0.00     0.059 A 
ATOM     63  F   UNL A   1      40.034  29.326  26.437  1.00  0.00    -0.206 F 
ATOM     64  C   UNL A   1      37.936  29.838  29.334  1.00  0.00     0.060 A 
BRANCH  64  65
ATOM     65  S   UNL A   1      36.229  30.256  29.744  1.00  0.00     0.124 S 
ATOM     66  O   UNL A   1      36.284  31.714  29.764  1.00  0.00    -0.237 OA
ATOM     67  O   UNL A   1      35.489  29.663  28.635  1.00  0.00    -0.237 OA
ATOM     68  O   UNL A   1      36.025  29.618  31.042  1.00  0.00    -0.744 OA
ENDBRANCH  64  65
ENDBRANCH  43  57
BRANCH  44  69
ATOM     69  C   UNL A   1      49.912  26.606  26.347  1.00  0.00     0.058 A 
ATOM     70  C   UNL A   1      50.343  26.643  25.011  1.00  0.00     0.135 A 
ATOM     71  C   UNL A   1      50.829  26.153  27.309  1.00  0.00     0.135 A 
ATOM     72  F   UNL A   1      49.502  27.045  24.046  1.00  0.00    -0.206 F 
ATOM     73  C   UNL A   1      51.616  26.216  24.639  1.00  0.00     0.059 A 
ATOM     74  C   UNL A   1      52.118  25.749  26.965  1.00  0.00     0.059 A 
ATOM     75  F   UNL A   1      50.474  26.092  28.602  1.00  0.00    -0.206 F 
ATOM     76  C   UNL A   1      52.496  25.768  25.624  1.00  0.00     0.060 A 
BRANCH  76  77
ATOM     77  S   UNL A   1      54.147  25.222  25.133  1.00  0.00     0.124 S 
ATOM     78  O   UNL A   1      53.955  23.782  25.001  1.00  0.00    -0.237 OA
ATOM     79  O   UNL A   1      54.356  25.954  23.888  1.00  0.00    -0.237 OA
ATOM     80  O   UNL A   1      54.988  25.647  26.249  1.00  0.00    -0.744 OA
ENDBRANCH  76  77
ENDBRANCH  44  69
BRANCH  56  81
ATOM     81  C   UNL A   1      46.878  32.645  28.104  1.00  0.00     0.058 A 
ATOM     82  C   UNL A   1      46.766  33.610  27.090  1.00  0.00     0.135 A 
ATOM     83  C   UNL A   1      47.429  33.050  29.332  1.00  0.00     0.135 A 
ATOM     84  F   UNL A   1      46.250  33.280  25.896  1.00  0.00    -0.206 F 
ATOM     85  C   UNL A   1      47.196  34.920  27.283  1.00  0.00     0.059 A 
ATOM     86  C   UNL A   1      47.839  34.362  29.556  1.00  0.00     0.059 A 
ATOM     87  F   UNL A   1      47.550  32.174  30.341  1.00  0.00    -0.206 F 
ATOM     88  C   UNL A   1      47.728  35.288  28.521  1.00  0.00     0.060 A 
BRANCH  88  89
ATOM     89  S   UNL A   1      48.237  37.002  28.773  1.00  0.00     0.124 S 
ATOM     90  O   UNL A   1      48.405  37.051  30.222  1.00  0.00    -0.237 OA
ATOM     91  O   UNL A   1      49.466  37.083  27.989  1.00  0.00    -0.237 OA
ATOM     92  O   UNL A   1      47.115  37.773  28.246  1.00  0.00    -0.744 OA
ENDBRANCH  88  89
ENDBRANCH  56  81
ENDBRANCH  30  31
ENDBRANCH  23  25
ENDBRANCH  22  23
ENDBRANCH  21  22
ENDBRANCH   1  21
TORSDOF 18
ENDMDL
MODEL 2
REMARK VINA RESULT:     -10.1      6.676      9.983
REMARK SMILES Cc1nn(C)c(OCC(C)(C)[NH+](C)C)c1C(=O)OCCOC(=O)c1ccc(-c2c3nc(c(-c4c(F)cc(S(=O)(=O)[O-])cc4F)c4ccc([nH]4)c(-c4c(F)cc(S(=O)(=O)[O-])cc4F)c4nc(c(-c5c(F)cc(S(=O)(=O)[O-])cc5F)c5ccc2[nH]5)C=C4)C=C3)cc1
REMARK SMILES IDX 19 1 18 2 16 3 17 4 15 5 1 6 2 7 3 8 4 9 6 10 5 11 7 12 8 13
REMARK SMILES IDX 9 14 10 15 11 16 12 17 13 18 14 19 20 21 21 22 22 23 23 24
REMARK SMILES IDX 24 25 25 26 89 27 26 28 88 29 27 30 28 31 29 32 82 33 30 34
REMARK SMILES IDX 87 35 81 36 83 37 31 38 86 39 80 40 79 41 32 43 66 44 45 45
REMARK SMILES IDX 65 46 46 47 49 48 64 49 84 50 47 51 48 52 63 54 85 55 50 56
REMARK SMILES IDX 33 57 34 58 43 59 35 60 36 61 42 62 44 63 37 64 38 65 39 66
REMARK SMILES IDX 40 67 41 68 67 69 68 70 77 71 69 72 70 73 76 74 78 75 71 76
REMARK SMILES IDX 72 77 73 78 74 79 75 80 51 81 52 82 61 83 53 84 54 85 60 86
REMARK SMILES IDX 62 87 55 88 56 89 57 90 58 91 59 92
REMARK H PARENT 12 20 83 42 49 53
REMARK Flexibility Score: inf
ROOT
ATOM      1  C   UNL A   1      45.604  22.927  26.434  1.00  0.00     0.275 C 
ENDROOT
BRANCH   1   2
ATOM      2  O   UNL A   1      45.517  22.814  24.996  1.00  0.00    -0.458 OA
BRANCH   2   3
ATOM      3  C   UNL A   1      44.418  22.099  24.605  1.00  0.00     0.345 C 
ATOM      4  O   UNL A   1      43.579  22.611  23.885  1.00  0.00    -0.246 OA
BRANCH   3   5
ATOM      5  C   UNL A   1      44.338  20.723  25.063  1.00  0.00     0.144 A 
ATOM      6  C   UNL A   1      46.690  19.671  24.453  1.00  0.00     0.070 C 
ATOM      7  C   UNL A   1      45.281  19.656  24.921  1.00  0.00     0.078 A 
ATOM      8  N   UNL A   1      44.785  18.486  25.340  1.00  0.00    -0.174 NA
ATOM      9  N   UNL A   1      43.562  18.805  25.787  1.00  0.00    -0.236 N 
ATOM     10  C   UNL A   1      43.329  20.160  25.852  1.00  0.00     0.227 A 
ATOM     11  C   UNL A   1      42.648  17.750  26.164  1.00  0.00     0.178 C 
BRANCH  10  12
ATOM     12  O   UNL A   1      42.282  20.547  26.589  1.00  0.00    -0.471 OA
BRANCH  12  13
ATOM     13  C   UNL A   1      41.188  21.290  26.064  1.00  0.00     0.299 C 
BRANCH  13  14
ATOM     14  C   UNL A   1      40.657  22.532  26.884  1.00  0.00     0.126 C 
ATOM     15  C   UNL A   1      41.158  22.596  28.347  1.00  0.00     0.082 C 
ATOM     16  C   UNL A   1      41.213  23.775  26.127  1.00  0.00     0.082 C 
BRANCH  14  17
ATOM     17  N   UNL A   1      39.160  22.589  26.827  1.00  0.00    -0.333 N 
ATOM     18  C   UNL A   1      38.627  23.954  26.814  1.00  0.00     0.333 C 
ATOM     19  C   UNL A   1      38.543  21.813  25.751  1.00  0.00     0.333 C 
ATOM     20  H   UNL A   1      38.897  22.139  27.703  1.00  0.00     0.348 HD
ENDBRANCH  14  17
ENDBRANCH  13  14
ENDBRANCH  12  13
ENDBRANCH  10  12
ENDBRANCH   3   5
ENDBRANCH   2   3
ENDBRANCH   1   2
BRANCH   1  21
ATOM     21  C   UNL A   1      44.781  24.089  27.033  1.00  0.00     0.275 C 
BRANCH  21  22
ATOM     22  O   UNL A   1      45.020  25.375  26.416  1.00  0.00    -0.458 OA
BRANCH  22  23
ATOM     23  C   UNL A   1      43.910  26.101  26.113  1.00  0.00     0.338 C 
ATOM     24  O   UNL A   1      43.320  26.070  25.043  1.00  0.00    -0.246 OA
BRANCH  23  25
ATOM     25  C   UNL A   1      43.367  26.809  27.308  1.00  0.00     0.060 A 
ATOM     26  C   UNL A   1      43.911  28.065  27.619  1.00  0.00     0.016 A 
ATOM     27  C   UNL A   1      42.336  26.299  28.104  1.00  0.00     0.016 A 
ATOM     28  C   UNL A   1      43.409  28.819  28.689  1.00  0.00     0.010 A 
ATOM     29  C   UNL A   1      41.862  27.040  29.206  1.00  0.00     0.010 A 
ATOM     30  C   UNL A   1      42.393  28.307  29.509  1.00  0.00    -0.014 A 
BRANCH  30  31
ATOM     31  C   UNL A   1      42.029  29.020  30.770  1.00  0.00     0.031 A 
ATOM     32  C   UNL A   1      40.806  29.903  30.760  1.00  0.00     0.074 A 
ATOM     33  C   UNL A   1      42.737  28.895  31.911  1.00  0.00     0.049 A 
ATOM     34  N   UNL A   1      40.281  30.607  31.729  1.00  0.00    -0.248 NA
ATOM     35  C   UNL A   1      40.080  30.001  29.483  1.00  0.00     0.031 C 
ATOM     36  C   UNL A   1      43.918  28.056  32.090  1.00  0.00     0.029 A 
ATOM     37  N   UNL A   1      42.560  29.482  33.147  1.00  0.00    -0.354 N 
ATOM     38  C   UNL A   1      39.156  31.218  31.186  1.00  0.00     0.074 A 
ATOM     39  C   UNL A   1      39.082  30.810  29.799  1.00  0.00     0.031 C 
ATOM     40  C   UNL A   1      44.358  28.176  33.357  1.00  0.00     0.029 A 
ATOM     41  C   UNL A   1      43.520  29.136  34.073  1.00  0.00     0.049 A 
ATOM     42  H   UNL A   1      41.814  30.091  33.348  1.00  0.00     0.167 HD
ATOM     43  C   UNL A   1      38.268  32.052  31.777  1.00  0.00     0.037 A 
ATOM     44  C   UNL A   1      43.717  29.564  35.340  1.00  0.00     0.037 A 
ATOM     45  C   UNL A   1      38.365  32.518  33.134  1.00  0.00     0.049 A 
ATOM     46  C   UNL A   1      42.773  30.582  35.941  1.00  0.00     0.074 A 
ATOM     47  C   UNL A   1      37.520  33.384  33.805  1.00  0.00     0.029 A 
ATOM     48  N   UNL A   1      39.380  32.185  34.019  1.00  0.00    -0.354 N 
ATOM     49  N   UNL A   1      41.689  31.112  35.427  1.00  0.00    -0.248 NA
ATOM     50  C   UNL A   1      43.085  31.068  37.297  1.00  0.00     0.031 C 
ATOM     51  C   UNL A   1      38.055  33.623  35.074  1.00  0.00     0.029 A 
ATOM     52  C   UNL A   1      39.197  32.854  35.218  1.00  0.00     0.049 A 
ATOM     53  H   UNL A   1      40.119  31.565  33.823  1.00  0.00     0.167 HD
ATOM     54  C   UNL A   1      41.174  31.960  36.406  1.00  0.00     0.074 A 
ATOM     55  C   UNL A   1      42.058  31.868  37.547  1.00  0.00     0.031 C 
ATOM     56  C   UNL A   1      40.067  32.742  36.363  1.00  0.00     0.037 A 
BRANCH  43  57
ATOM     57  C   UNL A   1      37.134  32.556  30.934  1.00  0.00     0.058 A 
ATOM     58  C   UNL A   1      35.877  31.933  30.944  1.00  0.00     0.135 A 
ATOM     59  C   UNL A   1      37.300  33.692  30.126  1.00  0.00     0.135 A 
ATOM     60  F   UNL A   1      35.674  30.828  31.680  1.00  0.00    -0.206 F 
ATOM     61  C   UNL A   1      34.826  32.410  30.167  1.00  0.00     0.059 A 
ATOM     62  C   UNL A   1      36.257  34.201  29.361  1.00  0.00     0.059 A 
ATOM     63  F   UNL A   1      38.486  34.318  30.075  1.00  0.00    -0.206 F 
ATOM     64  C   UNL A   1      35.025  33.546  29.381  1.00  0.00     0.060 A 
BRANCH  64  65
ATOM     65  S   UNL A   1      33.648  34.158  28.389  1.00  0.00     0.124 S 
ATOM     66  O   UNL A   1      32.718  34.599  29.423  1.00  0.00    -0.237 OA
ATOM     67  O   UNL A   1      34.275  35.218  27.607  1.00  0.00    -0.237 OA
ATOM     68  O   UNL A   1      33.229  32.986  27.627  1.00  0.00    -0.744 OA
ENDBRANCH  64  65
ENDBRANCH  43  57
BRANCH  44  69
ATOM     69  C   UNL A   1      44.879  29.076  36.143  1.00  0.00     0.058 A 
ATOM     70  C   UNL A   1      44.761  27.971  37.001  1.00  0.00     0.135 A 
ATOM     71  C   UNL A   1      46.109  29.752  36.127  1.00  0.00     0.135 A 
ATOM     72  F   UNL A   1      43.601  27.301  37.075  1.00  0.00    -0.206 F 
ATOM     73  C   UNL A   1      45.805  27.574  37.834  1.00  0.00     0.059 A 
ATOM     74  C   UNL A   1      47.178  29.355  36.928  1.00  0.00     0.059 A 
ATOM     75  F   UNL A   1      46.282  30.818  35.329  1.00  0.00    -0.206 F 
ATOM     76  C   UNL A   1      47.010  28.275  37.792  1.00  0.00     0.060 A 
BRANCH  76  77
ATOM     77  S   UNL A   1      48.360  27.749  38.871  1.00  0.00     0.124 S 
ATOM     78  O   UNL A   1      47.733  26.668  39.624  1.00  0.00    -0.237 OA
ATOM     79  O   UNL A   1      49.383  27.347  37.910  1.00  0.00    -0.237 OA
ATOM     80  O   UNL A   1      48.669  28.954  39.636  1.00  0.00    -0.744 OA
ENDBRANCH  76  77
ENDBRANCH  44  69
BRANCH  56  81
ATOM     81  C   UNL A   1      39.699  33.527  37.595  1.00  0.00     0.058 A 
ATOM     82  C   UNL A   1      38.776  33.047  38.538  1.00  0.00     0.135 A 
ATOM     83  C   UNL A   1      40.342  34.746  37.874  1.00  0.00     0.135 A 
ATOM     84  F   UNL A   1      38.130  31.891  38.324  1.00  0.00    -0.206 F 
ATOM     85  C   UNL A   1      38.492  33.755  39.704  1.00  0.00     0.059 A 
ATOM     86  C   UNL A   1      40.095  35.455  39.046  1.00  0.00     0.059 A 
ATOM     87  F   UNL A   1      41.242  35.247  37.015  1.00  0.00    -0.206 F 
ATOM     88  C   UNL A   1      39.160  34.956  39.952  1.00  0.00     0.060 A 
BRANCH  88  89
ATOM     89  S   UNL A   1      38.818  35.839  41.489  1.00  0.00     0.124 S 
ATOM     90  O   UNL A   1      37.497  35.325  41.838  1.00  0.00    -0.237 OA
ATOM     91  O   UNL A   1      39.914  35.405  42.351  1.00  0.00    -0.237 OA
ATOM     92  O   UNL A   1      38.859  37.243  41.093  1.00  0.00    -0.744 OA
ENDBRANCH  88  89
ENDBRANCH  56  81
ENDBRANCH  30  31
ENDBRANCH  23  25
ENDBRANCH  22  23
ENDBRANCH  21  22
ENDBRANCH   1  21
TORSDOF 18
ENDMDL
MODEL 3
REMARK VINA RESULT:     -10.0      6.748     11.617
REMARK SMILES Cc1nn(C)c(OCC(C)(C)[NH+](C)C)c1C(=O)OCCOC(=O)c1ccc(-c2c3nc(c(-c4c(F)cc(S(=O)(=O)[O-])cc4F)c4ccc([nH]4)c(-c4c(F)cc(S(=O)(=O)[O-])cc4F)c4nc(c(-c5c(F)cc(S(=O)(=O)[O-])cc5F)c5ccc2[nH]5)C=C4)C=C3)cc1
REMARK SMILES IDX 19 1 18 2 16 3 17 4 15 5 1 6 2 7 3 8 4 9 6 10 5 11 7 12 8 13
REMARK SMILES IDX 9 14 10 15 11 16 12 17 13 18 14 19 20 21 21 22 22 23 23 24
REMARK SMILES IDX 24 25 25 26 89 27 26 28 88 29 27 30 28 31 29 32 82 33 30 34
REMARK SMILES IDX 87 35 81 36 83 37 31 38 86 39 80 40 79 41 32 43 66 44 45 45
REMARK SMILES IDX 65 46 46 47 49 48 64 49 84 50 47 51 48 52 63 54 85 55 50 56
REMARK SMILES IDX 33 57 34 58 43 59 35 60 36 61 42 62 44 63 37 64 38 65 39 66
REMARK SMILES IDX 40 67 41 68 67 69 68 70 77 71 69 72 70 73 76 74 78 75 71 76
REMARK SMILES IDX 72 77 73 78 74 79 75 80 51 81 52 82 61 83 53 84 54 85 60 86
REMARK SMILES IDX 62 87 55 88 56 89 57 90 58 91 59 92
REMARK H PARENT 12 20 83 42 49 53
REMARK Flexibility Score: inf
ROOT
ATOM      1  C   UNL A   1      37.557  23.329  26.195  1.00  0.00     0.275 C 
ENDROOT
BRANCH   1   2
ATOM      2  O   UNL A   1      36.594  22.507  25.496  1.00  0.00    -0.458 OA
BRANCH   2   3
ATOM      3  C   UNL A   1      35.307  22.836  25.824  1.00  0.00     0.345 C 
ATOM      4  O   UNL A   1      34.940  22.791  26.984  1.00  0.00    -0.246 OA
BRANCH   3   5
ATOM      5  C   UNL A   1      34.445  23.261  24.734  1.00  0.00     0.144 A 
ATOM      6  C   UNL A   1      33.199  21.056  23.962  1.00  0.00     0.070 C 
ATOM      7  C   UNL A   1      33.605  22.482  23.878  1.00  0.00     0.078 A 
ATOM      8  N   UNL A   1      33.080  23.212  22.887  1.00  0.00    -0.174 NA
ATOM      9  N   UNL A   1      33.538  24.448  23.131  1.00  0.00    -0.236 N 
ATOM     10  C   UNL A   1      34.173  24.577  24.344  1.00  0.00     0.227 A 
ATOM     11  C   UNL A   1      33.316  25.491  22.154  1.00  0.00     0.178 C 
BRANCH  10  12
ATOM     12  O   UNL A   1      34.353  25.825  24.791  1.00  0.00    -0.471 OA
BRANCH  12  13
ATOM     13  C   UNL A   1      33.463  26.468  25.695  1.00  0.00     0.299 C 
BRANCH  13  14
ATOM     14  C   UNL A   1      32.907  27.898  25.318  1.00  0.00     0.126 C 
ATOM     15  C   UNL A   1      33.671  28.601  24.170  1.00  0.00     0.082 C 
ATOM     16  C   UNL A   1      31.445  27.645  24.845  1.00  0.00     0.082 C 
BRANCH  14  17
ATOM     17  N   UNL A   1      32.852  28.771  26.536  1.00  0.00    -0.333 N 
ATOM     18  C   UNL A   1      31.894  28.309  27.545  1.00  0.00     0.333 C 
ATOM     19  C   UNL A   1      34.142  29.039  27.175  1.00  0.00     0.333 C 
ATOM     20  H   UNL A   1      32.526  29.656  26.149  1.00  0.00     0.348 HD
ENDBRANCH  14  17
ENDBRANCH  13  14
ENDBRANCH  12  13
ENDBRANCH  10  12
ENDBRANCH   3   5
ENDBRANCH   2   3
ENDBRANCH   1   2
BRANCH   1  21
ATOM     21  C   UNL A   1      39.030  22.945  25.938  1.00  0.00     0.275 C 
BRANCH  21  22
ATOM     22  O   UNL A   1      39.892  23.064  27.093  1.00  0.00    -0.458 OA
BRANCH  22  23
ATOM     23  C   UNL A   1      40.872  24.004  27.006  1.00  0.00     0.338 C 
ATOM     24  O   UNL A   1      41.766  24.011  26.171  1.00  0.00    -0.246 OA
BRANCH  23  25
ATOM     25  C   UNL A   1      40.628  25.147  27.931  1.00  0.00     0.060 A 
ATOM     26  C   UNL A   1      41.693  26.033  28.160  1.00  0.00     0.016 A 
ATOM     27  C   UNL A   1      39.397  25.391  28.549  1.00  0.00     0.016 A 
ATOM     28  C   UNL A   1      41.521  27.167  28.966  1.00  0.00     0.010 A 
ATOM     29  C   UNL A   1      39.239  26.507  29.394  1.00  0.00     0.010 A 
ATOM     30  C   UNL A   1      40.299  27.406  29.611  1.00  0.00    -0.014 A 
BRANCH  30  31
ATOM     31  C   UNL A   1      40.203  28.487  30.638  1.00  0.00     0.031 A 
ATOM     32  C   UNL A   1      41.125  28.419  31.831  1.00  0.00     0.074 A 
ATOM     33  C   UNL A   1      39.341  29.520  30.534  1.00  0.00     0.049 A 
ATOM     34  N   UNL A   1      41.241  29.243  32.839  1.00  0.00    -0.248 NA
ATOM     35  C   UNL A   1      42.037  27.265  31.887  1.00  0.00     0.031 C 
ATOM     36  C   UNL A   1      38.413  29.744  29.430  1.00  0.00     0.029 A 
ATOM     37  N   UNL A   1      39.107  30.582  31.382  1.00  0.00    -0.354 N 
ATOM     38  C   UNL A   1      42.248  28.718  33.641  1.00  0.00     0.074 A 
ATOM     39  C   UNL A   1      42.701  27.499  33.007  1.00  0.00     0.031 C 
ATOM     40  C   UNL A   1      37.715  30.872  29.661  1.00  0.00     0.029 A 
ATOM     41  C   UNL A   1      38.109  31.431  30.953  1.00  0.00     0.049 A 
ATOM     42  H   UNL A   1      39.609  30.723  32.216  1.00  0.00     0.167 HD
ATOM     43  C   UNL A   1      42.747  29.195  34.806  1.00  0.00     0.037 A 
ATOM     44  C   UNL A   1      37.558  32.514  31.545  1.00  0.00     0.037 A 
ATOM     45  C   UNL A   1      42.263  30.368  35.482  1.00  0.00     0.049 A 
ATOM     46  C   UNL A   1      38.060  32.962  32.901  1.00  0.00     0.074 A 
ATOM     47  C   UNL A   1      42.698  30.908  36.680  1.00  0.00     0.029 A 
ATOM     48  N   UNL A   1      41.218  31.166  35.040  1.00  0.00    -0.354 N 
ATOM     49  N   UNL A   1      39.044  32.480  33.621  1.00  0.00    -0.248 NA
ATOM     50  C   UNL A   1      37.368  34.101  33.529  1.00  0.00     0.031 C 
ATOM     51  C   UNL A   1      41.878  31.996  36.993  1.00  0.00     0.029 A 
ATOM     52  C   UNL A   1      40.975  32.174  35.959  1.00  0.00     0.049 A 
ATOM     53  H   UNL A   1      40.723  31.035  34.199  1.00  0.00     0.167 HD
ATOM     54  C   UNL A   1      39.111  33.276  34.763  1.00  0.00     0.074 A 
ATOM     55  C   UNL A   1      38.075  34.277  34.637  1.00  0.00     0.031 C 
ATOM     56  C   UNL A   1      39.957  33.186  35.819  1.00  0.00     0.037 A 
BRANCH  43  57
ATOM     57  C   UNL A   1      43.851  28.410  35.452  1.00  0.00     0.058 A 
ATOM     58  C   UNL A   1      45.199  28.654  35.152  1.00  0.00     0.135 A 
ATOM     59  C   UNL A   1      43.557  27.419  36.401  1.00  0.00     0.135 A 
ATOM     60  F   UNL A   1      45.533  29.575  34.233  1.00  0.00    -0.206 F 
ATOM     61  C   UNL A   1      46.219  27.931  35.760  1.00  0.00     0.059 A 
ATOM     62  C   UNL A   1      44.560  26.700  37.041  1.00  0.00     0.059 A 
ATOM     63  F   UNL A   1      42.281  27.141  36.716  1.00  0.00    -0.206 F 
ATOM     64  C   UNL A   1      45.890  26.957  36.705  1.00  0.00     0.060 A 
BRANCH  64  65
ATOM     65  S   UNL A   1      47.226  26.035  37.494  1.00  0.00     0.124 S 
ATOM     66  O   UNL A   1      47.641  25.146  36.414  1.00  0.00    -0.237 OA
ATOM     67  O   UNL A   1      48.169  27.093  37.843  1.00  0.00    -0.237 OA
ATOM     68  O   UNL A   1      46.570  25.385  38.624  1.00  0.00    -0.744 OA
ENDBRANCH  64  65
ENDBRANCH  43  57
BRANCH  44  69
ATOM     69  C   UNL A   1      36.432  33.252  30.897  1.00  0.00     0.058 A 
ATOM     70  C   UNL A   1      36.651  34.104  29.804  1.00  0.00     0.135 A 
ATOM     71  C   UNL A   1      35.127  33.181  31.409  1.00  0.00     0.135 A 
ATOM     72  F   UNL A   1      37.884  34.231  29.288  1.00  0.00    -0.206 F 
ATOM     73  C   UNL A   1      35.629  34.881  29.261  1.00  0.00     0.059 A 
ATOM     74  C   UNL A   1      34.081  33.923  30.864  1.00  0.00     0.059 A 
ATOM     75  F   UNL A   1      34.855  32.386  32.456  1.00  0.00    -0.206 F 
ATOM     76  C   UNL A   1      34.346  34.784  29.801  1.00  0.00     0.060 A 
BRANCH  76  77
ATOM     77  S   UNL A   1      33.024  35.789  29.088  1.00  0.00     0.124 S 
ATOM     78  O   UNL A   1      32.366  34.829  28.209  1.00  0.00    -0.237 OA
ATOM     79  O   UNL A   1      32.270  36.191  30.271  1.00  0.00    -0.237 OA
ATOM     80  O   UNL A   1      33.745  36.867  28.417  1.00  0.00    -0.744 OA
ENDBRANCH  76  77
ENDBRANCH  44  69
BRANCH  56  81
ATOM     81  C   UNL A   1      39.851  34.222  36.908  1.00  0.00     0.058 A 
ATOM     82  C   UNL A   1      40.362  35.520  36.755  1.00  0.00     0.135 A 
ATOM     83  C   UNL A   1      39.156  33.930  38.095  1.00  0.00     0.135 A 
ATOM     84  F   UNL A   1      41.037  35.855  35.645  1.00  0.00    -0.206 F 
ATOM     85  C   UNL A   1      40.203  36.486  37.746  1.00  0.00     0.059 A 
ATOM     86  C   UNL A   1      38.960  34.888  39.085  1.00  0.00     0.059 A 
ATOM     87  F   UNL A   1      38.635  32.709  38.290  1.00  0.00    -0.206 F 
ATOM     88  C   UNL A   1      39.496  36.162  38.907  1.00  0.00     0.060 A 
BRANCH  88  89
ATOM     89  S   UNL A   1      39.254  37.438  40.161  1.00  0.00     0.124 S 
ATOM     90  O   UNL A   1      38.469  38.427  39.430  1.00  0.00    -0.237 OA
ATOM     91  O   UNL A   1      38.544  36.715  41.212  1.00  0.00    -0.237 OA
ATOM     92  O   UNL A   1      40.615  37.844  40.500  1.00  0.00    -0.744 OA
ENDBRANCH  88  89
ENDBRANCH  56  81
ENDBRANCH  30  31
ENDBRANCH  23  25
ENDBRANCH  22  23
ENDBRANCH  21  22
ENDBRANCH   1  21
TORSDOF 18
ENDMDL
