MODEL 1
REMARK VINA RESULT:     -10.9      0.000      0.000
REMARK SMILES COc1cc(Nc2cn[nH]c(=O)n2)c(C(=O)OCCOC(=O)c2ccc(-c3c4nc(c(-c5c(F)cc(S(=O)(=O)[O-])cc5F)c5ccc([nH]5)c(-c5c(F)cc(S(=O)(=O)[O-])cc5F)c5nc(c(-c6c(F)cc(S(=O)(=O)[O-])cc6F)c6ccc3[nH]6)C=C5)C=C4)cc2)cc1OC
REMARK SMILES IDX 19 1 18 2 17 3 15 4 16 5 14 6 3 7 4 8 90 9 5 10 89 11 2 12
REMARK SMILES IDX 1 13 91 14 92 15 6 16 7 18 8 19 13 20 9 21 11 22 10 23 12 24
REMARK SMILES IDX 20 26 21 27 22 28 23 29 24 30 88 31 25 32 87 33 26 34 27 35
REMARK SMILES IDX 28 36 81 37 29 38 86 39 80 40 82 41 30 42 85 43 79 44 78 45
REMARK SMILES IDX 31 47 65 48 44 49 64 50 45 51 48 52 63 53 83 54 46 55 47 56
REMARK SMILES IDX 62 58 84 59 49 60 32 61 33 62 42 63 34 64 35 65 41 66 43 67
REMARK SMILES IDX 36 68 37 69 38 70 39 71 40 72 66 73 67 74 76 75 68 76 69 77
REMARK SMILES IDX 75 78 77 79 70 80 71 81 72 82 73 83 74 84 50 85 51 86 60 87
REMARK SMILES IDX 52 88 53 89 59 90 61 91 54 92 55 93 56 94 57 95 58 96
REMARK H PARENT 6 17 10 25 82 46 48 57
REMARK Flexibility Score: inf
ROOT
ATOM      1  C   UNL A   1      39.125  23.274  26.074  1.00  0.00     0.275 C 
ENDROOT
BRANCH   1   2
ATOM      2  C   UNL A   1      40.115  22.534  26.974  1.00  0.00     0.275 C 
BRANCH   2   3
ATOM      3  O   UNL A   1      41.375  22.294  26.310  1.00  0.00    -0.458 OA
BRANCH   3   4
ATOM      4  C   UNL A   1      42.483  22.636  27.014  1.00  0.00     0.340 C 
ATOM      5  O   UNL A   1      42.692  22.382  28.187  1.00  0.00    -0.246 OA
BRANCH   4   6
ATOM      6  C   UNL A   1      43.418  23.431  26.187  1.00  0.00     0.087 A 
ATOM      7  C   UNL A   1      45.523  24.878  25.060  1.00  0.00     0.162 A 
ATOM      8  C   UNL A   1      45.270  23.562  24.656  1.00  0.00     0.077 A 
ATOM      9  C   UNL A   1      44.663  25.513  25.964  1.00  0.00     0.161 A 
ATOM     10  C   UNL A   1      44.182  22.839  25.162  1.00  0.00     0.058 A 
ATOM     11  C   UNL A   1      43.641  24.765  26.556  1.00  0.00     0.068 A 
BRANCH   7  12
ATOM     12  O   UNL A   1      46.581  25.542  24.499  1.00  0.00    -0.493 OA
ATOM     13  C   UNL A   1      47.770  25.396  25.279  1.00  0.00     0.278 C 
ENDBRANCH   7  12
BRANCH   9  14
ATOM     14  O   UNL A   1      44.706  26.808  26.405  1.00  0.00    -0.493 OA
ATOM     15  C   UNL A   1      45.164  27.039  27.730  1.00  0.00     0.278 C 
ENDBRANCH   9  14
BRANCH  10  16
ATOM     16  N   UNL A   1      43.847  21.588  24.609  1.00  0.00    -0.338 N 
ATOM     17  H   UNL A   1      43.171  21.582  23.894  1.00  0.00     0.168 HD
BRANCH  16  18
ATOM     18  C   UNL A   1      44.380  20.369  24.979  1.00  0.00     0.156 A 
ATOM     19  C   UNL A   1      43.398  19.327  25.456  1.00  0.00     0.180 A 
ATOM     20  N   UNL A   1      45.646  20.096  24.955  1.00  0.00    -0.173 NA
ATOM     21  N   UNL A   1      43.780  18.192  25.926  1.00  0.00    -0.176 NA
ATOM     22  C   UNL A   1      46.072  18.894  25.465  1.00  0.00     0.363 A 
ATOM     23  N   UNL A   1      45.129  18.012  25.954  1.00  0.00    -0.227 N 
ATOM     24  O   UNL A   1      47.262  18.591  25.498  1.00  0.00    -0.244 OA
ATOM     25  H   UNL A   1      45.462  17.179  26.359  1.00  0.00     0.195 HD
ENDBRANCH  16  18
ENDBRANCH  10  16
ENDBRANCH   4   6
ENDBRANCH   3   4
ENDBRANCH   2   3
ENDBRANCH   1   2
BRANCH   1  26
ATOM     26  O   UNL A   1      38.959  24.641  26.495  1.00  0.00    -0.458 OA
BRANCH  26  27
ATOM     27  C   UNL A   1      40.050  25.421  26.356  1.00  0.00     0.338 C 
ATOM     28  O   UNL A   1      40.623  25.727  25.322  1.00  0.00    -0.246 OA
BRANCH  27  29
ATOM     29  C   UNL A   1      40.431  26.023  27.641  1.00  0.00     0.060 A 
ATOM     30  C   UNL A   1      39.624  25.751  28.736  1.00  0.00     0.016 A 
ATOM     31  C   UNL A   1      41.364  27.057  27.702  1.00  0.00     0.016 A 
ATOM     32  C   UNL A   1      39.631  26.616  29.823  1.00  0.00     0.010 A 
ATOM     33  C   UNL A   1      41.456  27.843  28.863  1.00  0.00     0.010 A 
ATOM     34  C   UNL A   1      40.539  27.684  29.918  1.00  0.00    -0.014 A 
BRANCH  34  35
ATOM     35  C   UNL A   1      40.447  28.656  31.060  1.00  0.00     0.031 A 
ATOM     36  C   UNL A   1      39.387  29.744  31.079  1.00  0.00     0.074 A 
ATOM     37  C   UNL A   1      41.242  28.522  32.148  1.00  0.00     0.049 A 
ATOM     38  N   UNL A   1      39.273  30.773  31.884  1.00  0.00    -0.248 NA
ATOM     39  C   UNL A   1      38.325  29.677  30.061  1.00  0.00     0.031 C 
ATOM     40  C   UNL A   1      42.271  27.495  32.330  1.00  0.00     0.029 A 
ATOM     41  N   UNL A   1      41.288  29.232  33.325  1.00  0.00    -0.354 N 
ATOM     42  C   UNL A   1      38.168  31.493  31.440  1.00  0.00     0.074 A 
ATOM     43  C   UNL A   1      37.638  30.786  30.295  1.00  0.00     0.031 C 
ATOM     44  C   UNL A   1      42.772  27.579  33.568  1.00  0.00     0.029 A 
ATOM     45  C   UNL A   1      42.225  28.761  34.218  1.00  0.00     0.049 A 
ATOM     46  H   UNL A   1      40.708  30.005  33.511  1.00  0.00     0.167 HD
ATOM     47  C   UNL A   1      37.641  32.639  31.936  1.00  0.00     0.037 A 
ATOM     48  C   UNL A   1      42.664  29.252  35.393  1.00  0.00     0.037 A 
ATOM     49  C   UNL A   1      38.126  33.312  33.115  1.00  0.00     0.049 A 
ATOM     50  C   UNL A   1      42.110  30.556  35.892  1.00  0.00     0.074 A 
ATOM     51  C   UNL A   1      37.695  34.507  33.666  1.00  0.00     0.029 A 
ATOM     52  N   UNL A   1      39.127  32.831  33.945  1.00  0.00    -0.354 N 
ATOM     53  N   UNL A   1      41.168  31.302  35.370  1.00  0.00    -0.248 NA
ATOM     54  C   UNL A   1      42.710  31.106  37.114  1.00  0.00     0.031 C 
ATOM     55  C   UNL A   1      38.449  34.760  34.816  1.00  0.00     0.029 A 
ATOM     56  C   UNL A   1      39.324  33.702  35.002  1.00  0.00     0.049 A 
ATOM     57  H   UNL A   1      39.623  31.992  33.803  1.00  0.00     0.167 HD
ATOM     58  C   UNL A   1      41.069  32.415  36.196  1.00  0.00     0.074 A 
ATOM     59  C   UNL A   1      42.020  32.227  37.271  1.00  0.00     0.031 C 
ATOM     60  C   UNL A   1      40.272  33.503  36.066  1.00  0.00     0.037 A 
BRANCH  47  61
ATOM     61  C   UNL A   1      36.495  33.277  31.197  1.00  0.00     0.058 A 
ATOM     62  C   UNL A   1      35.202  33.337  31.735  1.00  0.00     0.135 A 
ATOM     63  C   UNL A   1      36.722  33.914  29.965  1.00  0.00     0.135 A 
ATOM     64  F   UNL A   1      34.926  32.729  32.900  1.00  0.00    -0.206 F 
ATOM     65  C   UNL A   1      34.172  34.005  31.079  1.00  0.00     0.059 A 
ATOM     66  C   UNL A   1      35.713  34.605  29.301  1.00  0.00     0.059 A 
ATOM     67  F   UNL A   1      37.941  33.885  29.404  1.00  0.00    -0.206 F 
ATOM     68  C   UNL A   1      34.438  34.641  29.864  1.00  0.00     0.060 A 
BRANCH  68  69
ATOM     69  S   UNL A   1      33.101  35.535  29.040  1.00  0.00     0.124 S 
ATOM     70  O   UNL A   1      32.260  35.908  30.173  1.00  0.00    -0.237 OA
ATOM     71  O   UNL A   1      33.812  36.631  28.390  1.00  0.00    -0.237 OA
ATOM     72  O   UNL A   1      32.531  34.540  28.138  1.00  0.00    -0.744 OA
ENDBRANCH  68  69
ENDBRANCH  47  61
BRANCH  48  73
ATOM     73  C   UNL A   1      43.775  28.572  36.117  1.00  0.00     0.058 A 
ATOM     74  C   UNL A   1      43.534  27.507  36.998  1.00  0.00     0.135 A 
ATOM     75  C   UNL A   1      45.107  28.984  35.942  1.00  0.00     0.135 A 
ATOM     76  F   UNL A   1      42.278  27.090  37.219  1.00  0.00    -0.206 F 
ATOM     77  C   UNL A   1      44.571  26.884  37.688  1.00  0.00     0.059 A 
ATOM     78  C   UNL A   1      46.161  28.354  36.590  1.00  0.00     0.059 A 
ATOM     79  F   UNL A   1      45.395  29.995  35.106  1.00  0.00    -0.206 F 
ATOM     80  C   UNL A   1      45.882  27.315  37.476  1.00  0.00     0.060 A 
BRANCH  80  81
ATOM     81  S   UNL A   1      47.235  26.493  38.343  1.00  0.00     0.124 S 
ATOM     82  O   UNL A   1      47.950  27.630  38.910  1.00  0.00    -0.237 OA
ATOM     83  O   UNL A   1      46.530  25.642  39.296  1.00  0.00    -0.237 OA
ATOM     84  O   UNL A   1      47.929  25.780  37.273  1.00  0.00    -0.744 OA
ENDBRANCH  80  81
ENDBRANCH  48  73
BRANCH  60  85
ATOM     85  C   UNL A   1      40.382  34.560  37.125  1.00  0.00     0.058 A 
ATOM     86  C   UNL A   1      39.515  34.582  38.229  1.00  0.00     0.135 A 
ATOM     87  C   UNL A   1      41.379  35.544  37.048  1.00  0.00     0.135 A 
ATOM     88  F   UNL A   1      38.541  33.666  38.341  1.00  0.00    -0.206 F 
ATOM     89  C   UNL A   1      39.618  35.563  39.209  1.00  0.00     0.059 A 
ATOM     90  C   UNL A   1      41.513  36.521  38.029  1.00  0.00     0.059 A 
ATOM     91  F   UNL A   1      42.237  35.559  36.015  1.00  0.00    -0.206 F 
ATOM     92  C   UNL A   1      40.619  36.530  39.099  1.00  0.00     0.060 A 
BRANCH  92  93
ATOM     93  S   UNL A   1      40.754  37.787  40.387  1.00  0.00     0.124 S 
ATOM     94  O   UNL A   1      39.857  38.822  39.884  1.00  0.00    -0.237 OA
ATOM     95  O   UNL A   1      40.295  37.072  41.574  1.00  0.00    -0.237 OA
ATOM     96  O   UNL A   1      42.174  38.128  40.381  1.00  0.00    -0.744 OA
ENDBRANCH  92  93
ENDBRANCH  60  85
ENDBRANCH  34  35
ENDBRANCH  27  29
ENDBRANCH  26  27
ENDBRANCH   1  26
TORSDOF 18
ENDMDL
MODEL 2
REMARK VINA RESULT:     -10.8      6.375     10.567
REMARK SMILES COc1cc(Nc2cn[nH]c(=O)n2)c(C(=O)OCCOC(=O)c2ccc(-c3c4nc(c(-c5c(F)cc(S(=O)(=O)[O-])cc5F)c5ccc([nH]5)c(-c5c(F)cc(S(=O)(=O)[O-])cc5F)c5nc(c(-c6c(F)cc(S(=O)(=O)[O-])cc6F)c6ccc3[nH]6)C=C5)C=C4)cc2)cc1OC
REMARK SMILES IDX 19 1 18 2 17 3 15 4 16 5 14 6 3 7 4 8 90 9 5 10 89 11 2 12
REMARK SMILES IDX 1 13 91 14 92 15 6 16 7 18 8 19 13 20 9 21 11 22 10 23 12 24
REMARK SMILES IDX 20 26 21 27 22 28 23 29 24 30 88 31 25 32 87 33 26 34 27 35
REMARK SMILES IDX 28 36 81 37 29 38 86 39 80 40 82 41 30 42 85 43 79 44 78 45
REMARK SMILES IDX 31 47 65 48 44 49 64 50 45 51 48 52 63 53 83 54 46 55 47 56
REMARK SMILES IDX 62 58 84 59 49 60 32 61 33 62 42 63 34 64 35 65 41 66 43 67
REMARK SMILES IDX 36 68 37 69 38 70 39 71 40 72 66 73 67 74 76 75 68 76 69 77
REMARK SMILES IDX 75 78 77 79 70 80 71 81 72 82 73 83 74 84 50 85 51 86 60 87
REMARK SMILES IDX 52 88 53 89 59 90 61 91 54 92 55 93 56 94 57 95 58 96
REMARK H PARENT 6 17 10 25 82 46 48 57
REMARK Flexibility Score: inf
ROOT
ATOM      1  C   UNL A   1      39.057  21.723  26.057  1.00  0.00     0.275 C 
ENDROOT
BRANCH   1   2
ATOM      2  C   UNL A   1      37.804  21.194  25.359  1.00  0.00     0.275 C 
BRANCH   2   3
ATOM      3  O   UNL A   1      36.710  22.135  25.424  1.00  0.00    -0.458 OA
BRANCH   3   4
ATOM      4  C   UNL A   1      36.015  22.308  24.273  1.00  0.00     0.340 C 
ATOM      5  O   UNL A   1      36.492  22.570  23.182  1.00  0.00    -0.246 OA
BRANCH   4   6
ATOM      6  C   UNL A   1      34.558  22.198  24.504  1.00  0.00     0.087 A 
ATOM      7  C   UNL A   1      31.956  21.870  25.461  1.00  0.00     0.162 A 
ATOM      8  C   UNL A   1      32.473  23.152  25.237  1.00  0.00     0.077 A 
ATOM      9  C   UNL A   1      32.705  20.740  25.116  1.00  0.00     0.161 A 
ATOM     10  C   UNL A   1      33.754  23.337  24.698  1.00  0.00     0.058 A 
ATOM     11  C   UNL A   1      34.023  20.914  24.683  1.00  0.00     0.068 A 
BRANCH   7  12
ATOM     12  O   UNL A   1      30.683  21.758  25.954  1.00  0.00    -0.493 OA
ATOM     13  C   UNL A   1      30.292  22.928  26.678  1.00  0.00     0.278 C 
ENDBRANCH   7  12
BRANCH   9  14
ATOM     14  O   UNL A   1      32.332  19.425  25.187  1.00  0.00    -0.493 OA
ATOM     15  C   UNL A   1      33.233  18.455  24.672  1.00  0.00     0.278 C 
ENDBRANCH   9  14
BRANCH  10  16
ATOM     16  N   UNL A   1      34.179  24.625  24.318  1.00  0.00    -0.338 N 
ATOM     17  H   UNL A   1      34.923  25.019  24.829  1.00  0.00     0.168 HD
BRANCH  16  18
ATOM     18  C   UNL A   1      33.649  25.385  23.295  1.00  0.00     0.156 A 
ATOM     19  C   UNL A   1      33.015  26.695  23.694  1.00  0.00     0.180 A 
ATOM     20  N   UNL A   1      33.652  25.025  22.050  1.00  0.00    -0.173 NA
ATOM     21  N   UNL A   1      32.395  27.441  22.849  1.00  0.00    -0.176 NA
ATOM     22  C   UNL A   1      32.984  25.804  21.136  1.00  0.00     0.363 A 
ATOM     23  N   UNL A   1      32.361  26.954  21.577  1.00  0.00    -0.227 N 
ATOM     24  O   UNL A   1      32.927  25.499  19.948  1.00  0.00    -0.244 OA
ATOM     25  H   UNL A   1      31.847  27.468  20.914  1.00  0.00     0.195 HD
ENDBRANCH  16  18
ENDBRANCH  10  16
ENDBRANCH   4   6
ENDBRANCH   3   4
ENDBRANCH   2   3
ENDBRANCH   1   2
BRANCH   1  26
ATOM     26  O   UNL A   1      39.693  20.695  26.838  1.00  0.00    -0.458 OA
BRANCH  26  27
ATOM     27  C   UNL A   1      40.852  20.225  26.332  1.00  0.00     0.338 C 
ATOM     28  O   UNL A   1      41.033  19.182  25.723  1.00  0.00    -0.246 OA
BRANCH  27  29
ATOM     29  C   UNL A   1      41.926  21.217  26.473  1.00  0.00     0.060 A 
ATOM     30  C   UNL A   1      42.349  21.520  27.759  1.00  0.00     0.016 A 
ATOM     31  C   UNL A   1      42.290  22.039  25.407  1.00  0.00     0.016 A 
ATOM     32  C   UNL A   1      42.987  22.730  28.002  1.00  0.00     0.010 A 
ATOM     33  C   UNL A   1      43.054  23.193  25.648  1.00  0.00     0.010 A 
ATOM     34  C   UNL A   1      43.354  23.600  26.961  1.00  0.00    -0.014 A 
BRANCH  34  35
ATOM     35  C   UNL A   1      43.951  24.943  27.273  1.00  0.00     0.031 A 
ATOM     36  C   UNL A   1      43.124  26.033  27.932  1.00  0.00     0.074 A 
ATOM     37  C   UNL A   1      45.267  25.179  27.066  1.00  0.00     0.049 A 
ATOM     38  N   UNL A   1      43.415  27.300  28.108  1.00  0.00    -0.248 NA
ATOM     39  C   UNL A   1      41.797  25.661  28.451  1.00  0.00     0.031 C 
ATOM     40  C   UNL A   1      46.226  24.225  26.503  1.00  0.00     0.029 A 
ATOM     41  N   UNL A   1      46.040  26.285  27.338  1.00  0.00    -0.354 N 
ATOM     42  C   UNL A   1      42.299  27.877  28.706  1.00  0.00     0.074 A 
ATOM     43  C   UNL A   1      41.320  26.825  28.869  1.00  0.00     0.031 C 
ATOM     44  C   UNL A   1      47.460  24.744  26.560  1.00  0.00     0.029 A 
ATOM     45  C   UNL A   1      47.368  26.125  27.011  1.00  0.00     0.049 A 
ATOM     46  H   UNL A   1      45.677  27.113  27.727  1.00  0.00     0.167 HD
ATOM     47  C   UNL A   1      42.102  29.163  29.084  1.00  0.00     0.037 A 
ATOM     48  C   UNL A   1      48.395  26.998  26.994  1.00  0.00     0.037 A 
ATOM     49  C   UNL A   1      43.099  30.200  28.983  1.00  0.00     0.049 A 
ATOM     50  C   UNL A   1      48.139  28.432  27.357  1.00  0.00     0.074 A 
ATOM     51  C   UNL A   1      42.977  31.545  29.288  1.00  0.00     0.029 A 
ATOM     52  N   UNL A   1      44.409  30.001  28.576  1.00  0.00    -0.354 N 
ATOM     53  N   UNL A   1      47.029  28.989  27.774  1.00  0.00    -0.248 NA
ATOM     54  C   UNL A   1      49.264  29.364  27.205  1.00  0.00     0.031 C 
ATOM     55  C   UNL A   1      44.208  32.164  29.045  1.00  0.00     0.029 A 
ATOM     56  C   UNL A   1      45.106  31.197  28.625  1.00  0.00     0.049 A 
ATOM     57  H   UNL A   1      44.788  29.137  28.296  1.00  0.00     0.167 HD
ATOM     58  C   UNL A   1      47.319  30.339  27.925  1.00  0.00     0.074 A 
ATOM     59  C   UNL A   1      48.718  30.509  27.590  1.00  0.00     0.031 C 
ATOM     60  C   UNL A   1      46.496  31.351  28.292  1.00  0.00     0.037 A 
BRANCH  47  61
ATOM     61  C   UNL A   1      40.749  29.552  29.615  1.00  0.00     0.058 A 
ATOM     62  C   UNL A   1      40.528  29.811  30.976  1.00  0.00     0.135 A 
ATOM     63  C   UNL A   1      39.677  29.753  28.729  1.00  0.00     0.135 A 
ATOM     64  F   UNL A   1      41.512  29.617  31.869  1.00  0.00    -0.206 F 
ATOM     65  C   UNL A   1      39.292  30.253  31.440  1.00  0.00     0.059 A 
ATOM     66  C   UNL A   1      38.440  30.215  29.167  1.00  0.00     0.059 A 
ATOM     67  F   UNL A   1      39.834  29.518  27.416  1.00  0.00    -0.206 F 
ATOM     68  C   UNL A   1      38.255  30.457  30.527  1.00  0.00     0.060 A 
BRANCH  68  69
ATOM     69  S   UNL A   1      36.667  31.066  31.138  1.00  0.00     0.124 S 
ATOM     70  O   UNL A   1      37.066  32.304  31.800  1.00  0.00    -0.237 OA
ATOM     71  O   UNL A   1      35.898  31.223  29.909  1.00  0.00    -0.237 OA
ATOM     72  O   UNL A   1      36.213  30.001  32.026  1.00  0.00    -0.744 OA
ENDBRANCH  68  69
ENDBRANCH  47  61
BRANCH  48  73
ATOM     73  C   UNL A   1      49.732  26.566  26.498  1.00  0.00     0.058 A 
ATOM     74  C   UNL A   1      50.112  26.747  25.160  1.00  0.00     0.135 A 
ATOM     75  C   UNL A   1      50.657  25.953  27.361  1.00  0.00     0.135 A 
ATOM     76  F   UNL A   1      49.257  27.305  24.289  1.00  0.00    -0.206 F 
ATOM     77  C   UNL A   1      51.355  26.326  24.693  1.00  0.00     0.059 A 
ATOM     78  C   UNL A   1      51.915  25.559  26.927  1.00  0.00     0.059 A 
ATOM     79  F   UNL A   1      50.347  25.760  28.653  1.00  0.00    -0.206 F 
ATOM     80  C   UNL A   1      52.250  25.733  25.585  1.00  0.00     0.060 A 
BRANCH  80  81
ATOM     81  S   UNL A   1      53.875  25.213  24.995  1.00  0.00     0.124 S 
ATOM     82  O   UNL A   1      53.701  23.767  24.903  1.00  0.00    -0.237 OA
ATOM     83  O   UNL A   1      53.993  25.923  23.726  1.00  0.00    -0.237 OA
ATOM     84  O   UNL A   1      54.774  25.676  26.049  1.00  0.00    -0.744 OA
ENDBRANCH  80  81
ENDBRANCH  48  73
BRANCH  60  85
ATOM     85  C   UNL A   1      47.096  32.724  28.371  1.00  0.00     0.058 A 
ATOM     86  C   UNL A   1      47.723  33.182  29.540  1.00  0.00     0.135 A 
ATOM     87  C   UNL A   1      47.065  33.580  27.260  1.00  0.00     0.135 A 
ATOM     88  F   UNL A   1      47.771  32.402  30.631  1.00  0.00    -0.206 F 
ATOM     89  C   UNL A   1      48.278  34.455  29.613  1.00  0.00     0.059 A 
ATOM     90  C   UNL A   1      47.633  34.849  27.303  1.00  0.00     0.059 A 
ATOM     91  F   UNL A   1      46.483  33.183  26.117  1.00  0.00    -0.206 F 
ATOM     92  C   UNL A   1      48.225  35.282  28.490  1.00  0.00     0.060 A 
BRANCH  92  93
ATOM     93  S   UNL A   1      48.965  36.926  28.589  1.00  0.00     0.124 S 
ATOM     94  O   UNL A   1      47.979  37.735  27.880  1.00  0.00    -0.237 OA
ATOM     95  O   UNL A   1      49.049  37.146  30.029  1.00  0.00    -0.237 OA
ATOM     96  O   UNL A   1      50.249  36.762  27.912  1.00  0.00    -0.744 OA
ENDBRANCH  92  93
ENDBRANCH  60  85
ENDBRANCH  34  35
ENDBRANCH  27  29
ENDBRANCH  26  27
ENDBRANCH   1  26
TORSDOF 18
ENDMDL
MODEL 3
REMARK VINA RESULT:     -10.8      5.879     14.031
REMARK SMILES COc1cc(Nc2cn[nH]c(=O)n2)c(C(=O)OCCOC(=O)c2ccc(-c3c4nc(c(-c5c(F)cc(S(=O)(=O)[O-])cc5F)c5ccc([nH]5)c(-c5c(F)cc(S(=O)(=O)[O-])cc5F)c5nc(c(-c6c(F)cc(S(=O)(=O)[O-])cc6F)c6ccc3[nH]6)C=C5)C=C4)cc2)cc1OC
REMARK SMILES IDX 19 1 18 2 17 3 15 4 16 5 14 6 3 7 4 8 90 9 5 10 89 11 2 12
REMARK SMILES IDX 1 13 91 14 92 15 6 16 7 18 8 19 13 20 9 21 11 22 10 23 12 24
REMARK SMILES IDX 20 26 21 27 22 28 23 29 24 30 88 31 25 32 87 33 26 34 27 35
REMARK SMILES IDX 28 36 81 37 29 38 86 39 80 40 82 41 30 42 85 43 79 44 78 45
REMARK SMILES IDX 31 47 65 48 44 49 64 50 45 51 48 52 63 53 83 54 46 55 47 56
REMARK SMILES IDX 62 58 84 59 49 60 32 61 33 62 42 63 34 64 35 65 41 66 43 67
REMARK SMILES IDX 36 68 37 69 38 70 39 71 40 72 66 73 67 74 76 75 68 76 69 77
REMARK SMILES IDX 75 78 77 79 70 80 71 81 72 82 73 83 74 84 50 85 51 86 60 87
REMARK SMILES IDX 52 88 53 89 59 90 61 91 54 92 55 93 56 94 57 95 58 96
REMARK H PARENT 6 17 10 25 82 46 48 57
REMARK Flexibility Score: inf
ROOT
ATOM      1  C   UNL A   1      34.986  31.269  27.860  1.00  0.00     0.275 C 
ENDROOT
BRANCH   1   2
ATOM      2  C   UNL A   1      34.654  31.895  29.215  1.00  0.00     0.275 C 
BRANCH   2   3
ATOM      3  O   UNL A   1      34.987  33.301  29.257  1.00  0.00    -0.458 OA
BRANCH   3   4
ATOM      4  C   UNL A   1      36.167  33.607  29.851  1.00  0.00     0.340 C 
ATOM      5  O   UNL A   1      37.121  34.142  29.313  1.00  0.00    -0.246 OA
BRANCH   4   6
ATOM      6  C   UNL A   1      36.192  33.152  31.259  1.00  0.00     0.087 A 
ATOM      7  C   UNL A   1      36.627  32.683  33.976  1.00  0.00     0.162 A 
ATOM      8  C   UNL A   1      35.494  33.386  33.550  1.00  0.00     0.077 A 
ATOM      9  C   UNL A   1      37.503  32.125  33.037  1.00  0.00     0.161 A 
ATOM     10  C   UNL A   1      35.224  33.578  32.189  1.00  0.00     0.058 A 
ATOM     11  C   UNL A   1      37.301  32.406  31.683  1.00  0.00     0.068 A 
BRANCH   7  12
ATOM     12  O   UNL A   1      36.813  32.497  35.320  1.00  0.00    -0.493 OA
ATOM     13  C   UNL A   1      37.308  33.680  35.953  1.00  0.00     0.278 C 
ENDBRANCH   7  12
BRANCH   9  14
ATOM     14  O   UNL A   1      38.604  31.346  33.266  1.00  0.00    -0.493 OA
ATOM     15  C   UNL A   1      39.881  31.919  33.024  1.00  0.00     0.278 C 
ENDBRANCH   9  14
BRANCH  10  16
ATOM     16  N   UNL A   1      33.993  34.130  31.785  1.00  0.00    -0.338 N 
ATOM     17  H   UNL A   1      33.260  33.500  31.599  1.00  0.00     0.168 HD
BRANCH  16  18
ATOM     18  C   UNL A   1      33.719  35.474  31.626  1.00  0.00     0.156 A 
ATOM     19  C   UNL A   1      33.189  35.893  30.276  1.00  0.00     0.180 A 
ATOM     20  N   UNL A   1      33.912  36.366  32.546  1.00  0.00    -0.173 NA
ATOM     21  N   UNL A   1      32.997  37.128  29.970  1.00  0.00    -0.176 NA
ATOM     22  C   UNL A   1      33.723  37.690  32.232  1.00  0.00     0.363 A 
ATOM     23  N   UNL A   1      33.307  38.015  30.957  1.00  0.00    -0.227 N 
ATOM     24  O   UNL A   1      33.919  38.582  33.053  1.00  0.00    -0.244 OA
ATOM     25  H   UNL A   1      33.227  38.971  30.741  1.00  0.00     0.195 HD
ENDBRANCH  16  18
ENDBRANCH  10  16
ENDBRANCH   4   6
ENDBRANCH   3   4
ENDBRANCH   2   3
ENDBRANCH   1   2
BRANCH   1  26
ATOM     26  O   UNL A   1      35.539  29.950  28.016  1.00  0.00    -0.458 OA
BRANCH  26  27
ATOM     27  C   UNL A   1      36.220  29.745  29.162  1.00  0.00     0.338 C 
ATOM     28  O   UNL A   1      35.780  29.358  30.233  1.00  0.00    -0.246 OA
BRANCH  27  29
ATOM     29  C   UNL A   1      37.664  29.910  28.951  1.00  0.00     0.060 A 
ATOM     30  C   UNL A   1      38.145  29.721  27.663  1.00  0.00     0.016 A 
ATOM     31  C   UNL A   1      38.549  29.947  30.028  1.00  0.00     0.016 A 
ATOM     32  C   UNL A   1      39.483  29.400  27.473  1.00  0.00     0.010 A 
ATOM     33  C   UNL A   1      39.923  29.756  29.805  1.00  0.00     0.010 A 
ATOM     34  C   UNL A   1      40.407  29.404  28.532  1.00  0.00    -0.014 A 
BRANCH  34  35
ATOM     35  C   UNL A   1      41.822  28.954  28.303  1.00  0.00     0.031 A 
ATOM     36  C   UNL A   1      42.987  29.912  28.488  1.00  0.00     0.074 A 
ATOM     37  C   UNL A   1      42.100  27.659  28.025  1.00  0.00     0.049 A 
ATOM     38  N   UNL A   1      44.248  29.753  28.162  1.00  0.00    -0.248 NA
ATOM     39  C   UNL A   1      42.702  31.218  29.106  1.00  0.00     0.031 C 
ATOM     40  C   UNL A   1      41.112  26.588  27.876  1.00  0.00     0.029 A 
ATOM     41  N   UNL A   1      43.301  27.011  27.851  1.00  0.00    -0.354 N 
ATOM     42  C   UNL A   1      44.887  30.946  28.488  1.00  0.00     0.074 A 
ATOM     43  C   UNL A   1      43.880  31.824  29.042  1.00  0.00     0.031 C 
ATOM     44  C   UNL A   1      41.741  25.415  27.733  1.00  0.00     0.029 A 
ATOM     45  C   UNL A   1      43.172  25.660  27.616  1.00  0.00     0.049 A 
ATOM     46  H   UNL A   1      44.172  27.469  27.890  1.00  0.00     0.167 HD
ATOM     47  C   UNL A   1      46.191  31.283  28.340  1.00  0.00     0.037 A 
ATOM     48  C   UNL A   1      44.075  24.724  27.266  1.00  0.00     0.037 A 
ATOM     49  C   UNL A   1      47.209  30.389  27.849  1.00  0.00     0.049 A 
ATOM     50  C   UNL A   1      45.503  25.134  27.047  1.00  0.00     0.074 A 
ATOM     51  C   UNL A   1      48.548  30.654  27.611  1.00  0.00     0.029 A 
ATOM     52  N   UNL A   1      47.011  29.049  27.555  1.00  0.00    -0.354 N 
ATOM     53  N   UNL A   1      46.055  26.310  27.213  1.00  0.00    -0.248 NA
ATOM     54  C   UNL A   1      46.420  24.100  26.550  1.00  0.00     0.031 C 
ATOM     55  C   UNL A   1      49.154  29.480  27.152  1.00  0.00     0.029 A 
ATOM     56  C   UNL A   1      48.201  28.475  27.141  1.00  0.00     0.049 A 
ATOM     57  H   UNL A   1      46.151  28.576  27.631  1.00  0.00     0.167 HD
ATOM     58  C   UNL A   1      47.383  26.160  26.832  1.00  0.00     0.074 A 
ATOM     59  C   UNL A   1      47.559  24.771  26.462  1.00  0.00     0.031 C 
ATOM     60  C   UNL A   1      48.363  27.093  26.778  1.00  0.00     0.037 A 
BRANCH  47  61
ATOM     61  C   UNL A   1      46.607  32.690  28.676  1.00  0.00     0.058 A 
ATOM     62  C   UNL A   1      47.111  33.038  29.938  1.00  0.00     0.135 A 
ATOM     63  C   UNL A   1      46.581  33.686  27.685  1.00  0.00     0.135 A 
ATOM     64  F   UNL A   1      47.141  32.130  30.926  1.00  0.00    -0.206 F 
ATOM     65  C   UNL A   1      47.572  34.323  30.207  1.00  0.00     0.059 A 
ATOM     66  C   UNL A   1      47.055  34.972  27.925  1.00  0.00     0.059 A 
ATOM     67  F   UNL A   1      46.106  33.408  26.460  1.00  0.00    -0.206 F 
ATOM     68  C   UNL A   1      47.545  35.283  29.192  1.00  0.00     0.060 A 
BRANCH  68  69
ATOM     69  S   UNL A   1      48.180  36.938  29.545  1.00  0.00     0.124 S 
ATOM     70  O   UNL A   1      47.023  37.768  29.224  1.00  0.00    -0.237 OA
ATOM     71  O   UNL A   1      48.523  36.846  30.960  1.00  0.00    -0.237 OA
ATOM     72  O   UNL A   1      49.315  37.068  28.636  1.00  0.00    -0.744 OA
ENDBRANCH  68  69
ENDBRANCH  47  61
BRANCH  48  73
ATOM     73  C   UNL A   1      43.631  23.331  26.979  1.00  0.00     0.058 A 
ATOM     74  C   UNL A   1      43.474  22.867  25.664  1.00  0.00     0.135 A 
ATOM     75  C   UNL A   1      43.349  22.435  28.024  1.00  0.00     0.135 A 
ATOM     76  F   UNL A   1      43.707  23.689  24.630  1.00  0.00    -0.206 F 
ATOM     77  C   UNL A   1      43.041  21.570  25.397  1.00  0.00     0.059 A 
ATOM     78  C   UNL A   1      42.952  21.127  27.782  1.00  0.00     0.059 A 
ATOM     79  F   UNL A   1      43.488  22.825  29.302  1.00  0.00    -0.206 F 
ATOM     80  C   UNL A   1      42.783  20.707  26.465  1.00  0.00     0.060 A 
BRANCH  80  81
ATOM     81  S   UNL A   1      42.252  19.016  26.127  1.00  0.00     0.124 S 
ATOM     82  O   UNL A   1      43.156  18.638  25.046  1.00  0.00    -0.237 OA
ATOM     83  O   UNL A   1      42.475  18.352  27.407  1.00  0.00    -0.237 OA
ATOM     84  O   UNL A   1      40.850  19.177  25.751  1.00  0.00    -0.744 OA
ENDBRANCH  80  81
ENDBRANCH  48  73
BRANCH  60  85
ATOM     85  C   UNL A   1      49.718  26.634  26.323  1.00  0.00     0.058 A 
ATOM     86  C   UNL A   1      50.145  26.818  24.999  1.00  0.00     0.135 A 
ATOM     87  C   UNL A   1      50.605  26.029  27.225  1.00  0.00     0.135 A 
ATOM     88  F   UNL A   1      49.328  27.385  24.098  1.00  0.00    -0.206 F 
ATOM     89  C   UNL A   1      51.400  26.392  24.578  1.00  0.00     0.059 A 
ATOM     90  C   UNL A   1      51.873  25.615  26.831  1.00  0.00     0.059 A 
ATOM     91  F   UNL A   1      50.245  25.839  28.505  1.00  0.00    -0.206 F 
ATOM     92  C   UNL A   1      52.256  25.789  25.501  1.00  0.00     0.060 A 
BRANCH  92  93
ATOM     93  S   UNL A   1      53.890  25.256  24.948  1.00  0.00     0.124 S 
ATOM     94  O   UNL A   1      54.738  25.731  26.036  1.00  0.00    -0.237 OA
ATOM     95  O   UNL A   1      53.732  23.808  24.852  1.00  0.00    -0.237 OA
ATOM     96  O   UNL A   1      54.058  25.946  23.672  1.00  0.00    -0.744 OA
ENDBRANCH  92  93
ENDBRANCH  60  85
ENDBRANCH  34  35
ENDBRANCH  27  29
ENDBRANCH  26  27
ENDBRANCH   1  26
TORSDOF 18
ENDMDL
