MODEL 1
REMARK VINA RESULT:     -10.5      0.000      0.000
REMARK SMILES COc1cccc(O[C@@H](C)c2nnc(SCC(=O)OCCOC(=O)c3ccc(-c4c5nc(c(-c6c(F)cc(S(=O)(=O)[O-])cc6F)c6ccc([nH]6)c(-c6c(F)cc(S(=O)(=O)[O-])cc6F)c6nc(c(-c7c(F)cc(S(=O)(=O)[O-])cc7F)c7ccc4[nH]7)C=C6)C=C5)cc3)n2C)c1
REMARK SMILES IDX 19 1 17 2 18 3 16 4 15 5 14 6 11 7 12 8 91 9 13 10 92 11
REMARK SMILES IDX 9 12 10 13 8 14 7 15 3 16 4 17 93 18 5 19 6 20 2 21 1 22
REMARK SMILES IDX 20 23 21 24 22 25 23 26 24 27 25 28 26 29 90 30 27 31 89 32
REMARK SMILES IDX 28 33 29 34 30 35 83 36 31 37 88 38 82 39 84 40 32 41 87 42
REMARK SMILES IDX 81 43 80 44 33 46 67 47 46 48 66 49 47 50 50 51 65 52 85 53
REMARK SMILES IDX 48 54 49 55 64 57 86 58 51 59 34 60 35 61 44 62 36 63 37 64
REMARK SMILES IDX 43 65 45 66 38 67 39 68 40 69 41 70 42 71 68 72 69 73 78 74
REMARK SMILES IDX 70 75 71 76 77 77 79 78 72 79 73 80 74 81 75 82 76 83 52 84
REMARK SMILES IDX 53 85 62 86 54 87 55 88 61 89 63 90 56 91 57 92 58 93 59 94
REMARK SMILES IDX 60 95
REMARK H PARENT 84 45 50 56
REMARK Flexibility Score: inf
ROOT
ATOM      1  O   UNL A   1      34.836  20.918  24.461  1.00  0.00    -0.461 OA
ENDROOT
BRANCH   1   2
ATOM      2  C   UNL A   1      33.753  20.121  24.641  1.00  0.00     0.316 C 
ATOM      3  O   UNL A   1      33.823  18.928  24.922  1.00  0.00    -0.251 OA
BRANCH   2   4
ATOM      4  C   UNL A   1      32.415  20.787  24.396  1.00  0.00     0.200 C 
BRANCH   4   5
ATOM      5  S   UNL A   1      32.198  21.601  22.824  1.00  0.00    -0.074 SA
BRANCH   5   6
ATOM      6  C   UNL A   1      32.811  23.219  22.790  1.00  0.00     0.191 A 
ATOM      7  C   UNL A   1      33.280  25.374  22.931  1.00  0.00     0.174 A 
ATOM      8  N   UNL A   1      34.334  24.735  22.457  1.00  0.00    -0.130 NA
ATOM      9  N   UNL A   1      32.266  24.440  23.120  1.00  0.00    -0.306 N 
ATOM     10  N   UNL A   1      34.043  23.410  22.371  1.00  0.00    -0.123 NA
ATOM     11  C   UNL A   1      30.928  24.728  23.532  1.00  0.00     0.154 C 
BRANCH   7  12
ATOM     12  C   UNL A   1      33.317  26.858  23.214  1.00  0.00     0.238 C 
ATOM     13  C   UNL A   1      33.652  27.833  22.094  1.00  0.00     0.062 C 
BRANCH  12  14
ATOM     14  O   UNL A   1      33.964  27.116  24.476  1.00  0.00    -0.483 OA
BRANCH  14  15
ATOM     15  C   UNL A   1      33.265  27.772  25.443  1.00  0.00     0.124 A 
ATOM     16  C   UNL A   1      32.869  29.648  26.905  1.00  0.00     0.122 A 
ATOM     17  C   UNL A   1      31.837  28.961  27.535  1.00  0.00     0.046 A 
ATOM     18  C   UNL A   1      33.626  29.030  25.911  1.00  0.00     0.092 A 
ATOM     19  C   UNL A   1      31.537  27.662  27.127  1.00  0.00     0.008 A 
ATOM     20  C   UNL A   1      32.232  27.077  26.069  1.00  0.00     0.047 A 
BRANCH  16  21
ATOM     21  O   UNL A   1      33.222  30.906  27.313  1.00  0.00    -0.497 OA
ATOM     22  C   UNL A   1      34.609  30.940  27.658  1.00  0.00     0.278 C 
ENDBRANCH  16  21
ENDBRANCH  14  15
ENDBRANCH  12  14
ENDBRANCH   7  12
ENDBRANCH   5   6
ENDBRANCH   4   5
ENDBRANCH   2   4
ENDBRANCH   1   2
BRANCH   1  23
ATOM     23  C   UNL A   1      35.781  20.976  25.548  1.00  0.00     0.274 C 
BRANCH  23  24
ATOM     24  C   UNL A   1      37.228  20.861  25.071  1.00  0.00     0.275 C 
BRANCH  24  25
ATOM     25  O   UNL A   1      37.971  22.068  25.339  1.00  0.00    -0.458 OA
BRANCH  25  26
ATOM     26  C   UNL A   1      39.052  21.898  26.129  1.00  0.00     0.338 C 
ATOM     27  O   UNL A   1      39.682  20.867  26.302  1.00  0.00    -0.246 OA
BRANCH  26  28
ATOM     28  C   UNL A   1      39.478  23.152  26.776  1.00  0.00     0.060 A 
ATOM     29  C   UNL A   1      39.100  24.381  26.230  1.00  0.00     0.016 A 
ATOM     30  C   UNL A   1      40.487  23.095  27.741  1.00  0.00     0.016 A 
ATOM     31  C   UNL A   1      39.804  25.537  26.584  1.00  0.00     0.010 A 
ATOM     32  C   UNL A   1      41.126  24.269  28.157  1.00  0.00     0.010 A 
ATOM     33  C   UNL A   1      40.819  25.501  27.560  1.00  0.00    -0.014 A 
BRANCH  33  34
ATOM     34  C   UNL A   1      41.481  26.760  28.011  1.00  0.00     0.031 A 
ATOM     35  C   UNL A   1      40.721  27.899  28.649  1.00  0.00     0.074 A 
ATOM     36  C   UNL A   1      42.809  26.894  27.818  1.00  0.00     0.049 A 
ATOM     37  N   UNL A   1      41.171  29.062  29.053  1.00  0.00    -0.248 NA
ATOM     38  C   UNL A   1      39.281  27.714  28.872  1.00  0.00     0.031 C 
ATOM     39  C   UNL A   1      43.680  25.890  27.203  1.00  0.00     0.029 A 
ATOM     40  N   UNL A   1      43.655  27.937  28.103  1.00  0.00    -0.354 N 
ATOM     41  C   UNL A   1      40.080  29.739  29.589  1.00  0.00     0.074 A 
ATOM     42  C   UNL A   1      38.935  28.870  29.429  1.00  0.00     0.031 C 
ATOM     43  C   UNL A   1      44.933  26.360  27.161  1.00  0.00     0.029 A 
ATOM     44  C   UNL A   1      44.945  27.723  27.682  1.00  0.00     0.049 A 
ATOM     45  H   UNL A   1      43.366  28.757  28.565  1.00  0.00     0.167 HD
ATOM     46  C   UNL A   1      40.039  30.961  30.174  1.00  0.00     0.037 A 
ATOM     47  C   UNL A   1      46.015  28.540  27.659  1.00  0.00     0.037 A 
ATOM     48  C   UNL A   1      41.165  31.844  30.326  1.00  0.00     0.049 A 
ATOM     49  C   UNL A   1      45.907  29.939  28.182  1.00  0.00     0.074 A 
ATOM     50  C   UNL A   1      41.212  33.071  30.969  1.00  0.00     0.029 A 
ATOM     51  N   UNL A   1      42.426  31.619  29.806  1.00  0.00    -0.354 N 
ATOM     52  N   UNL A   1      44.880  30.526  28.742  1.00  0.00    -0.248 NA
ATOM     53  C   UNL A   1      47.098  30.789  28.054  1.00  0.00     0.031 C 
ATOM     54  C   UNL A   1      42.494  33.606  30.803  1.00  0.00     0.029 A 
ATOM     55  C   UNL A   1      43.246  32.702  30.074  1.00  0.00     0.049 A 
ATOM     56  H   UNL A   1      42.700  30.810  29.316  1.00  0.00     0.167 HD
ATOM     57  C   UNL A   1      45.304  31.815  29.042  1.00  0.00     0.074 A 
ATOM     58  C   UNL A   1      46.682  31.919  28.610  1.00  0.00     0.031 C 
ATOM     59  C   UNL A   1      44.608  32.819  29.627  1.00  0.00     0.037 A 
BRANCH  46  60
ATOM     60  C   UNL A   1      38.735  31.446  30.734  1.00  0.00     0.058 A 
ATOM     61  C   UNL A   1      38.370  31.129  32.051  1.00  0.00     0.135 A 
ATOM     62  C   UNL A   1      37.931  32.350  30.025  1.00  0.00     0.135 A 
ATOM     63  F   UNL A   1      39.114  30.276  32.771  1.00  0.00    -0.206 F 
ATOM     64  C   UNL A   1      37.239  31.681  32.644  1.00  0.00     0.059 A 
ATOM     65  C   UNL A   1      36.799  32.919  30.601  1.00  0.00     0.059 A 
ATOM     66  F   UNL A   1      38.255  32.698  28.770  1.00  0.00    -0.206 F 
ATOM     67  C   UNL A   1      36.456  32.572  31.909  1.00  0.00     0.060 A 
BRANCH  67  68
ATOM     68  S   UNL A   1      35.004  33.310  32.689  1.00  0.00     0.124 S 
ATOM     69  O   UNL A   1      33.930  32.534  32.079  1.00  0.00    -0.237 OA
ATOM     70  O   UNL A   1      35.239  33.061  34.108  1.00  0.00    -0.237 OA
ATOM     71  O   UNL A   1      35.083  34.709  32.282  1.00  0.00    -0.744 OA
ENDBRANCH  67  68
ENDBRANCH  46  60
BRANCH  47  72
ATOM     72  C   UNL A   1      47.276  28.054  27.050  1.00  0.00     0.058 A 
ATOM     73  C   UNL A   1      47.454  28.044  25.662  1.00  0.00     0.135 A 
ATOM     74  C   UNL A   1      48.344  27.635  27.859  1.00  0.00     0.135 A 
ATOM     75  F   UNL A   1      46.454  28.430  24.854  1.00  0.00    -0.206 F 
ATOM     76  C   UNL A   1      48.654  27.638  25.091  1.00  0.00     0.059 A 
ATOM     77  C   UNL A   1      49.560  27.247  27.313  1.00  0.00     0.059 A 
ATOM     78  F   UNL A   1      48.219  27.644  29.196  1.00  0.00    -0.206 F 
ATOM     79  C   UNL A   1      49.703  27.247  25.926  1.00  0.00     0.060 A 
BRANCH  79  80
ATOM     80  S   UNL A   1      51.293  26.805  25.195  1.00  0.00     0.124 S 
ATOM     81  O   UNL A   1      51.406  25.402  25.572  1.00  0.00    -0.237 OA
ATOM     82  O   UNL A   1      51.073  27.073  23.777  1.00  0.00    -0.237 OA
ATOM     83  O   UNL A   1      52.221  27.718  25.857  1.00  0.00    -0.744 OA
ENDBRANCH  79  80
ENDBRANCH  47  72
BRANCH  59  84
ATOM     84  C   UNL A   1      45.321  34.121  29.833  1.00  0.00     0.058 A 
ATOM     85  C   UNL A   1      46.077  34.360  30.990  1.00  0.00     0.135 A 
ATOM     86  C   UNL A   1      45.261  35.135  28.863  1.00  0.00     0.135 A 
ATOM     87  F   UNL A   1      46.157  33.423  31.949  1.00  0.00    -0.206 F 
ATOM     88  C   UNL A   1      46.729  35.571  31.193  1.00  0.00     0.059 A 
ATOM     89  C   UNL A   1      45.921  36.346  29.037  1.00  0.00     0.059 A 
ATOM     90  F   UNL A   1      44.558  34.950  27.735  1.00  0.00    -0.206 F 
ATOM     91  C   UNL A   1      46.639  36.561  30.213  1.00  0.00     0.060 A 
BRANCH  91  92
ATOM     92  S   UNL A   1      47.489  38.132  30.482  1.00  0.00     0.124 S 
ATOM     93  O   UNL A   1      46.631  39.056  29.747  1.00  0.00    -0.237 OA
ATOM     94  O   UNL A   1      47.463  38.263  31.935  1.00  0.00    -0.237 OA
ATOM     95  O   UNL A   1      48.809  37.903  29.904  1.00  0.00    -0.744 OA
ENDBRANCH  91  92
ENDBRANCH  59  84
ENDBRANCH  33  34
ENDBRANCH  26  28
ENDBRANCH  25  26
ENDBRANCH  24  25
ENDBRANCH  23  24
ENDBRANCH   1  23
TORSDOF 20
ENDMDL
MODEL 2
REMARK VINA RESULT:     -10.3      5.473      8.104
REMARK SMILES COc1cccc(O[C@@H](C)c2nnc(SCC(=O)OCCOC(=O)c3ccc(-c4c5nc(c(-c6c(F)cc(S(=O)(=O)[O-])cc6F)c6ccc([nH]6)c(-c6c(F)cc(S(=O)(=O)[O-])cc6F)c6nc(c(-c7c(F)cc(S(=O)(=O)[O-])cc7F)c7ccc4[nH]7)C=C6)C=C5)cc3)n2C)c1
REMARK SMILES IDX 19 1 17 2 18 3 16 4 15 5 14 6 11 7 12 8 91 9 13 10 92 11
REMARK SMILES IDX 9 12 10 13 8 14 7 15 3 16 4 17 93 18 5 19 6 20 2 21 1 22
REMARK SMILES IDX 20 23 21 24 22 25 23 26 24 27 25 28 26 29 90 30 27 31 89 32
REMARK SMILES IDX 28 33 29 34 30 35 83 36 31 37 88 38 82 39 84 40 32 41 87 42
REMARK SMILES IDX 81 43 80 44 33 46 67 47 46 48 66 49 47 50 50 51 65 52 85 53
REMARK SMILES IDX 48 54 49 55 64 57 86 58 51 59 34 60 35 61 44 62 36 63 37 64
REMARK SMILES IDX 43 65 45 66 38 67 39 68 40 69 41 70 42 71 68 72 69 73 78 74
REMARK SMILES IDX 70 75 71 76 77 77 79 78 72 79 73 80 74 81 75 82 76 83 52 84
REMARK SMILES IDX 53 85 62 86 54 87 55 88 61 89 63 90 56 91 57 92 58 93 59 94
REMARK SMILES IDX 60 95
REMARK H PARENT 84 45 50 56
REMARK Flexibility Score: inf
ROOT
ATOM      1  O   UNL A   1      40.464  21.666  26.327  1.00  0.00    -0.461 OA
ENDROOT
BRANCH   1   2
ATOM      2  C   UNL A   1      39.816  20.565  25.869  1.00  0.00     0.316 C 
ATOM      3  O   UNL A   1      40.289  19.432  25.900  1.00  0.00    -0.251 OA
BRANCH   2   4
ATOM      4  C   UNL A   1      38.469  20.830  25.229  1.00  0.00     0.200 C 
BRANCH   4   5
ATOM      5  S   UNL A   1      37.591  22.283  25.776  1.00  0.00    -0.074 SA
BRANCH   5   6
ATOM      6  C   UNL A   1      35.871  22.093  25.784  1.00  0.00     0.191 A 
ATOM      7  C   UNL A   1      33.703  21.871  25.422  1.00  0.00     0.174 A 
ATOM      8  N   UNL A   1      33.949  21.654  26.701  1.00  0.00    -0.130 NA
ATOM      9  N   UNL A   1      34.907  22.196  24.806  1.00  0.00    -0.306 N 
ATOM     10  N   UNL A   1      35.284  21.791  26.922  1.00  0.00    -0.123 NA
ATOM     11  C   UNL A   1      35.071  22.594  23.444  1.00  0.00     0.154 C 
BRANCH   7  12
ATOM     12  C   UNL A   1      32.314  21.717  24.848  1.00  0.00     0.238 C 
ATOM     13  C   UNL A   1      31.330  22.876  24.927  1.00  0.00     0.062 C 
BRANCH  12  14
ATOM     14  O   UNL A   1      31.773  20.421  25.173  1.00  0.00    -0.483 OA
BRANCH  14  15
ATOM     15  C   UNL A   1      32.211  19.339  24.471  1.00  0.00     0.124 A 
ATOM     16  C   UNL A   1      33.202  17.148  24.303  1.00  0.00     0.122 A 
ATOM     17  C   UNL A   1      33.210  17.238  22.916  1.00  0.00     0.046 A 
ATOM     18  C   UNL A   1      32.770  18.222  25.080  1.00  0.00     0.092 A 
ATOM     19  C   UNL A   1      32.735  18.400  22.309  1.00  0.00     0.008 A 
ATOM     20  C   UNL A   1      32.215  19.438  23.081  1.00  0.00     0.047 A 
BRANCH  16  21
ATOM     21  O   UNL A   1      33.706  16.042  24.934  1.00  0.00    -0.497 OA
ATOM     22  C   UNL A   1      32.680  15.402  25.698  1.00  0.00     0.278 C 
ENDBRANCH  16  21
ENDBRANCH  14  15
ENDBRANCH  12  14
ENDBRANCH   7  12
ENDBRANCH   5   6
ENDBRANCH   4   5
ENDBRANCH   2   4
ENDBRANCH   1   2
BRANCH   1  23
ATOM     23  C   UNL A   1      41.899  21.676  26.182  1.00  0.00     0.274 C 
BRANCH  23  24
ATOM     24  C   UNL A   1      42.464  23.090  26.061  1.00  0.00     0.275 C 
BRANCH  24  25
ATOM     25  O   UNL A   1      41.429  24.086  26.202  1.00  0.00    -0.458 OA
BRANCH  25  26
ATOM     26  C   UNL A   1      41.864  25.361  26.134  1.00  0.00     0.338 C 
ATOM     27  O   UNL A   1      42.266  25.950  25.143  1.00  0.00    -0.246 OA
BRANCH  26  28
ATOM     28  C   UNL A   1      41.764  26.059  27.428  1.00  0.00     0.060 A 
ATOM     29  C   UNL A   1      40.723  25.752  28.307  1.00  0.00     0.016 A 
ATOM     30  C   UNL A   1      42.530  27.212  27.625  1.00  0.00     0.016 A 
ATOM     31  C   UNL A   1      40.391  26.653  29.323  1.00  0.00     0.010 A 
ATOM     32  C   UNL A   1      42.249  28.064  28.699  1.00  0.00     0.010 A 
ATOM     33  C   UNL A   1      41.155  27.816  29.543  1.00  0.00    -0.014 A 
BRANCH  33  34
ATOM     34  C   UNL A   1      40.860  28.709  30.702  1.00  0.00     0.031 A 
ATOM     35  C   UNL A   1      39.801  29.785  30.653  1.00  0.00     0.074 A 
ATOM     36  C   UNL A   1      41.585  28.563  31.829  1.00  0.00     0.049 A 
ATOM     37  N   UNL A   1      39.469  30.652  31.578  1.00  0.00    -0.248 NA
ATOM     38  C   UNL A   1      39.008  29.904  29.423  1.00  0.00     0.031 C 
ATOM     39  C   UNL A   1      42.652  27.578  32.027  1.00  0.00     0.029 A 
ATOM     40  N   UNL A   1      41.547  29.252  33.015  1.00  0.00    -0.354 N 
ATOM     41  C   UNL A   1      38.425  31.406  31.052  1.00  0.00     0.074 A 
ATOM     42  C   UNL A   1      38.198  30.917  29.710  1.00  0.00     0.031 C 
ATOM     43  C   UNL A   1      43.162  27.724  33.256  1.00  0.00     0.029 A 
ATOM     44  C   UNL A   1      42.509  28.853  33.910  1.00  0.00     0.049 A 
ATOM     45  H   UNL A   1      40.894  29.964  33.206  1.00  0.00     0.167 HD
ATOM     46  C   UNL A   1      37.712  32.399  31.637  1.00  0.00     0.037 A 
ATOM     47  C   UNL A   1      42.874  29.360  35.103  1.00  0.00     0.037 A 
ATOM     48  C   UNL A   1      37.936  32.909  32.964  1.00  0.00     0.049 A 
ATOM     49  C   UNL A   1      42.162  30.551  35.665  1.00  0.00     0.074 A 
ATOM     50  C   UNL A   1      37.208  33.870  33.648  1.00  0.00     0.029 A 
ATOM     51  N   UNL A   1      38.975  32.531  33.794  1.00  0.00    -0.354 N 
ATOM     52  N   UNL A   1      41.136  31.199  35.173  1.00  0.00    -0.248 NA
ATOM     53  C   UNL A   1      42.669  31.088  36.935  1.00  0.00     0.031 C 
ATOM     54  C   UNL A   1      37.832  34.101  34.879  1.00  0.00     0.029 A 
ATOM     55  C   UNL A   1      38.935  33.270  34.965  1.00  0.00     0.049 A 
ATOM     56  H   UNL A   1      39.644  31.840  33.584  1.00  0.00     0.167 HD
ATOM     57  C   UNL A   1      40.868  32.218  36.079  1.00  0.00     0.074 A 
ATOM     58  C   UNL A   1      41.832  32.095  37.152  1.00  0.00     0.031 C 
ATOM     59  C   UNL A   1      39.904  33.167  36.022  1.00  0.00     0.037 A 
BRANCH  46  60
ATOM     60  C   UNL A   1      36.581  33.020  30.870  1.00  0.00     0.058 A 
ATOM     61  C   UNL A   1      35.253  32.767  31.243  1.00  0.00     0.135 A 
ATOM     62  C   UNL A   1      36.817  33.981  29.878  1.00  0.00     0.135 A 
ATOM     63  F   UNL A   1      34.979  31.861  32.194  1.00  0.00    -0.206 F 
ATOM     64  C   UNL A   1      34.191  33.437  30.645  1.00  0.00     0.059 A 
ATOM     65  C   UNL A   1      35.771  34.668  29.271  1.00  0.00     0.059 A 
ATOM     66  F   UNL A   1      38.074  34.271  29.506  1.00  0.00    -0.206 F 
ATOM     67  C   UNL A   1      34.459  34.384  29.655  1.00  0.00     0.060 A 
BRANCH  67  68
ATOM     68  S   UNL A   1      33.081  35.274  28.899  1.00  0.00     0.124 S 
ATOM     69  O   UNL A   1      32.207  35.472  30.050  1.00  0.00    -0.237 OA
ATOM     70  O   UNL A   1      33.723  36.476  28.377  1.00  0.00    -0.237 OA
ATOM     71  O   UNL A   1      32.596  34.339  27.890  1.00  0.00    -0.744 OA
ENDBRANCH  67  68
ENDBRANCH  46  60
BRANCH  47  72
ATOM     72  C   UNL A   1      44.030  28.762  35.814  1.00  0.00     0.058 A 
ATOM     73  C   UNL A   1      45.333  29.220  35.590  1.00  0.00     0.135 A 
ATOM     74  C   UNL A   1      43.835  27.752  36.768  1.00  0.00     0.135 A 
ATOM     75  F   UNL A   1      45.562  30.180  34.679  1.00  0.00    -0.206 F 
ATOM     76  C   UNL A   1      46.412  28.697  36.293  1.00  0.00     0.059 A 
ATOM     77  C   UNL A   1      44.894  27.230  37.499  1.00  0.00     0.059 A 
ATOM     78  F   UNL A   1      42.598  27.297  37.023  1.00  0.00    -0.206 F 
ATOM     79  C   UNL A   1      46.180  27.707  37.249  1.00  0.00     0.060 A 
BRANCH  79  80
ATOM     80  S   UNL A   1      47.564  27.088  38.231  1.00  0.00     0.124 S 
ATOM     81  O   UNL A   1      47.123  27.401  39.584  1.00  0.00    -0.237 OA
ATOM     82  O   UNL A   1      47.591  25.673  37.877  1.00  0.00    -0.237 OA
ATOM     83  O   UNL A   1      48.692  27.870  37.733  1.00  0.00    -0.744 OA
ENDBRANCH  79  80
ENDBRANCH  47  72
BRANCH  59  84
ATOM     84  C   UNL A   1      39.841  34.153  37.149  1.00  0.00     0.058 A 
ATOM     85  C   UNL A   1      40.521  35.378  37.081  1.00  0.00     0.135 A 
ATOM     86  C   UNL A   1      39.086  33.880  38.301  1.00  0.00     0.135 A 
ATOM     87  F   UNL A   1      41.261  35.680  36.002  1.00  0.00    -0.206 F 
ATOM     88  C   UNL A   1      40.477  36.291  38.129  1.00  0.00     0.059 A 
ATOM     89  C   UNL A   1      39.014  34.786  39.353  1.00  0.00     0.059 A 
ATOM     90  F   UNL A   1      38.411  32.725  38.409  1.00  0.00    -0.206 F 
ATOM     91  C   UNL A   1      39.727  35.983  39.265  1.00  0.00     0.060 A 
BRANCH  91  92
ATOM     92  S   UNL A   1      39.674  37.172  40.623  1.00  0.00     0.124 S 
ATOM     93  O   UNL A   1      38.946  38.279  40.012  1.00  0.00    -0.237 OA
ATOM     94  O   UNL A   1      38.957  36.438  41.661  1.00  0.00    -0.237 OA
ATOM     95  O   UNL A   1      41.084  37.423  40.904  1.00  0.00    -0.744 OA
ENDBRANCH  91  92
ENDBRANCH  59  84
ENDBRANCH  33  34
ENDBRANCH  26  28
ENDBRANCH  25  26
ENDBRANCH  24  25
ENDBRANCH  23  24
ENDBRANCH   1  23
TORSDOF 20
ENDMDL
MODEL 3
REMARK VINA RESULT:     -10.1      2.834      8.582
REMARK SMILES COc1cccc(O[C@@H](C)c2nnc(SCC(=O)OCCOC(=O)c3ccc(-c4c5nc(c(-c6c(F)cc(S(=O)(=O)[O-])cc6F)c6ccc([nH]6)c(-c6c(F)cc(S(=O)(=O)[O-])cc6F)c6nc(c(-c7c(F)cc(S(=O)(=O)[O-])cc7F)c7ccc4[nH]7)C=C6)C=C5)cc3)n2C)c1
REMARK SMILES IDX 19 1 17 2 18 3 16 4 15 5 14 6 11 7 12 8 91 9 13 10 92 11
REMARK SMILES IDX 9 12 10 13 8 14 7 15 3 16 4 17 93 18 5 19 6 20 2 21 1 22
REMARK SMILES IDX 20 23 21 24 22 25 23 26 24 27 25 28 26 29 90 30 27 31 89 32
REMARK SMILES IDX 28 33 29 34 30 35 83 36 31 37 88 38 82 39 84 40 32 41 87 42
REMARK SMILES IDX 81 43 80 44 33 46 67 47 46 48 66 49 47 50 50 51 65 52 85 53
REMARK SMILES IDX 48 54 49 55 64 57 86 58 51 59 34 60 35 61 44 62 36 63 37 64
REMARK SMILES IDX 43 65 45 66 38 67 39 68 40 69 41 70 42 71 68 72 69 73 78 74
REMARK SMILES IDX 70 75 71 76 77 77 79 78 72 79 73 80 74 81 75 82 76 83 52 84
REMARK SMILES IDX 53 85 62 86 54 87 55 88 61 89 63 90 56 91 57 92 58 93 59 94
REMARK SMILES IDX 60 95
REMARK H PARENT 84 45 50 56
REMARK Flexibility Score: inf
ROOT
ATOM      1  O   UNL A   1      33.158  28.960  25.074  1.00  0.00    -0.461 OA
ENDROOT
BRANCH   1   2
ATOM      2  C   UNL A   1      31.814  29.151  25.103  1.00  0.00     0.316 C 
ATOM      3  O   UNL A   1      31.279  30.251  25.003  1.00  0.00    -0.251 OA
BRANCH   2   4
ATOM      4  C   UNL A   1      30.992  27.903  25.350  1.00  0.00     0.200 C 
BRANCH   4   5
ATOM      5  S   UNL A   1      30.364  27.057  23.911  1.00  0.00    -0.074 SA
BRANCH   5   6
ATOM      6  C   UNL A   1      31.050  25.486  23.675  1.00  0.00     0.191 A 
ATOM      7  C   UNL A   1      32.189  23.659  23.178  1.00  0.00     0.174 A 
ATOM      8  N   UNL A   1      31.246  23.353  24.050  1.00  0.00    -0.130 NA
ATOM      9  N   UNL A   1      32.070  25.013  22.880  1.00  0.00    -0.306 N 
ATOM     10  N   UNL A   1      30.546  24.479  24.354  1.00  0.00    -0.123 NA
ATOM     11  C   UNL A   1      32.839  25.729  21.911  1.00  0.00     0.154 C 
BRANCH   7  12
ATOM     12  C   UNL A   1      33.187  22.630  22.700  1.00  0.00     0.238 C 
ATOM     13  C   UNL A   1      33.167  21.226  23.288  1.00  0.00     0.062 C 
BRANCH  12  14
ATOM     14  O   UNL A   1      34.493  23.223  22.553  1.00  0.00    -0.483 OA
BRANCH  14  15
ATOM     15  C   UNL A   1      35.333  23.220  23.625  1.00  0.00     0.124 A 
ATOM     16  C   UNL A   1      37.133  22.300  24.939  1.00  0.00     0.122 A 
ATOM     17  C   UNL A   1      36.903  23.236  25.941  1.00  0.00     0.046 A 
ATOM     18  C   UNL A   1      36.306  22.247  23.817  1.00  0.00     0.092 A 
ATOM     19  C   UNL A   1      35.865  24.153  25.788  1.00  0.00     0.008 A 
ATOM     20  C   UNL A   1      35.096  24.162  24.624  1.00  0.00     0.047 A 
BRANCH  16  21
ATOM     21  O   UNL A   1      38.112  21.354  25.077  1.00  0.00    -0.497 OA
ATOM     22  C   UNL A   1      39.113  21.812  25.989  1.00  0.00     0.278 C 
ENDBRANCH  16  21
ENDBRANCH  14  15
ENDBRANCH  12  14
ENDBRANCH   7  12
ENDBRANCH   5   6
ENDBRANCH   4   5
ENDBRANCH   2   4
ENDBRANCH   1   2
BRANCH   1  23
ATOM     23  C   UNL A   1      33.763  28.463  26.285  1.00  0.00     0.274 C 
BRANCH  23  24
ATOM     24  C   UNL A   1      34.424  29.571  27.105  1.00  0.00     0.275 C 
BRANCH  24  25
ATOM     25  O   UNL A   1      35.417  29.041  28.006  1.00  0.00    -0.458 OA
BRANCH  25  26
ATOM     26  C   UNL A   1      36.039  29.967  28.764  1.00  0.00     0.338 C 
ATOM     27  O   UNL A   1      35.515  30.780  29.509  1.00  0.00    -0.246 OA
BRANCH  26  28
ATOM     28  C   UNL A   1      37.507  29.887  28.659  1.00  0.00     0.060 A 
ATOM     29  C   UNL A   1      38.117  29.898  27.403  1.00  0.00     0.016 A 
ATOM     30  C   UNL A   1      38.237  29.506  29.789  1.00  0.00     0.016 A 
ATOM     31  C   UNL A   1      39.430  29.434  27.271  1.00  0.00     0.010 A 
ATOM     32  C   UNL A   1      39.579  29.129  29.661  1.00  0.00     0.010 A 
ATOM     33  C   UNL A   1      40.184  29.054  28.398  1.00  0.00    -0.014 A 
BRANCH  33  34
ATOM     34  C   UNL A   1      41.619  28.670  28.255  1.00  0.00     0.031 A 
ATOM     35  C   UNL A   1      42.742  29.679  28.307  1.00  0.00     0.074 A 
ATOM     36  C   UNL A   1      41.922  27.373  28.047  1.00  0.00     0.049 A 
ATOM     37  N   UNL A   1      44.030  29.483  28.161  1.00  0.00    -0.248 NA
ATOM     38  C   UNL A   1      42.386  31.081  28.562  1.00  0.00     0.031 C 
ATOM     39  C   UNL A   1      40.950  26.281  27.959  1.00  0.00     0.029 A 
ATOM     40  N   UNL A   1      43.132  26.754  27.855  1.00  0.00    -0.354 N 
ATOM     41  C   UNL A   1      44.637  30.724  28.320  1.00  0.00     0.074 A 
ATOM     42  C   UNL A   1      43.572  31.679  28.541  1.00  0.00     0.031 C 
ATOM     43  C   UNL A   1      41.598  25.131  27.735  1.00  0.00     0.029 A 
ATOM     44  C   UNL A   1      43.024  25.410  27.596  1.00  0.00     0.049 A 
ATOM     45  H   UNL A   1      43.995  27.228  27.900  1.00  0.00     0.167 HD
ATOM     46  C   UNL A   1      45.955  31.038  28.300  1.00  0.00     0.037 A 
ATOM     47  C   UNL A   1      43.948  24.501  27.233  1.00  0.00     0.037 A 
ATOM     48  C   UNL A   1      47.024  30.104  28.065  1.00  0.00     0.049 A 
ATOM     49  C   UNL A   1      45.382  24.904  27.079  1.00  0.00     0.074 A 
ATOM     50  C   UNL A   1      48.391  30.339  28.097  1.00  0.00     0.029 A 
ATOM     51  N   UNL A   1      46.857  28.775  27.722  1.00  0.00    -0.354 N 
ATOM     52  N   UNL A   1      45.932  26.071  27.301  1.00  0.00    -0.248 NA
ATOM     53  C   UNL A   1      46.314  23.871  26.608  1.00  0.00     0.031 C 
ATOM     54  C   UNL A   1      49.048  29.158  27.735  1.00  0.00     0.029 A 
ATOM     55  C   UNL A   1      48.091  28.188  27.497  1.00  0.00     0.049 A 
ATOM     56  H   UNL A   1      45.989  28.315  27.648  1.00  0.00     0.167 HD
ATOM     57  C   UNL A   1      47.281  25.910  27.004  1.00  0.00     0.074 A 
ATOM     58  C   UNL A   1      47.464  24.533  26.597  1.00  0.00     0.031 C 
ATOM     59  C   UNL A   1      48.275  26.827  27.070  1.00  0.00     0.037 A 
BRANCH  46  60
ATOM     60  C   UNL A   1      46.360  32.458  28.563  1.00  0.00     0.058 A 
ATOM     61  C   UNL A   1      46.363  33.396  27.520  1.00  0.00     0.135 A 
ATOM     62  C   UNL A   1      46.589  32.920  29.867  1.00  0.00     0.135 A 
ATOM     63  F   UNL A   1      46.140  33.002  26.257  1.00  0.00    -0.206 F 
ATOM     64  C   UNL A   1      46.594  34.747  27.758  1.00  0.00     0.059 A 
ATOM     65  C   UNL A   1      46.816  34.267  30.129  1.00  0.00     0.059 A 
ATOM     66  F   UNL A   1      46.574  32.060  30.898  1.00  0.00    -0.206 F 
ATOM     67  C   UNL A   1      46.824  35.173  29.067  1.00  0.00     0.060 A 
BRANCH  67  68
ATOM     68  S   UNL A   1      47.097  36.931  29.380  1.00  0.00     0.124 S 
ATOM     69  O   UNL A   1      48.333  37.162  28.640  1.00  0.00    -0.237 OA
ATOM     70  O   UNL A   1      45.899  37.547  28.819  1.00  0.00    -0.237 OA
ATOM     71  O   UNL A   1      47.208  36.996  30.833  1.00  0.00    -0.744 OA
ENDBRANCH  67  68
ENDBRANCH  46  60
BRANCH  47  72
ATOM     72  C   UNL A   1      43.512  23.117  26.927  1.00  0.00     0.058 A 
ATOM     73  C   UNL A   1      43.495  22.637  25.613  1.00  0.00     0.135 A 
ATOM     74  C   UNL A   1      43.152  22.238  27.961  1.00  0.00     0.135 A 
ATOM     75  F   UNL A   1      43.825  23.450  24.596  1.00  0.00    -0.206 F 
ATOM     76  C   UNL A   1      43.137  21.325  25.328  1.00  0.00     0.059 A 
ATOM     77  C   UNL A   1      42.813  20.916  27.703  1.00  0.00     0.059 A 
ATOM     78  F   UNL A   1      43.172  22.655  29.236  1.00  0.00    -0.206 F 
ATOM     79  C   UNL A   1      42.804  20.471  26.382  1.00  0.00     0.060 A 
BRANCH  79  80
ATOM     80  S   UNL A   1      42.426  18.741  26.029  1.00  0.00     0.124 S 
ATOM     81  O   UNL A   1      41.009  18.816  25.695  1.00  0.00    -0.237 OA
ATOM     82  O   UNL A   1      43.330  18.443  24.922  1.00  0.00    -0.237 OA
ATOM     83  O   UNL A   1      42.749  18.073  27.286  1.00  0.00    -0.744 OA
ENDBRANCH  79  80
ENDBRANCH  47  72
BRANCH  59  84
ATOM     84  C   UNL A   1      49.653  26.376  26.690  1.00  0.00     0.058 A 
ATOM     85  C   UNL A   1      50.509  25.786  27.631  1.00  0.00     0.135 A 
ATOM     86  C   UNL A   1      50.119  26.521  25.373  1.00  0.00     0.135 A 
ATOM     87  F   UNL A   1      50.110  25.633  28.904  1.00  0.00    -0.206 F 
ATOM     88  C   UNL A   1      51.793  25.378  27.287  1.00  0.00     0.059 A 
ATOM     89  C   UNL A   1      51.392  26.103  25.003  1.00  0.00     0.059 A 
ATOM     90  F   UNL A   1      49.333  27.072  24.435  1.00  0.00    -0.206 F 
ATOM     91  C   UNL A   1      52.228  25.547  25.972  1.00  0.00     0.060 A 
BRANCH  91  92
ATOM     92  S   UNL A   1      53.897  25.015  25.531  1.00  0.00     0.124 S 
ATOM     93  O   UNL A   1      54.668  25.501  26.671  1.00  0.00    -0.237 OA
ATOM     94  O   UNL A   1      53.754  23.567  25.433  1.00  0.00    -0.237 OA
ATOM     95  O   UNL A   1      54.144  25.701  24.266  1.00  0.00    -0.744 OA
ENDBRANCH  91  92
ENDBRANCH  59  84
ENDBRANCH  33  34
ENDBRANCH  26  28
ENDBRANCH  25  26
ENDBRANCH  24  25
ENDBRANCH  23  24
ENDBRANCH   1  23
TORSDOF 20
ENDMDL
