MODEL 1
REMARK VINA RESULT:     -10.6      0.000      0.000
REMARK SMILES COc1ccc(C(=O)N(C)CCC(=O)OCCOC(=O)c2ccc(-c3c4nc(c(-c5c(F)cc(S(=O)(=O)[O-])cc5F)c5ccc([nH]5)c(-c5c(F)cc(S(=O)(=O)[O-])cc5F)c5nc(c(-c6c(F)cc(S(=O)(=O)[O-])cc6F)c6ccc3[nH]6)C=C5)C=C4)cc2)cc1O
REMARK SMILES IDX 16 1 15 2 13 3 14 4 12 5 11 6 9 7 10 8 7 9 8 10 6 11 3 12
REMARK SMILES IDX 4 13 88 14 5 15 87 16 2 17 1 18 89 19 17 21 18 22 19 23
REMARK SMILES IDX 20 24 21 25 22 26 86 27 23 28 85 29 24 30 25 31 26 32 79 33
REMARK SMILES IDX 27 34 84 35 78 36 80 37 28 38 83 39 77 40 76 41 29 43 63 44
REMARK SMILES IDX 42 45 62 46 43 47 46 48 61 49 81 50 44 51 45 52 60 54 82 55
REMARK SMILES IDX 47 56 30 57 31 58 40 59 32 60 33 61 39 62 41 63 34 64 35 65
REMARK SMILES IDX 36 66 37 67 38 68 64 69 65 70 74 71 66 72 67 73 73 74 75 75
REMARK SMILES IDX 68 76 69 77 70 78 71 79 72 80 48 81 49 82 58 83 50 84 51 85
REMARK SMILES IDX 57 86 59 87 52 88 53 89 54 90 55 91 56 92
REMARK H PARENT 89 20 80 42 46 53
REMARK Flexibility Score: inf
ROOT
ATOM      1  C   UNL A   1      38.451  21.847  26.103  1.00  0.00     0.274 C 
ENDROOT
BRANCH   1   2
ATOM      2  O   UNL A   1      37.818  22.370  24.919  1.00  0.00    -0.462 OA
BRANCH   2   3
ATOM      3  C   UNL A   1      36.700  23.115  25.113  1.00  0.00     0.307 C 
ATOM      4  O   UNL A   1      36.497  23.849  26.072  1.00  0.00    -0.252 OA
BRANCH   3   5
ATOM      5  C   UNL A   1      35.685  22.899  24.021  1.00  0.00     0.144 C 
BRANCH   5   6
ATOM      6  C   UNL A   1      34.378  23.656  24.260  1.00  0.00     0.131 C 
BRANCH   6   7
ATOM      7  N   UNL A   1      33.308  22.770  24.740  1.00  0.00    -0.341 N 
ATOM      8  C   UNL A   1      33.058  22.781  26.168  1.00  0.00     0.147 C 
BRANCH   7   9
ATOM      9  C   UNL A   1      32.637  22.005  23.782  1.00  0.00     0.253 C 
ATOM     10  O   UNL A   1      31.947  22.556  22.921  1.00  0.00    -0.269 OA
BRANCH   9  11
ATOM     11  C   UNL A   1      32.835  20.523  23.624  1.00  0.00     0.043 A 
ATOM     12  C   UNL A   1      33.303  17.733  23.661  1.00  0.00     0.160 A 
ATOM     13  C   UNL A   1      33.945  18.548  24.581  1.00  0.00     0.051 A 
ATOM     14  C   UNL A   1      32.407  18.303  22.757  1.00  0.00     0.158 A 
ATOM     15  C   UNL A   1      33.718  19.928  24.555  1.00  0.00     0.018 A 
ATOM     16  C   UNL A   1      32.183  19.681  22.721  1.00  0.00     0.064 A 
BRANCH  12  17
ATOM     17  O   UNL A   1      33.516  16.384  23.745  1.00  0.00    -0.493 OA
ATOM     18  C   UNL A   1      33.054  15.829  24.979  1.00  0.00     0.278 C 
ENDBRANCH  12  17
BRANCH  14  19
ATOM     19  O   UNL A   1      31.664  17.528  21.909  1.00  0.00    -0.504 OA
ATOM     20  H   UNL A   1      31.413  17.861  21.069  1.00  0.00     0.293 HD
ENDBRANCH  14  19
ENDBRANCH   9  11
ENDBRANCH   7   9
ENDBRANCH   6   7
ENDBRANCH   5   6
ENDBRANCH   3   5
ENDBRANCH   2   3
ENDBRANCH   1   2
BRANCH   1  21
ATOM     21  C   UNL A   1      39.860  22.421  26.248  1.00  0.00     0.275 C 
BRANCH  21  22
ATOM     22  O   UNL A   1      39.760  23.799  26.639  1.00  0.00    -0.458 OA
BRANCH  22  23
ATOM     23  C   UNL A   1      40.911  24.500  26.641  1.00  0.00     0.338 C 
ATOM     24  O   UNL A   1      41.945  24.255  26.038  1.00  0.00    -0.246 OA
BRANCH  23  25
ATOM     25  C   UNL A   1      40.768  25.625  27.574  1.00  0.00     0.060 A 
ATOM     26  C   UNL A   1      41.708  26.660  27.590  1.00  0.00     0.016 A 
ATOM     27  C   UNL A   1      39.712  25.602  28.484  1.00  0.00     0.016 A 
ATOM     28  C   UNL A   1      41.608  27.665  28.552  1.00  0.00     0.010 A 
ATOM     29  C   UNL A   1      39.593  26.629  29.420  1.00  0.00     0.010 A 
ATOM     30  C   UNL A   1      40.554  27.651  29.478  1.00  0.00    -0.014 A 
BRANCH  30  31
ATOM     31  C   UNL A   1      40.477  28.675  30.548  1.00  0.00     0.031 A 
ATOM     32  C   UNL A   1      41.397  28.582  31.734  1.00  0.00     0.074 A 
ATOM     33  C   UNL A   1      39.576  29.670  30.461  1.00  0.00     0.049 A 
ATOM     34  N   UNL A   1      41.436  29.323  32.810  1.00  0.00    -0.248 NA
ATOM     35  C   UNL A   1      42.401  27.505  31.707  1.00  0.00     0.031 C 
ATOM     36  C   UNL A   1      38.639  29.866  29.354  1.00  0.00     0.029 A 
ATOM     37  N   UNL A   1      39.294  30.699  31.324  1.00  0.00    -0.354 N 
ATOM     38  C   UNL A   1      42.452  28.794  33.598  1.00  0.00     0.074 A 
ATOM     39  C   UNL A   1      42.991  27.656  32.885  1.00  0.00     0.031 C 
ATOM     40  C   UNL A   1      37.886  30.950  29.604  1.00  0.00     0.029 A 
ATOM     41  C   UNL A   1      38.262  31.502  30.902  1.00  0.00     0.049 A 
ATOM     42  H   UNL A   1      39.784  30.846  32.165  1.00  0.00     0.167 HD
ATOM     43  C   UNL A   1      42.898  29.223  34.803  1.00  0.00     0.037 A 
ATOM     44  C   UNL A   1      37.675  32.553  31.506  1.00  0.00     0.037 A 
ATOM     45  C   UNL A   1      42.366  30.365  35.500  1.00  0.00     0.049 A 
ATOM     46  C   UNL A   1      38.173  32.998  32.853  1.00  0.00     0.074 A 
ATOM     47  C   UNL A   1      42.761  30.896  36.716  1.00  0.00     0.029 A 
ATOM     48  N   UNL A   1      41.319  31.153  35.042  1.00  0.00    -0.354 N 
ATOM     49  N   UNL A   1      39.141  32.495  33.581  1.00  0.00    -0.248 NA
ATOM     50  C   UNL A   1      37.498  34.151  33.463  1.00  0.00     0.031 C 
ATOM     51  C   UNL A   1      41.934  31.987  37.007  1.00  0.00     0.029 A 
ATOM     52  C   UNL A   1      41.046  32.157  35.957  1.00  0.00     0.049 A 
ATOM     53  H   UNL A   1      40.841  31.018  34.193  1.00  0.00     0.167 HD
ATOM     54  C   UNL A   1      39.201  33.277  34.728  1.00  0.00     0.074 A 
ATOM     55  C   UNL A   1      38.182  34.298  34.591  1.00  0.00     0.031 C 
ATOM     56  C   UNL A   1      40.023  33.161  35.801  1.00  0.00     0.037 A 
BRANCH  43  57
ATOM     57  C   UNL A   1      44.007  28.442  35.449  1.00  0.00     0.058 A 
ATOM     58  C   UNL A   1      43.749  27.449  36.407  1.00  0.00     0.135 A 
ATOM     59  C   UNL A   1      45.345  28.675  35.091  1.00  0.00     0.135 A 
ATOM     60  F   UNL A   1      42.488  27.198  36.797  1.00  0.00    -0.206 F 
ATOM     61  C   UNL A   1      44.779  26.732  37.007  1.00  0.00     0.059 A 
ATOM     62  C   UNL A   1      46.389  27.954  35.663  1.00  0.00     0.059 A 
ATOM     63  F   UNL A   1      45.648  29.614  34.182  1.00  0.00    -0.206 F 
ATOM     64  C   UNL A   1      46.098  26.994  36.631  1.00  0.00     0.060 A 
BRANCH  64  65
ATOM     65  S   UNL A   1      47.426  26.057  37.417  1.00  0.00     0.124 S 
ATOM     66  O   UNL A   1      47.844  25.178  36.329  1.00  0.00    -0.237 OA
ATOM     67  O   UNL A   1      48.375  27.103  37.785  1.00  0.00    -0.237 OA
ATOM     68  O   UNL A   1      46.760  25.398  38.536  1.00  0.00    -0.744 OA
ENDBRANCH  64  65
ENDBRANCH  43  57
BRANCH  44  69
ATOM     69  C   UNL A   1      36.546  33.252  30.839  1.00  0.00     0.058 A 
ATOM     70  C   UNL A   1      35.230  33.098  31.297  1.00  0.00     0.135 A 
ATOM     71  C   UNL A   1      36.765  34.104  29.744  1.00  0.00     0.135 A 
ATOM     72  F   UNL A   1      34.972  32.288  32.334  1.00  0.00    -0.206 F 
ATOM     73  C   UNL A   1      34.166  33.757  30.689  1.00  0.00     0.059 A 
ATOM     74  C   UNL A   1      35.719  34.789  29.134  1.00  0.00     0.059 A 
ATOM     75  F   UNL A   1      38.008  34.292  29.276  1.00  0.00    -0.206 F 
ATOM     76  C   UNL A   1      34.423  34.603  29.608  1.00  0.00     0.060 A 
BRANCH  76  77
ATOM     77  S   UNL A   1      33.044  35.502  28.861  1.00  0.00     0.124 S 
ATOM     78  O   UNL A   1      32.314  35.951  30.040  1.00  0.00    -0.237 OA
ATOM     79  O   UNL A   1      33.729  36.543  28.100  1.00  0.00    -0.237 OA
ATOM     80  O   UNL A   1      32.380  34.482  28.055  1.00  0.00    -0.744 OA
ENDBRANCH  76  77
ENDBRANCH  44  69
BRANCH  56  81
ATOM     81  C   UNL A   1      39.859  34.173  36.898  1.00  0.00     0.058 A 
ATOM     82  C   UNL A   1      40.465  35.436  36.825  1.00  0.00     0.135 A 
ATOM     83  C   UNL A   1      39.064  33.888  38.019  1.00  0.00     0.135 A 
ATOM     84  F   UNL A   1      41.240  35.755  35.776  1.00  0.00    -0.206 F 
ATOM     85  C   UNL A   1      40.310  36.375  37.839  1.00  0.00     0.059 A 
ATOM     86  C   UNL A   1      38.877  34.819  39.034  1.00  0.00     0.059 A 
ATOM     87  F   UNL A   1      38.456  32.696  38.131  1.00  0.00    -0.206 F 
ATOM     88  C   UNL A   1      39.516  36.055  38.943  1.00  0.00     0.060 A 
BRANCH  88  89
ATOM     89  S   UNL A   1      39.302  37.286  40.247  1.00  0.00     0.124 S 
ATOM     90  O   UNL A   1      40.684  37.675  40.511  1.00  0.00    -0.237 OA
ATOM     91  O   UNL A   1      38.473  38.296  39.597  1.00  0.00    -0.237 OA
ATOM     92  O   UNL A   1      38.645  36.537  41.314  1.00  0.00    -0.744 OA
ENDBRANCH  88  89
ENDBRANCH  56  81
ENDBRANCH  30  31
ENDBRANCH  23  25
ENDBRANCH  22  23
ENDBRANCH  21  22
ENDBRANCH   1  21
TORSDOF 20
ENDMDL
MODEL 2
REMARK VINA RESULT:     -10.4      7.195     12.656
REMARK SMILES COc1ccc(C(=O)N(C)CCC(=O)OCCOC(=O)c2ccc(-c3c4nc(c(-c5c(F)cc(S(=O)(=O)[O-])cc5F)c5ccc([nH]5)c(-c5c(F)cc(S(=O)(=O)[O-])cc5F)c5nc(c(-c6c(F)cc(S(=O)(=O)[O-])cc6F)c6ccc3[nH]6)C=C5)C=C4)cc2)cc1O
REMARK SMILES IDX 16 1 15 2 13 3 14 4 12 5 11 6 9 7 10 8 7 9 8 10 6 11 3 12
REMARK SMILES IDX 4 13 88 14 5 15 87 16 2 17 1 18 89 19 17 21 18 22 19 23
REMARK SMILES IDX 20 24 21 25 22 26 86 27 23 28 85 29 24 30 25 31 26 32 79 33
REMARK SMILES IDX 27 34 84 35 78 36 80 37 28 38 83 39 77 40 76 41 29 43 63 44
REMARK SMILES IDX 42 45 62 46 43 47 46 48 61 49 81 50 44 51 45 52 60 54 82 55
REMARK SMILES IDX 47 56 30 57 31 58 40 59 32 60 33 61 39 62 41 63 34 64 35 65
REMARK SMILES IDX 36 66 37 67 38 68 64 69 65 70 74 71 66 72 67 73 73 74 75 75
REMARK SMILES IDX 68 76 69 77 70 78 71 79 72 80 48 81 49 82 58 83 50 84 51 85
REMARK SMILES IDX 57 86 59 87 52 88 53 89 54 90 55 91 56 92
REMARK H PARENT 89 20 80 42 46 53
REMARK Flexibility Score: inf
ROOT
ATOM      1  C   UNL A   1      33.609  30.780  27.257  1.00  0.00     0.274 C 
ENDROOT
BRANCH   1   2
ATOM      2  O   UNL A   1      33.268  29.432  27.636  1.00  0.00    -0.462 OA
BRANCH   2   3
ATOM      3  C   UNL A   1      33.186  28.527  26.628  1.00  0.00     0.307 C 
ATOM      4  O   UNL A   1      34.119  27.864  26.195  1.00  0.00    -0.252 OA
BRANCH   3   5
ATOM      5  C   UNL A   1      31.796  28.458  26.049  1.00  0.00     0.144 C 
BRANCH   5   6
ATOM      6  C   UNL A   1      31.020  27.220  26.499  1.00  0.00     0.131 C 
BRANCH   6   7
ATOM      7  N   UNL A   1      30.813  26.269  25.398  1.00  0.00    -0.341 N 
ATOM      8  C   UNL A   1      30.439  24.920  25.778  1.00  0.00     0.147 C 
BRANCH   7   9
ATOM      9  C   UNL A   1      30.995  26.749  24.099  1.00  0.00     0.253 C 
ATOM     10  O   UNL A   1      31.834  26.231  23.358  1.00  0.00    -0.269 OA
BRANCH   9  11
ATOM     11  C   UNL A   1      30.099  27.778  23.467  1.00  0.00     0.043 A 
ATOM     12  C   UNL A   1      28.668  29.762  22.044  1.00  0.00     0.160 A 
ATOM     13  C   UNL A   1      30.053  29.730  21.971  1.00  0.00     0.051 A 
ATOM     14  C   UNL A   1      28.005  28.788  22.790  1.00  0.00     0.158 A 
ATOM     15  C   UNL A   1      30.757  28.753  22.682  1.00  0.00     0.018 A 
ATOM     16  C   UNL A   1      28.704  27.816  23.508  1.00  0.00     0.064 A 
BRANCH  12  17
ATOM     17  O   UNL A   1      28.012  30.704  21.301  1.00  0.00    -0.493 OA
ATOM     18  C   UNL A   1      27.880  31.952  21.986  1.00  0.00     0.278 C 
ENDBRANCH  12  17
BRANCH  14  19
ATOM     19  O   UNL A   1      26.638  28.709  22.799  1.00  0.00    -0.504 OA
ATOM     20  H   UNL A   1      26.143  29.237  23.394  1.00  0.00     0.293 HD
ENDBRANCH  14  19
ENDBRANCH   9  11
ENDBRANCH   7   9
ENDBRANCH   6   7
ENDBRANCH   5   6
ENDBRANCH   3   5
ENDBRANCH   2   3
ENDBRANCH   1   2
BRANCH   1  21
ATOM     21  C   UNL A   1      34.728  31.314  28.149  1.00  0.00     0.275 C 
BRANCH  21  22
ATOM     22  O   UNL A   1      35.557  30.215  28.561  1.00  0.00    -0.458 OA
BRANCH  22  23
ATOM     23  C   UNL A   1      36.310  30.418  29.660  1.00  0.00     0.338 C 
ATOM     24  O   UNL A   1      35.951  30.823  30.756  1.00  0.00    -0.246 OA
BRANCH  23  25
ATOM     25  C   UNL A   1      37.710  30.138  29.322  1.00  0.00     0.060 A 
ATOM     26  C   UNL A   1      38.086  29.883  28.000  1.00  0.00     0.016 A 
ATOM     27  C   UNL A   1      38.642  30.068  30.358  1.00  0.00     0.016 A 
ATOM     28  C   UNL A   1      39.402  29.519  27.716  1.00  0.00     0.010 A 
ATOM     29  C   UNL A   1      39.966  29.741  30.066  1.00  0.00     0.010 A 
ATOM     30  C   UNL A   1      40.349  29.438  28.749  1.00  0.00    -0.014 A 
BRANCH  30  31
ATOM     31  C   UNL A   1      41.733  28.985  28.469  1.00  0.00     0.031 A 
ATOM     32  C   UNL A   1      42.860  29.979  28.502  1.00  0.00     0.074 A 
ATOM     33  C   UNL A   1      41.969  27.695  28.171  1.00  0.00     0.049 A 
ATOM     34  N   UNL A   1      44.123  29.806  28.209  1.00  0.00    -0.248 NA
ATOM     35  C   UNL A   1      42.519  31.352  28.911  1.00  0.00     0.031 C 
ATOM     36  C   UNL A   1      40.955  26.641  28.118  1.00  0.00     0.029 A 
ATOM     37  N   UNL A   1      43.137  27.052  27.847  1.00  0.00    -0.354 N 
ATOM     38  C   UNL A   1      44.725  31.048  28.379  1.00  0.00     0.074 A 
ATOM     39  C   UNL A   1      43.685  31.970  28.782  1.00  0.00     0.031 C 
ATOM     40  C   UNL A   1      41.544  25.482  27.782  1.00  0.00     0.029 A 
ATOM     41  C   UNL A   1      42.969  25.718  27.562  1.00  0.00     0.049 A 
ATOM     42  H   UNL A   1      44.011  27.504  27.819  1.00  0.00     0.167 HD
ATOM     43  C   UNL A   1      46.027  31.385  28.220  1.00  0.00     0.037 A 
ATOM     44  C   UNL A   1      43.861  24.797  27.151  1.00  0.00     0.037 A 
ATOM     45  C   UNL A   1      47.059  30.459  27.832  1.00  0.00     0.049 A 
ATOM     46  C   UNL A   1      45.297  25.200  26.961  1.00  0.00     0.074 A 
ATOM     47  C   UNL A   1      48.412  30.695  27.665  1.00  0.00     0.029 A 
ATOM     48  N   UNL A   1      46.850  29.115  27.551  1.00  0.00    -0.354 N 
ATOM     49  N   UNL A   1      45.853  26.375  27.136  1.00  0.00    -0.248 NA
ATOM     50  C   UNL A   1      46.227  24.153  26.515  1.00  0.00     0.031 C 
ATOM     51  C   UNL A   1      49.017  29.501  27.252  1.00  0.00     0.029 A 
ATOM     52  C   UNL A   1      48.046  28.513  27.197  1.00  0.00     0.049 A 
ATOM     53  H   UNL A   1      45.980  28.659  27.596  1.00  0.00     0.167 HD
ATOM     54  C   UNL A   1      47.200  26.207  26.835  1.00  0.00     0.074 A 
ATOM     55  C   UNL A   1      47.378  24.813  26.482  1.00  0.00     0.031 C 
ATOM     56  C   UNL A   1      48.199  27.123  26.846  1.00  0.00     0.037 A 
BRANCH  43  57
ATOM     57  C   UNL A   1      46.404  32.821  28.450  1.00  0.00     0.058 A 
ATOM     58  C   UNL A   1      46.375  33.767  27.413  1.00  0.00     0.135 A 
ATOM     59  C   UNL A   1      46.778  33.263  29.729  1.00  0.00     0.135 A 
ATOM     60  F   UNL A   1      46.040  33.393  26.167  1.00  0.00    -0.206 F 
ATOM     61  C   UNL A   1      46.729  35.094  27.629  1.00  0.00     0.059 A 
ATOM     62  C   UNL A   1      47.116  34.592  29.972  1.00  0.00     0.059 A 
ATOM     63  F   UNL A   1      46.824  32.401  30.756  1.00  0.00    -0.206 F 
ATOM     64  C   UNL A   1      47.103  35.498  28.912  1.00  0.00     0.060 A 
BRANCH  64  65
ATOM     65  S   UNL A   1      47.561  37.223  29.180  1.00  0.00     0.124 S 
ATOM     66  O   UNL A   1      47.347  37.790  27.852  1.00  0.00    -0.237 OA
ATOM     67  O   UNL A   1      46.615  37.645  30.208  1.00  0.00    -0.237 OA
ATOM     68  O   UNL A   1      48.953  37.142  29.611  1.00  0.00    -0.744 OA
ENDBRANCH  64  65
ENDBRANCH  43  57
BRANCH  44  69
ATOM     69  C   UNL A   1      43.416  23.404  26.889  1.00  0.00     0.058 A 
ATOM     70  C   UNL A   1      43.352  22.901  25.582  1.00  0.00     0.135 A 
ATOM     71  C   UNL A   1      43.068  22.542  27.941  1.00  0.00     0.135 A 
ATOM     72  F   UNL A   1      43.666  23.690  24.544  1.00  0.00    -0.206 F 
ATOM     73  C   UNL A   1      42.949  21.595  25.324  1.00  0.00     0.059 A 
ATOM     74  C   UNL A   1      42.683  21.226  27.709  1.00  0.00     0.059 A 
ATOM     75  F   UNL A   1      43.125  22.974  29.211  1.00  0.00    -0.206 F 
ATOM     76  C   UNL A   1      42.619  20.763  26.396  1.00  0.00     0.060 A 
BRANCH  76  77
ATOM     77  S   UNL A   1      42.154  19.050  26.058  1.00  0.00     0.124 S 
ATOM     78  O   UNL A   1      40.708  19.164  25.907  1.00  0.00    -0.237 OA
ATOM     79  O   UNL A   1      42.902  18.761  24.838  1.00  0.00    -0.237 OA
ATOM     80  O   UNL A   1      42.612  18.340  27.248  1.00  0.00    -0.744 OA
ENDBRANCH  76  77
ENDBRANCH  44  69
BRANCH  56  81
ATOM     81  C   UNL A   1      49.573  26.639  26.481  1.00  0.00     0.058 A 
ATOM     82  C   UNL A   1      50.409  26.028  27.426  1.00  0.00     0.135 A 
ATOM     83  C   UNL A   1      50.045  26.759  25.164  1.00  0.00     0.135 A 
ATOM     84  F   UNL A   1      50.006  25.894  28.700  1.00  0.00    -0.206 F 
ATOM     85  C   UNL A   1      51.679  25.575  27.087  1.00  0.00     0.059 A 
ATOM     86  C   UNL A   1      51.303  26.295  24.797  1.00  0.00     0.059 A 
ATOM     87  F   UNL A   1      49.279  27.329  24.221  1.00  0.00    -0.206 F 
ATOM     88  C   UNL A   1      52.120  25.717  25.768  1.00  0.00     0.060 A 
BRANCH  88  89
ATOM     89  S   UNL A   1      53.762  25.109  25.329  1.00  0.00     0.124 S 
ATOM     90  O   UNL A   1      54.577  25.666  26.404  1.00  0.00    -0.237 OA
ATOM     91  O   UNL A   1      53.582  23.661  25.357  1.00  0.00    -0.237 OA
ATOM     92  O   UNL A   1      53.991  25.681  24.006  1.00  0.00    -0.744 OA
ENDBRANCH  88  89
ENDBRANCH  56  81
ENDBRANCH  30  31
ENDBRANCH  23  25
ENDBRANCH  22  23
ENDBRANCH  21  22
ENDBRANCH   1  21
TORSDOF 20
ENDMDL
MODEL 3
REMARK VINA RESULT:     -10.3      1.346      2.754
REMARK SMILES COc1ccc(C(=O)N(C)CCC(=O)OCCOC(=O)c2ccc(-c3c4nc(c(-c5c(F)cc(S(=O)(=O)[O-])cc5F)c5ccc([nH]5)c(-c5c(F)cc(S(=O)(=O)[O-])cc5F)c5nc(c(-c6c(F)cc(S(=O)(=O)[O-])cc6F)c6ccc3[nH]6)C=C5)C=C4)cc2)cc1O
REMARK SMILES IDX 16 1 15 2 13 3 14 4 12 5 11 6 9 7 10 8 7 9 8 10 6 11 3 12
REMARK SMILES IDX 4 13 88 14 5 15 87 16 2 17 1 18 89 19 17 21 18 22 19 23
REMARK SMILES IDX 20 24 21 25 22 26 86 27 23 28 85 29 24 30 25 31 26 32 79 33
REMARK SMILES IDX 27 34 84 35 78 36 80 37 28 38 83 39 77 40 76 41 29 43 63 44
REMARK SMILES IDX 42 45 62 46 43 47 46 48 61 49 81 50 44 51 45 52 60 54 82 55
REMARK SMILES IDX 47 56 30 57 31 58 40 59 32 60 33 61 39 62 41 63 34 64 35 65
REMARK SMILES IDX 36 66 37 67 38 68 64 69 65 70 74 71 66 72 67 73 73 74 75 75
REMARK SMILES IDX 68 76 69 77 70 78 71 79 72 80 48 81 49 82 58 83 50 84 51 85
REMARK SMILES IDX 57 86 59 87 52 88 53 89 54 90 55 91 56 92
REMARK H PARENT 89 20 80 42 46 53
REMARK Flexibility Score: inf
ROOT
ATOM      1  C   UNL A   1      38.141  22.099  25.661  1.00  0.00     0.274 C 
ENDROOT
BRANCH   1   2
ATOM      2  O   UNL A   1      37.147  23.140  25.727  1.00  0.00    -0.462 OA
BRANCH   2   3
ATOM      3  C   UNL A   1      35.864  22.735  25.905  1.00  0.00     0.307 C 
ATOM      4  O   UNL A   1      35.169  22.994  26.879  1.00  0.00    -0.252 OA
BRANCH   3   5
ATOM      5  C   UNL A   1      35.387  21.867  24.770  1.00  0.00     0.144 C 
BRANCH   5   6
ATOM      6  C   UNL A   1      34.277  20.899  25.181  1.00  0.00     0.131 C 
BRANCH   6   7
ATOM      7  N   UNL A   1      33.002  21.211  24.520  1.00  0.00    -0.341 N 
ATOM      8  C   UNL A   1      32.556  20.271  23.509  1.00  0.00     0.147 C 
BRANCH   7   9
ATOM      9  C   UNL A   1      32.344  22.375  24.923  1.00  0.00     0.253 C 
ATOM     10  O   UNL A   1      32.028  22.532  26.105  1.00  0.00    -0.269 OA
BRANCH   9  11
ATOM     11  C   UNL A   1      32.132  23.559  24.020  1.00  0.00     0.043 A 
ATOM     12  C   UNL A   1      31.526  25.912  22.570  1.00  0.00     0.160 A 
ATOM     13  C   UNL A   1      30.645  25.458  23.540  1.00  0.00     0.051 A 
ATOM     14  C   UNL A   1      32.716  25.217  22.354  1.00  0.00     0.158 A 
ATOM     15  C   UNL A   1      30.944  24.291  24.250  1.00  0.00     0.018 A 
ATOM     16  C   UNL A   1      33.014  24.046  23.054  1.00  0.00     0.064 A 
BRANCH  12  17
ATOM     17  O   UNL A   1      31.222  27.080  21.928  1.00  0.00    -0.493 OA
ATOM     18  C   UNL A   1      30.153  27.792  22.556  1.00  0.00     0.278 C 
ENDBRANCH  12  17
BRANCH  14  19
ATOM     19  O   UNL A   1      33.667  25.688  21.491  1.00  0.00    -0.504 OA
ATOM     20  H   UNL A   1      33.457  25.816  20.587  1.00  0.00     0.293 HD
ENDBRANCH  14  19
ENDBRANCH   9  11
ENDBRANCH   7   9
ENDBRANCH   6   7
ENDBRANCH   5   6
ENDBRANCH   3   5
ENDBRANCH   2   3
ENDBRANCH   1   2
BRANCH   1  21
ATOM     21  C   UNL A   1      39.356  22.471  26.511  1.00  0.00     0.275 C 
BRANCH  21  22
ATOM     22  O   UNL A   1      39.492  23.901  26.523  1.00  0.00    -0.458 OA
BRANCH  22  23
ATOM     23  C   UNL A   1      40.728  24.377  26.767  1.00  0.00     0.338 C 
ATOM     24  O   UNL A   1      41.797  23.941  26.368  1.00  0.00    -0.246 OA
BRANCH  23  25
ATOM     25  C   UNL A   1      40.614  25.516  27.686  1.00  0.00     0.060 A 
ATOM     26  C   UNL A   1      41.616  26.490  27.740  1.00  0.00     0.016 A 
ATOM     27  C   UNL A   1      39.517  25.568  28.546  1.00  0.00     0.016 A 
ATOM     28  C   UNL A   1      41.536  27.508  28.691  1.00  0.00     0.010 A 
ATOM     29  C   UNL A   1      39.421  26.608  29.470  1.00  0.00     0.010 A 
ATOM     30  C   UNL A   1      40.441  27.568  29.567  1.00  0.00    -0.014 A 
BRANCH  30  31
ATOM     31  C   UNL A   1      40.381  28.604  30.626  1.00  0.00     0.031 A 
ATOM     32  C   UNL A   1      41.297  28.507  31.814  1.00  0.00     0.074 A 
ATOM     33  C   UNL A   1      39.497  29.613  30.528  1.00  0.00     0.049 A 
ATOM     34  N   UNL A   1      41.347  29.258  32.883  1.00  0.00    -0.248 NA
ATOM     35  C   UNL A   1      42.282  27.412  31.800  1.00  0.00     0.031 C 
ATOM     36  C   UNL A   1      38.564  29.814  29.418  1.00  0.00     0.029 A 
ATOM     37  N   UNL A   1      39.231  30.655  31.380  1.00  0.00    -0.354 N 
ATOM     38  C   UNL A   1      42.353  28.720  33.678  1.00  0.00     0.074 A 
ATOM     39  C   UNL A   1      42.874  27.566  32.977  1.00  0.00     0.031 C 
ATOM     40  C   UNL A   1      37.829  30.912  29.656  1.00  0.00     0.029 A 
ATOM     41  C   UNL A   1      38.213  31.472  30.950  1.00  0.00     0.049 A 
ATOM     42  H   UNL A   1      39.722  30.802  32.221  1.00  0.00     0.167 HD
ATOM     43  C   UNL A   1      42.804  29.153  34.879  1.00  0.00     0.037 A 
ATOM     44  C   UNL A   1      37.643  32.538  31.542  1.00  0.00     0.037 A 
ATOM     45  C   UNL A   1      42.290  30.311  35.565  1.00  0.00     0.049 A 
ATOM     46  C   UNL A   1      38.147  32.988  32.885  1.00  0.00     0.074 A 
ATOM     47  C   UNL A   1      42.694  30.846  36.775  1.00  0.00     0.029 A 
ATOM     48  N   UNL A   1      41.258  31.112  35.097  1.00  0.00    -0.354 N 
ATOM     49  N   UNL A   1      39.105  32.475  33.619  1.00  0.00    -0.248 NA
ATOM     50  C   UNL A   1      37.490  34.158  33.483  1.00  0.00     0.031 C 
ATOM     51  C   UNL A   1      41.884  31.954  37.055  1.00  0.00     0.029 A 
ATOM     52  C   UNL A   1      41.001  32.129  36.001  1.00  0.00     0.049 A 
ATOM     53  H   UNL A   1      40.779  30.977  34.248  1.00  0.00     0.167 HD
ATOM     54  C   UNL A   1      39.177  33.268  34.759  1.00  0.00     0.074 A 
ATOM     55  C   UNL A   1      38.175  34.304  34.610  1.00  0.00     0.031 C 
ATOM     56  C   UNL A   1      39.995  33.149  35.834  1.00  0.00     0.037 A 
BRANCH  43  57
ATOM     57  C   UNL A   1      43.899  28.360  35.535  1.00  0.00     0.058 A 
ATOM     58  C   UNL A   1      43.619  27.329  36.445  1.00  0.00     0.135 A 
ATOM     59  C   UNL A   1      45.246  28.621  35.234  1.00  0.00     0.135 A 
ATOM     60  F   UNL A   1      42.349  27.049  36.780  1.00  0.00    -0.206 F 
ATOM     61  C   UNL A   1      44.636  26.600  37.054  1.00  0.00     0.059 A 
ATOM     62  C   UNL A   1      46.278  27.889  35.815  1.00  0.00     0.059 A 
ATOM     63  F   UNL A   1      45.569  29.596  34.372  1.00  0.00    -0.206 F 
ATOM     64  C   UNL A   1      45.964  26.890  36.736  1.00  0.00     0.060 A 
BRANCH  64  65
ATOM     65  S   UNL A   1      47.275  25.938  37.533  1.00  0.00     0.124 S 
ATOM     66  O   UNL A   1      47.694  26.851  38.593  1.00  0.00    -0.237 OA
ATOM     67  O   UNL A   1      46.570  24.738  37.973  1.00  0.00    -0.237 OA
ATOM     68  O   UNL A   1      48.244  25.733  36.461  1.00  0.00    -0.744 OA
ENDBRANCH  64  65
ENDBRANCH  43  57
BRANCH  44  69
ATOM     69  C   UNL A   1      36.527  33.249  30.867  1.00  0.00     0.058 A 
ATOM     70  C   UNL A   1      35.205  33.101  31.307  1.00  0.00     0.135 A 
ATOM     71  C   UNL A   1      36.764  34.107  29.780  1.00  0.00     0.135 A 
ATOM     72  F   UNL A   1      34.928  32.286  32.336  1.00  0.00    -0.206 F 
ATOM     73  C   UNL A   1      34.153  33.772  30.692  1.00  0.00     0.059 A 
ATOM     74  C   UNL A   1      35.731  34.804  29.162  1.00  0.00     0.059 A 
ATOM     75  F   UNL A   1      38.015  34.290  29.328  1.00  0.00    -0.206 F 
ATOM     76  C   UNL A   1      34.428  34.624  29.620  1.00  0.00     0.060 A 
BRANCH  76  77
ATOM     77  S   UNL A   1      33.065  35.537  28.862  1.00  0.00     0.124 S 
ATOM     78  O   UNL A   1      32.355  36.030  30.036  1.00  0.00    -0.237 OA
ATOM     79  O   UNL A   1      33.767  36.544  28.072  1.00  0.00    -0.237 OA
ATOM     80  O   UNL A   1      32.371  34.515  28.085  1.00  0.00    -0.744 OA
ENDBRANCH  76  77
ENDBRANCH  44  69
BRANCH  56  81
ATOM     81  C   UNL A   1      39.847  34.174  36.921  1.00  0.00     0.058 A 
ATOM     82  C   UNL A   1      40.451  35.437  36.823  1.00  0.00     0.135 A 
ATOM     83  C   UNL A   1      39.069  33.902  38.057  1.00  0.00     0.135 A 
ATOM     84  F   UNL A   1      41.210  35.743  35.759  1.00  0.00    -0.206 F 
ATOM     85  C   UNL A   1      40.310  36.388  37.828  1.00  0.00     0.059 A 
ATOM     86  C   UNL A   1      38.896  34.846  39.064  1.00  0.00     0.059 A 
ATOM     87  F   UNL A   1      38.464  32.712  38.193  1.00  0.00    -0.206 F 
ATOM     88  C   UNL A   1      39.533  36.081  38.948  1.00  0.00     0.060 A 
BRANCH  88  89
ATOM     89  S   UNL A   1      39.338  37.328  40.239  1.00  0.00     0.124 S 
ATOM     90  O   UNL A   1      38.632  36.574  41.269  1.00  0.00    -0.237 OA
ATOM     91  O   UNL A   1      40.719  37.683  40.548  1.00  0.00    -0.237 OA
ATOM     92  O   UNL A   1      38.560  38.375  39.582  1.00  0.00    -0.744 OA
ENDBRANCH  88  89
ENDBRANCH  56  81
ENDBRANCH  30  31
ENDBRANCH  23  25
ENDBRANCH  22  23
ENDBRANCH  21  22
ENDBRANCH   1  21
TORSDOF 20
ENDMDL
