MODEL 1
REMARK VINA RESULT:     -11.1      0.000      0.000
REMARK SMILES O=C(OCCOC(=O)c1cccc(NC(=O)c2cc3ccccc3[nH]2)c1)c1ccc(-c2c3nc(c(-c4c(F)cc(S(=O)(=O)[O-])cc4F)c4ccc([nH]4)c(-c4c(F)cc(S(=O)(=O)[O-])cc4F)c4nc(c(-c5c(F)cc(S(=O)(=O)[O-])cc5F)c5ccc2[nH]5)C=C4)C=C3)cc1
REMARK SMILES IDX 4 1 3 2 2 3 1 4 27 5 28 6 92 7 29 8 91 9 30 10 31 11 32 12
REMARK SMILES IDX 85 13 33 14 90 15 84 16 86 17 34 18 89 19 83 20 82 21 35 23
REMARK SMILES IDX 69 24 48 25 68 26 49 27 52 28 67 29 87 30 50 31 51 32 66 34
REMARK SMILES IDX 88 35 53 36 36 37 37 38 46 39 38 40 39 41 45 42 47 43 40 44
REMARK SMILES IDX 41 45 42 46 43 47 44 48 70 49 71 50 80 51 72 52 73 53 79 54
REMARK SMILES IDX 81 55 74 56 75 57 76 58 77 59 78 60 54 61 55 62 64 63 56 64
REMARK SMILES IDX 57 65 63 66 65 67 58 68 59 69 60 70 61 71 62 72 5 73 6 74
REMARK SMILES IDX 7 75 8 76 9 77 10 78 26 79 11 80 13 81 12 82 14 83 15 84
REMARK SMILES IDX 16 86 17 87 18 88 25 89 19 90 24 91 20 93 23 94 21 95 22 96
REMARK H PARENT 86 22 52 33 14 85 25 92
REMARK Flexibility Score: inf
ROOT
ATOM      1  C   UNL A   1      34.640  33.094  27.964  1.00  0.00     0.275 C 
ENDROOT
BRANCH   1   2
ATOM      2  O   UNL A   1      34.026  31.805  28.141  1.00  0.00    -0.458 OA
BRANCH   2   3
ATOM      3  C   UNL A   1      34.503  30.563  27.889  1.00  0.00     0.338 C 
ATOM      4  O   UNL A   1      33.731  29.733  27.408  1.00  0.00    -0.246 OA
BRANCH   3   5
ATOM      5  C   UNL A   1      35.874  30.092  28.275  1.00  0.00     0.060 A 
ATOM      6  C   UNL A   1      36.256  29.598  29.524  1.00  0.00     0.016 A 
ATOM      7  C   UNL A   1      36.856  30.139  27.267  1.00  0.00     0.016 A 
ATOM      8  C   UNL A   1      37.542  29.100  29.747  1.00  0.00     0.010 A 
ATOM      9  C   UNL A   1      38.142  29.629  27.476  1.00  0.00     0.010 A 
ATOM     10  C   UNL A   1      38.492  29.109  28.727  1.00  0.00    -0.014 A 
BRANCH  10  11
ATOM     11  C   UNL A   1      39.893  28.748  29.040  1.00  0.00     0.031 A 
ATOM     12  C   UNL A   1      40.760  29.793  29.676  1.00  0.00     0.074 A 
ATOM     13  C   UNL A   1      40.355  27.498  28.846  1.00  0.00     0.049 A 
ATOM     14  N   UNL A   1      42.006  29.710  30.053  1.00  0.00    -0.248 NA
ATOM     15  C   UNL A   1      40.127  31.092  29.964  1.00  0.00     0.031 C 
ATOM     16  C   UNL A   1      39.564  26.369  28.358  1.00  0.00     0.029 A 
ATOM     17  N   UNL A   1      41.607  26.966  29.022  1.00  0.00    -0.354 N 
ATOM     18  C   UNL A   1      42.289  30.922  30.667  1.00  0.00     0.074 A 
ATOM     19  C   UNL A   1      41.117  31.757  30.536  1.00  0.00     0.031 C 
ATOM     20  C   UNL A   1      40.367  25.303  28.193  1.00  0.00     0.029 A 
ATOM     21  C   UNL A   1      41.724  25.672  28.565  1.00  0.00     0.049 A 
ATOM     22  H   UNL A   1      42.350  27.462  29.435  1.00  0.00     0.167 HD
ATOM     23  C   UNL A   1      43.413  31.284  31.323  1.00  0.00     0.037 A 
ATOM     24  C   UNL A   1      42.813  24.891  28.437  1.00  0.00     0.037 A 
ATOM     25  C   UNL A   1      44.577  30.448  31.423  1.00  0.00     0.049 A 
ATOM     26  C   UNL A   1      44.118  25.400  28.966  1.00  0.00     0.074 A 
ATOM     27  C   UNL A   1      45.774  30.708  32.062  1.00  0.00     0.029 A 
ATOM     28  N   UNL A   1      44.693  29.190  30.846  1.00  0.00    -0.354 N 
ATOM     29  N   UNL A   1      44.373  26.547  29.549  1.00  0.00    -0.248 NA
ATOM     30  C   UNL A   1      45.268  24.496  28.865  1.00  0.00     0.031 C 
ATOM     31  C   UNL A   1      46.636  29.632  31.821  1.00  0.00     0.029 A 
ATOM     32  C   UNL A   1      45.956  28.676  31.083  1.00  0.00     0.049 A 
ATOM     33  H   UNL A   1      43.982  28.731  30.344  1.00  0.00     0.167 HD
ATOM     34  C   UNL A   1      45.702  26.481  29.938  1.00  0.00     0.074 A 
ATOM     35  C   UNL A   1      46.202  25.192  29.499  1.00  0.00     0.031 C 
ATOM     36  C   UNL A   1      46.431  27.392  30.628  1.00  0.00     0.037 A 
BRANCH  23  37
ATOM     37  C   UNL A   1      43.424  32.642  31.963  1.00  0.00     0.058 A 
ATOM     38  C   UNL A   1      43.214  32.807  33.344  1.00  0.00     0.135 A 
ATOM     39  C   UNL A   1      43.629  33.793  31.190  1.00  0.00     0.135 A 
ATOM     40  F   UNL A   1      42.981  31.740  34.126  1.00  0.00    -0.206 F 
ATOM     41  C   UNL A   1      43.183  34.068  33.928  1.00  0.00     0.059 A 
ATOM     42  C   UNL A   1      43.629  35.063  31.758  1.00  0.00     0.059 A 
ATOM     43  F   UNL A   1      43.820  33.692  29.865  1.00  0.00    -0.206 F 
ATOM     44  C   UNL A   1      43.390  35.191  33.125  1.00  0.00     0.060 A 
BRANCH  44  45
ATOM     45  S   UNL A   1      43.343  36.821  33.898  1.00  0.00     0.124 S 
ATOM     46  O   UNL A   1      42.059  36.777  34.593  1.00  0.00    -0.237 OA
ATOM     47  O   UNL A   1      44.525  36.795  34.752  1.00  0.00    -0.237 OA
ATOM     48  O   UNL A   1      43.410  37.738  32.765  1.00  0.00    -0.744 OA
ENDBRANCH  44  45
ENDBRANCH  23  37
BRANCH  24  49
ATOM     49  C   UNL A   1      42.739  23.581  27.744  1.00  0.00     0.058 A 
ATOM     50  C   UNL A   1      42.854  23.454  26.356  1.00  0.00     0.135 A 
ATOM     51  C   UNL A   1      42.523  22.416  28.490  1.00  0.00     0.135 A 
ATOM     52  F   UNL A   1      43.011  24.546  25.593  1.00  0.00    -0.206 F 
ATOM     53  C   UNL A   1      42.785  22.208  25.732  1.00  0.00     0.059 A 
ATOM     54  C   UNL A   1      42.480  21.157  27.897  1.00  0.00     0.059 A 
ATOM     55  F   UNL A   1      42.342  22.509  29.815  1.00  0.00    -0.206 F 
ATOM     56  C   UNL A   1      42.611  21.062  26.513  1.00  0.00     0.060 A 
BRANCH  56  57
ATOM     57  S   UNL A   1      42.610  19.443  25.710  1.00  0.00     0.124 S 
ATOM     58  O   UNL A   1      41.215  19.314  25.304  1.00  0.00    -0.237 OA
ATOM     59  O   UNL A   1      43.571  19.627  24.626  1.00  0.00    -0.237 OA
ATOM     60  O   UNL A   1      43.044  18.535  26.768  1.00  0.00    -0.744 OA
ENDBRANCH  56  57
ENDBRANCH  24  49
BRANCH  36  61
ATOM     61  C   UNL A   1      47.827  26.997  31.002  1.00  0.00     0.058 A 
ATOM     62  C   UNL A   1      48.930  27.332  30.205  1.00  0.00     0.135 A 
ATOM     63  C   UNL A   1      48.059  26.300  32.199  1.00  0.00     0.135 A 
ATOM     64  F   UNL A   1      48.754  27.984  29.044  1.00  0.00    -0.206 F 
ATOM     65  C   UNL A   1      50.220  26.970  30.573  1.00  0.00     0.059 A 
ATOM     66  C   UNL A   1      49.343  25.957  32.601  1.00  0.00     0.059 A 
ATOM     67  F   UNL A   1      47.033  25.961  32.995  1.00  0.00    -0.206 F 
ATOM     68  C   UNL A   1      50.416  26.287  31.776  1.00  0.00     0.060 A 
BRANCH  68  69
ATOM     69  S   UNL A   1      52.099  25.860  32.261  1.00  0.00     0.124 S 
ATOM     70  O   UNL A   1      52.149  24.441  31.929  1.00  0.00    -0.237 OA
ATOM     71  O   UNL A   1      52.899  26.739  31.415  1.00  0.00    -0.237 OA
ATOM     72  O   UNL A   1      52.131  26.173  33.686  1.00  0.00    -0.744 OA
ENDBRANCH  68  69
ENDBRANCH  36  61
ENDBRANCH  10  11
ENDBRANCH   3   5
ENDBRANCH   2   3
ENDBRANCH   1   2
BRANCH   1  73
ATOM     73  C   UNL A   1      34.711  33.958  29.229  1.00  0.00     0.275 C 
BRANCH  73  74
ATOM     74  O   UNL A   1      33.434  34.192  29.838  1.00  0.00    -0.458 OA
BRANCH  74  75
ATOM     75  C   UNL A   1      33.014  35.485  29.828  1.00  0.00     0.338 C 
ATOM     76  O   UNL A   1      32.354  36.030  28.958  1.00  0.00    -0.246 OA
BRANCH  75  77
ATOM     77  C   UNL A   1      33.374  36.128  31.109  1.00  0.00     0.062 A 
ATOM     78  C   UNL A   1      33.289  37.514  31.235  1.00  0.00     0.016 A 
ATOM     79  C   UNL A   1      33.795  35.365  32.192  1.00  0.00     0.041 A 
ATOM     80  C   UNL A   1      33.583  38.118  32.464  1.00  0.00     0.003 A 
ATOM     81  C   UNL A   1      34.158  35.978  33.404  1.00  0.00     0.042 A 
ATOM     82  C   UNL A   1      34.028  37.352  33.552  1.00  0.00     0.026 A 
BRANCH  81  83
ATOM     83  N   UNL A   1      34.652  35.101  34.356  1.00  0.00    -0.321 N 
ATOM     84  C   UNL A   1      35.680  34.234  34.510  1.00  0.00     0.272 C 
ATOM     85  H   UNL A   1      34.087  35.114  35.162  1.00  0.00     0.170 HD
ATOM     86  O   UNL A   1      35.570  33.541  35.527  1.00  0.00    -0.267 OA
BRANCH  84  87
ATOM     87  C   UNL A   1      36.719  33.949  33.559  1.00  0.00     0.105 A 
ATOM     88  C   UNL A   1      38.102  34.039  33.695  1.00  0.00     0.042 A 
ATOM     89  N   UNL A   1      36.517  32.894  32.682  1.00  0.00    -0.351 N 
ATOM     90  C   UNL A   1      38.589  32.702  33.444  1.00  0.00     0.000 A 
ATOM     91  C   UNL A   1      37.517  31.978  32.929  1.00  0.00     0.046 A 
ATOM     92  H   UNL A   1      35.800  32.815  32.013  1.00  0.00     0.167 HD
ATOM     93  C   UNL A   1      39.756  31.996  33.800  1.00  0.00     0.010 A 
ATOM     94  C   UNL A   1      37.486  30.583  32.849  1.00  0.00     0.026 A 
ATOM     95  C   UNL A   1      39.735  30.591  33.760  1.00  0.00     0.001 A 
ATOM     96  C   UNL A   1      38.605  29.900  33.323  1.00  0.00     0.002 A 
ENDBRANCH  84  87
ENDBRANCH  81  83
ENDBRANCH  75  77
ENDBRANCH  74  75
ENDBRANCH  73  74
ENDBRANCH   1  73
TORSDOF 16
ENDMDL
MODEL 2
REMARK VINA RESULT:     -11.1      4.417      6.973
REMARK SMILES O=C(OCCOC(=O)c1cccc(NC(=O)c2cc3ccccc3[nH]2)c1)c1ccc(-c2c3nc(c(-c4c(F)cc(S(=O)(=O)[O-])cc4F)c4ccc([nH]4)c(-c4c(F)cc(S(=O)(=O)[O-])cc4F)c4nc(c(-c5c(F)cc(S(=O)(=O)[O-])cc5F)c5ccc2[nH]5)C=C4)C=C3)cc1
REMARK SMILES IDX 4 1 3 2 2 3 1 4 27 5 28 6 92 7 29 8 91 9 30 10 31 11 32 12
REMARK SMILES IDX 85 13 33 14 90 15 84 16 86 17 34 18 89 19 83 20 82 21 35 23
REMARK SMILES IDX 69 24 48 25 68 26 49 27 52 28 67 29 87 30 50 31 51 32 66 34
REMARK SMILES IDX 88 35 53 36 36 37 37 38 46 39 38 40 39 41 45 42 47 43 40 44
REMARK SMILES IDX 41 45 42 46 43 47 44 48 70 49 71 50 80 51 72 52 73 53 79 54
REMARK SMILES IDX 81 55 74 56 75 57 76 58 77 59 78 60 54 61 55 62 64 63 56 64
REMARK SMILES IDX 57 65 63 66 65 67 58 68 59 69 60 70 61 71 62 72 5 73 6 74
REMARK SMILES IDX 7 75 8 76 9 77 10 78 26 79 11 80 13 81 12 82 14 83 15 84
REMARK SMILES IDX 16 86 17 87 18 88 25 89 19 90 24 91 20 93 23 94 21 95 22 96
REMARK H PARENT 86 22 52 33 14 85 25 92
REMARK Flexibility Score: inf
ROOT
ATOM      1  C   UNL A   1      34.727  32.049  29.384  1.00  0.00     0.275 C 
ENDROOT
BRANCH   1   2
ATOM      2  O   UNL A   1      35.955  31.808  30.094  1.00  0.00    -0.458 OA
BRANCH   2   3
ATOM      3  C   UNL A   1      36.577  30.646  30.407  1.00  0.00     0.338 C 
ATOM      4  O   UNL A   1      36.056  29.922  31.255  1.00  0.00    -0.246 OA
BRANCH   3   5
ATOM      5  C   UNL A   1      37.922  30.242  29.882  1.00  0.00     0.060 A 
ATOM      6  C   UNL A   1      38.262  30.050  28.541  1.00  0.00     0.016 A 
ATOM      7  C   UNL A   1      38.937  30.061  30.841  1.00  0.00     0.016 A 
ATOM      8  C   UNL A   1      39.574  29.762  28.157  1.00  0.00     0.010 A 
ATOM      9  C   UNL A   1      40.257  29.788  30.465  1.00  0.00     0.010 A 
ATOM     10  C   UNL A   1      40.580  29.632  29.112  1.00  0.00    -0.014 A 
BRANCH  10  11
ATOM     11  C   UNL A   1      41.915  29.148  28.696  1.00  0.00     0.031 A 
ATOM     12  C   UNL A   1      43.024  30.152  28.594  1.00  0.00     0.074 A 
ATOM     13  C   UNL A   1      42.156  27.837  28.501  1.00  0.00     0.049 A 
ATOM     14  N   UNL A   1      44.273  29.967  28.265  1.00  0.00    -0.248 NA
ATOM     15  C   UNL A   1      42.691  31.543  28.948  1.00  0.00     0.031 C 
ATOM     16  C   UNL A   1      41.188  26.759  28.701  1.00  0.00     0.029 A 
ATOM     17  N   UNL A   1      43.285  27.185  28.078  1.00  0.00    -0.354 N 
ATOM     18  C   UNL A   1      44.884  31.203  28.424  1.00  0.00     0.074 A 
ATOM     19  C   UNL A   1      43.856  32.150  28.792  1.00  0.00     0.031 C 
ATOM     20  C   UNL A   1      41.737  25.593  28.320  1.00  0.00     0.029 A 
ATOM     21  C   UNL A   1      43.093  25.840  27.854  1.00  0.00     0.049 A 
ATOM     22  H   UNL A   1      44.151  27.635  27.948  1.00  0.00     0.167 HD
ATOM     23  C   UNL A   1      46.196  31.506  28.319  1.00  0.00     0.037 A 
ATOM     24  C   UNL A   1      43.914  24.924  27.305  1.00  0.00     0.037 A 
ATOM     25  C   UNL A   1      47.201  30.555  27.929  1.00  0.00     0.049 A 
ATOM     26  C   UNL A   1      45.314  25.335  26.973  1.00  0.00     0.074 A 
ATOM     27  C   UNL A   1      48.561  30.747  27.787  1.00  0.00     0.029 A 
ATOM     28  N   UNL A   1      46.944  29.231  27.599  1.00  0.00    -0.354 N 
ATOM     29  N   UNL A   1      45.883  26.505  27.132  1.00  0.00    -0.248 NA
ATOM     30  C   UNL A   1      46.197  24.294  26.435  1.00  0.00     0.031 C 
ATOM     31  C   UNL A   1      49.120  29.554  27.314  1.00  0.00     0.029 A 
ATOM     32  C   UNL A   1      48.116  28.603  27.218  1.00  0.00     0.049 A 
ATOM     33  H   UNL A   1      46.059  28.802  27.632  1.00  0.00     0.167 HD
ATOM     34  C   UNL A   1      47.209  26.330  26.768  1.00  0.00     0.074 A 
ATOM     35  C   UNL A   1      47.349  24.946  26.355  1.00  0.00     0.031 C 
ATOM     36  C   UNL A   1      48.226  27.225  26.805  1.00  0.00     0.037 A 
BRANCH  23  37
ATOM     37  C   UNL A   1      46.597  32.922  28.618  1.00  0.00     0.058 A 
ATOM     38  C   UNL A   1      46.651  33.900  27.609  1.00  0.00     0.135 A 
ATOM     39  C   UNL A   1      46.947  33.303  29.921  1.00  0.00     0.135 A 
ATOM     40  F   UNL A   1      46.357  33.580  26.339  1.00  0.00    -0.206 F 
ATOM     41  C   UNL A   1      47.063  35.200  27.881  1.00  0.00     0.059 A 
ATOM     42  C   UNL A   1      47.336  34.605  30.220  1.00  0.00     0.059 A 
ATOM     43  F   UNL A   1      46.925  32.404  30.917  1.00  0.00    -0.206 F 
ATOM     44  C   UNL A   1      47.405  35.542  29.190  1.00  0.00     0.060 A 
BRANCH  44  45
ATOM     45  S   UNL A   1      47.941  37.233  29.524  1.00  0.00     0.124 S 
ATOM     46  O   UNL A   1      46.707  37.980  29.297  1.00  0.00    -0.237 OA
ATOM     47  O   UNL A   1      48.384  37.149  30.912  1.00  0.00    -0.237 OA
ATOM     48  O   UNL A   1      48.999  37.455  28.544  1.00  0.00    -0.744 OA
ENDBRANCH  44  45
ENDBRANCH  23  37
BRANCH  24  49
ATOM     49  C   UNL A   1      43.432  23.557  26.986  1.00  0.00     0.058 A 
ATOM     50  C   UNL A   1      43.087  23.161  25.690  1.00  0.00     0.135 A 
ATOM     51  C   UNL A   1      43.289  22.618  28.016  1.00  0.00     0.135 A 
ATOM     52  F   UNL A   1      43.158  24.039  24.679  1.00  0.00    -0.206 F 
ATOM     53  C   UNL A   1      42.642  21.867  25.421  1.00  0.00     0.059 A 
ATOM     54  C   UNL A   1      42.875  21.311  27.771  1.00  0.00     0.059 A 
ATOM     55  F   UNL A   1      43.547  22.984  29.279  1.00  0.00    -0.206 F 
ATOM     56  C   UNL A   1      42.551  20.944  26.466  1.00  0.00     0.060 A 
BRANCH  56  57
ATOM     57  S   UNL A   1      42.058  19.244  26.099  1.00  0.00     0.124 S 
ATOM     58  O   UNL A   1      42.853  18.955  24.910  1.00  0.00    -0.237 OA
ATOM     59  O   UNL A   1      42.451  18.532  27.312  1.00  0.00    -0.237 OA
ATOM     60  O   UNL A   1      40.617  19.343  25.883  1.00  0.00    -0.744 OA
ENDBRANCH  56  57
ENDBRANCH  24  49
BRANCH  36  61
ATOM     61  C   UNL A   1      49.589  26.715  26.448  1.00  0.00     0.058 A 
ATOM     62  C   UNL A   1      50.399  26.049  27.380  1.00  0.00     0.135 A 
ATOM     63  C   UNL A   1      50.071  26.868  25.138  1.00  0.00     0.135 A 
ATOM     64  F   UNL A   1      49.985  25.894  28.647  1.00  0.00    -0.206 F 
ATOM     65  C   UNL A   1      51.654  25.569  27.029  1.00  0.00     0.059 A 
ATOM     66  C   UNL A   1      51.310  26.367  24.758  1.00  0.00     0.059 A 
ATOM     67  F   UNL A   1      49.330  27.495  24.212  1.00  0.00    -0.206 F 
ATOM     68  C   UNL A   1      52.098  25.729  25.714  1.00  0.00     0.060 A 
BRANCH  68  69
ATOM     69  S   UNL A   1      53.712  25.065  25.261  1.00  0.00     0.124 S 
ATOM     70  O   UNL A   1      53.461  23.629  25.302  1.00  0.00    -0.237 OA
ATOM     71  O   UNL A   1      53.921  25.636  23.934  1.00  0.00    -0.237 OA
ATOM     72  O   UNL A   1      54.595  25.579  26.304  1.00  0.00    -0.744 OA
ENDBRANCH  68  69
ENDBRANCH  36  61
ENDBRANCH  10  11
ENDBRANCH   3   5
ENDBRANCH   2   3
ENDBRANCH   1   2
BRANCH   1  73
ATOM     73  C   UNL A   1      34.726  31.605  27.917  1.00  0.00     0.275 C 
BRANCH  73  74
ATOM     74  O   UNL A   1      33.807  30.540  27.639  1.00  0.00    -0.458 OA
BRANCH  74  75
ATOM     75  C   UNL A   1      34.379  29.357  27.290  1.00  0.00     0.338 C 
ATOM     76  O   UNL A   1      35.498  28.972  27.589  1.00  0.00    -0.246 OA
BRANCH  75  77
ATOM     77  C   UNL A   1      33.388  28.523  26.579  1.00  0.00     0.062 A 
ATOM     78  C   UNL A   1      32.257  28.066  27.253  1.00  0.00     0.016 A 
ATOM     79  C   UNL A   1      33.571  28.189  25.241  1.00  0.00     0.041 A 
ATOM     80  C   UNL A   1      31.294  27.316  26.565  1.00  0.00     0.003 A 
ATOM     81  C   UNL A   1      32.640  27.378  24.570  1.00  0.00     0.042 A 
ATOM     82  C   UNL A   1      31.487  26.961  25.222  1.00  0.00     0.026 A 
BRANCH  81  83
ATOM     83  N   UNL A   1      33.005  27.048  23.275  1.00  0.00    -0.321 N 
ATOM     84  C   UNL A   1      33.426  25.967  22.576  1.00  0.00     0.272 C 
ATOM     85  H   UNL A   1      32.938  27.835  22.688  1.00  0.00     0.170 HD
ATOM     86  O   UNL A   1      33.795  26.255  21.432  1.00  0.00    -0.267 OA
BRANCH  84  87
ATOM     87  C   UNL A   1      33.634  24.639  23.083  1.00  0.00     0.105 A 
ATOM     88  C   UNL A   1      34.474  24.195  24.103  1.00  0.00     0.042 A 
ATOM     89  N   UNL A   1      32.540  23.789  23.130  1.00  0.00    -0.351 N 
ATOM     90  C   UNL A   1      33.593  23.579  25.068  1.00  0.00     0.000 A 
ATOM     91  C   UNL A   1      32.348  23.463  24.456  1.00  0.00     0.046 A 
ATOM     92  H   UNL A   1      32.005  23.477  22.365  1.00  0.00     0.167 HD
ATOM     93  C   UNL A   1      33.681  23.311  26.450  1.00  0.00     0.010 A 
ATOM     94  C   UNL A   1      31.161  23.210  25.147  1.00  0.00     0.026 A 
ATOM     95  C   UNL A   1      32.495  23.088  27.171  1.00  0.00     0.001 A 
ATOM     96  C   UNL A   1      31.256  23.072  26.531  1.00  0.00     0.002 A 
ENDBRANCH  84  87
ENDBRANCH  81  83
ENDBRANCH  75  77
ENDBRANCH  74  75
ENDBRANCH  73  74
ENDBRANCH   1  73
TORSDOF 16
ENDMDL
MODEL 3
REMARK VINA RESULT:     -10.9      5.355     12.133
REMARK SMILES O=C(OCCOC(=O)c1cccc(NC(=O)c2cc3ccccc3[nH]2)c1)c1ccc(-c2c3nc(c(-c4c(F)cc(S(=O)(=O)[O-])cc4F)c4ccc([nH]4)c(-c4c(F)cc(S(=O)(=O)[O-])cc4F)c4nc(c(-c5c(F)cc(S(=O)(=O)[O-])cc5F)c5ccc2[nH]5)C=C4)C=C3)cc1
REMARK SMILES IDX 4 1 3 2 2 3 1 4 27 5 28 6 92 7 29 8 91 9 30 10 31 11 32 12
REMARK SMILES IDX 85 13 33 14 90 15 84 16 86 17 34 18 89 19 83 20 82 21 35 23
REMARK SMILES IDX 69 24 48 25 68 26 49 27 52 28 67 29 87 30 50 31 51 32 66 34
REMARK SMILES IDX 88 35 53 36 36 37 37 38 46 39 38 40 39 41 45 42 47 43 40 44
REMARK SMILES IDX 41 45 42 46 43 47 44 48 70 49 71 50 80 51 72 52 73 53 79 54
REMARK SMILES IDX 81 55 74 56 75 57 76 58 77 59 78 60 54 61 55 62 64 63 56 64
REMARK SMILES IDX 57 65 63 66 65 67 58 68 59 69 60 70 61 71 62 72 5 73 6 74
REMARK SMILES IDX 7 75 8 76 9 77 10 78 26 79 11 80 13 81 12 82 14 83 15 84
REMARK SMILES IDX 16 86 17 87 18 88 25 89 19 90 24 91 20 93 23 94 21 95 22 96
REMARK H PARENT 86 22 52 33 14 85 25 92
REMARK Flexibility Score: inf
ROOT
ATOM      1  C   UNL A   1      39.158  22.987  26.555  1.00  0.00     0.275 C 
ENDROOT
BRANCH   1   2
ATOM      2  O   UNL A   1      40.461  23.592  26.624  1.00  0.00    -0.458 OA
BRANCH   2   3
ATOM      3  C   UNL A   1      40.828  24.896  26.597  1.00  0.00     0.338 C 
ATOM      4  O   UNL A   1      41.453  25.302  25.617  1.00  0.00    -0.246 OA
BRANCH   3   5
ATOM      5  C   UNL A   1      40.634  25.850  27.738  1.00  0.00     0.060 A 
ATOM      6  C   UNL A   1      39.556  25.867  28.626  1.00  0.00     0.016 A 
ATOM      7  C   UNL A   1      41.653  26.802  27.935  1.00  0.00     0.016 A 
ATOM      8  C   UNL A   1      39.523  26.744  29.713  1.00  0.00     0.010 A 
ATOM      9  C   UNL A   1      41.635  27.674  29.029  1.00  0.00     0.010 A 
ATOM     10  C   UNL A   1      40.560  27.650  29.924  1.00  0.00    -0.014 A 
BRANCH  10  11
ATOM     11  C   UNL A   1      40.413  28.687  30.969  1.00  0.00     0.031 A 
ATOM     12  C   UNL A   1      41.244  28.554  32.211  1.00  0.00     0.074 A 
ATOM     13  C   UNL A   1      39.629  29.766  30.781  1.00  0.00     0.049 A 
ATOM     14  N   UNL A   1      41.299  29.338  33.252  1.00  0.00    -0.248 NA
ATOM     15  C   UNL A   1      42.165  27.405  32.269  1.00  0.00     0.031 C 
ATOM     16  C   UNL A   1      38.880  30.066  29.562  1.00  0.00     0.029 A 
ATOM     17  N   UNL A   1      39.318  30.807  31.618  1.00  0.00    -0.354 N 
ATOM     18  C   UNL A   1      42.294  28.809  34.062  1.00  0.00     0.074 A 
ATOM     19  C   UNL A   1      42.756  27.590  33.439  1.00  0.00     0.031 C 
ATOM     20  C   UNL A   1      38.131  31.165  29.760  1.00  0.00     0.029 A 
ATOM     21  C   UNL A   1      38.350  31.648  31.115  1.00  0.00     0.049 A 
ATOM     22  H   UNL A   1      39.746  30.941  32.495  1.00  0.00     0.167 HD
ATOM     23  C   UNL A   1      42.808  29.325  35.200  1.00  0.00     0.037 A 
ATOM     24  C   UNL A   1      37.698  32.670  31.700  1.00  0.00     0.037 A 
ATOM     25  C   UNL A   1      42.319  30.528  35.816  1.00  0.00     0.049 A 
ATOM     26  C   UNL A   1      38.123  33.093  33.071  1.00  0.00     0.074 A 
ATOM     27  C   UNL A   1      42.760  31.146  36.970  1.00  0.00     0.029 A 
ATOM     28  N   UNL A   1      41.260  31.284  35.333  1.00  0.00    -0.354 N 
ATOM     29  N   UNL A   1      39.069  32.588  33.826  1.00  0.00    -0.248 NA
ATOM     30  C   UNL A   1      37.431  34.250  33.649  1.00  0.00     0.031 C 
ATOM     31  C   UNL A   1      41.929  32.244  37.217  1.00  0.00     0.029 A 
ATOM     32  C   UNL A   1      41.008  32.344  36.186  1.00  0.00     0.049 A 
ATOM     33  H   UNL A   1      40.762  31.095  34.506  1.00  0.00     0.167 HD
ATOM     34  C   UNL A   1      39.127  33.401  34.947  1.00  0.00     0.074 A 
ATOM     35  C   UNL A   1      38.101  34.414  34.782  1.00  0.00     0.031 C 
ATOM     36  C   UNL A   1      39.976  33.335  36.001  1.00  0.00     0.037 A 
BRANCH  23  37
ATOM     37  C   UNL A   1      43.940  28.575  35.840  1.00  0.00     0.058 A 
ATOM     38  C   UNL A   1      43.709  27.539  36.761  1.00  0.00     0.135 A 
ATOM     39  C   UNL A   1      45.270  28.905  35.544  1.00  0.00     0.135 A 
ATOM     40  F   UNL A   1      42.454  27.204  37.104  1.00  0.00    -0.206 F 
ATOM     41  C   UNL A   1      44.759  26.873  37.385  1.00  0.00     0.059 A 
ATOM     42  C   UNL A   1      46.336  28.234  36.136  1.00  0.00     0.059 A 
ATOM     43  F   UNL A   1      45.545  29.896  34.682  1.00  0.00    -0.206 F 
ATOM     44  C   UNL A   1      46.070  27.230  37.066  1.00  0.00     0.060 A 
BRANCH  44  45
ATOM     45  S   UNL A   1      47.421  26.360  37.887  1.00  0.00     0.124 S 
ATOM     46  O   UNL A   1      46.834  25.039  38.094  1.00  0.00    -0.237 OA
ATOM     47  O   UNL A   1      48.486  26.431  36.892  1.00  0.00    -0.237 OA
ATOM     48  O   UNL A   1      47.645  27.143  39.098  1.00  0.00    -0.744 OA
ENDBRANCH  44  45
ENDBRANCH  23  37
BRANCH  24  49
ATOM     49  C   UNL A   1      36.550  33.330  31.029  1.00  0.00     0.058 A 
ATOM     50  C   UNL A   1      35.227  33.156  31.449  1.00  0.00     0.135 A 
ATOM     51  C   UNL A   1      36.778  34.146  29.913  1.00  0.00     0.135 A 
ATOM     52  F   UNL A   1      34.953  32.344  32.480  1.00  0.00    -0.206 F 
ATOM     53  C   UNL A   1      34.170  33.793  30.801  1.00  0.00     0.059 A 
ATOM     54  C   UNL A   1      35.745  34.818  29.266  1.00  0.00     0.059 A 
ATOM     55  F   UNL A   1      38.026  34.281  29.443  1.00  0.00    -0.206 F 
ATOM     56  C   UNL A   1      34.439  34.634  29.717  1.00  0.00     0.060 A 
BRANCH  56  57
ATOM     57  S   UNL A   1      33.075  35.526  28.935  1.00  0.00     0.124 S 
ATOM     58  O   UNL A   1      33.785  36.570  28.203  1.00  0.00    -0.237 OA
ATOM     59  O   UNL A   1      32.449  34.492  28.116  1.00  0.00    -0.237 OA
ATOM     60  O   UNL A   1      32.272  35.985  30.065  1.00  0.00    -0.744 OA
ENDBRANCH  56  57
ENDBRANCH  24  49
BRANCH  36  61
ATOM     61  C   UNL A   1      39.870  34.425  37.024  1.00  0.00     0.058 A 
ATOM     62  C   UNL A   1      40.556  35.640  36.886  1.00  0.00     0.135 A 
ATOM     63  C   UNL A   1      39.037  34.255  38.141  1.00  0.00     0.135 A 
ATOM     64  F   UNL A   1      41.376  35.840  35.842  1.00  0.00    -0.206 F 
ATOM     65  C   UNL A   1      40.435  36.646  37.836  1.00  0.00     0.059 A 
ATOM     66  C   UNL A   1      38.877  35.261  39.086  1.00  0.00     0.059 A 
ATOM     67  F   UNL A   1      38.358  33.110  38.313  1.00  0.00    -0.206 F 
ATOM     68  C   UNL A   1      39.589  36.448  38.930  1.00  0.00     0.060 A 
BRANCH  68  69
ATOM     69  S   UNL A   1      39.410  37.778  40.134  1.00  0.00     0.124 S 
ATOM     70  O   UNL A   1      40.683  38.475  39.994  1.00  0.00    -0.237 OA
ATOM     71  O   UNL A   1      38.237  38.491  39.637  1.00  0.00    -0.237 OA
ATOM     72  O   UNL A   1      39.216  37.070  41.395  1.00  0.00    -0.744 OA
ENDBRANCH  68  69
ENDBRANCH  36  61
ENDBRANCH  10  11
ENDBRANCH   3   5
ENDBRANCH   2   3
ENDBRANCH   1   2
BRANCH   1  73
ATOM     73  C   UNL A   1      38.156  23.703  25.643  1.00  0.00     0.275 C 
BRANCH  73  74
ATOM     74  O   UNL A   1      36.968  22.942  25.385  1.00  0.00    -0.458 OA
BRANCH  74  75
ATOM     75  C   UNL A   1      35.800  23.570  25.687  1.00  0.00     0.338 C 
ATOM     76  O   UNL A   1      35.661  24.744  25.993  1.00  0.00    -0.246 OA
BRANCH  75  77
ATOM     77  C   UNL A   1      34.672  22.640  25.472  1.00  0.00     0.062 A 
ATOM     78  C   UNL A   1      34.798  21.600  24.553  1.00  0.00     0.016 A 
ATOM     79  C   UNL A   1      33.483  22.792  26.179  1.00  0.00     0.041 A 
ATOM     80  C   UNL A   1      33.746  20.691  24.386  1.00  0.00     0.003 A 
ATOM     81  C   UNL A   1      32.402  21.921  25.959  1.00  0.00     0.042 A 
ATOM     82  C   UNL A   1      32.539  20.853  25.083  1.00  0.00     0.026 A 
BRANCH  81  83
ATOM     83  N   UNL A   1      31.255  22.255  26.659  1.00  0.00    -0.321 N 
ATOM     84  C   UNL A   1      30.346  23.258  26.713  1.00  0.00     0.272 C 
ATOM     85  H   UNL A   1      31.033  21.553  27.313  1.00  0.00     0.170 HD
ATOM     86  O   UNL A   1      29.574  23.150  27.671  1.00  0.00    -0.267 OA
BRANCH  84  87
ATOM     87  C   UNL A   1      30.326  24.448  25.908  1.00  0.00     0.105 A 
ATOM     88  C   UNL A   1      30.987  25.661  26.093  1.00  0.00     0.042 A 
ATOM     89  N   UNL A   1      30.247  24.294  24.533  1.00  0.00    -0.351 N 
ATOM     90  C   UNL A   1      31.806  25.821  24.913  1.00  0.00     0.000 A 
ATOM     91  C   UNL A   1      31.392  24.851  24.005  1.00  0.00     0.046 A 
ATOM     92  H   UNL A   1      29.514  23.871  24.030  1.00  0.00     0.167 HD
ATOM     93  C   UNL A   1      32.980  26.546  24.621  1.00  0.00     0.010 A 
ATOM     94  C   UNL A   1      32.129  24.472  22.880  1.00  0.00     0.026 A 
ATOM     95  C   UNL A   1      33.754  26.160  23.514  1.00  0.00     0.001 A 
ATOM     96  C   UNL A   1      33.348  25.118  22.680  1.00  0.00     0.002 A 
ENDBRANCH  84  87
ENDBRANCH  81  83
ENDBRANCH  75  77
ENDBRANCH  74  75
ENDBRANCH  73  74
ENDBRANCH   1  73
TORSDOF 16
ENDMDL
