MODEL 1
REMARK VINA RESULT:      -9.4      0.000      0.000
REMARK SMILES Cc1ccc(OCCC[N@H+]2CCCC[C@@H]2C(=O)OCCOC(=O)c2ccc(-c3c4nc(c(-c5c(F)cc(S(=O)(=O)[O-])cc5F)c5ccc([nH]5)c(-c5c(F)cc(S(=O)(=O)[O-])cc5F)c5nc(c(-c6c(F)cc(S(=O)(=O)[O-])cc6F)c6ccc3[nH]6)C=C5)C=C4)cc2)cc1C
REMARK SMILES IDX 19 1 18 2 16 3 17 4 15 5 10 6 11 7 12 9 14 10 13 11 9 12
REMARK SMILES IDX 8 13 7 14 6 15 5 16 1 17 2 18 3 19 91 20 4 21 90 22 92 23
REMARK SMILES IDX 20 24 21 25 22 26 23 27 24 28 25 29 89 30 26 31 88 32 27 33
REMARK SMILES IDX 28 34 29 35 82 36 30 37 87 38 81 39 83 40 31 41 86 42 80 43
REMARK SMILES IDX 79 44 32 46 66 47 45 48 65 49 46 50 49 51 64 52 84 53 47 54
REMARK SMILES IDX 48 55 63 57 85 58 50 59 33 60 34 61 43 62 35 63 36 64 42 65
REMARK SMILES IDX 44 66 37 67 38 68 39 69 40 70 41 71 67 72 68 73 77 74 69 75
REMARK SMILES IDX 70 76 76 77 78 78 71 79 72 80 73 81 74 82 75 83 51 84 52 85
REMARK SMILES IDX 61 86 53 87 54 88 60 89 62 90 55 91 56 92 57 93 58 94 59 95
REMARK H PARENT 10 8 83 45 49 56
REMARK Flexibility Score: inf
ROOT
ATOM      1  C   UNL A   1      34.149  34.299  28.529  1.00  0.00     0.274 C 
ENDROOT
BRANCH   1   2
ATOM      2  O   UNL A   1      34.232  34.387  29.966  1.00  0.00    -0.458 OA
BRANCH   2   3
ATOM      3  C   UNL A   1      34.937  33.391  30.566  1.00  0.00     0.365 C 
ATOM      4  O   UNL A   1      34.421  32.403  31.075  1.00  0.00    -0.245 OA
BRANCH   3   5
ATOM      5  C   UNL A   1      36.454  33.585  30.558  1.00  0.00     0.295 C 
ATOM      6  N   UNL A   1      36.917  34.690  31.462  1.00  0.00    -0.323 N 
ATOM      7  C   UNL A   1      38.402  34.753  31.407  1.00  0.00     0.262 C 
ATOM      8  H   UNL A   1      36.486  35.560  31.147  1.00  0.00     0.348 HD
ATOM      9  C   UNL A   1      38.975  34.891  29.995  1.00  0.00     0.062 C 
ATOM     10  C   UNL A   1      36.957  33.753  29.118  1.00  0.00     0.078 C 
ATOM     11  C   UNL A   1      38.475  33.780  29.083  1.00  0.00     0.013 C 
BRANCH   6  12
ATOM     12  C   UNL A   1      36.525  34.444  32.879  1.00  0.00     0.266 C 
BRANCH  12  13
ATOM     13  C   UNL A   1      37.718  34.350  33.847  1.00  0.00     0.103 C 
BRANCH  13  14
ATOM     14  C   UNL A   1      37.802  33.052  34.659  1.00  0.00     0.235 C 
BRANCH  14  15
ATOM     15  O   UNL A   1      37.323  31.913  33.909  1.00  0.00    -0.493 OA
BRANCH  15  16
ATOM     16  C   UNL A   1      38.283  30.943  33.798  1.00  0.00     0.119 A 
ATOM     17  C   UNL A   1      41.466  28.164  33.019  1.00  0.00     0.044 C 
ATOM     18  C   UNL A   1      40.300  29.053  33.352  1.00  0.00    -0.048 A 
ATOM     19  C   UNL A   1      40.552  30.214  34.099  1.00  0.00     0.007 A 
ATOM     20  C   UNL A   1      38.979  28.768  32.953  1.00  0.00    -0.045 A 
ATOM     21  C   UNL A   1      39.543  31.142  34.341  1.00  0.00     0.047 A 
ATOM     22  C   UNL A   1      37.975  29.732  33.177  1.00  0.00     0.050 A 
ATOM     23  C   UNL A   1      38.602  27.447  32.341  1.00  0.00     0.045 C 
ENDBRANCH  15  16
ENDBRANCH  14  15
ENDBRANCH  13  14
ENDBRANCH  12  13
ENDBRANCH   6  12
ENDBRANCH   3   5
ENDBRANCH   2   3
ENDBRANCH   1   2
BRANCH   1  24
ATOM     24  C   UNL A   1      33.680  32.928  28.018  1.00  0.00     0.275 C 
BRANCH  24  25
ATOM     25  O   UNL A   1      34.771  32.095  27.581  1.00  0.00    -0.458 OA
BRANCH  25  26
ATOM     26  C   UNL A   1      34.622  30.777  27.860  1.00  0.00     0.338 C 
ATOM     27  O   UNL A   1      33.580  30.144  27.816  1.00  0.00    -0.246 OA
BRANCH  26  28
ATOM     28  C   UNL A   1      35.933  30.124  28.061  1.00  0.00     0.060 A 
ATOM     29  C   UNL A   1      36.215  29.657  29.350  1.00  0.00     0.016 A 
ATOM     30  C   UNL A   1      36.900  30.034  27.058  1.00  0.00     0.016 A 
ATOM     31  C   UNL A   1      37.463  29.123  29.653  1.00  0.00     0.010 A 
ATOM     32  C   UNL A   1      38.167  29.515  27.367  1.00  0.00     0.010 A 
ATOM     33  C   UNL A   1      38.464  29.095  28.677  1.00  0.00    -0.014 A 
BRANCH  33  34
ATOM     34  C   UNL A   1      39.860  28.859  29.129  1.00  0.00     0.031 A 
ATOM     35  C   UNL A   1      40.508  27.548  28.765  1.00  0.00     0.074 A 
ATOM     36  C   UNL A   1      40.574  29.819  29.744  1.00  0.00     0.049 A 
ATOM     37  N   UNL A   1      41.736  27.146  28.964  1.00  0.00    -0.248 NA
ATOM     38  C   UNL A   1      39.658  26.560  28.079  1.00  0.00     0.031 C 
ATOM     39  C   UNL A   1      40.075  31.139  30.124  1.00  0.00     0.029 A 
ATOM     40  N   UNL A   1      41.887  29.828  30.148  1.00  0.00    -0.354 N 
ATOM     41  C   UNL A   1      41.802  25.861  28.439  1.00  0.00     0.074 A 
ATOM     42  C   UNL A   1      40.486  25.536  27.937  1.00  0.00     0.031 C 
ATOM     43  C   UNL A   1      41.070  31.828  30.715  1.00  0.00     0.029 A 
ATOM     44  C   UNL A   1      42.273  30.998  30.759  1.00  0.00     0.049 A 
ATOM     45  H   UNL A   1      42.496  29.067  30.012  1.00  0.00     0.167 HD
ATOM     46  C   UNL A   1      42.868  25.029  28.362  1.00  0.00     0.037 A 
ATOM     47  C   UNL A   1      43.459  31.352  31.293  1.00  0.00     0.037 A 
ATOM     48  C   UNL A   1      44.186  25.355  28.832  1.00  0.00     0.049 A 
ATOM     49  C   UNL A   1      44.627  30.398  31.208  1.00  0.00     0.074 A 
ATOM     50  C   UNL A   1      45.335  24.588  28.769  1.00  0.00     0.029 A 
ATOM     51  N   UNL A   1      44.532  26.546  29.450  1.00  0.00    -0.354 N 
ATOM     52  N   UNL A   1      44.683  29.205  30.664  1.00  0.00    -0.248 NA
ATOM     53  C   UNL A   1      45.898  30.846  31.797  1.00  0.00     0.031 C 
ATOM     54  C   UNL A   1      46.370  25.300  29.383  1.00  0.00     0.029 A 
ATOM     55  C   UNL A   1      45.874  26.528  29.789  1.00  0.00     0.049 A 
ATOM     56  H   UNL A   1      43.916  27.294  29.623  1.00  0.00     0.167 HD
ATOM     57  C   UNL A   1      46.000  28.777  30.818  1.00  0.00     0.074 A 
ATOM     58  C   UNL A   1      46.709  29.844  31.490  1.00  0.00     0.031 C 
ATOM     59  C   UNL A   1      46.572  27.607  30.439  1.00  0.00     0.037 A 
BRANCH  46  60
ATOM     60  C   UNL A   1      42.646  23.673  27.758  1.00  0.00     0.058 A 
ATOM     61  C   UNL A   1      42.705  23.464  26.372  1.00  0.00     0.135 A 
ATOM     62  C   UNL A   1      42.416  22.561  28.583  1.00  0.00     0.135 A 
ATOM     63  F   UNL A   1      42.899  24.500  25.539  1.00  0.00    -0.206 F 
ATOM     64  C   UNL A   1      42.531  22.199  25.822  1.00  0.00     0.059 A 
ATOM     65  C   UNL A   1      42.260  21.283  28.056  1.00  0.00     0.059 A 
ATOM     66  F   UNL A   1      42.341  22.710  29.915  1.00  0.00    -0.206 F 
ATOM     67  C   UNL A   1      42.312  21.114  26.673  1.00  0.00     0.060 A 
BRANCH  67  68
ATOM     68  S   UNL A   1      42.118  19.473  25.947  1.00  0.00     0.124 S 
ATOM     69  O   UNL A   1      40.679  19.430  25.705  1.00  0.00    -0.237 OA
ATOM     70  O   UNL A   1      42.958  19.558  24.756  1.00  0.00    -0.237 OA
ATOM     71  O   UNL A   1      42.607  18.579  26.992  1.00  0.00    -0.744 OA
ENDBRANCH  67  68
ENDBRANCH  46  60
BRANCH  47  72
ATOM     72  C   UNL A   1      43.621  32.665  31.976  1.00  0.00     0.058 A 
ATOM     73  C   UNL A   1      43.554  32.777  33.373  1.00  0.00     0.135 A 
ATOM     74  C   UNL A   1      43.776  33.846  31.235  1.00  0.00     0.135 A 
ATOM     75  F   UNL A   1      43.396  31.677  34.126  1.00  0.00    -0.206 F 
ATOM     76  C   UNL A   1      43.590  34.014  34.010  1.00  0.00     0.059 A 
ATOM     77  C   UNL A   1      43.841  35.093  31.849  1.00  0.00     0.059 A 
ATOM     78  F   UNL A   1      43.856  33.795  29.896  1.00  0.00    -0.206 F 
ATOM     79  C   UNL A   1      43.725  35.169  33.236  1.00  0.00     0.060 A 
BRANCH  79  80
ATOM     80  S   UNL A   1      43.764  36.774  34.064  1.00  0.00     0.124 S 
ATOM     81  O   UNL A   1      45.149  36.836  34.516  1.00  0.00    -0.237 OA
ATOM     82  O   UNL A   1      43.404  37.687  32.985  1.00  0.00    -0.237 OA
ATOM     83  O   UNL A   1      42.761  36.631  35.115  1.00  0.00    -0.744 OA
ENDBRANCH  79  80
ENDBRANCH  47  72
BRANCH  59  84
ATOM     84  C   UNL A   1      48.043  27.435  30.701  1.00  0.00     0.058 A 
ATOM     85  C   UNL A   1      49.015  27.901  29.802  1.00  0.00     0.135 A 
ATOM     86  C   UNL A   1      48.487  26.830  31.889  1.00  0.00     0.135 A 
ATOM     87  F   UNL A   1      48.645  28.488  28.652  1.00  0.00    -0.206 F 
ATOM     88  C   UNL A   1      50.374  27.739  30.052  1.00  0.00     0.059 A 
ATOM     89  C   UNL A   1      49.840  26.683  32.173  1.00  0.00     0.059 A 
ATOM     90  F   UNL A   1      47.599  26.383  32.793  1.00  0.00    -0.206 F 
ATOM     91  C   UNL A   1      50.777  27.124  31.239  1.00  0.00     0.060 A 
BRANCH  91  92
ATOM     92  S   UNL A   1      52.543  26.926  31.561  1.00  0.00     0.124 S 
ATOM     93  O   UNL A   1      53.102  27.066  30.221  1.00  0.00    -0.237 OA
ATOM     94  O   UNL A   1      52.821  28.022  32.483  1.00  0.00    -0.237 OA
ATOM     95  O   UNL A   1      52.632  25.589  32.143  1.00  0.00    -0.744 OA
ENDBRANCH  91  92
ENDBRANCH  59  84
ENDBRANCH  33  34
ENDBRANCH  26  28
ENDBRANCH  25  26
ENDBRANCH  24  25
ENDBRANCH   1  24
TORSDOF 19
ENDMDL
MODEL 2
REMARK VINA RESULT:      -9.2      4.372     10.021
REMARK SMILES Cc1ccc(OCCC[N@H+]2CCCC[C@@H]2C(=O)OCCOC(=O)c2ccc(-c3c4nc(c(-c5c(F)cc(S(=O)(=O)[O-])cc5F)c5ccc([nH]5)c(-c5c(F)cc(S(=O)(=O)[O-])cc5F)c5nc(c(-c6c(F)cc(S(=O)(=O)[O-])cc6F)c6ccc3[nH]6)C=C5)C=C4)cc2)cc1C
REMARK SMILES IDX 19 1 18 2 16 3 17 4 15 5 10 6 11 7 12 9 14 10 13 11 9 12
REMARK SMILES IDX 8 13 7 14 6 15 5 16 1 17 2 18 3 19 91 20 4 21 90 22 92 23
REMARK SMILES IDX 20 24 21 25 22 26 23 27 24 28 25 29 89 30 26 31 88 32 27 33
REMARK SMILES IDX 28 34 29 35 82 36 30 37 87 38 81 39 83 40 31 41 86 42 80 43
REMARK SMILES IDX 79 44 32 46 66 47 45 48 65 49 46 50 49 51 64 52 84 53 47 54
REMARK SMILES IDX 48 55 63 57 85 58 50 59 33 60 34 61 43 62 35 63 36 64 42 65
REMARK SMILES IDX 44 66 37 67 38 68 39 69 40 70 41 71 67 72 68 73 77 74 69 75
REMARK SMILES IDX 70 76 76 77 78 78 71 79 72 80 73 81 74 82 75 83 51 84 52 85
REMARK SMILES IDX 61 86 53 87 54 88 60 89 62 90 55 91 56 92 57 93 58 94 59 95
REMARK H PARENT 10 8 83 45 49 56
REMARK Flexibility Score: inf
ROOT
ATOM      1  C   UNL A   1      31.760  29.543  25.828  1.00  0.00     0.274 C 
ENDROOT
BRANCH   1   2
ATOM      2  O   UNL A   1      32.577  29.462  24.643  1.00  0.00    -0.458 OA
BRANCH   2   3
ATOM      3  C   UNL A   1      31.911  29.140  23.502  1.00  0.00     0.365 C 
ATOM      4  O   UNL A   1      32.460  28.952  22.423  1.00  0.00    -0.245 OA
BRANCH   3   5
ATOM      5  C   UNL A   1      30.395  29.015  23.660  1.00  0.00     0.295 C 
ATOM      6  N   UNL A   1      29.845  27.729  23.112  1.00  0.00    -0.323 N 
ATOM      7  C   UNL A   1      28.378  27.700  23.362  1.00  0.00     0.262 C 
ATOM      8  H   UNL A   1      30.064  27.688  22.117  1.00  0.00     0.348 HD
ATOM      9  C   UNL A   1      27.624  28.919  22.827  1.00  0.00     0.062 C 
ATOM     10  C   UNL A   1      29.699  30.250  23.070  1.00  0.00     0.078 C 
ATOM     11  C   UNL A   1      28.211  30.215  23.367  1.00  0.00     0.013 C 
BRANCH   6  12
ATOM     12  C   UNL A   1      30.444  26.542  23.787  1.00  0.00     0.266 C 
BRANCH  12  13
ATOM     13  C   UNL A   1      29.869  26.266  25.187  1.00  0.00     0.103 C 
BRANCH  13  14
ATOM     14  C   UNL A   1      30.294  24.936  25.820  1.00  0.00     0.235 C 
BRANCH  14  15
ATOM     15  O   UNL A   1      31.254  25.126  26.884  1.00  0.00    -0.493 OA
BRANCH  15  16
ATOM     16  C   UNL A   1      32.519  24.781  26.489  1.00  0.00     0.119 A 
ATOM     17  C   UNL A   1      36.283  23.634  24.763  1.00  0.00     0.044 C 
ATOM     18  C   UNL A   1      35.009  24.005  25.470  1.00  0.00    -0.048 A 
ATOM     19  C   UNL A   1      34.587  25.342  25.402  1.00  0.00     0.007 A 
ATOM     20  C   UNL A   1      34.233  23.078  26.194  1.00  0.00    -0.045 A 
ATOM     21  C   UNL A   1      33.358  25.733  25.930  1.00  0.00     0.047 A 
ATOM     22  C   UNL A   1      32.978  23.481  26.695  1.00  0.00     0.050 A 
ATOM     23  C   UNL A   1      34.728  21.689  26.488  1.00  0.00     0.045 C 
ENDBRANCH  15  16
ENDBRANCH  14  15
ENDBRANCH  13  14
ENDBRANCH  12  13
ENDBRANCH   6  12
ENDBRANCH   3   5
ENDBRANCH   2   3
ENDBRANCH   1   2
BRANCH   1  24
ATOM     24  C   UNL A   1      32.105  30.730  26.739  1.00  0.00     0.275 C 
BRANCH  24  25
ATOM     25  O   UNL A   1      33.257  30.481  27.567  1.00  0.00    -0.458 OA
BRANCH  25  26
ATOM     26  C   UNL A   1      34.019  31.574  27.819  1.00  0.00     0.338 C 
ATOM     27  O   UNL A   1      33.615  32.716  27.966  1.00  0.00    -0.246 OA
BRANCH  26  28
ATOM     28  C   UNL A   1      35.424  31.195  28.080  1.00  0.00     0.060 A 
ATOM     29  C   UNL A   1      35.705  29.826  28.161  1.00  0.00     0.016 A 
ATOM     30  C   UNL A   1      36.432  32.130  28.322  1.00  0.00     0.016 A 
ATOM     31  C   UNL A   1      36.977  29.383  28.505  1.00  0.00     0.010 A 
ATOM     32  C   UNL A   1      37.711  31.685  28.690  1.00  0.00     0.010 A 
ATOM     33  C   UNL A   1      37.976  30.309  28.821  1.00  0.00    -0.014 A 
BRANCH  33  34
ATOM     34  C   UNL A   1      39.187  29.806  29.519  1.00  0.00     0.031 A 
ATOM     35  C   UNL A   1      39.454  30.300  30.917  1.00  0.00     0.074 A 
ATOM     36  C   UNL A   1      39.967  28.852  28.978  1.00  0.00     0.049 A 
ATOM     37  N   UNL A   1      40.387  29.942  31.760  1.00  0.00    -0.248 NA
ATOM     38  C   UNL A   1      38.541  31.333  31.436  1.00  0.00     0.031 C 
ATOM     39  C   UNL A   1      39.800  28.268  27.648  1.00  0.00     0.029 A 
ATOM     40  N   UNL A   1      41.059  28.198  29.496  1.00  0.00    -0.354 N 
ATOM     41  C   UNL A   1      40.180  30.710  32.900  1.00  0.00     0.074 A 
ATOM     42  C   UNL A   1      39.052  31.573  32.635  1.00  0.00     0.031 C 
ATOM     43  C   UNL A   1      40.761  27.347  27.452  1.00  0.00     0.029 A 
ATOM     44  C   UNL A   1      41.615  27.279  28.638  1.00  0.00     0.049 A 
ATOM     45  H   UNL A   1      41.410  28.372  30.398  1.00  0.00     0.167 HD
ATOM     46  C   UNL A   1      40.856  30.687  34.072  1.00  0.00     0.037 A 
ATOM     47  C   UNL A   1      42.688  26.479  28.794  1.00  0.00     0.037 A 
ATOM     48  C   UNL A   1      41.961  29.811  34.354  1.00  0.00     0.049 A 
ATOM     49  C   UNL A   1      43.435  26.486  30.107  1.00  0.00     0.074 A 
ATOM     50  C   UNL A   1      42.688  29.695  35.525  1.00  0.00     0.029 A 
ATOM     51  N   UNL A   1      42.497  28.901  33.457  1.00  0.00    -0.354 N 
ATOM     52  N   UNL A   1      43.195  27.184  31.193  1.00  0.00    -0.248 NA
ATOM     53  C   UNL A   1      44.590  25.582  30.222  1.00  0.00     0.031 C 
ATOM     54  C   UNL A   1      43.689  28.740  35.324  1.00  0.00     0.029 A 
ATOM     55  C   UNL A   1      43.557  28.231  34.043  1.00  0.00     0.049 A 
ATOM     56  H   UNL A   1      42.172  28.753  32.539  1.00  0.00     0.167 HD
ATOM     57  C   UNL A   1      44.148  26.780  32.125  1.00  0.00     0.074 A 
ATOM     58  C   UNL A   1      44.956  25.766  31.483  1.00  0.00     0.031 C 
ATOM     59  C   UNL A   1      44.339  27.209  33.397  1.00  0.00     0.037 A 
BRANCH  46  60
ATOM     60  C   UNL A   1      40.427  31.652  35.139  1.00  0.00     0.058 A 
ATOM     61  C   UNL A   1      39.338  31.384  35.982  1.00  0.00     0.135 A 
ATOM     62  C   UNL A   1      41.145  32.841  35.346  1.00  0.00     0.135 A 
ATOM     63  F   UNL A   1      38.606  30.272  35.808  1.00  0.00    -0.206 F 
ATOM     64  C   UNL A   1      38.967  32.268  36.989  1.00  0.00     0.059 A 
ATOM     65  C   UNL A   1      40.805  33.729  36.361  1.00  0.00     0.059 A 
ATOM     66  F   UNL A   1      42.189  33.147  34.559  1.00  0.00    -0.206 F 
ATOM     67  C   UNL A   1      39.709  33.437  37.172  1.00  0.00     0.060 A 
BRANCH  67  68
ATOM     68  S   UNL A   1      39.234  34.560  38.502  1.00  0.00     0.124 S 
ATOM     69  O   UNL A   1      39.361  35.858  37.847  1.00  0.00    -0.237 OA
ATOM     70  O   UNL A   1      37.870  34.132  38.801  1.00  0.00    -0.237 OA
ATOM     71  O   UNL A   1      40.216  34.285  39.547  1.00  0.00    -0.744 OA
ENDBRANCH  67  68
ENDBRANCH  46  60
BRANCH  47  72
ATOM     72  C   UNL A   1      43.152  25.605  27.681  1.00  0.00     0.058 A 
ATOM     73  C   UNL A   1      42.741  24.268  27.582  1.00  0.00     0.135 A 
ATOM     74  C   UNL A   1      44.074  26.076  26.735  1.00  0.00     0.135 A 
ATOM     75  F   UNL A   1      41.868  23.766  28.470  1.00  0.00    -0.206 F 
ATOM     76  C   UNL A   1      43.260  23.414  26.612  1.00  0.00     0.059 A 
ATOM     77  C   UNL A   1      44.588  25.250  25.739  1.00  0.00     0.059 A 
ATOM     78  F   UNL A   1      44.492  27.350  26.778  1.00  0.00    -0.206 F 
ATOM     79  C   UNL A   1      44.191  23.914  25.699  1.00  0.00     0.060 A 
BRANCH  79  80
ATOM     80  S   UNL A   1      44.868  22.803  24.446  1.00  0.00     0.124 S 
ATOM     81  O   UNL A   1      45.916  23.629  23.858  1.00  0.00    -0.237 OA
ATOM     82  O   UNL A   1      45.322  21.672  25.250  1.00  0.00    -0.237 OA
ATOM     83  O   UNL A   1      43.719  22.531  23.587  1.00  0.00    -0.744 OA
ENDBRANCH  79  80
ENDBRANCH  47  72
BRANCH  59  84
ATOM     84  C   UNL A   1      45.434  26.555  34.194  1.00  0.00     0.058 A 
ATOM     85  C   UNL A   1      46.737  27.075  34.229  1.00  0.00     0.135 A 
ATOM     86  C   UNL A   1      45.164  25.412  34.966  1.00  0.00     0.135 A 
ATOM     87  F   UNL A   1      47.049  28.165  33.511  1.00  0.00    -0.206 F 
ATOM     88  C   UNL A   1      47.745  26.464  34.969  1.00  0.00     0.059 A 
ATOM     89  C   UNL A   1      46.148  24.801  35.736  1.00  0.00     0.059 A 
ATOM     90  F   UNL A   1      43.929  24.884  34.983  1.00  0.00    -0.206 F 
ATOM     91  C   UNL A   1      47.440  25.324  35.717  1.00  0.00     0.060 A 
BRANCH  91  92
ATOM     92  S   UNL A   1      48.751  24.541  36.683  1.00  0.00     0.124 S 
ATOM     93  O   UNL A   1      48.758  25.364  37.886  1.00  0.00    -0.237 OA
ATOM     94  O   UNL A   1      48.252  23.180  36.847  1.00  0.00    -0.237 OA
ATOM     95  O   UNL A   1      49.926  24.671  35.825  1.00  0.00    -0.744 OA
ENDBRANCH  91  92
ENDBRANCH  59  84
ENDBRANCH  33  34
ENDBRANCH  26  28
ENDBRANCH  25  26
ENDBRANCH  24  25
ENDBRANCH   1  24
TORSDOF 19
ENDMDL
MODEL 3
REMARK VINA RESULT:      -9.2      3.131      9.321
REMARK SMILES Cc1ccc(OCCC[N@H+]2CCCC[C@@H]2C(=O)OCCOC(=O)c2ccc(-c3c4nc(c(-c5c(F)cc(S(=O)(=O)[O-])cc5F)c5ccc([nH]5)c(-c5c(F)cc(S(=O)(=O)[O-])cc5F)c5nc(c(-c6c(F)cc(S(=O)(=O)[O-])cc6F)c6ccc3[nH]6)C=C5)C=C4)cc2)cc1C
REMARK SMILES IDX 19 1 18 2 16 3 17 4 15 5 10 6 11 7 12 9 14 10 13 11 9 12
REMARK SMILES IDX 8 13 7 14 6 15 5 16 1 17 2 18 3 19 91 20 4 21 90 22 92 23
REMARK SMILES IDX 20 24 21 25 22 26 23 27 24 28 25 29 89 30 26 31 88 32 27 33
REMARK SMILES IDX 28 34 29 35 82 36 30 37 87 38 81 39 83 40 31 41 86 42 80 43
REMARK SMILES IDX 79 44 32 46 66 47 45 48 65 49 46 50 49 51 64 52 84 53 47 54
REMARK SMILES IDX 48 55 63 57 85 58 50 59 33 60 34 61 43 62 35 63 36 64 42 65
REMARK SMILES IDX 44 66 37 67 38 68 39 69 40 70 41 71 67 72 68 73 77 74 69 75
REMARK SMILES IDX 70 76 76 77 78 78 71 79 72 80 73 81 74 82 75 83 51 84 52 85
REMARK SMILES IDX 61 86 53 87 54 88 60 89 62 90 55 91 56 92 57 93 58 94 59 95
REMARK H PARENT 10 8 83 45 49 56
REMARK Flexibility Score: inf
ROOT
ATOM      1  C   UNL A   1      36.316  32.615  33.801  1.00  0.00     0.274 C 
ENDROOT
BRANCH   1   2
ATOM      2  O   UNL A   1      35.792  33.862  33.302  1.00  0.00    -0.458 OA
BRANCH   2   3
ATOM      3  C   UNL A   1      34.553  33.788  32.747  1.00  0.00     0.365 C 
ATOM      4  O   UNL A   1      34.004  32.735  32.445  1.00  0.00    -0.245 OA
BRANCH   3   5
ATOM      5  C   UNL A   1      33.867  35.137  32.525  1.00  0.00     0.295 C 
ATOM      6  N   UNL A   1      34.070  35.687  31.143  1.00  0.00    -0.323 N 
ATOM      7  C   UNL A   1      33.325  36.970  31.032  1.00  0.00     0.262 C 
ATOM      8  H   UNL A   1      35.072  35.813  30.995  1.00  0.00     0.348 HD
ATOM      9  C   UNL A   1      33.671  37.995  32.113  1.00  0.00     0.062 C 
ATOM     10  C   UNL A   1      34.286  36.128  33.620  1.00  0.00     0.078 C 
ATOM     11  C   UNL A   1      33.488  37.415  33.507  1.00  0.00     0.013 C 
BRANCH   6  12
ATOM     12  C   UNL A   1      33.543  34.763  30.099  1.00  0.00     0.266 C 
BRANCH  12  13
ATOM     13  C   UNL A   1      34.507  34.541  28.920  1.00  0.00     0.103 C 
BRANCH  13  14
ATOM     14  C   UNL A   1      34.687  33.082  28.486  1.00  0.00     0.235 C 
BRANCH  14  15
ATOM     15  O   UNL A   1      33.498  32.554  27.856  1.00  0.00    -0.493 OA
BRANCH  15  16
ATOM     16  C   UNL A   1      33.633  31.226  27.555  1.00  0.00     0.119 A 
ATOM     17  C   UNL A   1      34.188  27.216  26.115  1.00  0.00     0.044 C 
ATOM     18  C   UNL A   1      33.929  28.575  26.703  1.00  0.00    -0.048 A 
ATOM     19  C   UNL A   1      35.030  29.311  27.166  1.00  0.00     0.007 A 
ATOM     20  C   UNL A   1      32.639  29.132  26.813  1.00  0.00    -0.045 A 
ATOM     21  C   UNL A   1      34.880  30.622  27.612  1.00  0.00     0.047 A 
ATOM     22  C   UNL A   1      32.506  30.470  27.236  1.00  0.00     0.050 A 
ATOM     23  C   UNL A   1      31.400  28.323  26.539  1.00  0.00     0.045 C 
ENDBRANCH  15  16
ENDBRANCH  14  15
ENDBRANCH  13  14
ENDBRANCH  12  13
ENDBRANCH   6  12
ENDBRANCH   3   5
ENDBRANCH   2   3
ENDBRANCH   1   2
BRANCH   1  24
ATOM     24  C   UNL A   1      37.645  32.199  33.154  1.00  0.00     0.275 C 
BRANCH  24  25
ATOM     25  O   UNL A   1      37.628  32.320  31.718  1.00  0.00    -0.458 OA
BRANCH  25  26
ATOM     26  C   UNL A   1      37.070  31.269  31.069  1.00  0.00     0.338 C 
ATOM     27  O   UNL A   1      35.876  31.059  30.928  1.00  0.00    -0.246 OA
BRANCH  26  28
ATOM     28  C   UNL A   1      38.098  30.466  30.374  1.00  0.00     0.060 A 
ATOM     29  C   UNL A   1      39.061  29.841  31.175  1.00  0.00     0.016 A 
ATOM     30  C   UNL A   1      38.185  30.381  28.983  1.00  0.00     0.016 A 
ATOM     31  C   UNL A   1      40.123  29.152  30.601  1.00  0.00     0.010 A 
ATOM     32  C   UNL A   1      39.268  29.704  28.401  1.00  0.00     0.010 A 
ATOM     33  C   UNL A   1      40.262  29.122  29.209  1.00  0.00    -0.014 A 
BRANCH  33  34
ATOM     34  C   UNL A   1      41.574  28.697  28.657  1.00  0.00     0.031 A 
ATOM     35  C   UNL A   1      42.680  29.719  28.596  1.00  0.00     0.074 A 
ATOM     36  C   UNL A   1      41.818  27.416  28.324  1.00  0.00     0.049 A 
ATOM     37  N   UNL A   1      43.930  29.570  28.242  1.00  0.00    -0.248 NA
ATOM     38  C   UNL A   1      42.329  31.094  28.992  1.00  0.00     0.031 C 
ATOM     39  C   UNL A   1      40.845  26.326  28.366  1.00  0.00     0.029 A 
ATOM     40  N   UNL A   1      42.976  26.815  27.892  1.00  0.00    -0.354 N 
ATOM     41  C   UNL A   1      44.510  30.827  28.365  1.00  0.00     0.074 A 
ATOM     42  C   UNL A   1      43.472  31.735  28.798  1.00  0.00     0.031 C 
ATOM     43  C   UNL A   1      41.446  25.189  27.968  1.00  0.00     0.029 A 
ATOM     44  C   UNL A   1      42.843  25.471  27.637  1.00  0.00     0.049 A 
ATOM     45  H   UNL A   1      43.823  27.303  27.776  1.00  0.00     0.167 HD
ATOM     46  C   UNL A   1      45.796  31.192  28.155  1.00  0.00     0.037 A 
ATOM     47  C   UNL A   1      43.745  24.576  27.188  1.00  0.00     0.037 A 
ATOM     48  C   UNL A   1      46.840  30.290  27.753  1.00  0.00     0.049 A 
ATOM     49  C   UNL A   1      45.170  25.015  26.946  1.00  0.00     0.074 A 
ATOM     50  C   UNL A   1      48.180  30.564  27.546  1.00  0.00     0.029 A 
ATOM     51  N   UNL A   1      46.662  28.939  27.499  1.00  0.00    -0.354 N 
ATOM     52  N   UNL A   1      45.712  26.199  27.113  1.00  0.00    -0.248 NA
ATOM     53  C   UNL A   1      46.111  23.990  26.468  1.00  0.00     0.031 C 
ATOM     54  C   UNL A   1      48.807  29.385  27.130  1.00  0.00     0.029 A 
ATOM     55  C   UNL A   1      47.865  28.369  27.120  1.00  0.00     0.049 A 
ATOM     56  H   UNL A   1      45.807  28.457  27.576  1.00  0.00     0.167 HD
ATOM     57  C   UNL A   1      47.059  26.051  26.792  1.00  0.00     0.074 A 
ATOM     58  C   UNL A   1      47.253  24.661  26.437  1.00  0.00     0.031 C 
ATOM     59  C   UNL A   1      48.047  26.980  26.790  1.00  0.00     0.037 A 
BRANCH  46  60
ATOM     60  C   UNL A   1      46.144  32.640  28.343  1.00  0.00     0.058 A 
ATOM     61  C   UNL A   1      46.040  33.566  27.294  1.00  0.00     0.135 A 
ATOM     62  C   UNL A   1      46.547  33.113  29.602  1.00  0.00     0.135 A 
ATOM     63  F   UNL A   1      45.682  33.159  26.065  1.00  0.00    -0.206 F 
ATOM     64  C   UNL A   1      46.334  34.912  27.484  1.00  0.00     0.059 A 
ATOM     65  C   UNL A   1      46.825  34.458  29.820  1.00  0.00     0.059 A 
ATOM     66  F   UNL A   1      46.672  32.264  30.635  1.00  0.00    -0.206 F 
ATOM     67  C   UNL A   1      46.722  35.348  28.752  1.00  0.00     0.060 A 
BRANCH  67  68
ATOM     68  S   UNL A   1      47.072  37.103  28.991  1.00  0.00     0.124 S 
ATOM     69  O   UNL A   1      48.527  37.099  29.099  1.00  0.00    -0.237 OA
ATOM     70  O   UNL A   1      46.529  37.698  27.773  1.00  0.00    -0.237 OA
ATOM     71  O   UNL A   1      46.352  37.429  30.218  1.00  0.00    -0.744 OA
ENDBRANCH  67  68
ENDBRANCH  46  60
BRANCH  47  72
ATOM     72  C   UNL A   1      43.345  23.168  26.914  1.00  0.00     0.058 A 
ATOM     73  C   UNL A   1      43.146  22.248  27.954  1.00  0.00     0.135 A 
ATOM     74  C   UNL A   1      43.225  22.698  25.597  1.00  0.00     0.135 A 
ATOM     75  F   UNL A   1      43.260  22.645  29.231  1.00  0.00    -0.206 F 
ATOM     76  C   UNL A   1      42.886  20.904  27.701  1.00  0.00     0.059 A 
ATOM     77  C   UNL A   1      42.939  21.366  25.318  1.00  0.00     0.059 A 
ATOM     78  F   UNL A   1      43.395  23.539  24.565  1.00  0.00    -0.206 F 
ATOM     79  C   UNL A   1      42.793  20.471  26.377  1.00  0.00     0.060 A 
BRANCH  79  80
ATOM     80  S   UNL A   1      42.462  18.725  26.052  1.00  0.00     0.124 S 
ATOM     81  O   UNL A   1      42.786  18.121  27.339  1.00  0.00    -0.237 OA
ATOM     82  O   UNL A   1      41.048  18.741  25.692  1.00  0.00    -0.237 OA
ATOM     83  O   UNL A   1      43.376  18.411  24.957  1.00  0.00    -0.744 OA
ENDBRANCH  79  80
ENDBRANCH  47  72
BRANCH  59  84
ATOM     84  C   UNL A   1      49.434  26.518  26.435  1.00  0.00     0.058 A 
ATOM     85  C   UNL A   1      50.285  25.930  27.384  1.00  0.00     0.135 A 
ATOM     86  C   UNL A   1      49.904  26.631  25.116  1.00  0.00     0.135 A 
ATOM     87  F   UNL A   1      49.885  25.797  28.659  1.00  0.00    -0.206 F 
ATOM     88  C   UNL A   1      51.566  25.505  27.048  1.00  0.00     0.059 A 
ATOM     89  C   UNL A   1      51.171  26.187  24.751  1.00  0.00     0.059 A 
ATOM     90  F   UNL A   1      49.124  27.171  24.164  1.00  0.00    -0.206 F 
ATOM     91  C   UNL A   1      52.002  25.642  25.728  1.00  0.00     0.060 A 
BRANCH  91  92
ATOM     92  S   UNL A   1      53.663  25.080  25.297  1.00  0.00     0.124 S 
ATOM     93  O   UNL A   1      53.524  23.634  25.421  1.00  0.00    -0.237 OA
ATOM     94  O   UNL A   1      53.826  25.589  23.939  1.00  0.00    -0.237 OA
ATOM     95  O   UNL A   1      54.508  25.719  26.303  1.00  0.00    -0.744 OA
ENDBRANCH  91  92
ENDBRANCH  59  84
ENDBRANCH  33  34
ENDBRANCH  26  28
ENDBRANCH  25  26
ENDBRANCH  24  25
ENDBRANCH   1  24
TORSDOF 19
ENDMDL
