MODEL 1
REMARK VINA RESULT:     -10.5      0.000      0.000
REMARK SMILES Cc1cc2c(c(C)c1Br)C=C(C(=O)OCCOC(=O)c1ccc(-c3c4nc(c(-c5c(F)cc(S(=O)(=O)[O-])cc5F)c5ccc([nH]5)c(-c5c(F)cc(S(=O)(=O)[O-])cc5F)c5nc(c(-c6c(F)cc(S(=O)(=O)[O-])cc6F)c6ccc3[nH]6)C=C5)C=C4)cc1)[C@@H](C(F)(F)F)O2
REMARK SMILES IDX 16 1 15 2 14 3 12 4 13 5 11 6 1 7 2 8 3 9 8 10 4 11 6 12
REMARK SMILES IDX 9 13 5 14 91 15 7 16 10 17 86 18 87 19 88 20 89 21 90 22
REMARK SMILES IDX 17 23 18 24 19 25 20 26 21 27 85 28 22 29 84 30 23 31 24 32
REMARK SMILES IDX 25 33 78 34 26 35 83 36 77 37 79 38 27 39 82 40 76 41 75 42
REMARK SMILES IDX 28 44 62 45 41 46 61 47 42 48 45 49 60 50 80 51 43 52 44 53
REMARK SMILES IDX 59 55 81 56 46 57 29 58 30 59 39 60 31 61 32 62 38 63 40 64
REMARK SMILES IDX 33 65 34 66 35 67 36 68 37 69 63 70 64 71 73 72 65 73 66 74
REMARK SMILES IDX 72 75 74 76 67 77 68 78 69 79 70 80 71 81 47 82 48 83 57 84
REMARK SMILES IDX 49 85 50 86 56 87 58 88 51 89 52 90 53 91 54 92 55 93
REMARK H PARENT 79 43 45 54
REMARK Flexibility Score: inf
ROOT
ATOM      1  C   UNL A   1      40.742  20.137  26.274  1.00  0.00     0.275 C 
ENDROOT
BRANCH   1   2
ATOM      2  C   UNL A   1      42.171  19.972  26.789  1.00  0.00     0.275 C 
BRANCH   2   3
ATOM      3  O   UNL A   1      43.131  20.451  25.821  1.00  0.00    -0.459 OA
BRANCH   3   4
ATOM      4  C   UNL A   1      43.148  21.790  25.633  1.00  0.00     0.338 C 
ATOM      5  O   UNL A   1      42.337  22.449  25.001  1.00  0.00    -0.246 OA
BRANCH   4   6
ATOM      6  C   UNL A   1      44.317  22.391  26.299  1.00  0.00     0.087 C 
ATOM      7  C   UNL A   1      48.536  26.125  29.504  1.00  0.00     0.046 C 
ATOM      8  C   UNL A   1      47.377  25.266  29.074  1.00  0.00    -0.033 A 
ATOM      9  C   UNL A   1      47.506  24.520  27.894  1.00  0.00     0.051 A 
ATOM     10  C   UNL A   1      46.161  25.218  29.786  1.00  0.00     0.024 A 
ATOM     11  C   UNL A   1      46.446  23.758  27.408  1.00  0.00     0.128 A 
ATOM     12  C   UNL A   1      45.085  24.420  29.328  1.00  0.00    -0.026 A 
ATOM     13  Br  UNL A   1      45.989  26.286  31.366  1.00  0.00    -0.050 Br
ATOM     14  C   UNL A   1      45.235  23.710  28.106  1.00  0.00     0.021 A 
ATOM     15  O   UNL A   1      46.701  23.085  26.244  1.00  0.00    -0.475 OA
ATOM     16  C   UNL A   1      43.780  24.325  30.089  1.00  0.00     0.046 C 
ATOM     17  C   UNL A   1      44.143  22.950  27.502  1.00  0.00     0.027 C 
ATOM     18  C   UNL A   1      45.596  22.476  25.529  1.00  0.00     0.316 C 
BRANCH  18  19
ATOM     19  C   UNL A   1      45.404  23.201  24.187  1.00  0.00     0.430 C 
ATOM     20  F   UNL A   1      44.562  24.255  24.314  1.00  0.00    -0.167 F 
ATOM     21  F   UNL A   1      46.574  23.703  23.722  1.00  0.00    -0.167 F 
ATOM     22  F   UNL A   1      44.899  22.392  23.230  1.00  0.00    -0.167 F 
ENDBRANCH  18  19
ENDBRANCH   4   6
ENDBRANCH   3   4
ENDBRANCH   2   3
ENDBRANCH   1   2
BRANCH   1  23
ATOM     23  O   UNL A   1      40.014  21.032  27.133  1.00  0.00    -0.458 OA
BRANCH  23  24
ATOM     24  C   UNL A   1      39.295  21.987  26.500  1.00  0.00     0.338 C 
ATOM     25  O   UNL A   1      38.416  21.824  25.671  1.00  0.00    -0.246 OA
BRANCH  24  26
ATOM     26  C   UNL A   1      39.666  23.315  27.015  1.00  0.00     0.060 A 
ATOM     27  C   UNL A   1      39.294  24.442  26.294  1.00  0.00     0.016 A 
ATOM     28  C   UNL A   1      40.535  23.438  28.096  1.00  0.00     0.016 A 
ATOM     29  C   UNL A   1      39.920  25.660  26.538  1.00  0.00     0.010 A 
ATOM     30  C   UNL A   1      41.047  24.699  28.433  1.00  0.00     0.010 A 
ATOM     31  C   UNL A   1      40.803  25.819  27.615  1.00  0.00    -0.014 A 
BRANCH  31  32
ATOM     32  C   UNL A   1      41.506  27.124  27.831  1.00  0.00     0.031 A 
ATOM     33  C   UNL A   1      40.844  28.228  28.625  1.00  0.00     0.074 A 
ATOM     34  C   UNL A   1      42.763  27.313  27.370  1.00  0.00     0.049 A 
ATOM     35  N   UNL A   1      41.218  29.473  28.781  1.00  0.00    -0.248 NA
ATOM     36  C   UNL A   1      39.588  27.898  29.319  1.00  0.00     0.031 C 
ATOM     37  C   UNL A   1      43.557  26.326  26.634  1.00  0.00     0.029 A 
ATOM     38  N   UNL A   1      43.610  28.391  27.478  1.00  0.00    -0.354 N 
ATOM     39  C   UNL A   1      40.217  30.086  29.530  1.00  0.00     0.074 A 
ATOM     40  C   UNL A   1      39.210  29.081  29.785  1.00  0.00     0.031 C 
ATOM     41  C   UNL A   1      44.792  26.806  26.435  1.00  0.00     0.029 A 
ATOM     42  C   UNL A   1      44.847  28.182  26.911  1.00  0.00     0.049 A 
ATOM     43  H   UNL A   1      43.357  29.233  27.919  1.00  0.00     0.167 HD
ATOM     44  C   UNL A   1      40.149  31.364  29.974  1.00  0.00     0.037 A 
ATOM     45  C   UNL A   1      45.898  29.011  26.741  1.00  0.00     0.037 A 
ATOM     46  C   UNL A   1      41.194  32.339  29.789  1.00  0.00     0.049 A 
ATOM     47  C   UNL A   1      45.779  30.439  27.190  1.00  0.00     0.074 A 
ATOM     48  C   UNL A   1      41.228  33.653  30.221  1.00  0.00     0.029 A 
ATOM     49  N   UNL A   1      42.396  32.100  29.141  1.00  0.00    -0.354 N 
ATOM     50  N   UNL A   1      44.794  31.017  27.836  1.00  0.00    -0.248 NA
ATOM     51  C   UNL A   1      46.890  31.339  26.852  1.00  0.00     0.031 C 
ATOM     52  C   UNL A   1      42.432  34.221  29.797  1.00  0.00     0.029 A 
ATOM     53  C   UNL A   1      43.168  33.250  29.138  1.00  0.00     0.049 A 
ATOM     54  H   UNL A   1      42.662  31.240  28.741  1.00  0.00     0.167 HD
ATOM     55  C   UNL A   1      45.164  32.349  27.975  1.00  0.00     0.074 A 
ATOM     56  C   UNL A   1      46.477  32.486  27.376  1.00  0.00     0.031 C 
ATOM     57  C   UNL A   1      44.471  33.369  28.535  1.00  0.00     0.037 A 
BRANCH  44  58
ATOM     58  C   UNL A   1      38.899  31.802  30.692  1.00  0.00     0.058 A 
ATOM     59  C   UNL A   1      38.818  31.840  32.093  1.00  0.00     0.135 A 
ATOM     60  C   UNL A   1      37.783  32.247  29.963  1.00  0.00     0.135 A 
ATOM     61  F   UNL A   1      39.848  31.414  32.840  1.00  0.00    -0.206 F 
ATOM     62  C   UNL A   1      37.669  32.280  32.744  1.00  0.00     0.059 A 
ATOM     63  C   UNL A   1      36.633  32.717  30.593  1.00  0.00     0.059 A 
ATOM     64  F   UNL A   1      37.804  32.235  28.621  1.00  0.00    -0.206 F 
ATOM     65  C   UNL A   1      36.583  32.719  31.986  1.00  0.00     0.060 A 
BRANCH  65  66
ATOM     66  S   UNL A   1      35.105  33.295  32.850  1.00  0.00     0.124 S 
ATOM     67  O   UNL A   1      34.051  32.589  32.126  1.00  0.00    -0.237 OA
ATOM     68  O   UNL A   1      35.347  32.842  34.215  1.00  0.00    -0.237 OA
ATOM     69  O   UNL A   1      35.135  34.741  32.655  1.00  0.00    -0.744 OA
ENDBRANCH  65  66
ENDBRANCH  44  58
BRANCH  45  70
ATOM     70  C   UNL A   1      47.131  28.518  26.065  1.00  0.00     0.058 A 
ATOM     71  C   UNL A   1      47.117  28.160  24.709  1.00  0.00     0.135 A 
ATOM     72  C   UNL A   1      48.355  28.428  26.750  1.00  0.00     0.135 A 
ATOM     73  F   UNL A   1      45.971  28.212  24.014  1.00  0.00    -0.206 F 
ATOM     74  C   UNL A   1      48.271  27.737  24.055  1.00  0.00     0.059 A 
ATOM     75  C   UNL A   1      49.526  28.039  26.110  1.00  0.00     0.059 A 
ATOM     76  F   UNL A   1      48.426  28.763  28.048  1.00  0.00    -0.206 F 
ATOM     77  C   UNL A   1      49.473  27.690  24.762  1.00  0.00     0.060 A 
BRANCH  77  78
ATOM     78  S   UNL A   1      50.975  27.204  23.885  1.00  0.00     0.124 S 
ATOM     79  O   UNL A   1      51.506  26.167  24.762  1.00  0.00    -0.237 OA
ATOM     80  O   UNL A   1      50.446  26.749  22.603  1.00  0.00    -0.237 OA
ATOM     81  O   UNL A   1      51.749  28.442  23.832  1.00  0.00    -0.744 OA
ENDBRANCH  77  78
ENDBRANCH  45  70
BRANCH  57  82
ATOM     82  C   UNL A   1      45.102  34.733  28.519  1.00  0.00     0.058 A 
ATOM     83  C   UNL A   1      44.897  35.612  27.446  1.00  0.00     0.135 A 
ATOM     84  C   UNL A   1      45.829  35.201  29.626  1.00  0.00     0.135 A 
ATOM     85  F   UNL A   1      44.219  35.208  26.360  1.00  0.00    -0.206 F 
ATOM     86  C   UNL A   1      45.387  36.913  27.471  1.00  0.00     0.059 A 
ATOM     87  C   UNL A   1      46.307  36.505  29.683  1.00  0.00     0.059 A 
ATOM     88  F   UNL A   1      46.047  34.398  30.680  1.00  0.00    -0.206 F 
ATOM     89  C   UNL A   1      46.079  37.355  28.601  1.00  0.00     0.060 A 
BRANCH  89  90
ATOM     90  S   UNL A   1      46.637  39.072  28.649  1.00  0.00     0.124 S 
ATOM     91  O   UNL A   1      45.998  39.623  27.457  1.00  0.00    -0.237 OA
ATOM     92  O   UNL A   1      46.103  39.535  29.926  1.00  0.00    -0.237 OA
ATOM     93  O   UNL A   1      48.091  38.960  28.586  1.00  0.00    -0.744 OA
ENDBRANCH  89  90
ENDBRANCH  57  82
ENDBRANCH  31  32
ENDBRANCH  24  26
ENDBRANCH  23  24
ENDBRANCH   1  23
TORSDOF 15
ENDMDL
MODEL 2
REMARK VINA RESULT:     -10.3      5.011     12.771
REMARK SMILES Cc1cc2c(c(C)c1Br)C=C(C(=O)OCCOC(=O)c1ccc(-c3c4nc(c(-c5c(F)cc(S(=O)(=O)[O-])cc5F)c5ccc([nH]5)c(-c5c(F)cc(S(=O)(=O)[O-])cc5F)c5nc(c(-c6c(F)cc(S(=O)(=O)[O-])cc6F)c6ccc3[nH]6)C=C5)C=C4)cc1)[C@@H](C(F)(F)F)O2
REMARK SMILES IDX 16 1 15 2 14 3 12 4 13 5 11 6 1 7 2 8 3 9 8 10 4 11 6 12
REMARK SMILES IDX 9 13 5 14 91 15 7 16 10 17 86 18 87 19 88 20 89 21 90 22
REMARK SMILES IDX 17 23 18 24 19 25 20 26 21 27 85 28 22 29 84 30 23 31 24 32
REMARK SMILES IDX 25 33 78 34 26 35 83 36 77 37 79 38 27 39 82 40 76 41 75 42
REMARK SMILES IDX 28 44 62 45 41 46 61 47 42 48 45 49 60 50 80 51 43 52 44 53
REMARK SMILES IDX 59 55 81 56 46 57 29 58 30 59 39 60 31 61 32 62 38 63 40 64
REMARK SMILES IDX 33 65 34 66 35 67 36 68 37 69 63 70 64 71 73 72 65 73 66 74
REMARK SMILES IDX 72 75 74 76 67 77 68 78 69 79 70 80 71 81 47 82 48 83 57 84
REMARK SMILES IDX 49 85 50 86 56 87 58 88 51 89 52 90 53 91 54 92 55 93
REMARK H PARENT 79 43 45 54
REMARK Flexibility Score: inf
ROOT
ATOM      1  C   UNL A   1      33.373  33.620  27.877  1.00  0.00     0.275 C 
ENDROOT
BRANCH   1   2
ATOM      2  C   UNL A   1      33.467  34.430  29.169  1.00  0.00     0.275 C 
BRANCH   2   3
ATOM      3  O   UNL A   1      34.817  34.432  29.685  1.00  0.00    -0.459 OA
BRANCH   3   4
ATOM      4  C   UNL A   1      35.038  33.617  30.740  1.00  0.00     0.338 C 
ATOM      5  O   UNL A   1      34.404  32.614  31.034  1.00  0.00    -0.246 OA
BRANCH   4   6
ATOM      6  C   UNL A   1      36.175  34.103  31.541  1.00  0.00     0.087 C 
ATOM      7  C   UNL A   1      41.817  35.023  34.598  1.00  0.00     0.046 C 
ATOM      8  C   UNL A   1      40.715  34.817  33.593  1.00  0.00    -0.033 A 
ATOM      9  C   UNL A   1      39.390  34.992  34.015  1.00  0.00     0.051 A 
ATOM     10  C   UNL A   1      40.963  34.416  32.263  1.00  0.00     0.024 A 
ATOM     11  C   UNL A   1      38.324  34.753  33.151  1.00  0.00     0.128 A 
ATOM     12  C   UNL A   1      39.895  34.203  31.360  1.00  0.00    -0.026 A 
ATOM     13  Br  UNL A   1      42.779  34.131  31.724  1.00  0.00    -0.050 Br
ATOM     14  C   UNL A   1      38.562  34.350  31.833  1.00  0.00     0.021 A 
ATOM     15  O   UNL A   1      37.083  34.955  33.690  1.00  0.00    -0.475 OA
ATOM     16  C   UNL A   1      40.134  33.803  29.920  1.00  0.00     0.046 C 
ATOM     17  C   UNL A   1      37.399  34.046  31.003  1.00  0.00     0.027 C 
ATOM     18  C   UNL A   1      35.917  34.493  32.962  1.00  0.00     0.316 C 
BRANCH  18  19
ATOM     19  C   UNL A   1      35.249  33.354  33.750  1.00  0.00     0.430 C 
ATOM     20  F   UNL A   1      35.685  32.142  33.327  1.00  0.00    -0.167 F 
ATOM     21  F   UNL A   1      35.546  33.424  35.071  1.00  0.00    -0.167 F 
ATOM     22  F   UNL A   1      33.904  33.364  33.634  1.00  0.00    -0.167 F 
ENDBRANCH  18  19
ENDBRANCH   4   6
ENDBRANCH   3   4
ENDBRANCH   2   3
ENDBRANCH   1   2
BRANCH   1  23
ATOM     23  O   UNL A   1      34.612  32.929  27.642  1.00  0.00    -0.458 OA
BRANCH  23  24
ATOM     24  C   UNL A   1      34.526  31.580  27.604  1.00  0.00     0.338 C 
ATOM     25  O   UNL A   1      33.589  30.909  27.207  1.00  0.00    -0.246 OA
BRANCH  24  26
ATOM     26  C   UNL A   1      35.797  30.986  28.049  1.00  0.00     0.060 A 
ATOM     27  C   UNL A   1      35.788  29.701  28.577  1.00  0.00     0.016 A 
ATOM     28  C   UNL A   1      36.953  31.759  28.123  1.00  0.00     0.016 A 
ATOM     29  C   UNL A   1      36.869  29.253  29.329  1.00  0.00     0.010 A 
ATOM     30  C   UNL A   1      38.094  31.241  28.752  1.00  0.00     0.010 A 
ATOM     31  C   UNL A   1      38.047  30.007  29.428  1.00  0.00    -0.014 A 
BRANCH  31  32
ATOM     32  C   UNL A   1      39.181  29.530  30.283  1.00  0.00     0.031 A 
ATOM     33  C   UNL A   1      40.226  28.594  29.717  1.00  0.00     0.074 A 
ATOM     34  C   UNL A   1      39.320  29.974  31.553  1.00  0.00     0.049 A 
ATOM     35  N   UNL A   1      41.181  27.948  30.338  1.00  0.00    -0.248 NA
ATOM     36  C   UNL A   1      40.183  28.332  28.269  1.00  0.00     0.031 C 
ATOM     37  C   UNL A   1      38.426  30.920  32.225  1.00  0.00     0.029 A 
ATOM     38  N   UNL A   1      40.282  29.713  32.499  1.00  0.00    -0.354 N 
ATOM     39  C   UNL A   1      41.805  27.161  29.375  1.00  0.00     0.074 A 
ATOM     40  C   UNL A   1      41.111  27.395  28.128  1.00  0.00     0.031 C 
ATOM     41  C   UNL A   1      38.925  31.225  33.430  1.00  0.00     0.029 A 
ATOM     42  C   UNL A   1      40.102  30.403  33.677  1.00  0.00     0.049 A 
ATOM     43  H   UNL A   1      41.030  29.092  32.349  1.00  0.00     0.167 HD
ATOM     44  C   UNL A   1      42.864  26.327  29.512  1.00  0.00     0.037 A 
ATOM     45  C   UNL A   1      40.771  30.353  34.847  1.00  0.00     0.037 A 
ATOM     46  C   UNL A   1      43.604  26.160  30.737  1.00  0.00     0.049 A 
ATOM     47  C   UNL A   1      41.906  29.381  34.995  1.00  0.00     0.074 A 
ATOM     48  C   UNL A   1      44.707  25.357  30.970  1.00  0.00     0.029 A 
ATOM     49  N   UNL A   1      43.335  26.825  31.924  1.00  0.00    -0.354 N 
ATOM     50  N   UNL A   1      42.436  28.594  34.090  1.00  0.00    -0.248 NA
ATOM     51  C   UNL A   1      42.508  29.257  36.330  1.00  0.00     0.031 C 
ATOM     52  C   UNL A   1      45.078  25.504  32.310  1.00  0.00     0.029 A 
ATOM     53  C   UNL A   1      44.234  26.431  32.901  1.00  0.00     0.049 A 
ATOM     54  H   UNL A   1      42.612  27.481  32.053  1.00  0.00     0.167 HD
ATOM     55  C   UNL A   1      43.429  27.876  34.747  1.00  0.00     0.074 A 
ATOM     56  C   UNL A   1      43.448  28.345  36.118  1.00  0.00     0.031 C 
ATOM     57  C   UNL A   1      44.238  26.905  34.261  1.00  0.00     0.037 A 
BRANCH  44  58
ATOM     58  C   UNL A   1      43.288  25.512  28.318  1.00  0.00     0.058 A 
ATOM     59  C   UNL A   1      44.301  25.938  27.447  1.00  0.00     0.135 A 
ATOM     60  C   UNL A   1      42.707  24.255  28.078  1.00  0.00     0.135 A 
ATOM     61  F   UNL A   1      44.882  27.135  27.619  1.00  0.00    -0.206 F 
ATOM     62  C   UNL A   1      44.708  25.158  26.367  1.00  0.00     0.059 A 
ATOM     63  C   UNL A   1      43.117  23.446  27.021  1.00  0.00     0.059 A 
ATOM     64  F   UNL A   1      41.734  23.795  28.881  1.00  0.00    -0.206 F 
ATOM     65  C   UNL A   1      44.112  23.912  26.164  1.00  0.00     0.060 A 
BRANCH  65  66
ATOM     66  S   UNL A   1      44.659  22.912  24.763  1.00  0.00     0.124 S 
ATOM     67  O   UNL A   1      45.282  21.778  25.441  1.00  0.00    -0.237 OA
ATOM     68  O   UNL A   1      43.404  22.628  24.076  1.00  0.00    -0.237 OA
ATOM     69  O   UNL A   1      45.577  23.795  24.050  1.00  0.00    -0.744 OA
ENDBRANCH  65  66
ENDBRANCH  44  58
BRANCH  45  70
ATOM     70  C   UNL A   1      40.342  31.213  35.986  1.00  0.00     0.058 A 
ATOM     71  C   UNL A   1      41.187  32.209  36.496  1.00  0.00     0.135 A 
ATOM     72  C   UNL A   1      39.069  31.080  36.565  1.00  0.00     0.135 A 
ATOM     73  F   UNL A   1      42.420  32.366  35.990  1.00  0.00    -0.206 F 
ATOM     74  C   UNL A   1      40.785  33.046  37.533  1.00  0.00     0.059 A 
ATOM     75  C   UNL A   1      38.633  31.924  37.580  1.00  0.00     0.059 A 
ATOM     76  F   UNL A   1      38.218  30.146  36.112  1.00  0.00    -0.206 F 
ATOM     77  C   UNL A   1      39.501  32.903  38.061  1.00  0.00     0.060 A 
BRANCH  77  78
ATOM     78  S   UNL A   1      38.966  34.038  39.359  1.00  0.00     0.124 S 
ATOM     79  O   UNL A   1      37.682  33.464  39.742  1.00  0.00    -0.237 OA
ATOM     80  O   UNL A   1      40.041  33.910  40.338  1.00  0.00    -0.237 OA
ATOM     81  O   UNL A   1      38.903  35.326  38.674  1.00  0.00    -0.744 OA
ENDBRANCH  77  78
ENDBRANCH  45  70
BRANCH  57  82
ATOM     82  C   UNL A   1      45.210  26.265  35.212  1.00  0.00     0.058 A 
ATOM     83  C   UNL A   1      46.499  26.789  35.389  1.00  0.00     0.135 A 
ATOM     84  C   UNL A   1      44.818  25.189  36.024  1.00  0.00     0.135 A 
ATOM     85  F   UNL A   1      46.925  27.809  34.628  1.00  0.00    -0.206 F 
ATOM     86  C   UNL A   1      47.367  26.270  36.343  1.00  0.00     0.059 A 
ATOM     87  C   UNL A   1      45.660  24.670  37.001  1.00  0.00     0.059 A 
ATOM     88  F   UNL A   1      43.591  24.657  35.896  1.00  0.00    -0.206 F 
ATOM     89  C   UNL A   1      46.933  25.219  37.154  1.00  0.00     0.060 A 
BRANCH  89  90
ATOM     90  S   UNL A   1      48.045  24.613  38.441  1.00  0.00     0.124 S 
ATOM     91  O   UNL A   1      48.657  25.852  38.911  1.00  0.00    -0.237 OA
ATOM     92  O   UNL A   1      47.121  23.971  39.371  1.00  0.00    -0.237 OA
ATOM     93  O   UNL A   1      48.936  23.706  37.724  1.00  0.00    -0.744 OA
ENDBRANCH  89  90
ENDBRANCH  57  82
ENDBRANCH  31  32
ENDBRANCH  24  26
ENDBRANCH  23  24
ENDBRANCH   1  23
TORSDOF 15
ENDMDL
MODEL 3
REMARK VINA RESULT:     -10.2      4.699      9.969
REMARK SMILES Cc1cc2c(c(C)c1Br)C=C(C(=O)OCCOC(=O)c1ccc(-c3c4nc(c(-c5c(F)cc(S(=O)(=O)[O-])cc5F)c5ccc([nH]5)c(-c5c(F)cc(S(=O)(=O)[O-])cc5F)c5nc(c(-c6c(F)cc(S(=O)(=O)[O-])cc6F)c6ccc3[nH]6)C=C5)C=C4)cc1)[C@@H](C(F)(F)F)O2
REMARK SMILES IDX 16 1 15 2 14 3 12 4 13 5 11 6 1 7 2 8 3 9 8 10 4 11 6 12
REMARK SMILES IDX 9 13 5 14 91 15 7 16 10 17 86 18 87 19 88 20 89 21 90 22
REMARK SMILES IDX 17 23 18 24 19 25 20 26 21 27 85 28 22 29 84 30 23 31 24 32
REMARK SMILES IDX 25 33 78 34 26 35 83 36 77 37 79 38 27 39 82 40 76 41 75 42
REMARK SMILES IDX 28 44 62 45 41 46 61 47 42 48 45 49 60 50 80 51 43 52 44 53
REMARK SMILES IDX 59 55 81 56 46 57 29 58 30 59 39 60 31 61 32 62 38 63 40 64
REMARK SMILES IDX 33 65 34 66 35 67 36 68 37 69 63 70 64 71 73 72 65 73 66 74
REMARK SMILES IDX 72 75 74 76 67 77 68 78 69 79 70 80 71 81 47 82 48 83 57 84
REMARK SMILES IDX 49 85 50 86 56 87 58 88 51 89 52 90 53 91 54 92 55 93
REMARK H PARENT 79 43 45 54
REMARK Flexibility Score: inf
ROOT
ATOM      1  C   UNL A   1      32.805  31.158  27.232  1.00  0.00     0.275 C 
ENDROOT
BRANCH   1   2
ATOM      2  C   UNL A   1      32.035  30.382  26.165  1.00  0.00     0.275 C 
BRANCH   2   3
ATOM      3  O   UNL A   1      32.159  28.957  26.368  1.00  0.00    -0.459 OA
BRANCH   3   4
ATOM      4  C   UNL A   1      32.737  28.273  25.355  1.00  0.00     0.338 C 
ATOM      5  O   UNL A   1      33.377  28.744  24.428  1.00  0.00    -0.246 OA
BRANCH   4   6
ATOM      6  C   UNL A   1      32.486  26.828  25.496  1.00  0.00     0.087 C 
ATOM      7  C   UNL A   1      32.388  20.360  25.076  1.00  0.00     0.046 C 
ATOM      8  C   UNL A   1      32.757  21.807  25.263  1.00  0.00    -0.033 A 
ATOM      9  C   UNL A   1      31.722  22.748  25.369  1.00  0.00     0.051 A 
ATOM     10  C   UNL A   1      34.094  22.254  25.295  1.00  0.00     0.024 A 
ATOM     11  C   UNL A   1      31.998  24.108  25.477  1.00  0.00     0.128 A 
ATOM     12  C   UNL A   1      34.396  23.629  25.442  1.00  0.00    -0.026 A 
ATOM     13  Br  UNL A   1      35.490  20.958  25.097  1.00  0.00    -0.050 Br
ATOM     14  C   UNL A   1      33.322  24.559  25.503  1.00  0.00     0.021 A 
ATOM     15  O   UNL A   1      30.899  24.919  25.565  1.00  0.00    -0.475 OA
ATOM     16  C   UNL A   1      35.821  24.132  25.510  1.00  0.00     0.046 C 
ATOM     17  C   UNL A   1      33.538  26.004  25.546  1.00  0.00     0.027 C 
ATOM     18  C   UNL A   1      31.070  26.352  25.425  1.00  0.00     0.316 C 
BRANCH  18  19
ATOM     19  C   UNL A   1      30.378  26.818  24.134  1.00  0.00     0.430 C 
ATOM     20  F   UNL A   1      31.193  26.673  23.060  1.00  0.00    -0.167 F 
ATOM     21  F   UNL A   1      29.269  26.084  23.871  1.00  0.00    -0.167 F 
ATOM     22  F   UNL A   1      30.004  28.115  24.186  1.00  0.00    -0.167 F 
ENDBRANCH  18  19
ENDBRANCH   4   6
ENDBRANCH   3   4
ENDBRANCH   2   3
ENDBRANCH   1   2
BRANCH   1  23
ATOM     23  O   UNL A   1      33.775  30.300  27.857  1.00  0.00    -0.458 OA
BRANCH  23  24
ATOM     24  C   UNL A   1      34.693  30.925  28.629  1.00  0.00     0.338 C 
ATOM     25  O   UNL A   1      34.521  31.904  29.336  1.00  0.00    -0.246 OA
BRANCH  24  26
ATOM     26  C   UNL A   1      35.973  30.201  28.569  1.00  0.00     0.060 A 
ATOM     27  C   UNL A   1      36.479  29.637  29.733  1.00  0.00     0.016 A 
ATOM     28  C   UNL A   1      36.757  30.243  27.419  1.00  0.00     0.016 A 
ATOM     29  C   UNL A   1      37.820  29.274  29.802  1.00  0.00     0.010 A 
ATOM     30  C   UNL A   1      38.064  29.735  27.454  1.00  0.00     0.010 A 
ATOM     31  C   UNL A   1      38.640  29.307  28.665  1.00  0.00    -0.014 A 
BRANCH  31  32
ATOM     32  C   UNL A   1      40.093  28.961  28.770  1.00  0.00     0.031 A 
ATOM     33  C   UNL A   1      41.081  29.965  29.323  1.00  0.00     0.074 A 
ATOM     34  C   UNL A   1      40.535  27.730  28.429  1.00  0.00     0.049 A 
ATOM     35  N   UNL A   1      42.389  29.914  29.343  1.00  0.00    -0.248 NA
ATOM     36  C   UNL A   1      40.530  31.196  29.916  1.00  0.00     0.031 C 
ATOM     37  C   UNL A   1      39.699  26.635  27.931  1.00  0.00     0.029 A 
ATOM     38  N   UNL A   1      41.793  27.178  28.476  1.00  0.00    -0.354 N 
ATOM     39  C   UNL A   1      42.815  31.124  29.884  1.00  0.00     0.074 A 
ATOM     40  C   UNL A   1      41.627  31.898  30.166  1.00  0.00     0.031 C 
ATOM     41  C   UNL A   1      40.444  25.528  27.803  1.00  0.00     0.029 A 
ATOM     42  C   UNL A   1      41.835  25.859  28.083  1.00  0.00     0.049 A 
ATOM     43  H   UNL A   1      42.590  27.678  28.764  1.00  0.00     0.167 HD
ATOM     44  C   UNL A   1      44.077  31.547  30.134  1.00  0.00     0.037 A 
ATOM     45  C   UNL A   1      42.873  25.014  27.915  1.00  0.00     0.037 A 
ATOM     46  C   UNL A   1      45.253  30.740  29.928  1.00  0.00     0.049 A 
ATOM     47  C   UNL A   1      44.268  25.522  28.142  1.00  0.00     0.074 A 
ATOM     48  C   UNL A   1      46.575  31.070  30.173  1.00  0.00     0.029 A 
ATOM     49  N   UNL A   1      45.248  29.436  29.456  1.00  0.00    -0.354 N 
ATOM     50  N   UNL A   1      44.653  26.694  28.588  1.00  0.00    -0.248 NA
ATOM     51  C   UNL A   1      45.371  24.612  27.805  1.00  0.00     0.031 C 
ATOM     52  C   UNL A   1      47.372  29.982  29.808  1.00  0.00     0.029 A 
ATOM     53  C   UNL A   1      46.545  28.957  29.377  1.00  0.00     0.049 A 
ATOM     54  H   UNL A   1      44.441  28.926  29.214  1.00  0.00     0.167 HD
ATOM     55  C   UNL A   1      46.042  26.664  28.579  1.00  0.00     0.074 A 
ATOM     56  C   UNL A   1      46.431  25.348  28.114  1.00  0.00     0.031 C 
ATOM     57  C   UNL A   1      46.915  27.645  28.909  1.00  0.00     0.037 A 
BRANCH  44  58
ATOM     58  C   UNL A   1      44.270  32.952  30.641  1.00  0.00     0.058 A 
ATOM     59  C   UNL A   1      44.331  33.248  32.011  1.00  0.00     0.135 A 
ATOM     60  C   UNL A   1      44.455  34.012  29.737  1.00  0.00     0.135 A 
ATOM     61  F   UNL A   1      44.147  32.278  32.921  1.00  0.00    -0.206 F 
ATOM     62  C   UNL A   1      44.544  34.546  32.468  1.00  0.00     0.059 A 
ATOM     63  C   UNL A   1      44.698  35.313  30.169  1.00  0.00     0.059 A 
ATOM     64  F   UNL A   1      44.410  33.788  28.414  1.00  0.00    -0.206 F 
ATOM     65  C   UNL A   1      44.729  35.572  31.539  1.00  0.00     0.060 A 
BRANCH  65  66
ATOM     66  S   UNL A   1      45.014  37.247  32.150  1.00  0.00     0.124 S 
ATOM     67  O   UNL A   1      43.702  37.585  32.694  1.00  0.00    -0.237 OA
ATOM     68  O   UNL A   1      46.073  37.043  33.133  1.00  0.00    -0.237 OA
ATOM     69  O   UNL A   1      45.404  37.987  30.954  1.00  0.00    -0.744 OA
ENDBRANCH  65  66
ENDBRANCH  44  58
BRANCH  45  70
ATOM     70  C   UNL A   1      42.628  23.619  27.454  1.00  0.00     0.058 A 
ATOM     71  C   UNL A   1      42.652  23.294  26.091  1.00  0.00     0.135 A 
ATOM     72  C   UNL A   1      42.400  22.576  28.368  1.00  0.00     0.135 A 
ATOM     73  F   UNL A   1      42.849  24.256  25.176  1.00  0.00    -0.206 F 
ATOM     74  C   UNL A   1      42.465  21.987  25.648  1.00  0.00     0.059 A 
ATOM     75  C   UNL A   1      42.242  21.258  27.953  1.00  0.00     0.059 A 
ATOM     76  F   UNL A   1      42.372  22.830  29.686  1.00  0.00    -0.206 F 
ATOM     77  C   UNL A   1      42.271  20.974  26.589  1.00  0.00     0.060 A 
BRANCH  77  78
ATOM     78  S   UNL A   1      42.098  19.274  26.008  1.00  0.00     0.124 S 
ATOM     79  O   UNL A   1      42.959  19.274  24.831  1.00  0.00    -0.237 OA
ATOM     80  O   UNL A   1      42.581  18.509  27.153  1.00  0.00    -0.237 OA
ATOM     81  O   UNL A   1      40.666  19.153  25.742  1.00  0.00    -0.744 OA
ENDBRANCH  77  78
ENDBRANCH  45  70
BRANCH  57  82
ATOM     82  C   UNL A   1      48.382  27.350  28.772  1.00  0.00     0.058 A 
ATOM     83  C   UNL A   1      49.109  27.802  27.660  1.00  0.00     0.135 A 
ATOM     84  C   UNL A   1      49.085  26.703  29.801  1.00  0.00     0.135 A 
ATOM     85  F   UNL A   1      48.481  28.415  26.645  1.00  0.00    -0.206 F 
ATOM     86  C   UNL A   1      50.486  27.627  27.575  1.00  0.00     0.059 A 
ATOM     87  C   UNL A   1      50.464  26.538  29.748  1.00  0.00     0.059 A 
ATOM     88  F   UNL A   1      48.433  26.256  30.887  1.00  0.00    -0.206 F 
ATOM     89  C   UNL A   1      51.157  27.006  28.632  1.00  0.00     0.060 A 
BRANCH  89  90
ATOM     90  S   UNL A   1      52.954  26.861  28.539  1.00  0.00     0.124 S 
ATOM     91  O   UNL A   1      53.289  26.457  29.901  1.00  0.00    -0.237 OA
ATOM     92  O   UNL A   1      53.130  25.838  27.513  1.00  0.00    -0.237 OA
ATOM     93  O   UNL A   1      53.386  28.203  28.159  1.00  0.00    -0.744 OA
ENDBRANCH  89  90
ENDBRANCH  57  82
ENDBRANCH  31  32
ENDBRANCH  24  26
ENDBRANCH  23  24
ENDBRANCH   1  23
TORSDOF 15
ENDMDL
