MODEL 1
REMARK VINA RESULT:     -11.6      0.000      0.000
REMARK SMILES CC(C)CN(C)c1cc2c(cc1Cl)C=C(C(=O)OCCOC(=O)c1ccc(-c3c4nc(c(-c5c(F)cc(S(=O)(=O)[O-])cc5F)c5ccc([nH]5)c(-c5c(F)cc(S(=O)(=O)[O-])cc5F)c5nc(c(-c6c(F)cc(S(=O)(=O)[O-])cc6F)c6ccc3[nH]6)C=C5)C=C4)cc1)[C@@H](C(F)(F)F)O2
REMARK SMILES IDX 19 1 18 2 16 3 17 4 15 5 7 6 8 7 12 8 9 9 11 10 13 11 10 12
REMARK SMILES IDX 95 13 14 14 90 15 5 16 6 17 4 18 2 19 1 20 3 21 91 22 92 23
REMARK SMILES IDX 93 24 94 25 20 26 21 27 22 28 23 29 24 30 25 31 89 32 26 33
REMARK SMILES IDX 88 34 27 35 28 36 29 37 82 38 30 39 87 40 81 41 83 42 31 43
REMARK SMILES IDX 86 44 80 45 79 46 32 48 66 49 45 50 65 51 46 52 49 53 64 54
REMARK SMILES IDX 84 55 47 56 48 57 63 59 85 60 50 61 33 62 34 63 43 64 35 65
REMARK SMILES IDX 36 66 42 67 44 68 37 69 38 70 39 71 40 72 41 73 67 74 68 75
REMARK SMILES IDX 77 76 69 77 70 78 76 79 78 80 71 81 72 82 73 83 74 84 75 85
REMARK SMILES IDX 51 86 52 87 61 88 53 89 54 90 60 91 62 92 55 93 56 94 57 95
REMARK SMILES IDX 58 96 59 97
REMARK H PARENT 83 47 49 58
REMARK Flexibility Score: inf
ROOT
ATOM      1  C   UNL A   1      34.039  31.126  27.663  1.00  0.00     0.275 C 
ENDROOT
BRANCH   1   2
ATOM      2  O   UNL A   1      33.803  29.750  27.288  1.00  0.00    -0.459 OA
BRANCH   2   3
ATOM      3  C   UNL A   1      32.520  29.474  26.959  1.00  0.00     0.338 C 
ATOM      4  O   UNL A   1      31.563  30.217  27.126  1.00  0.00    -0.246 OA
BRANCH   3   5
ATOM      5  C   UNL A   1      32.385  28.157  26.310  1.00  0.00     0.087 C 
ATOM      6  C   UNL A   1      33.501  23.698  24.229  1.00  0.00     0.059 A 
ATOM      7  C   UNL A   1      32.305  24.441  24.370  1.00  0.00     0.074 A 
ATOM      8  C   UNL A   1      34.692  24.278  24.716  1.00  0.00     0.065 A 
ATOM      9  C   UNL A   1      32.295  25.681  25.019  1.00  0.00     0.130 A 
ATOM     10  C   UNL A   1      34.661  25.452  25.458  1.00  0.00     0.034 A 
ATOM     11  Cl  UNL A   1      36.260  23.641  24.366  1.00  0.00    -0.082 Cl
ATOM     12  C   UNL A   1      33.465  26.143  25.611  1.00  0.00     0.019 A 
ATOM     13  O   UNL A   1      31.120  26.392  25.075  1.00  0.00    -0.475 OA
ATOM     14  C   UNL A   1      33.462  27.369  26.371  1.00  0.00     0.027 C 
ATOM     15  C   UNL A   1      31.214  27.814  25.434  1.00  0.00     0.316 C 
BRANCH   6  16
ATOM     16  N   UNL A   1      33.502  22.433  23.634  1.00  0.00    -0.373 N 
ATOM     17  C   UNL A   1      32.414  22.152  22.711  1.00  0.00     0.143 C 
BRANCH  16  18
ATOM     18  C   UNL A   1      34.065  21.305  24.406  1.00  0.00     0.119 C 
BRANCH  18  19
ATOM     19  C   UNL A   1      33.186  20.891  25.608  1.00  0.00     0.002 C 
ATOM     20  C   UNL A   1      32.812  19.405  25.562  1.00  0.00     0.009 C 
ATOM     21  C   UNL A   1      33.877  21.182  26.944  1.00  0.00     0.009 C 
ENDBRANCH  18  19
ENDBRANCH  16  18
ENDBRANCH   6  16
BRANCH  15  22
ATOM     22  C   UNL A   1      31.247  28.689  24.167  1.00  0.00     0.430 C 
ATOM     23  F   UNL A   1      32.514  29.016  23.817  1.00  0.00    -0.167 F 
ATOM     24  F   UNL A   1      30.712  28.033  23.106  1.00  0.00    -0.167 F 
ATOM     25  F   UNL A   1      30.557  29.843  24.314  1.00  0.00    -0.167 F 
ENDBRANCH  15  22
ENDBRANCH   3   5
ENDBRANCH   2   3
ENDBRANCH   1   2
BRANCH   1  26
ATOM     26  C   UNL A   1      35.013  31.246  28.839  1.00  0.00     0.275 C 
BRANCH  26  27
ATOM     27  O   UNL A   1      35.663  29.991  29.111  1.00  0.00    -0.458 OA
BRANCH  27  28
ATOM     28  C   UNL A   1      36.461  29.978  30.204  1.00  0.00     0.338 C 
ATOM     29  O   UNL A   1      36.113  29.996  31.371  1.00  0.00    -0.246 OA
BRANCH  28  30
ATOM     30  C   UNL A   1      37.870  29.857  29.798  1.00  0.00     0.060 A 
ATOM     31  C   UNL A   1      38.857  29.467  30.696  1.00  0.00     0.016 A 
ATOM     32  C   UNL A   1      38.171  29.970  28.446  1.00  0.00     0.016 A 
ATOM     33  C   UNL A   1      40.150  29.209  30.218  1.00  0.00     0.010 A 
ATOM     34  C   UNL A   1      39.413  29.573  27.956  1.00  0.00     0.010 A 
ATOM     35  C   UNL A   1      40.439  29.216  28.837  1.00  0.00    -0.014 A 
BRANCH  35  36
ATOM     36  C   UNL A   1      41.797  28.853  28.322  1.00  0.00     0.031 A 
ATOM     37  C   UNL A   1      42.921  29.869  28.289  1.00  0.00     0.074 A 
ATOM     38  C   UNL A   1      42.025  27.607  27.855  1.00  0.00     0.049 A 
ATOM     39  N   UNL A   1      44.165  29.712  27.905  1.00  0.00    -0.248 NA
ATOM     40  C   UNL A   1      42.604  31.248  28.696  1.00  0.00     0.031 C 
ATOM     41  C   UNL A   1      41.014  26.555  27.716  1.00  0.00     0.029 A 
ATOM     42  N   UNL A   1      43.184  27.000  27.431  1.00  0.00    -0.354 N 
ATOM     43  C   UNL A   1      44.759  30.967  28.001  1.00  0.00     0.074 A 
ATOM     44  C   UNL A   1      43.724  31.891  28.402  1.00  0.00     0.031 C 
ATOM     45  C   UNL A   1      41.609  25.416  27.332  1.00  0.00     0.029 A 
ATOM     46  C   UNL A   1      43.036  25.660  27.156  1.00  0.00     0.049 A 
ATOM     47  H   UNL A   1      44.038  27.479  27.335  1.00  0.00     0.167 HD
ATOM     48  C   UNL A   1      46.057  31.317  27.825  1.00  0.00     0.037 A 
ATOM     49  C   UNL A   1      43.947  24.723  26.824  1.00  0.00     0.037 A 
ATOM     50  C   UNL A   1      47.105  30.386  27.500  1.00  0.00     0.049 A 
ATOM     51  C   UNL A   1      45.395  25.113  26.708  1.00  0.00     0.074 A 
ATOM     52  C   UNL A   1      48.463  30.625  27.385  1.00  0.00     0.029 A 
ATOM     53  N   UNL A   1      46.913  29.034  27.257  1.00  0.00    -0.354 N 
ATOM     54  N   UNL A   1      45.946  26.291  26.879  1.00  0.00    -0.248 NA
ATOM     55  C   UNL A   1      46.347  24.049  26.357  1.00  0.00     0.031 C 
ATOM     56  C   UNL A   1      49.091  29.421  27.050  1.00  0.00     0.029 A 
ATOM     57  C   UNL A   1      48.128  28.427  26.988  1.00  0.00     0.049 A 
ATOM     58  H   UNL A   1      46.043  28.575  27.272  1.00  0.00     0.167 HD
ATOM     59  C   UNL A   1      47.307  26.108  26.668  1.00  0.00     0.074 A 
ATOM     60  C   UNL A   1      47.501  24.703  26.377  1.00  0.00     0.031 C 
ATOM     61  C   UNL A   1      48.305  27.025  26.704  1.00  0.00     0.037 A 
BRANCH  48  62
ATOM     62  C   UNL A   1      46.430  32.762  28.035  1.00  0.00     0.058 A 
ATOM     63  C   UNL A   1      46.948  33.211  29.261  1.00  0.00     0.135 A 
ATOM     64  C   UNL A   1      46.312  33.697  26.995  1.00  0.00     0.135 A 
ATOM     65  F   UNL A   1      47.071  32.362  30.294  1.00  0.00    -0.206 F 
ATOM     66  C   UNL A   1      47.306  34.539  29.458  1.00  0.00     0.059 A 
ATOM     67  C   UNL A   1      46.693  35.029  27.161  1.00  0.00     0.059 A 
ATOM     68  F   UNL A   1      45.829  33.325  25.800  1.00  0.00    -0.206 F 
ATOM     69  C   UNL A   1      47.176  35.441  28.403  1.00  0.00     0.060 A 
BRANCH  69  70
ATOM     70  S   UNL A   1      47.661  37.159  28.677  1.00  0.00     0.124 S 
ATOM     71  O   UNL A   1      47.563  37.709  27.329  1.00  0.00    -0.237 OA
ATOM     72  O   UNL A   1      46.650  37.621  29.623  1.00  0.00    -0.237 OA
ATOM     73  O   UNL A   1      49.015  37.051  29.214  1.00  0.00    -0.744 OA
ENDBRANCH  69  70
ENDBRANCH  48  62
BRANCH  49  74
ATOM     74  C   UNL A   1      43.523  23.307  26.653  1.00  0.00     0.058 A 
ATOM     75  C   UNL A   1      43.449  22.733  25.375  1.00  0.00     0.135 A 
ATOM     76  C   UNL A   1      43.225  22.490  27.754  1.00  0.00     0.135 A 
ATOM     77  F   UNL A   1      43.719  23.475  24.290  1.00  0.00    -0.206 F 
ATOM     78  C   UNL A   1      43.091  21.400  25.192  1.00  0.00     0.059 A 
ATOM     79  C   UNL A   1      42.886  21.148  27.598  1.00  0.00     0.059 A 
ATOM     80  F   UNL A   1      43.297  22.987  28.998  1.00  0.00    -0.206 F 
ATOM     81  C   UNL A   1      42.817  20.614  26.312  1.00  0.00     0.060 A 
BRANCH  81  82
ATOM     82  S   UNL A   1      42.425  18.868  26.065  1.00  0.00     0.124 S 
ATOM     83  O   UNL A   1      41.001  18.928  25.748  1.00  0.00    -0.237 OA
ATOM     84  O   UNL A   1      43.310  18.508  24.962  1.00  0.00    -0.237 OA
ATOM     85  O   UNL A   1      42.760  18.263  27.350  1.00  0.00    -0.744 OA
ENDBRANCH  81  82
ENDBRANCH  49  74
BRANCH  61  86
ATOM     86  C   UNL A   1      49.701  26.546  26.430  1.00  0.00     0.058 A 
ATOM     87  C   UNL A   1      50.494  25.994  27.446  1.00  0.00     0.135 A 
ATOM     88  C   UNL A   1      50.219  26.565  25.125  1.00  0.00     0.135 A 
ATOM     89  F   UNL A   1      50.045  25.958  28.710  1.00  0.00    -0.206 F 
ATOM     90  C   UNL A   1      51.761  25.485  27.180  1.00  0.00     0.059 A 
ATOM     91  C   UNL A   1      51.475  26.041  24.833  1.00  0.00     0.059 A 
ATOM     92  F   UNL A   1      49.495  27.075  24.117  1.00  0.00    -0.206 F 
ATOM     93  C   UNL A   1      52.241  25.508  25.869  1.00  0.00     0.060 A 
BRANCH  93  94
ATOM     94  S   UNL A   1      53.865  24.796  25.533  1.00  0.00     0.124 S 
ATOM     95  O   UNL A   1      53.511  23.444  25.110  1.00  0.00    -0.237 OA
ATOM     96  O   UNL A   1      54.379  25.673  24.486  1.00  0.00    -0.237 OA
ATOM     97  O   UNL A   1      54.552  24.891  26.817  1.00  0.00    -0.744 OA
ENDBRANCH  93  94
ENDBRANCH  61  86
ENDBRANCH  35  36
ENDBRANCH  28  30
ENDBRANCH  27  28
ENDBRANCH  26  27
ENDBRANCH   1  26
TORSDOF 18
ENDMDL
MODEL 2
REMARK VINA RESULT:     -11.3      5.348      7.083
REMARK SMILES CC(C)CN(C)c1cc2c(cc1Cl)C=C(C(=O)OCCOC(=O)c1ccc(-c3c4nc(c(-c5c(F)cc(S(=O)(=O)[O-])cc5F)c5ccc([nH]5)c(-c5c(F)cc(S(=O)(=O)[O-])cc5F)c5nc(c(-c6c(F)cc(S(=O)(=O)[O-])cc6F)c6ccc3[nH]6)C=C5)C=C4)cc1)[C@@H](C(F)(F)F)O2
REMARK SMILES IDX 19 1 18 2 16 3 17 4 15 5 7 6 8 7 12 8 9 9 11 10 13 11 10 12
REMARK SMILES IDX 95 13 14 14 90 15 5 16 6 17 4 18 2 19 1 20 3 21 91 22 92 23
REMARK SMILES IDX 93 24 94 25 20 26 21 27 22 28 23 29 24 30 25 31 89 32 26 33
REMARK SMILES IDX 88 34 27 35 28 36 29 37 82 38 30 39 87 40 81 41 83 42 31 43
REMARK SMILES IDX 86 44 80 45 79 46 32 48 66 49 45 50 65 51 46 52 49 53 64 54
REMARK SMILES IDX 84 55 47 56 48 57 63 59 85 60 50 61 33 62 34 63 43 64 35 65
REMARK SMILES IDX 36 66 42 67 44 68 37 69 38 70 39 71 40 72 41 73 67 74 68 75
REMARK SMILES IDX 77 76 69 77 70 78 76 79 78 80 71 81 72 82 73 83 74 84 75 85
REMARK SMILES IDX 51 86 52 87 61 88 53 89 54 90 60 91 62 92 55 93 56 94 57 95
REMARK SMILES IDX 58 96 59 97
REMARK H PARENT 83 47 49 58
REMARK Flexibility Score: inf
ROOT
ATOM      1  C   UNL A   1      31.680  30.061  25.531  1.00  0.00     0.275 C 
ENDROOT
BRANCH   1   2
ATOM      2  O   UNL A   1      30.946  28.829  25.343  1.00  0.00    -0.459 OA
BRANCH   2   3
ATOM      3  C   UNL A   1      30.897  28.397  24.062  1.00  0.00     0.338 C 
ATOM      4  O   UNL A   1      30.206  28.875  23.173  1.00  0.00    -0.246 OA
BRANCH   3   5
ATOM      5  C   UNL A   1      31.827  27.280  23.817  1.00  0.00     0.087 C 
ATOM      6  C   UNL A   1      34.814  23.279  24.540  1.00  0.00     0.059 A 
ATOM      7  C   UNL A   1      34.550  24.116  23.430  1.00  0.00     0.074 A 
ATOM      8  C   UNL A   1      34.170  23.587  25.758  1.00  0.00     0.065 A 
ATOM      9  C   UNL A   1      33.642  25.177  23.523  1.00  0.00     0.130 A 
ATOM     10  C   UNL A   1      33.187  24.566  25.817  1.00  0.00     0.034 A 
ATOM     11  Cl  UNL A   1      34.603  22.851  27.262  1.00  0.00    -0.082 Cl
ATOM     12  C   UNL A   1      32.922  25.350  24.700  1.00  0.00     0.019 A 
ATOM     13  O   UNL A   1      33.466  25.998  22.435  1.00  0.00    -0.475 OA
ATOM     14  C   UNL A   1      31.908  26.371  24.792  1.00  0.00     0.027 C 
ATOM     15  C   UNL A   1      32.796  27.285  22.669  1.00  0.00     0.316 C 
BRANCH   6  16
ATOM     16  N   UNL A   1      35.676  22.184  24.433  1.00  0.00    -0.373 N 
ATOM     17  C   UNL A   1      35.216  20.939  25.028  1.00  0.00     0.143 C 
BRANCH  16  18
ATOM     18  C   UNL A   1      37.131  22.446  24.413  1.00  0.00     0.119 C 
BRANCH  18  19
ATOM     19  C   UNL A   1      37.761  22.491  25.823  1.00  0.00     0.002 C 
ATOM     20  C   UNL A   1      39.054  21.671  25.901  1.00  0.00     0.009 C 
ATOM     21  C   UNL A   1      38.063  23.926  26.264  1.00  0.00     0.009 C 
ENDBRANCH  18  19
ENDBRANCH  16  18
ENDBRANCH   6  16
BRANCH  15  22
ATOM     22  C   UNL A   1      33.834  28.404  22.877  1.00  0.00     0.430 C 
ATOM     23  F   UNL A   1      34.850  28.315  21.986  1.00  0.00    -0.167 F 
ATOM     24  F   UNL A   1      33.275  29.628  22.703  1.00  0.00    -0.167 F 
ATOM     25  F   UNL A   1      34.378  28.385  24.115  1.00  0.00    -0.167 F 
ENDBRANCH  15  22
ENDBRANCH   3   5
ENDBRANCH   2   3
ENDBRANCH   1   2
BRANCH   1  26
ATOM     26  C   UNL A   1      32.495  30.058  26.827  1.00  0.00     0.275 C 
BRANCH  26  27
ATOM     27  O   UNL A   1      33.824  30.564  26.611  1.00  0.00    -0.458 OA
BRANCH  27  28
ATOM     28  C   UNL A   1      34.274  31.429  27.550  1.00  0.00     0.338 C 
ATOM     29  O   UNL A   1      33.679  32.384  28.017  1.00  0.00    -0.246 OA
BRANCH  28  30
ATOM     30  C   UNL A   1      35.605  31.015  28.021  1.00  0.00     0.060 A 
ATOM     31  C   UNL A   1      36.645  31.926  28.162  1.00  0.00     0.016 A 
ATOM     32  C   UNL A   1      35.755  29.716  28.493  1.00  0.00     0.016 A 
ATOM     33  C   UNL A   1      37.839  31.510  28.769  1.00  0.00     0.010 A 
ATOM     34  C   UNL A   1      36.882  29.349  29.223  1.00  0.00     0.010 A 
ATOM     35  C   UNL A   1      37.963  30.228  29.347  1.00  0.00    -0.014 A 
BRANCH  35  36
ATOM     36  C   UNL A   1      39.205  29.816  30.072  1.00  0.00     0.031 A 
ATOM     37  C   UNL A   1      39.505  30.323  31.468  1.00  0.00     0.074 A 
ATOM     38  C   UNL A   1      40.092  28.996  29.468  1.00  0.00     0.049 A 
ATOM     39  N   UNL A   1      40.520  30.040  32.249  1.00  0.00    -0.248 NA
ATOM     40  C   UNL A   1      38.577  31.307  32.048  1.00  0.00     0.031 C 
ATOM     41  C   UNL A   1      39.998  28.517  28.085  1.00  0.00     0.029 A 
ATOM     42  N   UNL A   1      41.235  28.397  29.941  1.00  0.00    -0.354 N 
ATOM     43  C   UNL A   1      40.359  30.824  33.388  1.00  0.00     0.074 A 
ATOM     44  C   UNL A   1      39.198  31.653  33.166  1.00  0.00     0.031 C 
ATOM     45  C   UNL A   1      40.981  27.633  27.855  1.00  0.00     0.029 A 
ATOM     46  C   UNL A   1      41.801  27.509  29.054  1.00  0.00     0.049 A 
ATOM     47  H   UNL A   1      41.613  28.585  30.831  1.00  0.00     0.167 HD
ATOM     48  C   UNL A   1      41.077  30.823  34.538  1.00  0.00     0.037 A 
ATOM     49  C   UNL A   1      42.846  26.669  29.195  1.00  0.00     0.037 A 
ATOM     50  C   UNL A   1      42.188  29.944  34.793  1.00  0.00     0.049 A 
ATOM     51  C   UNL A   1      43.584  26.625  30.505  1.00  0.00     0.074 A 
ATOM     52  C   UNL A   1      42.925  29.804  35.956  1.00  0.00     0.029 A 
ATOM     53  N   UNL A   1      42.708  29.044  33.876  1.00  0.00    -0.354 N 
ATOM     54  N   UNL A   1      43.366  27.321  31.595  1.00  0.00    -0.248 NA
ATOM     55  C   UNL A   1      44.707  25.682  30.607  1.00  0.00     0.031 C 
ATOM     56  C   UNL A   1      43.907  28.834  35.735  1.00  0.00     0.029 A 
ATOM     57  C   UNL A   1      43.761  28.347  34.446  1.00  0.00     0.049 A 
ATOM     58  H   UNL A   1      42.380  28.919  32.957  1.00  0.00     0.167 HD
ATOM     59  C   UNL A   1      44.316  26.893  32.515  1.00  0.00     0.074 A 
ATOM     60  C   UNL A   1      45.097  25.863  31.862  1.00  0.00     0.031 C 
ATOM     61  C   UNL A   1      44.526  27.321  33.783  1.00  0.00     0.037 A 
BRANCH  48  62
ATOM     62  C   UNL A   1      40.648  31.763  35.635  1.00  0.00     0.058 A 
ATOM     63  C   UNL A   1      39.516  31.499  36.422  1.00  0.00     0.135 A 
ATOM     64  C   UNL A   1      41.396  32.913  35.934  1.00  0.00     0.135 A 
ATOM     65  F   UNL A   1      38.756  30.420  36.173  1.00  0.00    -0.206 F 
ATOM     66  C   UNL A   1      39.121  32.355  37.444  1.00  0.00     0.059 A 
ATOM     67  C   UNL A   1      41.036  33.771  36.973  1.00  0.00     0.059 A 
ATOM     68  F   UNL A   1      42.491  33.214  35.220  1.00  0.00    -0.206 F 
ATOM     69  C   UNL A   1      39.888  33.488  37.713  1.00  0.00     0.060 A 
BRANCH  69  70
ATOM     70  S   UNL A   1      39.365  34.579  39.055  1.00  0.00     0.124 S 
ATOM     71  O   UNL A   1      38.176  33.890  39.544  1.00  0.00    -0.237 OA
ATOM     72  O   UNL A   1      40.522  34.553  39.945  1.00  0.00    -0.237 OA
ATOM     73  O   UNL A   1      39.122  35.853  38.384  1.00  0.00    -0.744 OA
ENDBRANCH  69  70
ENDBRANCH  48  62
BRANCH  49  74
ATOM     74  C   UNL A   1      43.207  25.746  28.085  1.00  0.00     0.058 A 
ATOM     75  C   UNL A   1      44.068  26.166  27.059  1.00  0.00     0.135 A 
ATOM     76  C   UNL A   1      42.740  24.424  28.046  1.00  0.00     0.135 A 
ATOM     77  F   UNL A   1      44.537  27.423  27.049  1.00  0.00    -0.206 F 
ATOM     78  C   UNL A   1      44.450  25.309  26.030  1.00  0.00     0.059 A 
ATOM     79  C   UNL A   1      43.126  23.543  27.039  1.00  0.00     0.059 A 
ATOM     80  F   UNL A   1      41.928  23.970  29.013  1.00  0.00    -0.206 F 
ATOM     81  C   UNL A   1      43.978  23.996  26.033  1.00  0.00     0.060 A 
BRANCH  81  82
ATOM     82  S   UNL A   1      44.538  22.874  24.733  1.00  0.00     0.124 S 
ATOM     83  O   UNL A   1      45.058  21.755  25.513  1.00  0.00    -0.237 OA
ATOM     84  O   UNL A   1      43.305  22.620  23.995  1.00  0.00    -0.237 OA
ATOM     85  O   UNL A   1      45.536  23.662  24.017  1.00  0.00    -0.744 OA
ENDBRANCH  81  82
ENDBRANCH  49  74
BRANCH  61  86
ATOM     86  C   UNL A   1      45.639  26.678  34.560  1.00  0.00     0.058 A 
ATOM     87  C   UNL A   1      46.927  27.229  34.578  1.00  0.00     0.135 A 
ATOM     88  C   UNL A   1      45.393  25.548  35.357  1.00  0.00     0.135 A 
ATOM     89  F   UNL A   1      47.213  28.306  33.830  1.00  0.00    -0.206 F 
ATOM     90  C   UNL A   1      47.941  26.676  35.353  1.00  0.00     0.059 A 
ATOM     91  C   UNL A   1      46.387  24.991  36.156  1.00  0.00     0.059 A 
ATOM     92  F   UNL A   1      44.173  24.989  35.380  1.00  0.00    -0.206 F 
ATOM     93  C   UNL A   1      47.660  25.560  36.143  1.00  0.00     0.060 A 
BRANCH  93  94
ATOM     94  S   UNL A   1      48.973  24.885  37.182  1.00  0.00     0.124 S 
ATOM     95  O   UNL A   1      50.165  25.239  36.416  1.00  0.00    -0.237 OA
ATOM     96  O   UNL A   1      48.785  25.612  38.433  1.00  0.00    -0.237 OA
ATOM     97  O   UNL A   1      48.665  23.460  37.238  1.00  0.00    -0.744 OA
ENDBRANCH  93  94
ENDBRANCH  61  86
ENDBRANCH  35  36
ENDBRANCH  28  30
ENDBRANCH  27  28
ENDBRANCH  26  27
ENDBRANCH   1  26
TORSDOF 18
ENDMDL
MODEL 3
REMARK VINA RESULT:     -11.2      3.454      9.437
REMARK SMILES CC(C)CN(C)c1cc2c(cc1Cl)C=C(C(=O)OCCOC(=O)c1ccc(-c3c4nc(c(-c5c(F)cc(S(=O)(=O)[O-])cc5F)c5ccc([nH]5)c(-c5c(F)cc(S(=O)(=O)[O-])cc5F)c5nc(c(-c6c(F)cc(S(=O)(=O)[O-])cc6F)c6ccc3[nH]6)C=C5)C=C4)cc1)[C@@H](C(F)(F)F)O2
REMARK SMILES IDX 19 1 18 2 16 3 17 4 15 5 7 6 8 7 12 8 9 9 11 10 13 11 10 12
REMARK SMILES IDX 95 13 14 14 90 15 5 16 6 17 4 18 2 19 1 20 3 21 91 22 92 23
REMARK SMILES IDX 93 24 94 25 20 26 21 27 22 28 23 29 24 30 25 31 89 32 26 33
REMARK SMILES IDX 88 34 27 35 28 36 29 37 82 38 30 39 87 40 81 41 83 42 31 43
REMARK SMILES IDX 86 44 80 45 79 46 32 48 66 49 45 50 65 51 46 52 49 53 64 54
REMARK SMILES IDX 84 55 47 56 48 57 63 59 85 60 50 61 33 62 34 63 43 64 35 65
REMARK SMILES IDX 36 66 42 67 44 68 37 69 38 70 39 71 40 72 41 73 67 74 68 75
REMARK SMILES IDX 77 76 69 77 70 78 76 79 78 80 71 81 72 82 73 83 74 84 75 85
REMARK SMILES IDX 51 86 52 87 61 88 53 89 54 90 60 91 62 92 55 93 56 94 57 95
REMARK SMILES IDX 58 96 59 97
REMARK H PARENT 83 47 49 58
REMARK Flexibility Score: inf
ROOT
ATOM      1  C   UNL A   1      36.129  20.942  25.171  1.00  0.00     0.275 C 
ENDROOT
BRANCH   1   2
ATOM      2  O   UNL A   1      35.090  21.300  24.232  1.00  0.00    -0.459 OA
BRANCH   2   3
ATOM      3  C   UNL A   1      33.832  21.145  24.704  1.00  0.00     0.338 C 
ATOM      4  O   UNL A   1      33.226  20.085  24.790  1.00  0.00    -0.246 OA
BRANCH   3   5
ATOM      5  C   UNL A   1      33.253  22.418  25.168  1.00  0.00     0.087 C 
ATOM      6  C   UNL A   1      32.326  27.347  25.724  1.00  0.00     0.059 A 
ATOM      7  C   UNL A   1      31.872  26.184  26.391  1.00  0.00     0.074 A 
ATOM      8  C   UNL A   1      33.274  27.180  24.692  1.00  0.00     0.065 A 
ATOM      9  C   UNL A   1      32.308  24.911  26.004  1.00  0.00     0.130 A 
ATOM     10  C   UNL A   1      33.617  25.914  24.235  1.00  0.00     0.034 A 
ATOM     11  Cl  UNL A   1      34.136  28.502  23.984  1.00  0.00    -0.082 Cl
ATOM     12  C   UNL A   1      33.127  24.787  24.887  1.00  0.00     0.019 A 
ATOM     13  O   UNL A   1      31.887  23.818  26.723  1.00  0.00    -0.475 OA
ATOM     14  C   UNL A   1      33.510  23.484  24.405  1.00  0.00     0.027 C 
ATOM     15  C   UNL A   1      32.624  22.562  26.526  1.00  0.00     0.316 C 
BRANCH   6  16
ATOM     16  N   UNL A   1      31.848  28.614  26.070  1.00  0.00    -0.373 N 
ATOM     17  C   UNL A   1      31.430  29.470  24.970  1.00  0.00     0.143 C 
BRANCH  16  18
ATOM     18  C   UNL A   1      32.407  29.259  27.277  1.00  0.00     0.119 C 
BRANCH  18  19
ATOM     19  C   UNL A   1      33.692  30.069  26.994  1.00  0.00     0.002 C 
ATOM     20  C   UNL A   1      33.648  31.461  27.635  1.00  0.00     0.009 C 
ATOM     21  C   UNL A   1      34.944  29.340  27.492  1.00  0.00     0.009 C 
ENDBRANCH  18  19
ENDBRANCH  16  18
ENDBRANCH   6  16
BRANCH  15  22
ATOM     22  C   UNL A   1      33.703  22.394  27.612  1.00  0.00     0.430 C 
ATOM     23  F   UNL A   1      33.246  22.764  28.832  1.00  0.00    -0.167 F 
ATOM     24  F   UNL A   1      34.087  21.097  27.722  1.00  0.00    -0.167 F 
ATOM     25  F   UNL A   1      34.815  23.121  27.357  1.00  0.00    -0.167 F 
ENDBRANCH  15  22
ENDBRANCH   3   5
ENDBRANCH   2   3
ENDBRANCH   1   2
BRANCH   1  26
ATOM     26  C   UNL A   1      37.465  21.611  24.839  1.00  0.00     0.275 C 
BRANCH  26  27
ATOM     27  O   UNL A   1      37.905  22.464  25.912  1.00  0.00    -0.458 OA
BRANCH  27  28
ATOM     28  C   UNL A   1      39.177  22.261  26.328  1.00  0.00     0.338 C 
ATOM     29  O   UNL A   1      39.856  21.264  26.163  1.00  0.00    -0.246 OA
BRANCH  28  30
ATOM     30  C   UNL A   1      39.697  23.480  26.969  1.00  0.00     0.060 A 
ATOM     31  C   UNL A   1      40.597  23.419  28.026  1.00  0.00     0.016 A 
ATOM     32  C   UNL A   1      39.403  24.703  26.380  1.00  0.00     0.016 A 
ATOM     33  C   UNL A   1      41.186  24.605  28.490  1.00  0.00     0.010 A 
ATOM     34  C   UNL A   1      40.097  25.855  26.744  1.00  0.00     0.010 A 
ATOM     35  C   UNL A   1      40.978  25.836  27.830  1.00  0.00    -0.014 A 
BRANCH  35  36
ATOM     36  C   UNL A   1      41.675  27.084  28.272  1.00  0.00     0.031 A 
ATOM     37  C   UNL A   1      43.138  27.321  27.955  1.00  0.00     0.074 A 
ATOM     38  C   UNL A   1      41.000  28.011  28.986  1.00  0.00     0.049 A 
ATOM     39  N   UNL A   1      43.885  28.362  28.235  1.00  0.00    -0.248 NA
ATOM     40  C   UNL A   1      43.871  26.239  27.278  1.00  0.00     0.031 C 
ATOM     41  C   UNL A   1      39.622  27.873  29.466  1.00  0.00     0.029 A 
ATOM     42  N   UNL A   1      41.369  29.264  29.415  1.00  0.00    -0.354 N 
ATOM     43  C   UNL A   1      45.167  28.045  27.793  1.00  0.00     0.074 A 
ATOM     44  C   UNL A   1      45.117  26.689  27.300  1.00  0.00     0.031 C 
ATOM     45  C   UNL A   1      39.234  29.023  30.037  1.00  0.00     0.029 A 
ATOM     46  C   UNL A   1      40.344  29.969  30.005  1.00  0.00     0.049 A 
ATOM     47  H   UNL A   1      42.280  29.622  29.311  1.00  0.00     0.167 HD
ATOM     48  C   UNL A   1      46.276  28.824  27.750  1.00  0.00     0.037 A 
ATOM     49  C   UNL A   1      40.291  31.242  30.446  1.00  0.00     0.037 A 
ATOM     50  C   UNL A   1      46.310  30.200  28.170  1.00  0.00     0.049 A 
ATOM     51  C   UNL A   1      41.508  32.116  30.320  1.00  0.00     0.074 A 
ATOM     52  C   UNL A   1      47.358  31.100  28.086  1.00  0.00     0.029 A 
ATOM     53  N   UNL A   1      45.241  30.880  28.734  1.00  0.00    -0.354 N 
ATOM     54  N   UNL A   1      42.687  31.819  29.828  1.00  0.00    -0.248 NA
ATOM     55  C   UNL A   1      41.390  33.498  30.806  1.00  0.00     0.031 C 
ATOM     56  C   UNL A   1      46.931  32.319  28.621  1.00  0.00     0.029 A 
ATOM     57  C   UNL A   1      45.607  32.187  29.009  1.00  0.00     0.049 A 
ATOM     58  H   UNL A   1      44.356  30.492  28.914  1.00  0.00     0.167 HD
ATOM     59  C   UNL A   1      43.446  32.978  29.934  1.00  0.00     0.074 A 
ATOM     60  C   UNL A   1      42.589  33.988  30.518  1.00  0.00     0.031 C 
ATOM     61  C   UNL A   1      44.740  33.183  29.586  1.00  0.00     0.037 A 
BRANCH  48  62
ATOM     62  C   UNL A   1      47.534  28.224  27.177  1.00  0.00     0.058 A 
ATOM     63  C   UNL A   1      47.773  28.216  25.793  1.00  0.00     0.135 A 
ATOM     64  C   UNL A   1      48.528  27.694  28.014  1.00  0.00     0.135 A 
ATOM     65  F   UNL A   1      46.851  28.698  24.944  1.00  0.00    -0.206 F 
ATOM     66  C   UNL A   1      48.937  27.675  25.257  1.00  0.00     0.059 A 
ATOM     67  C   UNL A   1      49.716  27.174  27.501  1.00  0.00     0.059 A 
ATOM     68  F   UNL A   1      48.357  27.681  29.345  1.00  0.00    -0.206 F 
ATOM     69  C   UNL A   1      49.903  27.157  26.119  1.00  0.00     0.060 A 
BRANCH  69  70
ATOM     70  S   UNL A   1      51.414  26.474  25.403  1.00  0.00     0.124 S 
ATOM     71  O   UNL A   1      51.137  26.588  23.975  1.00  0.00    -0.237 OA
ATOM     72  O   UNL A   1      52.439  27.375  25.921  1.00  0.00    -0.237 OA
ATOM     73  O   UNL A   1      51.457  25.113  25.929  1.00  0.00    -0.744 OA
ENDBRANCH  69  70
ENDBRANCH  48  62
BRANCH  49  74
ATOM     74  C   UNL A   1      39.013  31.786  30.980  1.00  0.00     0.058 A 
ATOM     75  C   UNL A   1      38.049  32.324  30.114  1.00  0.00     0.135 A 
ATOM     76  C   UNL A   1      38.709  31.744  32.349  1.00  0.00     0.135 A 
ATOM     77  F   UNL A   1      38.294  32.392  28.796  1.00  0.00    -0.206 F 
ATOM     78  C   UNL A   1      36.830  32.804  30.584  1.00  0.00     0.059 A 
ATOM     79  C   UNL A   1      37.489  32.198  32.841  1.00  0.00     0.059 A 
ATOM     80  F   UNL A   1      39.592  31.224  33.216  1.00  0.00    -0.206 F 
ATOM     81  C   UNL A   1      36.557  32.731  31.951  1.00  0.00     0.060 A 
BRANCH  81  82
ATOM     82  S   UNL A   1      34.945  33.292  32.541  1.00  0.00     0.124 S 
ATOM     83  O   UNL A   1      34.038  32.459  31.757  1.00  0.00    -0.237 OA
ATOM     84  O   UNL A   1      35.018  32.989  33.967  1.00  0.00    -0.237 OA
ATOM     85  O   UNL A   1      34.941  34.713  32.209  1.00  0.00    -0.744 OA
ENDBRANCH  81  82
ENDBRANCH  49  74
BRANCH  61  86
ATOM     86  C   UNL A   1      45.315  34.551  29.818  1.00  0.00     0.058 A 
ATOM     87  C   UNL A   1      45.231  35.550  28.839  1.00  0.00     0.135 A 
ATOM     88  C   UNL A   1      45.883  34.886  31.057  1.00  0.00     0.135 A 
ATOM     89  F   UNL A   1      44.702  35.277  27.636  1.00  0.00    -0.206 F 
ATOM     90  C   UNL A   1      45.700  36.838  29.077  1.00  0.00     0.059 A 
ATOM     91  C   UNL A   1      46.337  36.174  31.324  1.00  0.00     0.059 A 
ATOM     92  F   UNL A   1      45.978  33.965  32.029  1.00  0.00    -0.206 F 
ATOM     93  C   UNL A   1      46.247  37.142  30.325  1.00  0.00     0.060 A 
BRANCH  93  94
ATOM     94  S   UNL A   1      46.802  38.831  30.636  1.00  0.00     0.124 S 
ATOM     95  O   UNL A   1      45.820  39.606  29.884  1.00  0.00    -0.237 OA
ATOM     96  O   UNL A   1      46.709  38.928  32.089  1.00  0.00    -0.237 OA
ATOM     97  O   UNL A   1      48.159  38.848  30.097  1.00  0.00    -0.744 OA
ENDBRANCH  93  94
ENDBRANCH  61  86
ENDBRANCH  35  36
ENDBRANCH  28  30
ENDBRANCH  27  28
ENDBRANCH  26  27
ENDBRANCH   1  26
TORSDOF 18
ENDMDL
