MODEL 1
REMARK VINA RESULT:     -10.0      0.000      0.000
REMARK SMILES COc1ccc(Br)c([C@H]2[NH2+][C@H](C(=O)OCCOC(=O)c3ccc(-c4c5nc(c(-c6c(F)cc(S(=O)(=O)[O-])cc6F)c6ccc([nH]6)c(-c6c(F)cc(S(=O)(=O)[O-])cc6F)c6nc(c(-c7c(F)cc(S(=O)(=O)[O-])cc7F)c7ccc4[nH]7)C=C6)C=C5)cc3)CS2)c1O
REMARK SMILES IDX 16 1 15 2 14 3 12 4 13 5 11 6 9 7 10 8 87 9 86 12 8 13 3 14
REMARK SMILES IDX 4 15 88 16 5 17 6 18 7 19 2 20 1 21 89 22 17 24 18 25 19 26
REMARK SMILES IDX 20 27 21 28 85 29 22 30 84 31 23 32 24 33 25 34 78 35 26 36
REMARK SMILES IDX 83 37 77 38 79 39 27 40 82 41 76 42 75 43 28 45 62 46 41 47
REMARK SMILES IDX 61 48 42 49 45 50 60 51 80 52 43 53 44 54 59 56 81 57 46 58
REMARK SMILES IDX 29 59 30 60 39 61 31 62 32 63 38 64 40 65 33 66 34 67 35 68
REMARK SMILES IDX 36 69 37 70 63 71 64 72 73 73 65 74 66 75 72 76 74 77 67 78
REMARK SMILES IDX 68 79 69 80 70 81 71 82 47 83 48 84 57 85 49 86 50 87 56 88
REMARK SMILES IDX 58 89 51 90 52 91 53 92 54 93 55 94
REMARK H PARENT 10 10 10 11 89 23 79 44 45 55
REMARK Flexibility Score: inf
ROOT
ATOM      1  C   UNL A   1      35.918  32.646  29.691  1.00  0.00     0.275 C 
ENDROOT
BRANCH   1   2
ATOM      2  C   UNL A   1      34.514  33.159  30.006  1.00  0.00     0.274 C 
BRANCH   2   3
ATOM      3  O   UNL A   1      34.113  32.791  31.339  1.00  0.00    -0.458 OA
BRANCH   3   4
ATOM      4  C   UNL A   1      34.372  33.694  32.322  1.00  0.00     0.365 C 
ATOM      5  O   UNL A   1      34.142  34.897  32.230  1.00  0.00    -0.245 OA
BRANCH   4   6
ATOM      6  C   UNL A   1      35.056  33.104  33.561  1.00  0.00     0.304 C 
ATOM      7  C   UNL A   1      37.404  32.965  33.098  1.00  0.00     0.279 C 
ATOM      8  N   UNL A   1      36.181  32.173  33.300  1.00  0.00    -0.319 N 
ATOM      9  S   UNL A   1      37.236  34.532  34.010  1.00  0.00    -0.087 SA
ATOM     10  H   UNL A   1      36.302  31.548  34.098  1.00  0.00     0.348 HD
ATOM     11  H   UNL A   1      35.986  31.612  32.470  1.00  0.00     0.348 HD
ATOM     12  C   UNL A   1      35.524  34.204  34.497  1.00  0.00     0.153 C 
BRANCH   7  13
ATOM     13  C   UNL A   1      38.646  32.127  33.370  1.00  0.00     0.080 A 
ATOM     14  C   UNL A   1      39.912  30.471  34.675  1.00  0.00     0.161 A 
ATOM     15  C   UNL A   1      40.966  30.504  33.774  1.00  0.00     0.051 A 
ATOM     16  C   UNL A   1      38.772  31.266  34.478  1.00  0.00     0.169 A 
ATOM     17  C   UNL A   1      40.860  31.314  32.650  1.00  0.00     0.020 A 
ATOM     18  C   UNL A   1      39.720  32.113  32.448  1.00  0.00     0.032 A 
ATOM     19  Br  UNL A   1      39.735  33.154  30.849  1.00  0.00    -0.050 Br
BRANCH  14  20
ATOM     20  O   UNL A   1      40.030  29.702  35.806  1.00  0.00    -0.493 OA
ATOM     21  C   UNL A   1      41.215  28.902  35.754  1.00  0.00     0.278 C 
ENDBRANCH  14  20
BRANCH  16  22
ATOM     22  O   UNL A   1      37.767  31.160  35.405  1.00  0.00    -0.504 OA
ATOM     23  H   UNL A   1      37.855  30.566  36.124  1.00  0.00     0.293 HD
ENDBRANCH  16  22
ENDBRANCH   7  13
ENDBRANCH   4   6
ENDBRANCH   3   4
ENDBRANCH   2   3
ENDBRANCH   1   2
BRANCH   1  24
ATOM     24  O   UNL A   1      35.890  31.249  29.354  1.00  0.00    -0.458 OA
BRANCH  24  25
ATOM     25  C   UNL A   1      36.399  30.426  30.303  1.00  0.00     0.338 C 
ATOM     26  O   UNL A   1      35.892  30.110  31.363  1.00  0.00    -0.246 OA
BRANCH  25  27
ATOM     27  C   UNL A   1      37.678  29.880  29.830  1.00  0.00     0.060 A 
ATOM     28  C   UNL A   1      38.496  29.216  30.747  1.00  0.00     0.016 A 
ATOM     29  C   UNL A   1      38.106  30.107  28.521  1.00  0.00     0.016 A 
ATOM     30  C   UNL A   1      39.760  28.779  30.356  1.00  0.00     0.010 A 
ATOM     31  C   UNL A   1      39.376  29.670  28.132  1.00  0.00     0.010 A 
ATOM     32  C   UNL A   1      40.217  29.018  29.051  1.00  0.00    -0.014 A 
BRANCH  32  33
ATOM     33  C   UNL A   1      41.599  28.644  28.668  1.00  0.00     0.031 A 
ATOM     34  C   UNL A   1      42.678  29.691  28.652  1.00  0.00     0.074 A 
ATOM     35  C   UNL A   1      41.888  27.369  28.346  1.00  0.00     0.049 A 
ATOM     36  N   UNL A   1      43.928  29.586  28.281  1.00  0.00    -0.248 NA
ATOM     37  C   UNL A   1      42.299  31.035  29.115  1.00  0.00     0.031 C 
ATOM     38  C   UNL A   1      40.931  26.261  28.356  1.00  0.00     0.029 A 
ATOM     39  N   UNL A   1      43.066  26.794  27.943  1.00  0.00    -0.354 N 
ATOM     40  C   UNL A   1      44.482  30.849  28.447  1.00  0.00     0.074 A 
ATOM     41  C   UNL A   1      43.427  31.710  28.940  1.00  0.00     0.031 C 
ATOM     42  C   UNL A   1      41.563  25.138  27.975  1.00  0.00     0.029 A 
ATOM     43  C   UNL A   1      42.953  25.454  27.657  1.00  0.00     0.049 A 
ATOM     44  H   UNL A   1      43.910  27.292  27.866  1.00  0.00     0.167 HD
ATOM     45  C   UNL A   1      45.753  31.252  28.213  1.00  0.00     0.037 A 
ATOM     46  C   UNL A   1      43.862  24.586  27.171  1.00  0.00     0.037 A 
ATOM     47  C   UNL A   1      46.801  30.389  27.734  1.00  0.00     0.049 A 
ATOM     48  C   UNL A   1      45.258  25.068  26.878  1.00  0.00     0.074 A 
ATOM     49  C   UNL A   1      48.126  30.700  27.478  1.00  0.00     0.029 A 
ATOM     50  N   UNL A   1      46.644  29.043  27.438  1.00  0.00    -0.354 N 
ATOM     51  N   UNL A   1      45.765  26.267  27.039  1.00  0.00    -0.248 NA
ATOM     52  C   UNL A   1      46.201  24.081  26.333  1.00  0.00     0.031 C 
ATOM     53  C   UNL A   1      48.761  29.549  26.995  1.00  0.00     0.029 A 
ATOM     54  C   UNL A   1      47.843  28.513  26.988  1.00  0.00     0.049 A 
ATOM     55  H   UNL A   1      45.805  28.538  27.535  1.00  0.00     0.167 HD
ATOM     56  C   UNL A   1      47.092  26.175  26.631  1.00  0.00     0.074 A 
ATOM     57  C   UNL A   1      47.311  24.800  26.228  1.00  0.00     0.031 C 
ATOM     58  C   UNL A   1      48.043  27.141  26.593  1.00  0.00     0.037 A 
BRANCH  45  59
ATOM     59  C   UNL A   1      46.076  32.701  28.449  1.00  0.00     0.058 A 
ATOM     60  C   UNL A   1      46.543  33.161  29.690  1.00  0.00     0.135 A 
ATOM     61  C   UNL A   1      45.939  33.638  27.413  1.00  0.00     0.135 A 
ATOM     62  F   UNL A   1      46.677  32.309  30.720  1.00  0.00    -0.206 F 
ATOM     63  C   UNL A   1      46.840  34.503  29.902  1.00  0.00     0.059 A 
ATOM     64  C   UNL A   1      46.250  34.982  27.597  1.00  0.00     0.059 A 
ATOM     65  F   UNL A   1      45.494  33.250  26.207  1.00  0.00    -0.206 F 
ATOM     66  C   UNL A   1      46.686  35.408  28.851  1.00  0.00     0.060 A 
BRANCH  66  67
ATOM     67  S   UNL A   1      47.071  37.147  29.139  1.00  0.00     0.124 S 
ATOM     68  O   UNL A   1      47.867  37.070  30.360  1.00  0.00    -0.237 OA
ATOM     69  O   UNL A   1      47.801  37.514  27.930  1.00  0.00    -0.237 OA
ATOM     70  O   UNL A   1      45.757  37.766  29.285  1.00  0.00    -0.744 OA
ENDBRANCH  66  67
ENDBRANCH  45  59
BRANCH  46  71
ATOM     71  C   UNL A   1      43.473  23.175  26.913  1.00  0.00     0.058 A 
ATOM     72  C   UNL A   1      43.358  22.685  25.606  1.00  0.00     0.135 A 
ATOM     73  C   UNL A   1      43.226  22.287  27.971  1.00  0.00     0.135 A 
ATOM     74  F   UNL A   1      43.574  23.499  24.562  1.00  0.00    -0.206 F 
ATOM     75  C   UNL A   1      43.002  21.363  25.353  1.00  0.00     0.059 A 
ATOM     76  C   UNL A   1      42.892  20.956  27.745  1.00  0.00     0.059 A 
ATOM     77  F   UNL A   1      43.334  22.707  29.242  1.00  0.00    -0.206 F 
ATOM     78  C   UNL A   1      42.773  20.506  26.430  1.00  0.00     0.060 A 
BRANCH  78  79
ATOM     79  S   UNL A   1      42.370  18.777  26.097  1.00  0.00     0.124 S 
ATOM     80  O   UNL A   1      40.955  18.867  25.756  1.00  0.00    -0.237 OA
ATOM     81  O   UNL A   1      43.273  18.456  24.995  1.00  0.00    -0.237 OA
ATOM     82  O   UNL A   1      42.677  18.114  27.361  1.00  0.00    -0.744 OA
ENDBRANCH  78  79
ENDBRANCH  46  71
BRANCH  58  83
ATOM     83  C   UNL A   1      49.413  26.741  26.123  1.00  0.00     0.058 A 
ATOM     84  C   UNL A   1      50.346  26.158  26.994  1.00  0.00     0.135 A 
ATOM     85  C   UNL A   1      49.778  26.900  24.777  1.00  0.00     0.135 A 
ATOM     86  F   UNL A   1      50.047  25.991  28.291  1.00  0.00    -0.206 F 
ATOM     87  C   UNL A   1      51.604  25.764  26.550  1.00  0.00     0.059 A 
ATOM     88  C   UNL A   1      51.022  26.492  24.307  1.00  0.00     0.059 A 
ATOM     89  F   UNL A   1      48.916  27.444  23.903  1.00  0.00    -0.206 F 
ATOM     90  C   UNL A   1      51.933  25.936  25.203  1.00  0.00     0.060 A 
BRANCH  90  91
ATOM     91  S   UNL A   1      53.555  25.390  24.627  1.00  0.00     0.124 S 
ATOM     92  O   UNL A   1      53.506  23.962  24.921  1.00  0.00    -0.237 OA
ATOM     93  O   UNL A   1      53.525  25.749  23.212  1.00  0.00    -0.237 OA
ATOM     94  O   UNL A   1      54.483  26.169  25.443  1.00  0.00    -0.744 OA
ENDBRANCH  90  91
ENDBRANCH  58  83
ENDBRANCH  32  33
ENDBRANCH  25  27
ENDBRANCH  24  25
ENDBRANCH   1  24
TORSDOF 17
ENDMDL
MODEL 2
REMARK VINA RESULT:      -9.9      1.497      2.134
REMARK SMILES COc1ccc(Br)c([C@H]2[NH2+][C@H](C(=O)OCCOC(=O)c3ccc(-c4c5nc(c(-c6c(F)cc(S(=O)(=O)[O-])cc6F)c6ccc([nH]6)c(-c6c(F)cc(S(=O)(=O)[O-])cc6F)c6nc(c(-c7c(F)cc(S(=O)(=O)[O-])cc7F)c7ccc4[nH]7)C=C6)C=C5)cc3)CS2)c1O
REMARK SMILES IDX 16 1 15 2 14 3 12 4 13 5 11 6 9 7 10 8 87 9 86 12 8 13 3 14
REMARK SMILES IDX 4 15 88 16 5 17 6 18 7 19 2 20 1 21 89 22 17 24 18 25 19 26
REMARK SMILES IDX 20 27 21 28 85 29 22 30 84 31 23 32 24 33 25 34 78 35 26 36
REMARK SMILES IDX 83 37 77 38 79 39 27 40 82 41 76 42 75 43 28 45 62 46 41 47
REMARK SMILES IDX 61 48 42 49 45 50 60 51 80 52 43 53 44 54 59 56 81 57 46 58
REMARK SMILES IDX 29 59 30 60 39 61 31 62 32 63 38 64 40 65 33 66 34 67 35 68
REMARK SMILES IDX 36 69 37 70 63 71 64 72 73 73 65 74 66 75 72 76 74 77 67 78
REMARK SMILES IDX 68 79 69 80 70 81 71 82 47 83 48 84 57 85 49 86 50 87 56 88
REMARK SMILES IDX 58 89 51 90 52 91 53 92 54 93 55 94
REMARK H PARENT 10 10 10 11 89 23 79 44 45 55
REMARK Flexibility Score: inf
ROOT
ATOM      1  C   UNL A   1      34.652  31.999  28.961  1.00  0.00     0.275 C 
ENDROOT
BRANCH   1   2
ATOM      2  C   UNL A   1      33.967  33.242  28.394  1.00  0.00     0.274 C 
BRANCH   2   3
ATOM      3  O   UNL A   1      34.330  34.421  29.137  1.00  0.00    -0.458 OA
BRANCH   3   4
ATOM      4  C   UNL A   1      33.340  35.014  29.855  1.00  0.00     0.365 C 
ATOM      5  O   UNL A   1      32.578  35.865  29.405  1.00  0.00    -0.245 OA
BRANCH   4   6
ATOM      6  C   UNL A   1      33.282  34.587  31.327  1.00  0.00     0.304 C 
ATOM      7  C   UNL A   1      35.439  34.995  32.288  1.00  0.00     0.279 C 
ATOM      8  N   UNL A   1      34.504  33.941  31.865  1.00  0.00    -0.319 N 
ATOM      9  S   UNL A   1      34.479  36.474  32.740  1.00  0.00    -0.087 SA
ATOM     10  H   UNL A   1      34.260  33.356  32.664  1.00  0.00     0.348 HD
ATOM     11  H   UNL A   1      34.935  33.358  31.149  1.00  0.00     0.348 HD
ATOM     12  C   UNL A   1      32.902  35.759  32.216  1.00  0.00     0.153 C 
BRANCH   7  13
ATOM     13  C   UNL A   1      36.429  34.463  33.315  1.00  0.00     0.080 A 
ATOM     14  C   UNL A   1      36.997  33.589  35.543  1.00  0.00     0.161 A 
ATOM     15  C   UNL A   1      38.315  33.375  35.170  1.00  0.00     0.051 A 
ATOM     16  C   UNL A   1      36.069  34.123  34.634  1.00  0.00     0.169 A 
ATOM     17  C   UNL A   1      38.697  33.665  33.866  1.00  0.00     0.020 A 
ATOM     18  C   UNL A   1      37.772  34.199  32.951  1.00  0.00     0.032 A 
ATOM     19  Br  UNL A   1      38.461  34.526  31.201  1.00  0.00    -0.050 Br
BRANCH  14  20
ATOM     20  O   UNL A   1      36.626  33.341  36.842  1.00  0.00    -0.493 OA
ATOM     21  C   UNL A   1      37.768  33.338  37.703  1.00  0.00     0.278 C 
ENDBRANCH  14  20
BRANCH  16  22
ATOM     22  O   UNL A   1      34.782  34.285  35.076  1.00  0.00    -0.504 OA
ATOM     23  H   UNL A   1      34.213  34.895  34.649  1.00  0.00     0.293 HD
ENDBRANCH  16  22
ENDBRANCH   7  13
ENDBRANCH   4   6
ENDBRANCH   3   4
ENDBRANCH   2   3
ENDBRANCH   1   2
BRANCH   1  24
ATOM     24  O   UNL A   1      35.940  32.329  29.508  1.00  0.00    -0.458 OA
BRANCH  24  25
ATOM     25  C   UNL A   1      36.352  31.521  30.515  1.00  0.00     0.338 C 
ATOM     26  O   UNL A   1      35.781  31.289  31.564  1.00  0.00    -0.246 OA
BRANCH  25  27
ATOM     27  C   UNL A   1      37.611  30.871  30.125  1.00  0.00     0.060 A 
ATOM     28  C   UNL A   1      38.550  30.592  31.121  1.00  0.00     0.016 A 
ATOM     29  C   UNL A   1      37.899  30.631  28.781  1.00  0.00     0.016 A 
ATOM     30  C   UNL A   1      39.795  30.073  30.771  1.00  0.00     0.010 A 
ATOM     31  C   UNL A   1      39.150  30.113  28.432  1.00  0.00     0.010 A 
ATOM     32  C   UNL A   1      40.111  29.846  29.422  1.00  0.00    -0.014 A 
BRANCH  32  33
ATOM     33  C   UNL A   1      41.470  29.391  29.045  1.00  0.00     0.031 A 
ATOM     34  C   UNL A   1      42.612  30.370  29.049  1.00  0.00     0.074 A 
ATOM     35  C   UNL A   1      41.682  28.105  28.712  1.00  0.00     0.049 A 
ATOM     36  N   UNL A   1      43.856  30.192  28.685  1.00  0.00    -0.248 NA
ATOM     37  C   UNL A   1      42.313  31.730  29.524  1.00  0.00     0.031 C 
ATOM     38  C   UNL A   1      40.660  27.058  28.703  1.00  0.00     0.029 A 
ATOM     39  N   UNL A   1      42.826  27.462  28.311  1.00  0.00    -0.354 N 
ATOM     40  C   UNL A   1      44.485  31.417  28.869  1.00  0.00     0.074 A 
ATOM     41  C   UNL A   1      43.482  32.336  29.364  1.00  0.00     0.031 C 
ATOM     42  C   UNL A   1      41.224  25.902  28.314  1.00  0.00     0.029 A 
ATOM     43  C   UNL A   1      42.634  26.135  28.009  1.00  0.00     0.049 A 
ATOM     44  H   UNL A   1      43.700  27.908  28.245  1.00  0.00     0.167 HD
ATOM     45  C   UNL A   1      45.781  31.743  28.649  1.00  0.00     0.037 A 
ATOM     46  C   UNL A   1      43.491  25.218  27.521  1.00  0.00     0.037 A 
ATOM     47  C   UNL A   1      46.777  30.822  28.168  1.00  0.00     0.049 A 
ATOM     48  C   UNL A   1      44.916  25.616  27.243  1.00  0.00     0.074 A 
ATOM     49  C   UNL A   1      48.120  31.053  27.924  1.00  0.00     0.029 A 
ATOM     50  N   UNL A   1      46.540  29.491  27.856  1.00  0.00    -0.354 N 
ATOM     51  N   UNL A   1      45.495  26.779  27.420  1.00  0.00    -0.248 NA
ATOM     52  C   UNL A   1      45.801  24.578  26.694  1.00  0.00     0.031 C 
ATOM     53  C   UNL A   1      48.688  29.871  27.434  1.00  0.00     0.029 A 
ATOM     54  C   UNL A   1      47.707  28.893  27.408  1.00  0.00     0.049 A 
ATOM     55  H   UNL A   1      45.671  29.038  27.941  1.00  0.00     0.167 HD
ATOM     56  C   UNL A   1      46.817  26.609  27.021  1.00  0.00     0.074 A 
ATOM     57  C   UNL A   1      46.953  25.228  26.605  1.00  0.00     0.031 C 
ATOM     58  C   UNL A   1      47.825  27.515  27.001  1.00  0.00     0.037 A 
BRANCH  45  59
ATOM     59  C   UNL A   1      46.190  33.167  28.903  1.00  0.00     0.058 A 
ATOM     60  C   UNL A   1      46.119  34.146  27.900  1.00  0.00     0.135 A 
ATOM     61  C   UNL A   1      46.638  33.561  30.174  1.00  0.00     0.135 A 
ATOM     62  F   UNL A   1      45.713  33.818  26.663  1.00  0.00    -0.206 F 
ATOM     63  C   UNL A   1      46.499  35.462  28.142  1.00  0.00     0.059 A 
ATOM     64  C   UNL A   1      47.004  34.877  30.443  1.00  0.00     0.059 A 
ATOM     65  F   UNL A   1      46.727  32.663  31.167  1.00  0.00    -0.206 F 
ATOM     66  C   UNL A   1      46.945  35.817  29.415  1.00  0.00     0.060 A 
BRANCH  66  67
ATOM     67  S   UNL A   1      47.440  37.527  29.715  1.00  0.00     0.124 S 
ATOM     68  O   UNL A   1      48.600  37.346  30.582  1.00  0.00    -0.237 OA
ATOM     69  O   UNL A   1      47.726  38.014  28.370  1.00  0.00    -0.237 OA
ATOM     70  O   UNL A   1      46.265  38.114  30.353  1.00  0.00    -0.744 OA
ENDBRANCH  66  67
ENDBRANCH  45  59
BRANCH  46  71
ATOM     71  C   UNL A   1      43.018  23.836  27.245  1.00  0.00     0.058 A 
ATOM     72  C   UNL A   1      42.624  23.451  25.957  1.00  0.00     0.135 A 
ATOM     73  C   UNL A   1      42.967  22.871  28.263  1.00  0.00     0.135 A 
ATOM     74  F   UNL A   1      42.645  24.341  24.954  1.00  0.00    -0.206 F 
ATOM     75  C   UNL A   1      42.186  22.157  25.686  1.00  0.00     0.059 A 
ATOM     76  C   UNL A   1      42.557  21.566  28.012  1.00  0.00     0.059 A 
ATOM     77  F   UNL A   1      43.345  23.189  29.511  1.00  0.00    -0.206 F 
ATOM     78  C   UNL A   1      42.159  21.221  26.721  1.00  0.00     0.060 A 
BRANCH  78  79
ATOM     79  S   UNL A   1      41.647  19.529  26.350  1.00  0.00     0.124 S 
ATOM     80  O   UNL A   1      42.023  18.835  27.576  1.00  0.00    -0.237 OA
ATOM     81  O   UNL A   1      40.214  19.683  26.117  1.00  0.00    -0.237 OA
ATOM     82  O   UNL A   1      42.433  19.195  25.167  1.00  0.00    -0.744 OA
ENDBRANCH  78  79
ENDBRANCH  46  71
BRANCH  58  83
ATOM     83  C   UNL A   1      49.171  27.036  26.536  1.00  0.00     0.058 A 
ATOM     84  C   UNL A   1      50.105  26.490  27.430  1.00  0.00     0.135 A 
ATOM     85  C   UNL A   1      49.513  27.082  25.175  1.00  0.00     0.135 A 
ATOM     86  F   UNL A   1      49.829  26.430  28.742  1.00  0.00    -0.206 F 
ATOM     87  C   UNL A   1      51.340  26.022  26.993  1.00  0.00     0.059 A 
ATOM     88  C   UNL A   1      50.733  26.600  24.713  1.00  0.00     0.059 A 
ATOM     89  F   UNL A   1      48.650  27.588  24.279  1.00  0.00    -0.206 F 
ATOM     90  C   UNL A   1      51.645  26.082  25.631  1.00  0.00     0.060 A 
BRANCH  90  91
ATOM     91  S   UNL A   1      53.237  25.442  25.067  1.00  0.00     0.124 S 
ATOM     92  O   UNL A   1      53.180  25.732  23.639  1.00  0.00    -0.237 OA
ATOM     93  O   UNL A   1      54.188  26.238  25.839  1.00  0.00    -0.237 OA
ATOM     94  O   UNL A   1      53.179  24.028  25.426  1.00  0.00    -0.744 OA
ENDBRANCH  90  91
ENDBRANCH  58  83
ENDBRANCH  32  33
ENDBRANCH  25  27
ENDBRANCH  24  25
ENDBRANCH   1  24
TORSDOF 17
ENDMDL
MODEL 3
REMARK VINA RESULT:      -9.6      4.954     13.352
REMARK SMILES COc1ccc(Br)c([C@H]2[NH2+][C@H](C(=O)OCCOC(=O)c3ccc(-c4c5nc(c(-c6c(F)cc(S(=O)(=O)[O-])cc6F)c6ccc([nH]6)c(-c6c(F)cc(S(=O)(=O)[O-])cc6F)c6nc(c(-c7c(F)cc(S(=O)(=O)[O-])cc7F)c7ccc4[nH]7)C=C6)C=C5)cc3)CS2)c1O
REMARK SMILES IDX 16 1 15 2 14 3 12 4 13 5 11 6 9 7 10 8 87 9 86 12 8 13 3 14
REMARK SMILES IDX 4 15 88 16 5 17 6 18 7 19 2 20 1 21 89 22 17 24 18 25 19 26
REMARK SMILES IDX 20 27 21 28 85 29 22 30 84 31 23 32 24 33 25 34 78 35 26 36
REMARK SMILES IDX 83 37 77 38 79 39 27 40 82 41 76 42 75 43 28 45 62 46 41 47
REMARK SMILES IDX 61 48 42 49 45 50 60 51 80 52 43 53 44 54 59 56 81 57 46 58
REMARK SMILES IDX 29 59 30 60 39 61 31 62 32 63 38 64 40 65 33 66 34 67 35 68
REMARK SMILES IDX 36 69 37 70 63 71 64 72 73 73 65 74 66 75 72 76 74 77 67 78
REMARK SMILES IDX 68 79 69 80 70 81 71 82 47 83 48 84 57 85 49 86 50 87 56 88
REMARK SMILES IDX 58 89 51 90 52 91 53 92 54 93 55 94
REMARK H PARENT 10 10 10 11 89 23 79 44 45 55
REMARK Flexibility Score: inf
ROOT
ATOM      1  C   UNL A   1      41.595  22.571  27.571  1.00  0.00     0.275 C 
ENDROOT
BRANCH   1   2
ATOM      2  C   UNL A   1      42.308  21.536  26.704  1.00  0.00     0.274 C 
BRANCH   2   3
ATOM      3  O   UNL A   1      42.450  22.000  25.349  1.00  0.00    -0.458 OA
BRANCH   3   4
ATOM      4  C   UNL A   1      43.684  21.882  24.793  1.00  0.00     0.365 C 
ATOM      5  O   UNL A   1      44.302  20.824  24.707  1.00  0.00    -0.245 OA
BRANCH   4   6
ATOM      6  C   UNL A   1      44.301  23.207  24.329  1.00  0.00     0.304 C 
ATOM      7  C   UNL A   1      44.834  24.485  26.285  1.00  0.00     0.279 C 
ATOM      8  N   UNL A   1      43.936  24.406  25.122  1.00  0.00    -0.319 N 
ATOM      9  S   UNL A   1      46.407  23.672  25.859  1.00  0.00    -0.087 SA
ATOM     10  H   UNL A   1      44.041  25.243  24.548  1.00  0.00     0.348 HD
ATOM     11  H   UNL A   1      42.968  24.339  25.432  1.00  0.00     0.348 HD
ATOM     12  C   UNL A   1      45.814  23.101  24.248  1.00  0.00     0.153 C 
BRANCH   7  13
ATOM     13  C   UNL A   1      44.905  25.908  26.821  1.00  0.00     0.080 A 
ATOM     14  C   UNL A   1      45.249  28.327  26.538  1.00  0.00     0.161 A 
ATOM     15  C   UNL A   1      44.926  28.571  27.865  1.00  0.00     0.051 A 
ATOM     16  C   UNL A   1      45.239  27.020  26.024  1.00  0.00     0.169 A 
ATOM     17  C   UNL A   1      44.557  27.502  28.671  1.00  0.00     0.020 A 
ATOM     18  C   UNL A   1      44.545  26.191  28.161  1.00  0.00     0.032 A 
ATOM     19  Br  UNL A   1      44.001  24.845  29.400  1.00  0.00    -0.050 Br
BRANCH  14  20
ATOM     20  O   UNL A   1      45.653  29.376  25.750  1.00  0.00    -0.493 OA
ATOM     21  C   UNL A   1      45.687  30.592  26.502  1.00  0.00     0.278 C 
ENDBRANCH  14  20
BRANCH  16  22
ATOM     22  O   UNL A   1      45.552  26.867  24.698  1.00  0.00    -0.504 OA
ATOM     23  H   UNL A   1      46.249  27.367  24.321  1.00  0.00     0.293 HD
ENDBRANCH  16  22
ENDBRANCH   7  13
ENDBRANCH   4   6
ENDBRANCH   3   4
ENDBRANCH   2   3
ENDBRANCH   1   2
BRANCH   1  24
ATOM     24  O   UNL A   1      41.503  23.833  26.890  1.00  0.00    -0.458 OA
BRANCH  24  25
ATOM     25  C   UNL A   1      40.247  24.334  26.789  1.00  0.00     0.338 C 
ATOM     26  O   UNL A   1      39.328  23.906  26.117  1.00  0.00    -0.246 OA
BRANCH  25  27
ATOM     27  C   UNL A   1      40.111  25.478  27.701  1.00  0.00     0.060 A 
ATOM     28  C   UNL A   1      40.989  26.554  27.550  1.00  0.00     0.016 A 
ATOM     29  C   UNL A   1      39.193  25.444  28.751  1.00  0.00     0.016 A 
ATOM     30  C   UNL A   1      40.955  27.607  28.463  1.00  0.00     0.010 A 
ATOM     31  C   UNL A   1      39.163  26.500  29.667  1.00  0.00     0.010 A 
ATOM     32  C   UNL A   1      40.054  27.580  29.538  1.00  0.00    -0.014 A 
BRANCH  32  33
ATOM     33  C   UNL A   1      40.090  28.649  30.564  1.00  0.00     0.031 A 
ATOM     34  C   UNL A   1      41.086  28.571  31.689  1.00  0.00     0.074 A 
ATOM     35  C   UNL A   1      39.242  29.691  30.482  1.00  0.00     0.049 A 
ATOM     36  N   UNL A   1      41.233  29.361  32.720  1.00  0.00    -0.248 NA
ATOM     37  C   UNL A   1      42.042  27.453  31.646  1.00  0.00     0.031 C 
ATOM     38  C   UNL A   1      38.255  29.891  29.420  1.00  0.00     0.029 A 
ATOM     39  N   UNL A   1      39.072  30.772  31.309  1.00  0.00    -0.354 N 
ATOM     40  C   UNL A   1      42.284  28.831  33.459  1.00  0.00     0.074 A 
ATOM     41  C   UNL A   1      42.729  27.642  32.765  1.00  0.00     0.031 C 
ATOM     42  C   UNL A   1      37.581  31.028  29.662  1.00  0.00     0.029 A 
ATOM     43  C   UNL A   1      38.060  31.613  30.912  1.00  0.00     0.049 A 
ATOM     44  H   UNL A   1      39.621  30.931  32.109  1.00  0.00     0.167 HD
ATOM     45  C   UNL A   1      42.827  29.296  34.609  1.00  0.00     0.037 A 
ATOM     46  C   UNL A   1      37.560  32.716  31.502  1.00  0.00     0.037 A 
ATOM     47  C   UNL A   1      42.388  30.487  35.289  1.00  0.00     0.049 A 
ATOM     48  C   UNL A   1      38.153  33.189  32.802  1.00  0.00     0.074 A 
ATOM     49  C   UNL A   1      42.884  31.048  36.454  1.00  0.00     0.029 A 
ATOM     50  N   UNL A   1      41.348  31.301  34.866  1.00  0.00    -0.354 N 
ATOM     51  N   UNL A   1      39.145  32.675  33.490  1.00  0.00    -0.248 NA
ATOM     52  C   UNL A   1      37.556  34.388  33.409  1.00  0.00     0.031 C 
ATOM     53  C   UNL A   1      42.121  32.183  36.753  1.00  0.00     0.029 A 
ATOM     54  C   UNL A   1      41.176  32.351  35.755  1.00  0.00     0.049 A 
ATOM     55  H   UNL A   1      40.811  31.156  34.055  1.00  0.00     0.167 HD
ATOM     56  C   UNL A   1      39.302  33.497  34.601  1.00  0.00     0.074 A 
ATOM     57  C   UNL A   1      38.311  34.548  34.487  1.00  0.00     0.031 C 
ATOM     58  C   UNL A   1      40.186  33.391  35.623  1.00  0.00     0.037 A 
BRANCH  45  59
ATOM     59  C   UNL A   1      43.946  28.498  35.219  1.00  0.00     0.058 A 
ATOM     60  C   UNL A   1      43.703  27.494  36.169  1.00  0.00     0.135 A 
ATOM     61  C   UNL A   1      45.275  28.725  34.830  1.00  0.00     0.135 A 
ATOM     62  F   UNL A   1      42.452  27.248  36.588  1.00  0.00    -0.206 F 
ATOM     63  C   UNL A   1      44.743  26.760  36.730  1.00  0.00     0.059 A 
ATOM     64  C   UNL A   1      46.328  27.988  35.363  1.00  0.00     0.059 A 
ATOM     65  F   UNL A   1      45.561  29.675  33.925  1.00  0.00    -0.206 F 
ATOM     66  C   UNL A   1      46.053  27.017  36.325  1.00  0.00     0.060 A 
BRANCH  66  67
ATOM     67  S   UNL A   1      47.393  26.059  37.063  1.00  0.00     0.124 S 
ATOM     68  O   UNL A   1      46.798  25.659  38.334  1.00  0.00    -0.237 OA
ATOM     69  O   UNL A   1      47.589  24.988  36.091  1.00  0.00    -0.237 OA
ATOM     70  O   UNL A   1      48.487  27.022  37.157  1.00  0.00    -0.744 OA
ENDBRANCH  66  67
ENDBRANCH  45  59
BRANCH  46  71
ATOM     71  C   UNL A   1      36.422  33.439  30.876  1.00  0.00     0.058 A 
ATOM     72  C   UNL A   1      35.138  33.389  31.436  1.00  0.00     0.135 A 
ATOM     73  C   UNL A   1      36.602  34.207  29.716  1.00  0.00     0.135 A 
ATOM     74  F   UNL A   1      34.915  32.659  32.539  1.00  0.00    -0.206 F 
ATOM     75  C   UNL A   1      34.067  34.068  30.862  1.00  0.00     0.059 A 
ATOM     76  C   UNL A   1      35.553  34.913  29.137  1.00  0.00     0.059 A 
ATOM     77  F   UNL A   1      37.816  34.295  29.148  1.00  0.00    -0.206 F 
ATOM     78  C   UNL A   1      34.286  34.830  29.713  1.00  0.00     0.060 A 
BRANCH  78  79
ATOM     79  S   UNL A   1      32.906  35.757  29.007  1.00  0.00     0.124 S 
ATOM     80  O   UNL A   1      32.326  34.773  28.101  1.00  0.00    -0.237 OA
ATOM     81  O   UNL A   1      32.113  36.080  30.190  1.00  0.00    -0.237 OA
ATOM     82  O   UNL A   1      33.560  36.896  28.371  1.00  0.00    -0.744 OA
ENDBRANCH  78  79
ENDBRANCH  46  71
BRANCH  58  83
ATOM     83  C   UNL A   1      40.140  34.450  36.687  1.00  0.00     0.058 A 
ATOM     84  C   UNL A   1      39.291  34.338  37.799  1.00  0.00     0.135 A 
ATOM     85  C   UNL A   1      40.987  35.567  36.617  1.00  0.00     0.135 A 
ATOM     86  F   UNL A   1      38.457  33.292  37.908  1.00  0.00    -0.206 F 
ATOM     87  C   UNL A   1      39.270  35.307  38.796  1.00  0.00     0.059 A 
ATOM     88  C   UNL A   1      40.999  36.537  37.613  1.00  0.00     0.059 A 
ATOM     89  F   UNL A   1      41.825  35.715  35.577  1.00  0.00    -0.206 F 
ATOM     90  C   UNL A   1      40.128  36.405  38.694  1.00  0.00     0.060 A 
BRANCH  90  91
ATOM     91  S   UNL A   1      40.118  37.642  40.010  1.00  0.00     0.124 S 
ATOM     92  O   UNL A   1      41.346  38.378  39.728  1.00  0.00    -0.237 OA
ATOM     93  O   UNL A   1      38.874  38.363  39.757  1.00  0.00    -0.237 OA
ATOM     94  O   UNL A   1      40.131  36.838  41.229  1.00  0.00    -0.744 OA
ENDBRANCH  90  91
ENDBRANCH  58  83
ENDBRANCH  32  33
ENDBRANCH  25  27
ENDBRANCH  24  25
ENDBRANCH   1  24
TORSDOF 17
ENDMDL
