MODEL 1
REMARK VINA RESULT:     -13.9      0.000      0.000
REMARK SMILES Cc1ccc(S(=O)(=O)n2cc(C(=O)C(=O)NCC(=O)OCCOC(=O)c3ccc(-c4c5nc(c(-c6c(F)cc(S(=O)(=O)[O-])cc6F)c6ccc([nH]6)c(-c6c(F)cc(S(=O)(=O)[O-])cc6F)c6nc(c(-c7c(F)cc(S(=O)(=O)[O-])cc7F)c7ccc4[nH]7)C=C6)C=C5)cc3)c3ccccc32)cc1
REMARK SMILES IDX 21 1 20 2 18 3 19 4 17 5 16 6 14 7 15 8 12 10 13 11 11 12
REMARK SMILES IDX 9 13 10 14 97 15 92 16 96 17 93 18 95 19 94 20 6 21 7 22
REMARK SMILES IDX 8 23 5 24 1 25 2 26 3 27 99 28 4 29 98 30 22 31 23 32 24 33
REMARK SMILES IDX 25 34 26 35 27 36 91 37 28 38 90 39 29 40 30 41 31 42 84 43
REMARK SMILES IDX 32 44 89 45 83 46 85 47 33 48 88 49 82 50 81 51 34 53 68 54
REMARK SMILES IDX 47 55 67 56 48 57 51 58 66 59 86 60 49 61 50 62 65 64 87 65
REMARK SMILES IDX 52 66 35 67 36 68 45 69 37 70 38 71 44 72 46 73 39 74 40 75
REMARK SMILES IDX 41 76 42 77 43 78 69 79 70 80 79 81 71 82 72 83 78 84 80 85
REMARK SMILES IDX 73 86 74 87 75 88 76 89 77 90 53 91 54 92 63 93 55 94 56 95
REMARK SMILES IDX 62 96 64 97 57 98 58 99 59 100 60 101 61 102
REMARK H PARENT 16 9 85 52 51 63
REMARK Flexibility Score: inf
ROOT
ATOM      1  C   UNL A   1      33.887  30.259  27.511  1.00  0.00     0.274 C 
ENDROOT
BRANCH   1   2
ATOM      2  O   UNL A   1      32.532  30.550  27.159  1.00  0.00    -0.461 OA
BRANCH   2   3
ATOM      3  C   UNL A   1      31.813  29.461  26.791  1.00  0.00     0.325 C 
ATOM      4  O   UNL A   1      31.468  28.567  27.554  1.00  0.00    -0.250 OA
BRANCH   3   5
ATOM      5  C   UNL A   1      31.414  29.498  25.324  1.00  0.00     0.239 C 
BRANCH   5   6
ATOM      6  N   UNL A   1      32.448  29.679  24.323  1.00  0.00    -0.338 N 
ATOM      7  C   UNL A   1      32.533  28.898  23.189  1.00  0.00     0.292 C 
ATOM      8  O   UNL A   1      33.430  28.980  22.363  1.00  0.00    -0.265 OA
ATOM      9  H   UNL A   1      33.118  30.388  24.460  1.00  0.00     0.164 HD
BRANCH   7  10
ATOM     10  C   UNL A   1      31.423  27.849  23.017  1.00  0.00     0.252 C 
ATOM     11  O   UNL A   1      30.305  28.244  22.705  1.00  0.00    -0.283 OA
BRANCH  10  12
ATOM     12  C   UNL A   1      31.700  26.455  23.351  1.00  0.00     0.054 A 
ATOM     13  N   UNL A   1      32.506  24.385  23.253  1.00  0.00    -0.240 N 
ATOM     14  C   UNL A   1      32.537  25.612  22.648  1.00  0.00     0.117 A 
ATOM     15  C   UNL A   1      31.704  24.399  24.377  1.00  0.00     0.065 A 
ATOM     16  C   UNL A   1      31.179  25.699  24.456  1.00  0.00     0.012 A 
ATOM     17  C   UNL A   1      31.348  23.401  25.302  1.00  0.00     0.028 A 
ATOM     18  C   UNL A   1      30.299  26.007  25.517  1.00  0.00     0.011 A 
ATOM     19  C   UNL A   1      30.463  23.734  26.330  1.00  0.00     0.002 A 
ATOM     20  C   UNL A   1      29.950  25.020  26.443  1.00  0.00     0.001 A 
BRANCH  13  21
ATOM     21  S   UNL A   1      33.113  22.976  22.514  1.00  0.00     0.268 S 
ATOM     22  O   UNL A   1      33.513  23.348  21.184  1.00  0.00    -0.201 OA
ATOM     23  O   UNL A   1      32.103  21.945  22.752  1.00  0.00    -0.201 OA
BRANCH  21  24
ATOM     24  C   UNL A   1      34.564  22.501  23.418  1.00  0.00     0.088 A 
ATOM     25  C   UNL A   1      38.127  21.766  25.707  1.00  0.00     0.044 C 
ATOM     26  C   UNL A   1      36.892  21.992  24.888  1.00  0.00    -0.051 A 
ATOM     27  C   UNL A   1      36.918  22.884  23.808  1.00  0.00     0.005 A 
ATOM     28  C   UNL A   1      35.700  21.327  25.196  1.00  0.00     0.005 A 
ATOM     29  C   UNL A   1      35.758  23.142  23.077  1.00  0.00     0.022 A 
ATOM     30  C   UNL A   1      34.539  21.571  24.460  1.00  0.00     0.022 A 
ENDBRANCH  21  24
ENDBRANCH  13  21
ENDBRANCH  10  12
ENDBRANCH   7  10
ENDBRANCH   5   6
ENDBRANCH   3   5
ENDBRANCH   2   3
ENDBRANCH   1   2
BRANCH   1  31
ATOM     31  C   UNL A   1      34.617  31.540  27.947  1.00  0.00     0.275 C 
BRANCH  31  32
ATOM     32  O   UNL A   1      36.054  31.507  28.166  1.00  0.00    -0.458 OA
BRANCH  32  33
ATOM     33  C   UNL A   1      36.571  30.939  29.292  1.00  0.00     0.338 C 
ATOM     34  O   UNL A   1      36.162  31.167  30.421  1.00  0.00    -0.246 OA
BRANCH  33  35
ATOM     35  C   UNL A   1      37.429  29.774  28.929  1.00  0.00     0.060 A 
ATOM     36  C   UNL A   1      38.181  29.773  27.744  1.00  0.00     0.016 A 
ATOM     37  C   UNL A   1      37.758  28.907  29.959  1.00  0.00     0.016 A 
ATOM     38  C   UNL A   1      39.370  29.033  27.673  1.00  0.00     0.010 A 
ATOM     39  C   UNL A   1      39.021  28.386  29.973  1.00  0.00     0.010 A 
ATOM     40  C   UNL A   1      39.834  28.409  28.830  1.00  0.00    -0.014 A 
BRANCH  40  41
ATOM     41  C   UNL A   1      41.090  27.668  28.984  1.00  0.00     0.031 A 
ATOM     42  C   UNL A   1      41.264  26.245  28.603  1.00  0.00     0.074 A 
ATOM     43  C   UNL A   1      42.123  28.444  29.391  1.00  0.00     0.049 A 
ATOM     44  N   UNL A   1      42.276  25.527  28.946  1.00  0.00    -0.248 NA
ATOM     45  C   UNL A   1      40.326  25.488  27.782  1.00  0.00     0.031 C 
ATOM     46  C   UNL A   1      43.548  28.186  29.485  1.00  0.00     0.029 A 
ATOM     47  N   UNL A   1      41.979  29.692  30.018  1.00  0.00    -0.354 N 
ATOM     48  C   UNL A   1      42.260  24.353  28.214  1.00  0.00     0.074 A 
ATOM     49  C   UNL A   1      40.999  24.359  27.523  1.00  0.00     0.031 C 
ATOM     50  C   UNL A   1      44.064  29.019  30.413  1.00  0.00     0.029 A 
ATOM     51  C   UNL A   1      42.947  29.747  31.011  1.00  0.00     0.049 A 
ATOM     52  H   UNL A   1      41.321  30.390  29.796  1.00  0.00     0.167 HD
ATOM     53  C   UNL A   1      43.384  23.580  28.194  1.00  0.00     0.037 A 
ATOM     54  C   UNL A   1      42.506  29.661  32.302  1.00  0.00     0.037 A 
ATOM     55  C   UNL A   1      44.343  24.101  29.164  1.00  0.00     0.049 A 
ATOM     56  C   UNL A   1      43.032  28.392  32.919  1.00  0.00     0.074 A 
ATOM     57  C   UNL A   1      45.380  25.010  29.039  1.00  0.00     0.029 A 
ATOM     58  N   UNL A   1      44.019  24.052  30.518  1.00  0.00    -0.354 N 
ATOM     59  N   UNL A   1      43.211  27.269  32.273  1.00  0.00    -0.248 NA
ATOM     60  C   UNL A   1      43.563  28.366  34.276  1.00  0.00     0.031 C 
ATOM     61  C   UNL A   1      45.575  25.616  30.307  1.00  0.00     0.029 A 
ATOM     62  C   UNL A   1      44.677  25.056  31.204  1.00  0.00     0.049 A 
ATOM     63  H   UNL A   1      43.410  23.397  30.928  1.00  0.00     0.167 HD
ATOM     64  C   UNL A   1      43.962  26.429  33.053  1.00  0.00     0.074 A 
ATOM     65  C   UNL A   1      44.128  27.148  34.306  1.00  0.00     0.031 C 
ATOM     66  C   UNL A   1      44.486  25.239  32.631  1.00  0.00     0.037 A 
BRANCH  53  67
ATOM     67  C   UNL A   1      43.718  22.547  27.139  1.00  0.00     0.058 A 
ATOM     68  C   UNL A   1      42.933  21.374  27.026  1.00  0.00     0.135 A 
ATOM     69  C   UNL A   1      44.798  22.620  26.237  1.00  0.00     0.135 A 
ATOM     70  F   UNL A   1      41.865  21.169  27.807  1.00  0.00    -0.206 F 
ATOM     71  C   UNL A   1      43.216  20.342  26.129  1.00  0.00     0.059 A 
ATOM     72  C   UNL A   1      45.122  21.580  25.346  1.00  0.00     0.059 A 
ATOM     73  F   UNL A   1      45.564  23.719  26.167  1.00  0.00    -0.206 F 
ATOM     74  C   UNL A   1      44.322  20.443  25.299  1.00  0.00     0.060 A 
BRANCH  74  75
ATOM     75  S   UNL A   1      44.671  19.073  24.175  1.00  0.00     0.124 S 
ATOM     76  O   UNL A   1      43.667  18.087  24.568  1.00  0.00    -0.237 OA
ATOM     77  O   UNL A   1      44.471  19.691  22.869  1.00  0.00    -0.237 OA
ATOM     78  O   UNL A   1      46.050  18.713  24.493  1.00  0.00    -0.744 OA
ENDBRANCH  74  75
ENDBRANCH  53  67
BRANCH  54  79
ATOM     79  C   UNL A   1      41.160  30.313  32.509  1.00  0.00     0.058 A 
ATOM     80  C   UNL A   1      40.157  29.545  33.150  1.00  0.00     0.135 A 
ATOM     81  C   UNL A   1      40.938  31.698  32.457  1.00  0.00     0.135 A 
ATOM     82  F   UNL A   1      40.294  28.209  33.239  1.00  0.00    -0.206 F 
ATOM     83  C   UNL A   1      39.078  30.119  33.823  1.00  0.00     0.059 A 
ATOM     84  C   UNL A   1      39.843  32.297  33.107  1.00  0.00     0.059 A 
ATOM     85  F   UNL A   1      41.824  32.503  31.854  1.00  0.00    -0.206 F 
ATOM     86  C   UNL A   1      38.948  31.503  33.829  1.00  0.00     0.060 A 
BRANCH  86  87
ATOM     87  S   UNL A   1      37.689  32.228  34.916  1.00  0.00     0.124 S 
ATOM     88  O   UNL A   1      36.506  32.213  34.062  1.00  0.00    -0.237 OA
ATOM     89  O   UNL A   1      37.667  31.287  36.035  1.00  0.00    -0.237 OA
ATOM     90  O   UNL A   1      38.226  33.548  35.230  1.00  0.00    -0.744 OA
ENDBRANCH  86  87
ENDBRANCH  54  79
BRANCH  66  91
ATOM     91  C   UNL A   1      45.016  24.183  33.565  1.00  0.00     0.058 A 
ATOM     92  C   UNL A   1      44.253  23.074  33.967  1.00  0.00     0.135 A 
ATOM     93  C   UNL A   1      46.374  24.174  33.962  1.00  0.00     0.135 A 
ATOM     94  F   UNL A   1      42.995  22.896  33.537  1.00  0.00    -0.206 F 
ATOM     95  C   UNL A   1      44.765  22.082  34.795  1.00  0.00     0.059 A 
ATOM     96  C   UNL A   1      46.925  23.156  34.730  1.00  0.00     0.059 A 
ATOM     97  F   UNL A   1      47.223  25.148  33.601  1.00  0.00    -0.206 F 
ATOM     98  C   UNL A   1      46.101  22.135  35.176  1.00  0.00     0.060 A 
BRANCH  98  99
ATOM     99  S   UNL A   1      46.768  20.835  36.221  1.00  0.00     0.124 S 
ATOM    100  O   UNL A   1      45.629  19.925  36.306  1.00  0.00    -0.237 OA
ATOM    101  O   UNL A   1      47.906  20.352  35.446  1.00  0.00    -0.237 OA
ATOM    102  O   UNL A   1      47.110  21.539  37.453  1.00  0.00    -0.744 OA
ENDBRANCH  98  99
ENDBRANCH  66  91
ENDBRANCH  40  41
ENDBRANCH  33  35
ENDBRANCH  32  33
ENDBRANCH  31  32
ENDBRANCH   1  31
TORSDOF 19
ENDMDL
MODEL 2
REMARK VINA RESULT:     -13.7      1.357      2.135
REMARK SMILES Cc1ccc(S(=O)(=O)n2cc(C(=O)C(=O)NCC(=O)OCCOC(=O)c3ccc(-c4c5nc(c(-c6c(F)cc(S(=O)(=O)[O-])cc6F)c6ccc([nH]6)c(-c6c(F)cc(S(=O)(=O)[O-])cc6F)c6nc(c(-c7c(F)cc(S(=O)(=O)[O-])cc7F)c7ccc4[nH]7)C=C6)C=C5)cc3)c3ccccc32)cc1
REMARK SMILES IDX 21 1 20 2 18 3 19 4 17 5 16 6 14 7 15 8 12 10 13 11 11 12
REMARK SMILES IDX 9 13 10 14 97 15 92 16 96 17 93 18 95 19 94 20 6 21 7 22
REMARK SMILES IDX 8 23 5 24 1 25 2 26 3 27 99 28 4 29 98 30 22 31 23 32 24 33
REMARK SMILES IDX 25 34 26 35 27 36 91 37 28 38 90 39 29 40 30 41 31 42 84 43
REMARK SMILES IDX 32 44 89 45 83 46 85 47 33 48 88 49 82 50 81 51 34 53 68 54
REMARK SMILES IDX 47 55 67 56 48 57 51 58 66 59 86 60 49 61 50 62 65 64 87 65
REMARK SMILES IDX 52 66 35 67 36 68 45 69 37 70 38 71 44 72 46 73 39 74 40 75
REMARK SMILES IDX 41 76 42 77 43 78 69 79 70 80 79 81 71 82 72 83 78 84 80 85
REMARK SMILES IDX 73 86 74 87 75 88 76 89 77 90 53 91 54 92 63 93 55 94 56 95
REMARK SMILES IDX 62 96 64 97 57 98 58 99 59 100 60 101 61 102
REMARK H PARENT 16 9 85 52 51 63
REMARK Flexibility Score: inf
ROOT
ATOM      1  C   UNL A   1      34.048  29.452  27.237  1.00  0.00     0.274 C 
ENDROOT
BRANCH   1   2
ATOM      2  O   UNL A   1      32.706  29.282  26.775  1.00  0.00    -0.461 OA
BRANCH   2   3
ATOM      3  C   UNL A   1      32.575  29.353  25.427  1.00  0.00     0.325 C 
ATOM      4  O   UNL A   1      33.505  29.270  24.634  1.00  0.00    -0.250 OA
BRANCH   3   5
ATOM      5  C   UNL A   1      31.123  29.480  24.992  1.00  0.00     0.239 C 
BRANCH   5   6
ATOM      6  N   UNL A   1      30.835  29.828  23.614  1.00  0.00    -0.338 N 
ATOM      7  C   UNL A   1      30.121  29.003  22.770  1.00  0.00     0.292 C 
ATOM      8  O   UNL A   1      29.920  29.237  21.587  1.00  0.00    -0.265 OA
ATOM      9  H   UNL A   1      31.164  30.689  23.266  1.00  0.00     0.164 HD
BRANCH   7  10
ATOM     10  C   UNL A   1      29.594  27.703  23.397  1.00  0.00     0.252 C 
ATOM     11  O   UNL A   1      28.410  27.658  23.715  1.00  0.00    -0.283 OA
BRANCH  10  12
ATOM     12  C   UNL A   1      30.532  26.628  23.707  1.00  0.00     0.054 A 
ATOM     13  N   UNL A   1      31.689  25.101  24.836  1.00  0.00    -0.240 N 
ATOM     14  C   UNL A   1      30.697  26.038  24.944  1.00  0.00     0.117 A 
ATOM     15  C   UNL A   1      32.160  25.014  23.542  1.00  0.00     0.065 A 
ATOM     16  C   UNL A   1      31.445  25.976  22.810  1.00  0.00     0.012 A 
ATOM     17  C   UNL A   1      33.165  24.231  22.947  1.00  0.00     0.028 A 
ATOM     18  C   UNL A   1      31.730  26.124  21.434  1.00  0.00     0.011 A 
ATOM     19  C   UNL A   1      33.434  24.414  21.589  1.00  0.00     0.002 A 
ATOM     20  C   UNL A   1      32.722  25.341  20.839  1.00  0.00     0.001 A 
BRANCH  13  21
ATOM     21  S   UNL A   1      32.443  24.396  26.191  1.00  0.00     0.268 S 
ATOM     22  O   UNL A   1      31.458  24.356  27.237  1.00  0.00    -0.201 OA
ATOM     23  O   UNL A   1      33.706  25.117  26.353  1.00  0.00    -0.201 OA
BRANCH  21  24
ATOM     24  C   UNL A   1      32.850  22.727  25.747  1.00  0.00     0.088 A 
ATOM     25  C   UNL A   1      33.642  18.760  24.294  1.00  0.00     0.044 C 
ATOM     26  C   UNL A   1      33.366  20.131  24.836  1.00  0.00    -0.051 A 
ATOM     27  C   UNL A   1      32.051  20.608  24.902  1.00  0.00     0.005 A 
ATOM     28  C   UNL A   1      34.414  20.950  25.270  1.00  0.00     0.005 A 
ATOM     29  C   UNL A   1      31.792  21.903  25.352  1.00  0.00     0.022 A 
ATOM     30  C   UNL A   1      34.160  22.242  25.734  1.00  0.00     0.022 A 
ENDBRANCH  21  24
ENDBRANCH  13  21
ENDBRANCH  10  12
ENDBRANCH   7  10
ENDBRANCH   5   6
ENDBRANCH   3   5
ENDBRANCH   2   3
ENDBRANCH   1   2
BRANCH   1  31
ATOM     31  C   UNL A   1      34.280  30.901  27.696  1.00  0.00     0.275 C 
BRANCH  31  32
ATOM     32  O   UNL A   1      35.635  31.364  27.952  1.00  0.00    -0.458 OA
BRANCH  32  33
ATOM     33  C   UNL A   1      36.321  30.929  29.046  1.00  0.00     0.338 C 
ATOM     34  O   UNL A   1      36.027  31.220  30.197  1.00  0.00    -0.246 OA
BRANCH  33  35
ATOM     35  C   UNL A   1      37.223  29.802  28.670  1.00  0.00     0.060 A 
ATOM     36  C   UNL A   1      38.041  29.881  27.531  1.00  0.00     0.016 A 
ATOM     37  C   UNL A   1      37.511  28.885  29.668  1.00  0.00     0.016 A 
ATOM     38  C   UNL A   1      39.247  29.168  27.488  1.00  0.00     0.010 A 
ATOM     39  C   UNL A   1      38.782  28.387  29.725  1.00  0.00     0.010 A 
ATOM     40  C   UNL A   1      39.659  28.489  28.634  1.00  0.00    -0.014 A 
BRANCH  40  41
ATOM     41  C   UNL A   1      40.919  27.763  28.818  1.00  0.00     0.031 A 
ATOM     42  C   UNL A   1      41.109  26.332  28.476  1.00  0.00     0.074 A 
ATOM     43  C   UNL A   1      41.942  28.559  29.214  1.00  0.00     0.049 A 
ATOM     44  N   UNL A   1      42.124  25.633  28.847  1.00  0.00    -0.248 NA
ATOM     45  C   UNL A   1      40.185  25.546  27.667  1.00  0.00     0.031 C 
ATOM     46  C   UNL A   1      43.368  28.316  29.327  1.00  0.00     0.029 A 
ATOM     47  N   UNL A   1      41.781  29.821  29.806  1.00  0.00    -0.354 N 
ATOM     48  C   UNL A   1      42.125  24.440  28.146  1.00  0.00     0.074 A 
ATOM     49  C   UNL A   1      40.870  24.416  27.444  1.00  0.00     0.031 C 
ATOM     50  C   UNL A   1      43.868  29.177  30.238  1.00  0.00     0.029 A 
ATOM     51  C   UNL A   1      42.739  29.911  30.807  1.00  0.00     0.049 A 
ATOM     52  H   UNL A   1      41.119  30.508  29.561  1.00  0.00     0.167 HD
ATOM     53  C   UNL A   1      43.255  23.677  28.157  1.00  0.00     0.037 A 
ATOM     54  C   UNL A   1      42.287  29.855  32.095  1.00  0.00     0.037 A 
ATOM     55  C   UNL A   1      44.201  24.232  29.121  1.00  0.00     0.049 A 
ATOM     56  C   UNL A   1      42.818  28.607  32.750  1.00  0.00     0.074 A 
ATOM     57  C   UNL A   1      45.231  25.146  28.982  1.00  0.00     0.029 A 
ATOM     58  N   UNL A   1      43.864  24.215  30.473  1.00  0.00    -0.354 N 
ATOM     59  N   UNL A   1      43.013  27.469  32.135  1.00  0.00    -0.248 NA
ATOM     60  C   UNL A   1      43.337  28.621  34.112  1.00  0.00     0.031 C 
ATOM     61  C   UNL A   1      45.409  25.786  30.235  1.00  0.00     0.029 A 
ATOM     62  C   UNL A   1      44.508  25.242  31.138  1.00  0.00     0.049 A 
ATOM     63  H   UNL A   1      43.258  23.565  30.895  1.00  0.00     0.167 HD
ATOM     64  C   UNL A   1      43.764  26.656  32.944  1.00  0.00     0.074 A 
ATOM     65  C   UNL A   1      43.913  27.410  34.179  1.00  0.00     0.031 C 
ATOM     66  C   UNL A   1      44.302  25.460  32.558  1.00  0.00     0.037 A 
BRANCH  53  67
ATOM     67  C   UNL A   1      43.608  22.619  27.132  1.00  0.00     0.058 A 
ATOM     68  C   UNL A   1      42.842  21.432  27.050  1.00  0.00     0.135 A 
ATOM     69  C   UNL A   1      44.689  22.683  26.230  1.00  0.00     0.135 A 
ATOM     70  F   UNL A   1      41.775  21.232  27.834  1.00  0.00    -0.206 F 
ATOM     71  C   UNL A   1      43.142  20.379  26.183  1.00  0.00     0.059 A 
ATOM     72  C   UNL A   1      45.031  21.624  25.370  1.00  0.00     0.059 A 
ATOM     73  F   UNL A   1      45.438  23.792  26.131  1.00  0.00    -0.206 F 
ATOM     74  C   UNL A   1      44.249  20.474  25.353  1.00  0.00     0.060 A 
BRANCH  74  75
ATOM     75  S   UNL A   1      44.622  19.078  24.270  1.00  0.00     0.124 S 
ATOM     76  O   UNL A   1      43.654  18.077  24.710  1.00  0.00    -0.237 OA
ATOM     77  O   UNL A   1      44.385  19.646  22.947  1.00  0.00    -0.237 OA
ATOM     78  O   UNL A   1      46.015  18.769  24.578  1.00  0.00    -0.744 OA
ENDBRANCH  74  75
ENDBRANCH  53  67
BRANCH  54  79
ATOM     79  C   UNL A   1      40.934  30.500  32.273  1.00  0.00     0.058 A 
ATOM     80  C   UNL A   1      39.920  29.726  32.891  1.00  0.00     0.135 A 
ATOM     81  C   UNL A   1      40.706  31.884  32.219  1.00  0.00     0.135 A 
ATOM     82  F   UNL A   1      40.062  28.391  32.981  1.00  0.00    -0.206 F 
ATOM     83  C   UNL A   1      38.824  30.294  33.540  1.00  0.00     0.059 A 
ATOM     84  C   UNL A   1      39.594  32.477  32.845  1.00  0.00     0.059 A 
ATOM     85  F   UNL A   1      41.601  32.695  31.636  1.00  0.00    -0.206 F 
ATOM     86  C   UNL A   1      38.687  31.678  33.545  1.00  0.00     0.060 A 
BRANCH  86  87
ATOM     87  S   UNL A   1      37.400  32.395  34.605  1.00  0.00     0.124 S 
ATOM     88  O   UNL A   1      36.190  32.123  33.838  1.00  0.00    -0.237 OA
ATOM     89  O   UNL A   1      37.548  31.623  35.838  1.00  0.00    -0.237 OA
ATOM     90  O   UNL A   1      37.783  33.799  34.706  1.00  0.00    -0.744 OA
ENDBRANCH  86  87
ENDBRANCH  54  79
BRANCH  66  91
ATOM     91  C   UNL A   1      44.832  24.434  33.524  1.00  0.00     0.058 A 
ATOM     92  C   UNL A   1      46.202  24.289  33.800  1.00  0.00     0.135 A 
ATOM     93  C   UNL A   1      43.955  23.666  34.327  1.00  0.00     0.135 A 
ATOM     94  F   UNL A   1      47.122  25.063  33.207  1.00  0.00    -0.206 F 
ATOM     95  C   UNL A   1      46.678  23.367  34.724  1.00  0.00     0.059 A 
ATOM     96  C   UNL A   1      44.409  22.791  35.306  1.00  0.00     0.059 A 
ATOM     97  F   UNL A   1      42.623  23.750  34.201  1.00  0.00    -0.206 F 
ATOM     98  C   UNL A   1      45.774  22.619  35.470  1.00  0.00     0.060 A 
BRANCH  98  99
ATOM     99  S   UNL A   1      46.393  21.451  36.687  1.00  0.00     0.124 S 
ATOM    100  O   UNL A   1      45.843  22.006  37.920  1.00  0.00    -0.237 OA
ATOM    101  O   UNL A   1      45.808  20.189  36.246  1.00  0.00    -0.237 OA
ATOM    102  O   UNL A   1      47.842  21.549  36.538  1.00  0.00    -0.744 OA
ENDBRANCH  98  99
ENDBRANCH  66  91
ENDBRANCH  40  41
ENDBRANCH  33  35
ENDBRANCH  32  33
ENDBRANCH  31  32
ENDBRANCH   1  31
TORSDOF 19
ENDMDL
MODEL 3
REMARK VINA RESULT:     -13.6      4.510     11.359
REMARK SMILES Cc1ccc(S(=O)(=O)n2cc(C(=O)C(=O)NCC(=O)OCCOC(=O)c3ccc(-c4c5nc(c(-c6c(F)cc(S(=O)(=O)[O-])cc6F)c6ccc([nH]6)c(-c6c(F)cc(S(=O)(=O)[O-])cc6F)c6nc(c(-c7c(F)cc(S(=O)(=O)[O-])cc7F)c7ccc4[nH]7)C=C6)C=C5)cc3)c3ccccc32)cc1
REMARK SMILES IDX 21 1 20 2 18 3 19 4 17 5 16 6 14 7 15 8 12 10 13 11 11 12
REMARK SMILES IDX 9 13 10 14 97 15 92 16 96 17 93 18 95 19 94 20 6 21 7 22
REMARK SMILES IDX 8 23 5 24 1 25 2 26 3 27 99 28 4 29 98 30 22 31 23 32 24 33
REMARK SMILES IDX 25 34 26 35 27 36 91 37 28 38 90 39 29 40 30 41 31 42 84 43
REMARK SMILES IDX 32 44 89 45 83 46 85 47 33 48 88 49 82 50 81 51 34 53 68 54
REMARK SMILES IDX 47 55 67 56 48 57 51 58 66 59 86 60 49 61 50 62 65 64 87 65
REMARK SMILES IDX 52 66 35 67 36 68 45 69 37 70 38 71 44 72 46 73 39 74 40 75
REMARK SMILES IDX 41 76 42 77 43 78 69 79 70 80 79 81 71 82 72 83 78 84 80 85
REMARK SMILES IDX 73 86 74 87 75 88 76 89 77 90 53 91 54 92 63 93 55 94 56 95
REMARK SMILES IDX 62 96 64 97 57 98 58 99 59 100 60 101 61 102
REMARK H PARENT 16 9 85 52 51 63
REMARK Flexibility Score: inf
ROOT
ATOM      1  C   UNL A   1      39.758  20.947  26.105  1.00  0.00     0.274 C 
ENDROOT
BRANCH   1   2
ATOM      2  O   UNL A   1      38.514  21.554  25.748  1.00  0.00    -0.461 OA
BRANCH   2   3
ATOM      3  C   UNL A   1      37.601  20.684  25.247  1.00  0.00     0.325 C 
ATOM      4  O   UNL A   1      37.882  19.651  24.651  1.00  0.00    -0.250 OA
BRANCH   3   5
ATOM      5  C   UNL A   1      36.172  21.095  25.566  1.00  0.00     0.239 C 
BRANCH   5   6
ATOM      6  N   UNL A   1      35.090  20.202  25.197  1.00  0.00    -0.338 N 
ATOM      7  C   UNL A   1      33.781  20.425  25.569  1.00  0.00     0.292 C 
ATOM      8  O   UNL A   1      32.859  19.658  25.332  1.00  0.00    -0.265 OA
ATOM      9  H   UNL A   1      35.299  19.404  24.660  1.00  0.00     0.164 HD
BRANCH   7  10
ATOM     10  C   UNL A   1      33.522  21.718  26.359  1.00  0.00     0.252 C 
ATOM     11  O   UNL A   1      33.753  21.710  27.563  1.00  0.00    -0.283 OA
BRANCH  10  12
ATOM     12  C   UNL A   1      32.898  22.853  25.686  1.00  0.00     0.054 A 
ATOM     13  N   UNL A   1      31.650  24.655  25.312  1.00  0.00    -0.240 N 
ATOM     14  C   UNL A   1      32.047  23.767  26.274  1.00  0.00     0.117 A 
ATOM     15  C   UNL A   1      32.254  24.387  24.100  1.00  0.00     0.065 A 
ATOM     16  C   UNL A   1      33.046  23.247  24.312  1.00  0.00     0.012 A 
ATOM     17  C   UNL A   1      32.156  24.993  22.835  1.00  0.00     0.028 A 
ATOM     18  C   UNL A   1      33.784  22.727  23.226  1.00  0.00     0.011 A 
ATOM     19  C   UNL A   1      32.885  24.444  21.777  1.00  0.00     0.002 A 
ATOM     20  C   UNL A   1      33.695  23.332  21.969  1.00  0.00     0.001 A 
BRANCH  13  21
ATOM     21  S   UNL A   1      30.340  25.722  25.526  1.00  0.00     0.268 S 
ATOM     22  O   UNL A   1      29.603  25.248  26.666  1.00  0.00    -0.201 OA
ATOM     23  O   UNL A   1      29.718  25.845  24.207  1.00  0.00    -0.201 OA
BRANCH  21  24
ATOM     24  C   UNL A   1      31.025  27.309  25.927  1.00  0.00     0.088 A 
ATOM     25  C   UNL A   1      33.027  30.942  27.052  1.00  0.00     0.044 C 
ATOM     26  C   UNL A   1      32.295  29.692  26.664  1.00  0.00    -0.051 A 
ATOM     27  C   UNL A   1      32.034  28.705  27.622  1.00  0.00     0.005 A 
ATOM     28  C   UNL A   1      31.876  29.493  25.344  1.00  0.00     0.005 A 
ATOM     29  C   UNL A   1      31.405  27.515  27.256  1.00  0.00     0.022 A 
ATOM     30  C   UNL A   1      31.234  28.309  24.974  1.00  0.00     0.022 A 
ENDBRANCH  21  24
ENDBRANCH  13  21
ENDBRANCH  10  12
ENDBRANCH   7  10
ENDBRANCH   5   6
ENDBRANCH   3   5
ENDBRANCH   2   3
ENDBRANCH   1   2
BRANCH   1  31
ATOM     31  C   UNL A   1      40.543  21.855  27.066  1.00  0.00     0.275 C 
BRANCH  31  32
ATOM     32  O   UNL A   1      40.039  23.185  27.370  1.00  0.00    -0.458 OA
BRANCH  32  33
ATOM     33  C   UNL A   1      40.760  24.292  27.037  1.00  0.00     0.338 C 
ATOM     34  O   UNL A   1      41.685  24.290  26.238  1.00  0.00    -0.246 OA
BRANCH  33  35
ATOM     35  C   UNL A   1      40.052  25.522  27.497  1.00  0.00     0.060 A 
ATOM     36  C   UNL A   1      39.373  25.547  28.726  1.00  0.00     0.016 A 
ATOM     37  C   UNL A   1      40.418  26.709  26.883  1.00  0.00     0.016 A 
ATOM     38  C   UNL A   1      39.230  26.757  29.420  1.00  0.00     0.010 A 
ATOM     39  C   UNL A   1      40.489  27.830  27.660  1.00  0.00     0.010 A 
ATOM     40  C   UNL A   1      39.874  27.888  28.920  1.00  0.00    -0.014 A 
BRANCH  40  41
ATOM     41  C   UNL A   1      39.920  29.217  29.540  1.00  0.00     0.031 A 
ATOM     42  C   UNL A   1      38.860  30.242  29.380  1.00  0.00     0.074 A 
ATOM     43  C   UNL A   1      40.968  29.378  30.383  1.00  0.00     0.049 A 
ATOM     44  N   UNL A   1      38.996  31.476  29.719  1.00  0.00    -0.248 NA
ATOM     45  C   UNL A   1      37.531  29.980  28.840  1.00  0.00     0.031 C 
ATOM     46  C   UNL A   1      41.292  30.426  31.333  1.00  0.00     0.029 A 
ATOM     47  N   UNL A   1      42.125  28.583  30.371  1.00  0.00    -0.354 N 
ATOM     48  C   UNL A   1      37.756  32.087  29.691  1.00  0.00     0.074 A 
ATOM     49  C   UNL A   1      36.873  31.118  29.100  1.00  0.00     0.031 C 
ATOM     50  C   UNL A   1      42.629  30.423  31.519  1.00  0.00     0.029 A 
ATOM     51  C   UNL A   1      43.194  29.441  30.596  1.00  0.00     0.049 A 
ATOM     52  H   UNL A   1      42.170  27.609  30.231  1.00  0.00     0.167 HD
ATOM     53  C   UNL A   1      37.613  33.303  30.292  1.00  0.00     0.037 A 
ATOM     54  C   UNL A   1      44.014  29.689  29.532  1.00  0.00     0.037 A 
ATOM     55  C   UNL A   1      38.927  33.803  30.685  1.00  0.00     0.049 A 
ATOM     56  C   UNL A   1      43.910  31.144  29.158  1.00  0.00     0.074 A 
ATOM     57  C   UNL A   1      39.643  33.687  31.865  1.00  0.00     0.029 A 
ATOM     58  N   UNL A   1      39.851  34.113  29.689  1.00  0.00    -0.354 N 
ATOM     59  N   UNL A   1      42.818  31.860  29.251  1.00  0.00    -0.248 NA
ATOM     60  C   UNL A   1      45.088  31.933  28.824  1.00  0.00     0.031 C 
ATOM     61  C   UNL A   1      41.021  33.783  31.543  1.00  0.00     0.029 A 
ATOM     62  C   UNL A   1      41.139  33.984  30.176  1.00  0.00     0.049 A 
ATOM     63  H   UNL A   1      39.620  34.386  28.773  1.00  0.00     0.167 HD
ATOM     64  C   UNL A   1      43.148  33.183  29.111  1.00  0.00     0.074 A 
ATOM     65  C   UNL A   1      44.572  33.173  28.814  1.00  0.00     0.031 C 
ATOM     66  C   UNL A   1      42.289  34.224  29.323  1.00  0.00     0.037 A 
BRANCH  53  67
ATOM     67  C   UNL A   1      36.301  33.903  30.755  1.00  0.00     0.058 A 
ATOM     68  C   UNL A   1      35.354  34.349  29.803  1.00  0.00     0.135 A 
ATOM     69  C   UNL A   1      35.923  34.101  32.098  1.00  0.00     0.135 A 
ATOM     70  F   UNL A   1      35.567  34.217  28.488  1.00  0.00    -0.206 F 
ATOM     71  C   UNL A   1      34.154  34.977  30.146  1.00  0.00     0.059 A 
ATOM     72  C   UNL A   1      34.735  34.758  32.468  1.00  0.00     0.059 A 
ATOM     73  F   UNL A   1      36.681  33.637  33.103  1.00  0.00    -0.206 F 
ATOM     74  C   UNL A   1      33.855  35.192  31.483  1.00  0.00     0.060 A 
BRANCH  74  75
ATOM     75  S   UNL A   1      32.309  36.035  31.884  1.00  0.00     0.124 S 
ATOM     76  O   UNL A   1      31.567  34.998  32.596  1.00  0.00    -0.237 OA
ATOM     77  O   UNL A   1      32.773  37.152  32.699  1.00  0.00    -0.237 OA
ATOM     78  O   UNL A   1      31.768  36.397  30.577  1.00  0.00    -0.744 OA
ENDBRANCH  74  75
ENDBRANCH  53  67
BRANCH  54  79
ATOM     79  C   UNL A   1      44.170  28.498  28.618  1.00  0.00     0.058 A 
ATOM     80  C   UNL A   1      43.820  28.673  27.255  1.00  0.00     0.135 A 
ATOM     81  C   UNL A   1      44.958  27.374  28.913  1.00  0.00     0.135 A 
ATOM     82  F   UNL A   1      43.064  29.724  26.891  1.00  0.00    -0.206 F 
ATOM     83  C   UNL A   1      44.334  27.875  26.233  1.00  0.00     0.059 A 
ATOM     84  C   UNL A   1      45.467  26.540  27.900  1.00  0.00     0.059 A 
ATOM     85  F   UNL A   1      45.322  27.116  30.177  1.00  0.00    -0.206 F 
ATOM     86  C   UNL A   1      45.190  26.829  26.562  1.00  0.00     0.060 A 
BRANCH  86  87
ATOM     87  S   UNL A   1      46.037  25.974  25.204  1.00  0.00     0.124 S 
ATOM     88  O   UNL A   1      44.994  25.080  24.711  1.00  0.00    -0.237 OA
ATOM     89  O   UNL A   1      46.388  27.078  24.313  1.00  0.00    -0.237 OA
ATOM     90  O   UNL A   1      47.167  25.326  25.860  1.00  0.00    -0.744 OA
ENDBRANCH  86  87
ENDBRANCH  54  79
BRANCH  66  91
ATOM     91  C   UNL A   1      42.551  35.632  28.855  1.00  0.00     0.058 A 
ATOM     92  C   UNL A   1      41.907  36.193  27.740  1.00  0.00     0.135 A 
ATOM     93  C   UNL A   1      43.350  36.517  29.618  1.00  0.00     0.135 A 
ATOM     94  F   UNL A   1      41.016  35.495  27.022  1.00  0.00    -0.206 F 
ATOM     95  C   UNL A   1      42.124  37.506  27.342  1.00  0.00     0.059 A 
ATOM     96  C   UNL A   1      43.523  37.852  29.277  1.00  0.00     0.059 A 
ATOM     97  F   UNL A   1      43.978  36.120  30.735  1.00  0.00    -0.206 F 
ATOM     98  C   UNL A   1      42.938  38.327  28.114  1.00  0.00     0.060 A 
BRANCH  98  99
ATOM     99  S   UNL A   1      43.192  40.034  27.613  1.00  0.00     0.124 S 
ATOM    100  O   UNL A   1      41.854  40.398  27.156  1.00  0.00    -0.237 OA
ATOM    101  O   UNL A   1      43.631  40.669  28.852  1.00  0.00    -0.237 OA
ATOM    102  O   UNL A   1      44.211  39.929  26.574  1.00  0.00    -0.744 OA
ENDBRANCH  98  99
ENDBRANCH  66  91
ENDBRANCH  40  41
ENDBRANCH  33  35
ENDBRANCH  32  33
ENDBRANCH  31  32
ENDBRANCH   1  31
TORSDOF 19
ENDMDL
