MODEL 1
REMARK VINA RESULT:      -9.7      0.000      0.000
REMARK SMILES C[NH+](C)CC(C)(C)CNC(=O)NCC(=O)OCCOC(=O)c1ccc(-c2c3nc(c(-c4c(F)cc(S(=O)(=O)[O-])cc4F)c4ccc([nH]4)c(-c4c(F)cc(S(=O)(=O)[O-])cc4F)c4nc(c(-c5c(F)cc(S(=O)(=O)[O-])cc5F)c5ccc2[nH]5)C=C4)C=C3)cc1
REMARK SMILES IDX 17 1 16 2 14 3 15 4 13 5 12 6 9 7 10 8 11 10 8 12 5 13 6 14
REMARK SMILES IDX 7 15 4 16 2 17 1 18 3 19 18 21 19 22 20 23 21 24 22 25 23 26
REMARK SMILES IDX 87 27 24 28 86 29 25 30 26 31 27 32 80 33 28 34 85 35 79 36
REMARK SMILES IDX 81 37 29 38 84 39 78 40 77 41 30 43 64 44 43 45 63 46 44 47
REMARK SMILES IDX 47 48 62 49 82 50 45 51 46 52 61 54 83 55 48 56 31 57 32 58
REMARK SMILES IDX 41 59 33 60 34 61 40 62 42 63 35 64 36 65 37 66 38 67 39 68
REMARK SMILES IDX 65 69 66 70 75 71 67 72 68 73 74 74 76 75 69 76 70 77 71 78
REMARK SMILES IDX 72 79 73 80 49 81 50 82 59 83 51 84 52 85 58 86 60 87 53 88
REMARK SMILES IDX 54 89 55 90 56 91 57 92
REMARK H PARENT 9 9 12 11 2 20 81 42 47 53
REMARK Flexibility Score: inf
ROOT
ATOM      1  C   UNL A   1      36.999  32.152  34.055  1.00  0.00     0.274 C 
ENDROOT
BRANCH   1   2
ATOM      2  O   UNL A   1      36.131  33.085  34.723  1.00  0.00    -0.461 OA
BRANCH   2   3
ATOM      3  C   UNL A   1      35.882  34.240  34.041  1.00  0.00     0.325 C 
ATOM      4  O   UNL A   1      36.747  35.020  33.657  1.00  0.00    -0.250 OA
BRANCH   3   5
ATOM      5  C   UNL A   1      34.432  34.335  33.596  1.00  0.00     0.240 C 
BRANCH   5   6
ATOM      6  N   UNL A   1      33.932  35.662  33.304  1.00  0.00    -0.327 N 
ATOM      7  N   UNL A   1      32.826  35.366  31.248  1.00  0.00    -0.337 N 
ATOM      8  C   UNL A   1      33.012  36.033  32.402  1.00  0.00     0.315 C 
ATOM      9  H   UNL A   1      31.917  35.430  30.878  1.00  0.00     0.165 HD
ATOM     10  O   UNL A   1      32.317  37.023  32.627  1.00  0.00    -0.249 OA
ATOM     11  H   UNL A   1      34.319  36.390  33.842  1.00  0.00     0.166 HD
BRANCH   7  12
ATOM     12  C   UNL A   1      33.750  34.567  30.457  1.00  0.00     0.130 C 
BRANCH  12  13
ATOM     13  C   UNL A   1      33.820  34.942  28.950  1.00  0.00     0.031 C 
ATOM     14  C   UNL A   1      33.340  36.402  28.811  1.00  0.00     0.019 C 
ATOM     15  C   UNL A   1      32.822  34.054  28.177  1.00  0.00     0.019 C 
BRANCH  13  16
ATOM     16  C   UNL A   1      35.235  34.749  28.311  1.00  0.00     0.269 C 
BRANCH  16  17
ATOM     17  N   UNL A   1      35.995  33.650  28.883  1.00  0.00    -0.339 N 
ATOM     18  C   UNL A   1      37.231  33.942  29.583  1.00  0.00     0.332 C 
ATOM     19  C   UNL A   1      35.942  32.362  28.224  1.00  0.00     0.332 C 
ATOM     20  H   UNL A   1      35.365  33.505  29.672  1.00  0.00     0.347 HD
ENDBRANCH  16  17
ENDBRANCH  13  16
ENDBRANCH  12  13
ENDBRANCH   7  12
ENDBRANCH   5   6
ENDBRANCH   3   5
ENDBRANCH   2   3
ENDBRANCH   1   2
BRANCH   1  21
ATOM     21  C   UNL A   1      36.313  31.527  32.834  1.00  0.00     0.275 C 
BRANCH  21  22
ATOM     22  O   UNL A   1      37.234  31.241  31.761  1.00  0.00    -0.458 OA
BRANCH  22  23
ATOM     23  C   UNL A   1      36.982  30.100  31.076  1.00  0.00     0.338 C 
ATOM     24  O   UNL A   1      35.899  29.560  30.930  1.00  0.00    -0.246 OA
BRANCH  23  25
ATOM     25  C   UNL A   1      38.207  29.601  30.427  1.00  0.00     0.060 A 
ATOM     26  C   UNL A   1      39.269  29.167  31.226  1.00  0.00     0.016 A 
ATOM     27  C   UNL A   1      38.361  29.702  29.045  1.00  0.00     0.016 A 
ATOM     28  C   UNL A   1      40.505  28.878  30.652  1.00  0.00     0.010 A 
ATOM     29  C   UNL A   1      39.594  29.380  28.466  1.00  0.00     0.010 A 
ATOM     30  C   UNL A   1      40.683  28.991  29.267  1.00  0.00    -0.014 A 
BRANCH  30  31
ATOM     31  C   UNL A   1      42.015  28.743  28.657  1.00  0.00     0.031 A 
ATOM     32  C   UNL A   1      42.371  27.369  28.156  1.00  0.00     0.074 A 
ATOM     33  C   UNL A   1      42.909  29.746  28.556  1.00  0.00     0.049 A 
ATOM     34  N   UNL A   1      43.522  26.916  27.730  1.00  0.00    -0.248 NA
ATOM     35  C   UNL A   1      41.288  26.372  28.141  1.00  0.00     0.031 C 
ATOM     36  C   UNL A   1      42.675  31.131  28.965  1.00  0.00     0.029 A 
ATOM     37  N   UNL A   1      44.198  29.750  28.084  1.00  0.00    -0.354 N 
ATOM     38  C   UNL A   1      43.314  25.575  27.429  1.00  0.00     0.074 A 
ATOM     39  C   UNL A   1      41.927  25.286  27.728  1.00  0.00     0.031 C 
ATOM     40  C   UNL A   1      43.784  31.851  28.727  1.00  0.00     0.029 A 
ATOM     41  C   UNL A   1      44.822  30.968  28.200  1.00  0.00     0.049 A 
ATOM     42  H   UNL A   1      44.635  28.955  27.701  1.00  0.00     0.167 HD
ATOM     43  C   UNL A   1      44.200  24.668  26.950  1.00  0.00     0.037 A 
ATOM     44  C   UNL A   1      46.094  31.329  27.945  1.00  0.00     0.037 A 
ATOM     45  C   UNL A   1      45.571  24.967  26.623  1.00  0.00     0.049 A 
ATOM     46  C   UNL A   1      47.067  30.301  27.438  1.00  0.00     0.074 A 
ATOM     47  C   UNL A   1      46.543  24.117  26.124  1.00  0.00     0.029 A 
ATOM     48  N   UNL A   1      46.162  26.214  26.755  1.00  0.00    -0.354 N 
ATOM     49  N   UNL A   1      46.864  29.029  27.188  1.00  0.00    -0.248 NA
ATOM     50  C   UNL A   1      48.441  30.753  27.183  1.00  0.00     0.031 C 
ATOM     51  C   UNL A   1      47.730  24.844  25.980  1.00  0.00     0.029 A 
ATOM     52  C   UNL A   1      47.487  26.156  26.355  1.00  0.00     0.049 A 
ATOM     53  H   UNL A   1      45.708  27.022  27.085  1.00  0.00     0.167 HD
ATOM     54  C   UNL A   1      48.080  28.535  26.731  1.00  0.00     0.074 A 
ATOM     55  C   UNL A   1      49.010  29.646  26.727  1.00  0.00     0.031 C 
ATOM     56  C   UNL A   1      48.397  27.273  26.348  1.00  0.00     0.037 A 
BRANCH  43  57
ATOM     57  C   UNL A   1      43.720  23.254  26.773  1.00  0.00     0.058 A 
ATOM     58  C   UNL A   1      43.448  22.423  27.871  1.00  0.00     0.135 A 
ATOM     59  C   UNL A   1      43.503  22.735  25.487  1.00  0.00     0.135 A 
ATOM     60  F   UNL A   1      43.654  22.865  29.121  1.00  0.00    -0.206 F 
ATOM     61  C   UNL A   1      43.001  21.116  27.697  1.00  0.00     0.059 A 
ATOM     62  C   UNL A   1      43.037  21.439  25.291  1.00  0.00     0.059 A 
ATOM     63  F   UNL A   1      43.749  23.490  24.404  1.00  0.00    -0.206 F 
ATOM     64  C   UNL A   1      42.803  20.631  26.403  1.00  0.00     0.060 A 
BRANCH  64  65
ATOM     65  S   UNL A   1      42.228  18.933  26.189  1.00  0.00     0.124 S 
ATOM     66  O   UNL A   1      40.841  19.146  25.789  1.00  0.00    -0.237 OA
ATOM     67  O   UNL A   1      43.118  18.428  25.148  1.00  0.00    -0.237 OA
ATOM     68  O   UNL A   1      42.418  18.343  27.511  1.00  0.00    -0.744 OA
ENDBRANCH  64  65
ENDBRANCH  43  57
BRANCH  44  69
ATOM     69  C   UNL A   1      46.526  32.730  28.188  1.00  0.00     0.058 A 
ATOM     70  C   UNL A   1      46.394  33.708  27.194  1.00  0.00     0.135 A 
ATOM     71  C   UNL A   1      47.059  33.119  29.426  1.00  0.00     0.135 A 
ATOM     72  F   UNL A   1      45.899  33.380  25.991  1.00  0.00    -0.206 F 
ATOM     73  C   UNL A   1      46.783  35.025  27.414  1.00  0.00     0.059 A 
ATOM     74  C   UNL A   1      47.434  34.435  29.679  1.00  0.00     0.059 A 
ATOM     75  F   UNL A   1      47.194  32.221  30.415  1.00  0.00    -0.206 F 
ATOM     76  C   UNL A   1      47.298  35.380  28.662  1.00  0.00     0.060 A 
BRANCH  76  77
ATOM     77  S   UNL A   1      47.741  37.105  28.963  1.00  0.00     0.124 S 
ATOM     78  O   UNL A   1      46.452  37.769  28.814  1.00  0.00    -0.237 OA
ATOM     79  O   UNL A   1      48.282  37.054  30.319  1.00  0.00    -0.237 OA
ATOM     80  O   UNL A   1      48.722  37.383  27.918  1.00  0.00    -0.744 OA
ENDBRANCH  76  77
ENDBRANCH  44  69
BRANCH  56  81
ATOM     81  C   UNL A   1      49.797  27.034  25.857  1.00  0.00     0.058 A 
ATOM     82  C   UNL A   1      50.822  26.629  26.724  1.00  0.00     0.135 A 
ATOM     83  C   UNL A   1      50.104  27.173  24.494  1.00  0.00     0.135 A 
ATOM     84  F   UNL A   1      50.580  26.489  28.037  1.00  0.00    -0.206 F 
ATOM     85  C   UNL A   1      52.112  26.388  26.260  1.00  0.00     0.059 A 
ATOM     86  C   UNL A   1      51.381  26.917  24.005  1.00  0.00     0.059 A 
ATOM     87  F   UNL A   1      49.155  27.550  23.622  1.00  0.00    -0.206 F 
ATOM     88  C   UNL A   1      52.381  26.537  24.899  1.00  0.00     0.060 A 
BRANCH  88  89
ATOM     89  S   UNL A   1      54.050  26.194  24.299  1.00  0.00     0.124 S 
ATOM     90  O   UNL A   1      53.839  26.143  22.856  1.00  0.00    -0.237 OA
ATOM     91  O   UNL A   1      54.805  27.345  24.788  1.00  0.00    -0.237 OA
ATOM     92  O   UNL A   1      54.382  24.922  24.933  1.00  0.00    -0.744 OA
ENDBRANCH  88  89
ENDBRANCH  56  81
ENDBRANCH  30  31
ENDBRANCH  23  25
ENDBRANCH  22  23
ENDBRANCH  21  22
ENDBRANCH   1  21
TORSDOF 19
ENDMDL
MODEL 2
REMARK VINA RESULT:      -9.6      7.086     13.415
REMARK SMILES C[NH+](C)CC(C)(C)CNC(=O)NCC(=O)OCCOC(=O)c1ccc(-c2c3nc(c(-c4c(F)cc(S(=O)(=O)[O-])cc4F)c4ccc([nH]4)c(-c4c(F)cc(S(=O)(=O)[O-])cc4F)c4nc(c(-c5c(F)cc(S(=O)(=O)[O-])cc5F)c5ccc2[nH]5)C=C4)C=C3)cc1
REMARK SMILES IDX 17 1 16 2 14 3 15 4 13 5 12 6 9 7 10 8 11 10 8 12 5 13 6 14
REMARK SMILES IDX 7 15 4 16 2 17 1 18 3 19 18 21 19 22 20 23 21 24 22 25 23 26
REMARK SMILES IDX 87 27 24 28 86 29 25 30 26 31 27 32 80 33 28 34 85 35 79 36
REMARK SMILES IDX 81 37 29 38 84 39 78 40 77 41 30 43 64 44 43 45 63 46 44 47
REMARK SMILES IDX 47 48 62 49 82 50 45 51 46 52 61 54 83 55 48 56 31 57 32 58
REMARK SMILES IDX 41 59 33 60 34 61 40 62 42 63 35 64 36 65 37 66 38 67 39 68
REMARK SMILES IDX 65 69 66 70 75 71 67 72 68 73 74 74 76 75 69 76 70 77 71 78
REMARK SMILES IDX 72 79 73 80 49 81 50 82 59 83 51 84 52 85 58 86 60 87 53 88
REMARK SMILES IDX 54 89 55 90 56 91 57 92
REMARK H PARENT 9 9 12 11 2 20 81 42 47 53
REMARK Flexibility Score: inf
ROOT
ATOM      1  C   UNL A   1      38.152  21.823  26.031  1.00  0.00     0.274 C 
ENDROOT
BRANCH   1   2
ATOM      2  O   UNL A   1      37.659  22.259  24.752  1.00  0.00    -0.461 OA
BRANCH   2   3
ATOM      3  C   UNL A   1      36.580  23.092  24.796  1.00  0.00     0.325 C 
ATOM      4  O   UNL A   1      36.284  23.794  25.757  1.00  0.00    -0.250 OA
BRANCH   3   5
ATOM      5  C   UNL A   1      35.922  23.240  23.434  1.00  0.00     0.240 C 
BRANCH   5   6
ATOM      6  N   UNL A   1      34.729  24.058  23.380  1.00  0.00    -0.327 N 
ATOM      7  N   UNL A   1      33.171  22.798  24.613  1.00  0.00    -0.337 N 
ATOM      8  C   UNL A   1      33.615  23.968  24.120  1.00  0.00     0.315 C 
ATOM      9  H   UNL A   1      32.642  22.873  25.439  1.00  0.00     0.165 HD
ATOM     10  O   UNL A   1      32.965  24.988  24.353  1.00  0.00    -0.249 OA
ATOM     11  H   UNL A   1      34.737  24.779  22.709  1.00  0.00     0.166 HD
BRANCH   7  12
ATOM     12  C   UNL A   1      33.343  21.438  24.124  1.00  0.00     0.130 C 
BRANCH  12  13
ATOM     13  C   UNL A   1      33.711  20.389  25.209  1.00  0.00     0.031 C 
ATOM     14  C   UNL A   1      33.863  21.141  26.549  1.00  0.00     0.019 C 
ATOM     15  C   UNL A   1      35.089  19.787  24.862  1.00  0.00     0.019 C 
BRANCH  13  16
ATOM     16  C   UNL A   1      32.686  19.214  25.334  1.00  0.00     0.269 C 
BRANCH  16  17
ATOM     17  N   UNL A   1      33.004  18.064  24.503  1.00  0.00    -0.339 N 
ATOM     18  C   UNL A   1      32.488  18.014  23.149  1.00  0.00     0.332 C 
ATOM     19  C   UNL A   1      33.187  16.781  25.149  1.00  0.00     0.332 C 
ATOM     20  H   UNL A   1      33.968  18.345  24.325  1.00  0.00     0.347 HD
ENDBRANCH  16  17
ENDBRANCH  13  16
ENDBRANCH  12  13
ENDBRANCH   7  12
ENDBRANCH   5   6
ENDBRANCH   3   5
ENDBRANCH   2   3
ENDBRANCH   1   2
BRANCH   1  21
ATOM     21  C   UNL A   1      39.569  22.349  26.291  1.00  0.00     0.275 C 
BRANCH  21  22
ATOM     22  O   UNL A   1      39.614  23.784  26.437  1.00  0.00    -0.458 OA
BRANCH  22  23
ATOM     23  C   UNL A   1      40.813  24.286  26.821  1.00  0.00     0.338 C 
ATOM     24  O   UNL A   1      41.913  23.886  26.484  1.00  0.00    -0.246 OA
BRANCH  23  25
ATOM     25  C   UNL A   1      40.632  25.478  27.668  1.00  0.00     0.060 A 
ATOM     26  C   UNL A   1      41.657  26.426  27.732  1.00  0.00     0.016 A 
ATOM     27  C   UNL A   1      39.524  25.581  28.507  1.00  0.00     0.016 A 
ATOM     28  C   UNL A   1      41.602  27.456  28.669  1.00  0.00     0.010 A 
ATOM     29  C   UNL A   1      39.454  26.635  29.426  1.00  0.00     0.010 A 
ATOM     30  C   UNL A   1      40.503  27.565  29.532  1.00  0.00    -0.014 A 
BRANCH  30  31
ATOM     31  C   UNL A   1      40.468  28.624  30.574  1.00  0.00     0.031 A 
ATOM     32  C   UNL A   1      41.410  28.559  31.746  1.00  0.00     0.074 A 
ATOM     33  C   UNL A   1      39.590  29.641  30.475  1.00  0.00     0.049 A 
ATOM     34  N   UNL A   1      41.439  29.296  32.827  1.00  0.00    -0.248 NA
ATOM     35  C   UNL A   1      42.452  27.521  31.698  1.00  0.00     0.031 C 
ATOM     36  C   UNL A   1      38.652  29.844  29.370  1.00  0.00     0.029 A 
ATOM     37  N   UNL A   1      39.340  30.691  31.322  1.00  0.00    -0.354 N 
ATOM     38  C   UNL A   1      42.476  28.792  33.604  1.00  0.00     0.074 A 
ATOM     39  C   UNL A   1      43.047  27.681  32.872  1.00  0.00     0.031 C 
ATOM     40  C   UNL A   1      37.929  30.949  29.608  1.00  0.00     0.029 A 
ATOM     41  C   UNL A   1      38.313  31.503  30.904  1.00  0.00     0.049 A 
ATOM     42  H   UNL A   1      39.847  30.848  32.152  1.00  0.00     0.167 HD
ATOM     43  C   UNL A   1      42.909  29.216  34.816  1.00  0.00     0.037 A 
ATOM     44  C   UNL A   1      37.724  32.552  31.508  1.00  0.00     0.037 A 
ATOM     45  C   UNL A   1      42.358  30.342  35.525  1.00  0.00     0.049 A 
ATOM     46  C   UNL A   1      38.203  32.990  32.864  1.00  0.00     0.074 A 
ATOM     47  C   UNL A   1      42.735  30.853  36.755  1.00  0.00     0.029 A 
ATOM     48  N   UNL A   1      41.319  31.137  35.066  1.00  0.00    -0.354 N 
ATOM     49  N   UNL A   1      39.164  32.483  33.600  1.00  0.00    -0.248 NA
ATOM     50  C   UNL A   1      37.517  34.136  33.475  1.00  0.00     0.031 C 
ATOM     51  C   UNL A   1      41.906  31.941  37.052  1.00  0.00     0.029 A 
ATOM     52  C   UNL A   1      41.036  32.130  35.990  1.00  0.00     0.049 A 
ATOM     53  H   UNL A   1      40.851  31.013  34.209  1.00  0.00     0.167 HD
ATOM     54  C   UNL A   1      39.208  33.260  34.752  1.00  0.00     0.074 A 
ATOM     55  C   UNL A   1      38.185  34.277  34.611  1.00  0.00     0.031 C 
ATOM     56  C   UNL A   1      40.022  33.141  35.830  1.00  0.00     0.037 A 
BRANCH  43  57
ATOM     57  C   UNL A   1      44.019  28.440  35.467  1.00  0.00     0.058 A 
ATOM     58  C   UNL A   1      43.763  27.364  36.330  1.00  0.00     0.135 A 
ATOM     59  C   UNL A   1      45.360  28.763  35.199  1.00  0.00     0.135 A 
ATOM     60  F   UNL A   1      42.500  27.025  36.632  1.00  0.00    -0.206 F 
ATOM     61  C   UNL A   1      44.798  26.650  36.926  1.00  0.00     0.059 A 
ATOM     62  C   UNL A   1      46.410  28.049  35.767  1.00  0.00     0.059 A 
ATOM     63  F   UNL A   1      45.658  29.784  34.381  1.00  0.00    -0.206 F 
ATOM     64  C   UNL A   1      46.119  27.003  36.642  1.00  0.00     0.060 A 
BRANCH  64  65
ATOM     65  S   UNL A   1      47.455  26.073  37.425  1.00  0.00     0.124 S 
ATOM     66  O   UNL A   1      46.781  24.821  37.753  1.00  0.00    -0.237 OA
ATOM     67  O   UNL A   1      48.451  25.996  36.360  1.00  0.00    -0.237 OA
ATOM     68  O   UNL A   1      47.824  26.906  38.564  1.00  0.00    -0.744 OA
ENDBRANCH  64  65
ENDBRANCH  43  57
BRANCH  44  69
ATOM     69  C   UNL A   1      36.595  33.248  30.840  1.00  0.00     0.058 A 
ATOM     70  C   UNL A   1      35.276  33.071  31.278  1.00  0.00     0.135 A 
ATOM     71  C   UNL A   1      36.817  34.120  29.762  1.00  0.00     0.135 A 
ATOM     72  F   UNL A   1      35.014  32.240  32.298  1.00  0.00    -0.206 F 
ATOM     73  C   UNL A   1      34.212  33.728  30.669  1.00  0.00     0.059 A 
ATOM     74  C   UNL A   1      35.773  34.807  29.151  1.00  0.00     0.059 A 
ATOM     75  F   UNL A   1      38.064  34.332  29.313  1.00  0.00    -0.206 F 
ATOM     76  C   UNL A   1      34.472  34.598  29.608  1.00  0.00     0.060 A 
BRANCH  76  77
ATOM     77  S   UNL A   1      33.095  35.497  28.862  1.00  0.00     0.124 S 
ATOM     78  O   UNL A   1      33.794  36.503  28.072  1.00  0.00    -0.237 OA
ATOM     79  O   UNL A   1      32.414  34.450  28.105  1.00  0.00    -0.237 OA
ATOM     80  O   UNL A   1      32.360  35.999  30.020  1.00  0.00    -0.744 OA
ENDBRANCH  76  77
ENDBRANCH  44  69
BRANCH  56  81
ATOM     81  C   UNL A   1      39.868  34.158  36.925  1.00  0.00     0.058 A 
ATOM     82  C   UNL A   1      40.487  35.415  36.854  1.00  0.00     0.135 A 
ATOM     83  C   UNL A   1      39.057  33.885  38.037  1.00  0.00     0.135 A 
ATOM     84  F   UNL A   1      41.278  35.722  35.814  1.00  0.00    -0.206 F 
ATOM     85  C   UNL A   1      40.323  36.362  37.861  1.00  0.00     0.059 A 
ATOM     86  C   UNL A   1      38.862  34.824  39.045  1.00  0.00     0.059 A 
ATOM     87  F   UNL A   1      38.437  32.700  38.148  1.00  0.00    -0.206 F 
ATOM     88  C   UNL A   1      39.510  36.056  38.954  1.00  0.00     0.060 A 
BRANCH  88  89
ATOM     89  S   UNL A   1      39.279  37.300  40.242  1.00  0.00     0.124 S 
ATOM     90  O   UNL A   1      38.584  36.532  41.270  1.00  0.00    -0.237 OA
ATOM     91  O   UNL A   1      40.651  37.686  40.559  1.00  0.00    -0.237 OA
ATOM     92  O   UNL A   1      38.484  38.329  39.580  1.00  0.00    -0.744 OA
ENDBRANCH  88  89
ENDBRANCH  56  81
ENDBRANCH  30  31
ENDBRANCH  23  25
ENDBRANCH  22  23
ENDBRANCH  21  22
ENDBRANCH   1  21
TORSDOF 19
ENDMDL
MODEL 3
REMARK VINA RESULT:      -9.5      2.660      3.830
REMARK SMILES C[NH+](C)CC(C)(C)CNC(=O)NCC(=O)OCCOC(=O)c1ccc(-c2c3nc(c(-c4c(F)cc(S(=O)(=O)[O-])cc4F)c4ccc([nH]4)c(-c4c(F)cc(S(=O)(=O)[O-])cc4F)c4nc(c(-c5c(F)cc(S(=O)(=O)[O-])cc5F)c5ccc2[nH]5)C=C4)C=C3)cc1
REMARK SMILES IDX 17 1 16 2 14 3 15 4 13 5 12 6 9 7 10 8 11 10 8 12 5 13 6 14
REMARK SMILES IDX 7 15 4 16 2 17 1 18 3 19 18 21 19 22 20 23 21 24 22 25 23 26
REMARK SMILES IDX 87 27 24 28 86 29 25 30 26 31 27 32 80 33 28 34 85 35 79 36
REMARK SMILES IDX 81 37 29 38 84 39 78 40 77 41 30 43 64 44 43 45 63 46 44 47
REMARK SMILES IDX 47 48 62 49 82 50 45 51 46 52 61 54 83 55 48 56 31 57 32 58
REMARK SMILES IDX 41 59 33 60 34 61 40 62 42 63 35 64 36 65 37 66 38 67 39 68
REMARK SMILES IDX 65 69 66 70 75 71 67 72 68 73 74 74 76 75 69 76 70 77 71 78
REMARK SMILES IDX 72 79 73 80 49 81 50 82 59 83 51 84 52 85 58 86 60 87 53 88
REMARK SMILES IDX 54 89 55 90 56 91 57 92
REMARK H PARENT 9 9 12 11 2 20 81 42 47 53
REMARK Flexibility Score: inf
ROOT
ATOM      1  C   UNL A   1      34.847  33.712  30.476  1.00  0.00     0.274 C 
ENDROOT
BRANCH   1   2
ATOM      2  O   UNL A   1      33.734  33.657  29.566  1.00  0.00    -0.461 OA
BRANCH   2   3
ATOM      3  C   UNL A   1      34.058  33.412  28.264  1.00  0.00     0.325 C 
ATOM      4  O   UNL A   1      34.907  34.030  27.631  1.00  0.00    -0.250 OA
BRANCH   3   5
ATOM      5  C   UNL A   1      33.424  32.127  27.755  1.00  0.00     0.240 C 
BRANCH   5   6
ATOM      6  N   UNL A   1      34.083  30.892  28.125  1.00  0.00    -0.327 N 
ATOM      7  N   UNL A   1      34.087  29.676  26.111  1.00  0.00    -0.337 N 
ATOM      8  C   UNL A   1      34.593  29.942  27.329  1.00  0.00     0.315 C 
ATOM      9  H   UNL A   1      34.734  29.304  25.469  1.00  0.00     0.165 HD
ATOM     10  O   UNL A   1      35.552  29.279  27.725  1.00  0.00    -0.249 OA
ATOM     11  H   UNL A   1      34.169  30.729  29.092  1.00  0.00     0.166 HD
BRANCH   7  12
ATOM     12  C   UNL A   1      32.741  29.846  25.587  1.00  0.00     0.130 C 
BRANCH  12  13
ATOM     13  C   UNL A   1      32.310  28.796  24.524  1.00  0.00     0.031 C 
ATOM     14  C   UNL A   1      33.268  28.933  23.322  1.00  0.00     0.019 C 
ATOM     15  C   UNL A   1      30.893  29.154  24.027  1.00  0.00     0.019 C 
BRANCH  13  16
ATOM     16  C   UNL A   1      32.280  27.325  25.057  1.00  0.00     0.269 C 
BRANCH  16  17
ATOM     17  N   UNL A   1      31.212  26.516  24.493  1.00  0.00    -0.339 N 
ATOM     18  C   UNL A   1      30.208  25.963  25.380  1.00  0.00     0.332 C 
ATOM     19  C   UNL A   1      31.497  25.733  23.308  1.00  0.00     0.332 C 
ATOM     20  H   UNL A   1      30.699  27.305  24.100  1.00  0.00     0.347 HD
ENDBRANCH  16  17
ENDBRANCH  13  16
ENDBRANCH  12  13
ENDBRANCH   7  12
ENDBRANCH   5   6
ENDBRANCH   3   5
ENDBRANCH   2   3
ENDBRANCH   1   2
BRANCH   1  21
ATOM     21  C   UNL A   1      35.080  32.356  31.154  1.00  0.00     0.275 C 
BRANCH  21  22
ATOM     22  O   UNL A   1      36.137  31.595  30.532  1.00  0.00    -0.458 OA
BRANCH  22  23
ATOM     23  C   UNL A   1      36.893  30.860  31.382  1.00  0.00     0.338 C 
ATOM     24  O   UNL A   1      36.634  30.590  32.542  1.00  0.00    -0.246 OA
BRANCH  23  25
ATOM     25  C   UNL A   1      38.083  30.329  30.695  1.00  0.00     0.060 A 
ATOM     26  C   UNL A   1      39.088  29.719  31.453  1.00  0.00     0.016 A 
ATOM     27  C   UNL A   1      38.272  30.565  29.335  1.00  0.00     0.016 A 
ATOM     28  C   UNL A   1      40.305  29.387  30.863  1.00  0.00     0.010 A 
ATOM     29  C   UNL A   1      39.484  30.201  28.737  1.00  0.00     0.010 A 
ATOM     30  C   UNL A   1      40.520  29.633  29.500  1.00  0.00    -0.014 A 
BRANCH  30  31
ATOM     31  C   UNL A   1      41.837  29.337  28.881  1.00  0.00     0.031 A 
ATOM     32  C   UNL A   1      42.138  27.952  28.375  1.00  0.00     0.074 A 
ATOM     33  C   UNL A   1      42.767  30.306  28.775  1.00  0.00     0.049 A 
ATOM     34  N   UNL A   1      43.268  27.457  27.940  1.00  0.00    -0.248 NA
ATOM     35  C   UNL A   1      41.019  26.996  28.365  1.00  0.00     0.031 C 
ATOM     36  C   UNL A   1      42.588  31.699  29.188  1.00  0.00     0.029 A 
ATOM     37  N   UNL A   1      44.052  30.263  28.295  1.00  0.00    -0.354 N 
ATOM     38  C   UNL A   1      43.009  26.125  27.638  1.00  0.00     0.074 A 
ATOM     39  C   UNL A   1      41.614  25.888  27.946  1.00  0.00     0.031 C 
ATOM     40  C   UNL A   1      43.721  32.377  28.944  1.00  0.00     0.029 A 
ATOM     41  C   UNL A   1      44.722  31.457  28.408  1.00  0.00     0.049 A 
ATOM     42  H   UNL A   1      44.456  29.453  27.907  1.00  0.00     0.167 HD
ATOM     43  C   UNL A   1      43.857  25.187  27.151  1.00  0.00     0.037 A 
ATOM     44  C   UNL A   1      46.005  31.771  28.145  1.00  0.00     0.037 A 
ATOM     45  C   UNL A   1      45.235  25.435  26.816  1.00  0.00     0.049 A 
ATOM     46  C   UNL A   1      46.935  30.708  27.629  1.00  0.00     0.074 A 
ATOM     47  C   UNL A   1      46.172  24.550  26.308  1.00  0.00     0.029 A 
ATOM     48  N   UNL A   1      45.874  26.659  26.945  1.00  0.00    -0.354 N 
ATOM     49  N   UNL A   1      46.683  29.445  27.378  1.00  0.00    -0.248 NA
ATOM     50  C   UNL A   1      48.323  31.109  27.365  1.00  0.00     0.031 C 
ATOM     51  C   UNL A   1      47.384  25.233  26.157  1.00  0.00     0.029 A 
ATOM     52  C   UNL A   1      47.193  26.552  26.536  1.00  0.00     0.049 A 
ATOM     53  H   UNL A   1      45.452  27.483  27.280  1.00  0.00     0.167 HD
ATOM     54  C   UNL A   1      47.876  28.906  26.911  1.00  0.00     0.074 A 
ATOM     55  C   UNL A   1      48.848  29.982  26.904  1.00  0.00     0.031 C 
ATOM     56  C   UNL A   1      48.144  27.635  26.524  1.00  0.00     0.037 A 
BRANCH  43  57
ATOM     57  C   UNL A   1      43.323  23.792  26.976  1.00  0.00     0.058 A 
ATOM     58  C   UNL A   1      43.132  22.931  28.067  1.00  0.00     0.135 A 
ATOM     59  C   UNL A   1      42.973  23.323  25.699  1.00  0.00     0.135 A 
ATOM     60  F   UNL A   1      43.465  23.324  29.306  1.00  0.00    -0.206 F 
ATOM     61  C   UNL A   1      42.634  21.642  27.895  1.00  0.00     0.059 A 
ATOM     62  C   UNL A   1      42.455  22.047  25.507  1.00  0.00     0.059 A 
ATOM     63  F   UNL A   1      43.138  24.108  24.623  1.00  0.00    -0.206 F 
ATOM     64  C   UNL A   1      42.303  21.207  26.610  1.00  0.00     0.060 A 
BRANCH  64  65
ATOM     65  S   UNL A   1      41.663  19.532  26.397  1.00  0.00     0.124 S 
ATOM     66  O   UNL A   1      42.386  19.096  25.206  1.00  0.00    -0.237 OA
ATOM     67  O   UNL A   1      42.053  18.885  27.646  1.00  0.00    -0.237 OA
ATOM     68  O   UNL A   1      40.229  19.738  26.222  1.00  0.00    -0.744 OA
ENDBRANCH  64  65
ENDBRANCH  43  57
BRANCH  44  69
ATOM     69  C   UNL A   1      46.490  33.154  28.387  1.00  0.00     0.058 A 
ATOM     70  C   UNL A   1      47.019  33.526  29.630  1.00  0.00     0.135 A 
ATOM     71  C   UNL A   1      46.453  34.123  27.372  1.00  0.00     0.135 A 
ATOM     72  F   UNL A   1      47.065  32.636  30.633  1.00  0.00    -0.206 F 
ATOM     73  C   UNL A   1      47.489  34.814  29.864  1.00  0.00     0.059 A 
ATOM     74  C   UNL A   1      46.938  35.411  27.574  1.00  0.00     0.059 A 
ATOM     75  F   UNL A   1      45.967  33.811  26.160  1.00  0.00    -0.206 F 
ATOM     76  C   UNL A   1      47.448  35.749  28.827  1.00  0.00     0.060 A 
BRANCH  76  77
ATOM     77  S   UNL A   1      48.118  37.400  29.118  1.00  0.00     0.124 S 
ATOM     78  O   UNL A   1      48.894  37.192  30.335  1.00  0.00    -0.237 OA
ATOM     79  O   UNL A   1      48.888  37.641  27.902  1.00  0.00    -0.237 OA
ATOM     80  O   UNL A   1      46.920  38.224  29.263  1.00  0.00    -0.744 OA
ENDBRANCH  76  77
ENDBRANCH  44  69
BRANCH  56  81
ATOM     81  C   UNL A   1      49.530  27.345  26.023  1.00  0.00     0.058 A 
ATOM     82  C   UNL A   1      49.863  27.467  24.665  1.00  0.00     0.135 A 
ATOM     83  C   UNL A   1      50.547  26.980  26.919  1.00  0.00     0.135 A 
ATOM     84  F   UNL A   1      48.924  27.807  23.767  1.00  0.00    -0.206 F 
ATOM     85  C   UNL A   1      51.154  27.218  24.210  1.00  0.00     0.059 A 
ATOM     86  C   UNL A   1      51.849  26.747  26.489  1.00  0.00     0.059 A 
ATOM     87  F   UNL A   1      50.281  26.857  28.230  1.00  0.00    -0.206 F 
ATOM     88  C   UNL A   1      52.140  26.857  25.130  1.00  0.00     0.060 A 
BRANCH  88  89
ATOM     89  S   UNL A   1      53.820  26.564  24.535  1.00  0.00     0.124 S 
ATOM     90  O   UNL A   1      53.569  25.853  23.286  1.00  0.00    -0.237 OA
ATOM     91  O   UNL A   1      54.347  27.919  24.397  1.00  0.00    -0.237 OA
ATOM     92  O   UNL A   1      54.422  25.771  25.601  1.00  0.00    -0.744 OA
ENDBRANCH  88  89
ENDBRANCH  56  81
ENDBRANCH  30  31
ENDBRANCH  23  25
ENDBRANCH  22  23
ENDBRANCH  21  22
ENDBRANCH   1  21
TORSDOF 19
ENDMDL
