MODEL 1
REMARK VINA RESULT:     -11.4      0.000      0.000
REMARK SMILES CCCCOC(=O)[C@@H]1[C@H]2c3ccccc3[C@H](c3ccccc32)[C@@H]1C(=O)OCCOC(=O)c1ccc(-c2c3nc(c(-c4c(F)cc(S(=O)(=O)[O-])cc4F)c4ccc([nH]4)c(-c4c(F)cc(S(=O)(=O)[O-])cc4F)c4nc(c(-c5c(F)cc(S(=O)(=O)[O-])cc5F)c5ccc2[nH]5)C=C4)C=C3)cc1
REMARK SMILES IDX 27 1 26 2 24 3 25 4 23 5 8 6 9 7 22 8 10 9 16 10 21 11 17 12
REMARK SMILES IDX 15 13 11 14 20 15 18 16 14 17 12 18 19 19 13 20 6 21 7 22
REMARK SMILES IDX 5 23 4 24 3 25 2 26 1 27 28 28 29 29 30 30 31 31 32 32 33 33
REMARK SMILES IDX 97 34 34 35 96 36 35 37 36 38 37 39 90 40 38 41 95 42 89 43
REMARK SMILES IDX 91 44 39 45 94 46 88 47 87 48 40 50 74 51 53 52 73 53 54 54
REMARK SMILES IDX 57 55 72 56 92 57 55 58 56 59 71 61 93 62 58 63 41 64 42 65
REMARK SMILES IDX 51 66 43 67 44 68 50 69 52 70 45 71 46 72 47 73 48 74 49 75
REMARK SMILES IDX 75 76 76 77 85 78 77 79 78 80 84 81 86 82 79 83 80 84 81 85
REMARK SMILES IDX 82 86 83 87 59 88 60 89 69 90 61 91 62 92 68 93 70 94 63 95
REMARK SMILES IDX 64 96 65 97 66 98 67 99
REMARK H PARENT 91 49 57 60
REMARK Flexibility Score: inf
ROOT
ATOM      1  C   UNL A   1      32.925  29.431  25.460  1.00  0.00     0.274 C 
ENDROOT
BRANCH   1   2
ATOM      2  O   UNL A   1      33.830  28.312  25.367  1.00  0.00    -0.462 OA
BRANCH   2   3
ATOM      3  C   UNL A   1      33.322  27.062  25.477  1.00  0.00     0.310 C 
ATOM      4  O   UNL A   1      32.183  26.820  25.854  1.00  0.00    -0.252 OA
BRANCH   3   5
ATOM      5  C   UNL A   1      34.296  25.962  25.071  1.00  0.00     0.126 C 
ATOM      6  C   UNL A   1      34.150  25.443  23.598  1.00  0.00     0.126 C 
ATOM      7  C   UNL A   1      33.953  23.898  23.595  1.00  0.00     0.065 C 
ATOM      8  C   UNL A   1      32.824  23.551  24.568  1.00  0.00    -0.036 A 
ATOM      9  C   UNL A   1      35.262  23.374  24.217  1.00  0.00    -0.036 A 
ATOM     10  C   UNL A   1      34.368  24.752  26.060  1.00  0.00     0.065 C 
ATOM     11  C   UNL A   1      31.639  22.902  24.254  1.00  0.00     0.004 A 
ATOM     12  C   UNL A   1      33.073  23.964  25.898  1.00  0.00    -0.036 A 
ATOM     13  C   UNL A   1      35.489  23.853  25.536  1.00  0.00    -0.036 A 
ATOM     14  C   UNL A   1      36.202  22.567  23.593  1.00  0.00     0.004 A 
ATOM     15  C   UNL A   1      30.712  22.665  25.274  1.00  0.00     0.000 A 
ATOM     16  C   UNL A   1      32.168  23.698  26.917  1.00  0.00     0.004 A 
ATOM     17  C   UNL A   1      36.644  23.517  26.229  1.00  0.00     0.004 A 
ATOM     18  C   UNL A   1      37.365  22.232  24.292  1.00  0.00     0.000 A 
ATOM     19  C   UNL A   1      30.977  23.051  26.596  1.00  0.00     0.000 A 
ATOM     20  C   UNL A   1      37.583  22.701  25.598  1.00  0.00     0.000 A 
BRANCH   6  21
ATOM     21  C   UNL A   1      33.218  26.230  22.707  1.00  0.00     0.310 C 
ATOM     22  O   UNL A   1      33.629  27.119  21.972  1.00  0.00    -0.252 OA
BRANCH  21  23
ATOM     23  O   UNL A   1      31.924  25.838  22.785  1.00  0.00    -0.465 OA
BRANCH  23  24
ATOM     24  C   UNL A   1      30.967  26.645  22.070  1.00  0.00     0.233 C 
BRANCH  24  25
ATOM     25  C   UNL A   1      30.286  27.630  23.018  1.00  0.00     0.041 C 
BRANCH  25  26
ATOM     26  C   UNL A   1      30.298  29.074  22.527  1.00  0.00     0.000 C 
ATOM     27  C   UNL A   1      29.627  30.065  23.463  1.00  0.00     0.004 C 
ENDBRANCH  25  26
ENDBRANCH  24  25
ENDBRANCH  23  24
ENDBRANCH  21  23
ENDBRANCH   6  21
ENDBRANCH   3   5
ENDBRANCH   2   3
ENDBRANCH   1   2
BRANCH   1  28
ATOM     28  C   UNL A   1      33.061  30.151  26.800  1.00  0.00     0.275 C 
BRANCH  28  29
ATOM     29  O   UNL A   1      34.196  29.655  27.524  1.00  0.00    -0.458 OA
BRANCH  29  30
ATOM     30  C   UNL A   1      34.844  30.578  28.276  1.00  0.00     0.338 C 
ATOM     31  O   UNL A   1      34.356  31.525  28.860  1.00  0.00    -0.246 OA
BRANCH  30  32
ATOM     32  C   UNL A   1      36.241  30.150  28.436  1.00  0.00     0.060 A 
ATOM     33  C   UNL A   1      37.114  30.134  27.350  1.00  0.00     0.016 A 
ATOM     34  C   UNL A   1      36.677  29.773  29.710  1.00  0.00     0.016 A 
ATOM     35  C   UNL A   1      38.430  29.724  27.547  1.00  0.00     0.010 A 
ATOM     36  C   UNL A   1      37.989  29.357  29.907  1.00  0.00     0.010 A 
ATOM     37  C   UNL A   1      38.873  29.336  28.825  1.00  0.00    -0.014 A 
BRANCH  37  38
ATOM     38  C   UNL A   1      40.298  29.014  29.043  1.00  0.00     0.031 A 
ATOM     39  C   UNL A   1      40.844  27.662  28.714  1.00  0.00     0.074 A 
ATOM     40  C   UNL A   1      41.089  29.980  29.543  1.00  0.00     0.049 A 
ATOM     41  N   UNL A   1      42.090  27.265  28.700  1.00  0.00    -0.248 NA
ATOM     42  C   UNL A   1      39.871  26.615  28.369  1.00  0.00     0.031 C 
ATOM     43  C   UNL A   1      40.627  31.308  29.951  1.00  0.00     0.029 A 
ATOM     44  N   UNL A   1      42.439  30.009  29.766  1.00  0.00    -0.354 N 
ATOM     45  C   UNL A   1      42.057  25.933  28.311  1.00  0.00     0.074 A 
ATOM     46  C   UNL A   1      40.662  25.568  28.174  1.00  0.00     0.031 C 
ATOM     47  C   UNL A   1      41.686  32.047  30.311  1.00  0.00     0.029 A 
ATOM     48  C   UNL A   1      42.894  31.237  30.184  1.00  0.00     0.049 A 
ATOM     49  H   UNL A   1      43.026  29.229  29.640  1.00  0.00     0.167 HD
ATOM     50  C   UNL A   1      43.101  25.106  28.059  1.00  0.00     0.037 A 
ATOM     51  C   UNL A   1      44.149  31.667  30.409  1.00  0.00     0.037 A 
ATOM     52  C   UNL A   1      44.480  25.486  28.238  1.00  0.00     0.049 A 
ATOM     53  C   UNL A   1      45.289  30.722  30.168  1.00  0.00     0.074 A 
ATOM     54  C   UNL A   1      45.620  24.740  27.999  1.00  0.00     0.029 A 
ATOM     55  N   UNL A   1      44.905  26.719  28.721  1.00  0.00    -0.354 N 
ATOM     56  N   UNL A   1      45.254  29.489  29.719  1.00  0.00    -0.248 NA
ATOM     57  C   UNL A   1      46.638  31.223  30.458  1.00  0.00     0.031 C 
ATOM     58  C   UNL A   1      46.729  25.502  28.386  1.00  0.00     0.029 A 
ATOM     59  C   UNL A   1      46.288  26.744  28.816  1.00  0.00     0.049 A 
ATOM     60  H   UNL A   1      44.310  27.466  28.961  1.00  0.00     0.167 HD
ATOM     61  C   UNL A   1      46.577  29.067  29.662  1.00  0.00     0.074 A 
ATOM     62  C   UNL A   1      47.387  30.186  30.104  1.00  0.00     0.031 C 
ATOM     63  C   UNL A   1      47.074  27.864  29.279  1.00  0.00     0.037 A 
BRANCH  50  64
ATOM     64  C   UNL A   1      42.780  23.722  27.561  1.00  0.00     0.058 A 
ATOM     65  C   UNL A   1      42.555  22.658  28.451  1.00  0.00     0.135 A 
ATOM     66  C   UNL A   1      42.690  23.447  26.186  1.00  0.00     0.135 A 
ATOM     67  F   UNL A   1      42.632  22.858  29.776  1.00  0.00    -0.206 F 
ATOM     68  C   UNL A   1      42.303  21.367  27.999  1.00  0.00     0.059 A 
ATOM     69  C   UNL A   1      42.406  22.169  25.711  1.00  0.00     0.059 A 
ATOM     70  F   UNL A   1      42.886  24.424  25.287  1.00  0.00    -0.206 F 
ATOM     71  C   UNL A   1      42.237  21.130  26.626  1.00  0.00     0.060 A 
BRANCH  71  72
ATOM     72  S   UNL A   1      41.938  19.442  26.059  1.00  0.00     0.124 S 
ATOM     73  O   UNL A   1      42.762  19.387  24.856  1.00  0.00    -0.237 OA
ATOM     74  O   UNL A   1      42.413  18.646  27.187  1.00  0.00    -0.237 OA
ATOM     75  O   UNL A   1      40.497  19.407  25.833  1.00  0.00    -0.744 OA
ENDBRANCH  71  72
ENDBRANCH  50  64
BRANCH  51  76
ATOM     76  C   UNL A   1      44.364  33.082  30.808  1.00  0.00     0.058 A 
ATOM     77  C   UNL A   1      44.443  34.092  29.838  1.00  0.00     0.135 A 
ATOM     78  C   UNL A   1      44.388  33.465  32.157  1.00  0.00     0.135 A 
ATOM     79  F   UNL A   1      44.425  33.774  28.534  1.00  0.00    -0.206 F 
ATOM     80  C   UNL A   1      44.523  35.434  30.192  1.00  0.00     0.059 A 
ATOM     81  C   UNL A   1      44.445  34.803  32.536  1.00  0.00     0.059 A 
ATOM     82  F   UNL A   1      44.295  32.537  33.122  1.00  0.00    -0.206 F 
ATOM     83  C   UNL A   1      44.507  35.781  31.544  1.00  0.00     0.060 A 
BRANCH  83  84
ATOM     84  S   UNL A   1      44.507  37.533  31.983  1.00  0.00     0.124 S 
ATOM     85  O   UNL A   1      45.929  37.788  32.185  1.00  0.00    -0.237 OA
ATOM     86  O   UNL A   1      43.911  38.142  30.797  1.00  0.00    -0.237 OA
ATOM     87  O   UNL A   1      43.681  37.580  33.186  1.00  0.00    -0.744 OA
ENDBRANCH  83  84
ENDBRANCH  51  76
BRANCH  63  88
ATOM     88  C   UNL A   1      48.567  27.685  29.336  1.00  0.00     0.058 A 
ATOM     89  C   UNL A   1      49.187  27.049  30.423  1.00  0.00     0.135 A 
ATOM     90  C   UNL A   1      49.377  28.085  28.260  1.00  0.00     0.135 A 
ATOM     91  F   UNL A   1      48.460  26.657  31.482  1.00  0.00    -0.206 F 
ATOM     92  C   UNL A   1      50.559  26.825  30.446  1.00  0.00     0.059 A 
ATOM     93  C   UNL A   1      50.747  27.845  28.250  1.00  0.00     0.059 A 
ATOM     94  F   UNL A   1      48.833  28.692  27.193  1.00  0.00    -0.206 F 
ATOM     95  C   UNL A   1      51.329  27.217  29.351  1.00  0.00     0.060 A 
BRANCH  95  96
ATOM     96  S   UNL A   1      53.100  26.868  29.376  1.00  0.00     0.124 S 
ATOM     97  O   UNL A   1      53.259  26.237  30.682  1.00  0.00    -0.237 OA
ATOM     98  O   UNL A   1      53.258  25.987  28.223  1.00  0.00    -0.237 OA
ATOM     99  O   UNL A   1      53.711  28.188  29.238  1.00  0.00    -0.744 OA
ENDBRANCH  95  96
ENDBRANCH  63  88
ENDBRANCH  37  38
ENDBRANCH  30  32
ENDBRANCH  29  30
ENDBRANCH  28  29
ENDBRANCH   1  28
TORSDOF 19
ENDMDL
MODEL 2
REMARK VINA RESULT:     -11.3      5.376      9.768
REMARK SMILES CCCCOC(=O)[C@@H]1[C@H]2c3ccccc3[C@H](c3ccccc32)[C@@H]1C(=O)OCCOC(=O)c1ccc(-c2c3nc(c(-c4c(F)cc(S(=O)(=O)[O-])cc4F)c4ccc([nH]4)c(-c4c(F)cc(S(=O)(=O)[O-])cc4F)c4nc(c(-c5c(F)cc(S(=O)(=O)[O-])cc5F)c5ccc2[nH]5)C=C4)C=C3)cc1
REMARK SMILES IDX 27 1 26 2 24 3 25 4 23 5 8 6 9 7 22 8 10 9 16 10 21 11 17 12
REMARK SMILES IDX 15 13 11 14 20 15 18 16 14 17 12 18 19 19 13 20 6 21 7 22
REMARK SMILES IDX 5 23 4 24 3 25 2 26 1 27 28 28 29 29 30 30 31 31 32 32 33 33
REMARK SMILES IDX 97 34 34 35 96 36 35 37 36 38 37 39 90 40 38 41 95 42 89 43
REMARK SMILES IDX 91 44 39 45 94 46 88 47 87 48 40 50 74 51 53 52 73 53 54 54
REMARK SMILES IDX 57 55 72 56 92 57 55 58 56 59 71 61 93 62 58 63 41 64 42 65
REMARK SMILES IDX 51 66 43 67 44 68 50 69 52 70 45 71 46 72 47 73 48 74 49 75
REMARK SMILES IDX 75 76 76 77 85 78 77 79 78 80 84 81 86 82 79 83 80 84 81 85
REMARK SMILES IDX 82 86 83 87 59 88 60 89 69 90 61 91 62 92 68 93 70 94 63 95
REMARK SMILES IDX 64 96 65 97 66 98 67 99
REMARK H PARENT 91 49 57 60
REMARK Flexibility Score: inf
ROOT
ATOM      1  C   UNL A   1      37.539  23.896  26.078  1.00  0.00     0.274 C 
ENDROOT
BRANCH   1   2
ATOM      2  O   UNL A   1      36.670  22.755  26.224  1.00  0.00    -0.462 OA
BRANCH   2   3
ATOM      3  C   UNL A   1      35.342  22.927  26.024  1.00  0.00     0.310 C 
ATOM      4  O   UNL A   1      34.723  23.922  26.376  1.00  0.00    -0.252 OA
BRANCH   3   5
ATOM      5  C   UNL A   1      34.672  21.766  25.298  1.00  0.00     0.126 C 
ATOM      6  C   UNL A   1      34.408  21.992  23.768  1.00  0.00     0.126 C 
ATOM      7  C   UNL A   1      32.902  21.762  23.448  1.00  0.00     0.065 C 
ATOM      8  C   UNL A   1      32.067  22.591  24.425  1.00  0.00    -0.036 A 
ATOM      9  C   UNL A   1      32.685  20.281  23.813  1.00  0.00    -0.036 A 
ATOM     10  C   UNL A   1      33.379  21.219  25.988  1.00  0.00     0.065 C 
ATOM     11  C   UNL A   1      31.164  23.590  24.092  1.00  0.00     0.004 A 
ATOM     12  C   UNL A   1      32.286  22.262  25.783  1.00  0.00    -0.036 A 
ATOM     13  C   UNL A   1      32.962  19.991  25.177  1.00  0.00    -0.036 A 
ATOM     14  C   UNL A   1      32.319  19.265  22.942  1.00  0.00     0.004 A 
ATOM     15  C   UNL A   1      30.482  24.251  25.119  1.00  0.00     0.000 A 
ATOM     16  C   UNL A   1      31.585  22.894  26.801  1.00  0.00     0.004 A 
ATOM     17  C   UNL A   1      32.863  18.696  25.667  1.00  0.00     0.004 A 
ATOM     18  C   UNL A   1      32.222  17.961  23.437  1.00  0.00     0.000 A 
ATOM     19  C   UNL A   1      30.684  23.900  26.462  1.00  0.00     0.000 A 
ATOM     20  C   UNL A   1      32.490  17.680  24.787  1.00  0.00     0.000 A 
BRANCH   6  21
ATOM     21  C   UNL A   1      35.032  23.226  23.162  1.00  0.00     0.310 C 
ATOM     22  O   UNL A   1      36.221  23.271  22.873  1.00  0.00    -0.252 OA
BRANCH  21  23
ATOM     23  O   UNL A   1      34.155  24.238  22.954  1.00  0.00    -0.465 OA
BRANCH  23  24
ATOM     24  C   UNL A   1      34.461  25.491  23.598  1.00  0.00     0.233 C 
BRANCH  24  25
ATOM     25  C   UNL A   1      33.258  26.430  23.534  1.00  0.00     0.041 C 
BRANCH  25  26
ATOM     26  C   UNL A   1      33.232  27.481  24.640  1.00  0.00     0.000 C 
ATOM     27  C   UNL A   1      32.886  26.939  26.017  1.00  0.00     0.004 C 
ENDBRANCH  25  26
ENDBRANCH  24  25
ENDBRANCH  23  24
ENDBRANCH  21  23
ENDBRANCH   6  21
ENDBRANCH   3   5
ENDBRANCH   2   3
ENDBRANCH   1   2
BRANCH   1  28
ATOM     28  C   UNL A   1      38.986  23.470  25.837  1.00  0.00     0.275 C 
BRANCH  28  29
ATOM     29  O   UNL A   1      39.846  24.016  26.847  1.00  0.00    -0.458 OA
BRANCH  29  30
ATOM     30  C   UNL A   1      40.407  25.209  26.538  1.00  0.00     0.338 C 
ATOM     31  O   UNL A   1      40.765  25.593  25.442  1.00  0.00    -0.246 OA
BRANCH  30  32
ATOM     32  C   UNL A   1      40.353  26.072  27.728  1.00  0.00     0.060 A 
ATOM     33  C   UNL A   1      41.255  27.121  27.892  1.00  0.00     0.016 A 
ATOM     34  C   UNL A   1      39.364  25.820  28.684  1.00  0.00     0.016 A 
ATOM     35  C   UNL A   1      41.167  27.915  29.034  1.00  0.00     0.010 A 
ATOM     36  C   UNL A   1      39.280  26.607  29.827  1.00  0.00     0.010 A 
ATOM     37  C   UNL A   1      40.179  27.662  30.003  1.00  0.00    -0.014 A 
BRANCH  37  38
ATOM     38  C   UNL A   1      40.023  28.580  31.150  1.00  0.00     0.031 A 
ATOM     39  C   UNL A   1      40.906  28.471  32.353  1.00  0.00     0.074 A 
ATOM     40  C   UNL A   1      39.064  29.520  31.076  1.00  0.00     0.049 A 
ATOM     41  N   UNL A   1      41.003  29.286  33.371  1.00  0.00    -0.248 NA
ATOM     42  C   UNL A   1      41.782  27.293  32.433  1.00  0.00     0.031 C 
ATOM     43  C   UNL A   1      38.116  29.658  29.968  1.00  0.00     0.029 A 
ATOM     44  N   UNL A   1      38.744  30.546  31.923  1.00  0.00    -0.354 N 
ATOM     45  C   UNL A   1      41.977  28.742  34.197  1.00  0.00     0.074 A 
ATOM     46  C   UNL A   1      42.382  27.486  33.600  1.00  0.00     0.031 C 
ATOM     47  C   UNL A   1      37.365  30.749  30.169  1.00  0.00     0.029 A 
ATOM     48  C   UNL A   1      37.760  31.370  31.430  1.00  0.00     0.049 A 
ATOM     49  H   UNL A   1      39.175  30.681  32.797  1.00  0.00     0.167 HD
ATOM     50  C   UNL A   1      42.502  29.264  35.332  1.00  0.00     0.037 A 
ATOM     51  C   UNL A   1      37.257  32.515  31.927  1.00  0.00     0.037 A 
ATOM     52  C   UNL A   1      42.054  30.500  35.923  1.00  0.00     0.049 A 
ATOM     53  C   UNL A   1      37.822  33.054  33.208  1.00  0.00     0.074 A 
ATOM     54  C   UNL A   1      42.523  31.135  37.058  1.00  0.00     0.029 A 
ATOM     55  N   UNL A   1      41.013  31.280  35.431  1.00  0.00    -0.354 N 
ATOM     56  N   UNL A   1      38.802  32.576  33.940  1.00  0.00    -0.248 NA
ATOM     57  C   UNL A   1      37.221  34.287  33.730  1.00  0.00     0.031 C 
ATOM     58  C   UNL A   1      41.733  32.270  37.281  1.00  0.00     0.029 A 
ATOM     59  C   UNL A   1      40.805  32.374  36.256  1.00  0.00     0.049 A 
ATOM     60  H   UNL A   1      40.498  31.084  34.615  1.00  0.00     0.167 HD
ATOM     61  C   UNL A   1      38.943  33.455  35.008  1.00  0.00     0.074 A 
ATOM     62  C   UNL A   1      37.960  34.504  34.812  1.00  0.00     0.031 C 
ATOM     63  C   UNL A   1      39.806  33.397  36.053  1.00  0.00     0.037 A 
BRANCH  50  64
ATOM     64  C   UNL A   1      43.620  28.499  35.990  1.00  0.00     0.058 A 
ATOM     65  C   UNL A   1      44.964  28.859  35.799  1.00  0.00     0.135 A 
ATOM     66  C   UNL A   1      43.355  27.399  36.823  1.00  0.00     0.135 A 
ATOM     67  F   UNL A   1      45.280  29.898  35.009  1.00  0.00    -0.206 F 
ATOM     68  C   UNL A   1      46.005  28.130  36.365  1.00  0.00     0.059 A 
ATOM     69  C   UNL A   1      44.380  26.674  37.428  1.00  0.00     0.059 A 
ATOM     70  F   UNL A   1      42.090  27.012  37.051  1.00  0.00    -0.206 F 
ATOM     71  C   UNL A   1      45.703  27.033  37.174  1.00  0.00     0.060 A 
BRANCH  71  72
ATOM     72  S   UNL A   1      47.068  26.083  37.876  1.00  0.00     0.124 S 
ATOM     73  O   UNL A   1      46.709  24.723  37.485  1.00  0.00    -0.237 OA
ATOM     74  O   UNL A   1      48.226  26.652  37.196  1.00  0.00    -0.237 OA
ATOM     75  O   UNL A   1      46.981  26.366  39.305  1.00  0.00    -0.744 OA
ENDBRANCH  71  72
ENDBRANCH  50  64
BRANCH  51  76
ATOM     76  C   UNL A   1      36.222  33.243  31.150  1.00  0.00     0.058 A 
ATOM     77  C   UNL A   1      34.905  33.331  31.623  1.00  0.00     0.135 A 
ATOM     78  C   UNL A   1      36.548  33.950  29.982  1.00  0.00     0.135 A 
ATOM     79  F   UNL A   1      34.546  32.670  32.735  1.00  0.00    -0.206 F 
ATOM     80  C   UNL A   1      33.950  34.107  30.975  1.00  0.00     0.059 A 
ATOM     81  C   UNL A   1      35.616  34.752  29.330  1.00  0.00     0.059 A 
ATOM     82  F   UNL A   1      37.800  33.914  29.501  1.00  0.00    -0.206 F 
ATOM     83  C   UNL A   1      34.320  34.826  29.837  1.00  0.00     0.060 A 
BRANCH  83  84
ATOM     84  S   UNL A   1      33.096  35.910  29.069  1.00  0.00     0.124 S 
ATOM     85  O   UNL A   1      32.367  36.404  30.231  1.00  0.00    -0.237 OA
ATOM     86  O   UNL A   1      33.941  36.883  28.384  1.00  0.00    -0.237 OA
ATOM     87  O   UNL A   1      32.351  35.010  28.193  1.00  0.00    -0.744 OA
ENDBRANCH  83  84
ENDBRANCH  51  76
BRANCH  63  88
ATOM     88  C   UNL A   1      39.719  34.494  37.079  1.00  0.00     0.058 A 
ATOM     89  C   UNL A   1      38.950  34.347  38.244  1.00  0.00     0.135 A 
ATOM     90  C   UNL A   1      40.471  35.672  36.935  1.00  0.00     0.135 A 
ATOM     91  F   UNL A   1      38.203  33.245  38.426  1.00  0.00    -0.206 F 
ATOM     92  C   UNL A   1      38.920  35.332  39.224  1.00  0.00     0.059 A 
ATOM     93  C   UNL A   1      40.479  36.657  37.916  1.00  0.00     0.059 A 
ATOM     94  F   UNL A   1      41.229  35.860  35.843  1.00  0.00    -0.206 F 
ATOM     95  C   UNL A   1      39.696  36.479  39.056  1.00  0.00     0.060 A 
BRANCH  95  96
ATOM     96  S   UNL A   1      39.687  37.723  40.365  1.00  0.00     0.124 S 
ATOM     97  O   UNL A   1      40.903  38.473  40.068  1.00  0.00    -0.237 OA
ATOM     98  O   UNL A   1      38.432  38.426  40.116  1.00  0.00    -0.237 OA
ATOM     99  O   UNL A   1      39.722  36.930  41.591  1.00  0.00    -0.744 OA
ENDBRANCH  95  96
ENDBRANCH  63  88
ENDBRANCH  37  38
ENDBRANCH  30  32
ENDBRANCH  29  30
ENDBRANCH  28  29
ENDBRANCH   1  28
TORSDOF 19
ENDMDL
MODEL 3
REMARK VINA RESULT:     -11.2      5.391     10.087
REMARK SMILES CCCCOC(=O)[C@@H]1[C@H]2c3ccccc3[C@H](c3ccccc32)[C@@H]1C(=O)OCCOC(=O)c1ccc(-c2c3nc(c(-c4c(F)cc(S(=O)(=O)[O-])cc4F)c4ccc([nH]4)c(-c4c(F)cc(S(=O)(=O)[O-])cc4F)c4nc(c(-c5c(F)cc(S(=O)(=O)[O-])cc5F)c5ccc2[nH]5)C=C4)C=C3)cc1
REMARK SMILES IDX 27 1 26 2 24 3 25 4 23 5 8 6 9 7 22 8 10 9 16 10 21 11 17 12
REMARK SMILES IDX 15 13 11 14 20 15 18 16 14 17 12 18 19 19 13 20 6 21 7 22
REMARK SMILES IDX 5 23 4 24 3 25 2 26 1 27 28 28 29 29 30 30 31 31 32 32 33 33
REMARK SMILES IDX 97 34 34 35 96 36 35 37 36 38 37 39 90 40 38 41 95 42 89 43
REMARK SMILES IDX 91 44 39 45 94 46 88 47 87 48 40 50 74 51 53 52 73 53 54 54
REMARK SMILES IDX 57 55 72 56 92 57 55 58 56 59 71 61 93 62 58 63 41 64 42 65
REMARK SMILES IDX 51 66 43 67 44 68 50 69 52 70 45 71 46 72 47 73 48 74 49 75
REMARK SMILES IDX 75 76 76 77 85 78 77 79 78 80 84 81 86 82 79 83 80 84 81 85
REMARK SMILES IDX 82 86 83 87 59 88 60 89 69 90 61 91 62 92 68 93 70 94 63 95
REMARK SMILES IDX 64 96 65 97 66 98 67 99
REMARK H PARENT 91 49 57 60
REMARK Flexibility Score: inf
ROOT
ATOM      1  C   UNL A   1      38.153  22.363  26.069  1.00  0.00     0.274 C 
ENDROOT
BRANCH   1   2
ATOM      2  O   UNL A   1      37.035  23.213  26.395  1.00  0.00    -0.462 OA
BRANCH   2   3
ATOM      3  C   UNL A   1      35.972  23.228  25.557  1.00  0.00     0.310 C 
ATOM      4  O   UNL A   1      35.881  22.525  24.558  1.00  0.00    -0.252 OA
BRANCH   3   5
ATOM      5  C   UNL A   1      34.870  24.196  25.973  1.00  0.00     0.126 C 
ATOM      6  C   UNL A   1      33.610  23.537  26.635  1.00  0.00     0.126 C 
ATOM      7  C   UNL A   1      32.323  23.962  25.868  1.00  0.00     0.065 C 
ATOM      8  C   UNL A   1      32.539  23.701  24.376  1.00  0.00    -0.036 A 
ATOM      9  C   UNL A   1      32.287  25.491  26.058  1.00  0.00    -0.036 A 
ATOM     10  C   UNL A   1      34.426  25.202  24.860  1.00  0.00     0.065 C 
ATOM     11  C   UNL A   1      31.782  22.864  23.570  1.00  0.00     0.004 A 
ATOM     12  C   UNL A   1      33.635  24.407  23.828  1.00  0.00    -0.036 A 
ATOM     13  C   UNL A   1      33.431  26.151  25.531  1.00  0.00    -0.036 A 
ATOM     14  C   UNL A   1      31.304  26.213  26.719  1.00  0.00     0.004 A 
ATOM     15  C   UNL A   1      32.122  22.741  22.219  1.00  0.00     0.000 A 
ATOM     16  C   UNL A   1      33.953  24.313  22.479  1.00  0.00     0.004 A 
ATOM     17  C   UNL A   1      33.585  27.525  25.656  1.00  0.00     0.004 A 
ATOM     18  C   UNL A   1      31.463  27.597  26.846  1.00  0.00     0.000 A 
ATOM     19  C   UNL A   1      33.193  23.467  21.676  1.00  0.00     0.000 A 
ATOM     20  C   UNL A   1      32.591  28.246  26.318  1.00  0.00     0.000 A 
BRANCH   6  21
ATOM     21  C   UNL A   1      33.726  22.069  26.968  1.00  0.00     0.310 C 
ATOM     22  O   UNL A   1      34.470  21.667  27.854  1.00  0.00    -0.252 OA
BRANCH  21  23
ATOM     23  O   UNL A   1      32.923  21.273  26.223  1.00  0.00    -0.465 OA
BRANCH  23  24
ATOM     24  C   UNL A   1      33.581  20.263  25.431  1.00  0.00     0.233 C 
BRANCH  24  25
ATOM     25  C   UNL A   1      32.561  19.492  24.596  1.00  0.00     0.041 C 
BRANCH  25  26
ATOM     26  C   UNL A   1      33.163  18.352  23.778  1.00  0.00     0.000 C 
ATOM     27  C   UNL A   1      33.969  17.352  24.589  1.00  0.00     0.004 C 
ENDBRANCH  25  26
ENDBRANCH  24  25
ENDBRANCH  23  24
ENDBRANCH  21  23
ENDBRANCH   6  21
ENDBRANCH   3   5
ENDBRANCH   2   3
ENDBRANCH   1   2
BRANCH   1  28
ATOM     28  C   UNL A   1      39.483  23.034  26.407  1.00  0.00     0.275 C 
BRANCH  28  29
ATOM     29  O   UNL A   1      39.328  24.459  26.457  1.00  0.00    -0.458 OA
BRANCH  29  30
ATOM     30  C   UNL A   1      40.486  25.159  26.531  1.00  0.00     0.338 C 
ATOM     31  O   UNL A   1      41.369  25.211  25.698  1.00  0.00    -0.246 OA
BRANCH  30  32
ATOM     32  C   UNL A   1      40.437  26.016  27.724  1.00  0.00     0.060 A 
ATOM     33  C   UNL A   1      41.364  27.039  27.909  1.00  0.00     0.016 A 
ATOM     34  C   UNL A   1      39.426  25.788  28.663  1.00  0.00     0.016 A 
ATOM     35  C   UNL A   1      41.280  27.829  29.053  1.00  0.00     0.010 A 
ATOM     36  C   UNL A   1      39.344  26.571  29.808  1.00  0.00     0.010 A 
ATOM     37  C   UNL A   1      40.269  27.600  30.005  1.00  0.00    -0.014 A 
BRANCH  37  38
ATOM     38  C   UNL A   1      40.120  28.516  31.154  1.00  0.00     0.031 A 
ATOM     39  C   UNL A   1      41.015  28.411  32.348  1.00  0.00     0.074 A 
ATOM     40  C   UNL A   1      39.156  29.452  31.089  1.00  0.00     0.049 A 
ATOM     41  N   UNL A   1      41.119  29.225  33.366  1.00  0.00    -0.248 NA
ATOM     42  C   UNL A   1      41.897  27.236  32.419  1.00  0.00     0.031 C 
ATOM     43  C   UNL A   1      38.198  29.586  29.991  1.00  0.00     0.029 A 
ATOM     44  N   UNL A   1      38.840  30.476  31.940  1.00  0.00    -0.354 N 
ATOM     45  C   UNL A   1      42.102  28.684  34.182  1.00  0.00     0.074 A 
ATOM     46  C   UNL A   1      42.508  27.431  33.581  1.00  0.00     0.031 C 
ATOM     47  C   UNL A   1      37.444  30.674  30.200  1.00  0.00     0.029 A 
ATOM     48  C   UNL A   1      37.848  31.296  31.458  1.00  0.00     0.049 A 
ATOM     49  H   UNL A   1      39.279  30.612  32.810  1.00  0.00     0.167 HD
ATOM     50  C   UNL A   1      42.637  29.208  35.313  1.00  0.00     0.037 A 
ATOM     51  C   UNL A   1      37.345  32.438  31.960  1.00  0.00     0.037 A 
ATOM     52  C   UNL A   1      42.188  30.441  35.908  1.00  0.00     0.049 A 
ATOM     53  C   UNL A   1      37.920  32.979  33.236  1.00  0.00     0.074 A 
ATOM     54  C   UNL A   1      42.665  31.078  37.040  1.00  0.00     0.029 A 
ATOM     55  N   UNL A   1      41.139  31.218  35.427  1.00  0.00    -0.354 N 
ATOM     56  N   UNL A   1      38.908  32.505  33.959  1.00  0.00    -0.248 NA
ATOM     57  C   UNL A   1      37.318  34.209  33.765  1.00  0.00     0.031 C 
ATOM     58  C   UNL A   1      41.872  32.209  37.271  1.00  0.00     0.029 A 
ATOM     59  C   UNL A   1      40.934  32.310  36.255  1.00  0.00     0.049 A 
ATOM     60  H   UNL A   1      40.618  31.020  34.616  1.00  0.00     0.167 HD
ATOM     61  C   UNL A   1      39.055  33.384  35.026  1.00  0.00     0.074 A 
ATOM     62  C   UNL A   1      38.066  34.428  34.840  1.00  0.00     0.031 C 
ATOM     63  C   UNL A   1      39.929  33.329  36.062  1.00  0.00     0.037 A 
BRANCH  50  64
ATOM     64  C   UNL A   1      43.763  28.447  35.960  1.00  0.00     0.058 A 
ATOM     65  C   UNL A   1      45.106  28.774  35.706  1.00  0.00     0.135 A 
ATOM     66  C   UNL A   1      43.510  27.386  36.844  1.00  0.00     0.135 A 
ATOM     67  F   UNL A   1      45.411  29.776  34.866  1.00  0.00    -0.206 F 
ATOM     68  C   UNL A   1      46.154  28.047  36.263  1.00  0.00     0.059 A 
ATOM     69  C   UNL A   1      44.543  26.665  37.439  1.00  0.00     0.059 A 
ATOM     70  F   UNL A   1      42.247  27.032  37.132  1.00  0.00    -0.206 F 
ATOM     71  C   UNL A   1      45.862  26.989  37.124  1.00  0.00     0.060 A 
BRANCH  71  72
ATOM     72  S   UNL A   1      47.235  26.040  37.813  1.00  0.00     0.124 S 
ATOM     73  O   UNL A   1      46.625  24.725  37.982  1.00  0.00    -0.237 OA
ATOM     74  O   UNL A   1      48.241  26.140  36.762  1.00  0.00    -0.237 OA
ATOM     75  O   UNL A   1      47.551  26.747  39.050  1.00  0.00    -0.744 OA
ENDBRANCH  71  72
ENDBRANCH  50  64
BRANCH  51  76
ATOM     76  C   UNL A   1      36.299  33.162  31.193  1.00  0.00     0.058 A 
ATOM     77  C   UNL A   1      34.983  33.232  31.672  1.00  0.00     0.135 A 
ATOM     78  C   UNL A   1      36.613  33.883  30.031  1.00  0.00     0.135 A 
ATOM     79  F   UNL A   1      34.635  32.559  32.780  1.00  0.00    -0.206 F 
ATOM     80  C   UNL A   1      34.018  34.004  31.035  1.00  0.00     0.059 A 
ATOM     81  C   UNL A   1      35.670  34.680  29.389  1.00  0.00     0.059 A 
ATOM     82  F   UNL A   1      37.864  33.864  29.545  1.00  0.00    -0.206 F 
ATOM     83  C   UNL A   1      34.376  34.737  29.902  1.00  0.00     0.060 A 
BRANCH  83  84
ATOM     84  S   UNL A   1      33.137  35.814  29.149  1.00  0.00     0.124 S 
ATOM     85  O   UNL A   1      32.458  36.352  30.322  1.00  0.00    -0.237 OA
ATOM     86  O   UNL A   1      33.968  36.757  28.405  1.00  0.00    -0.237 OA
ATOM     87  O   UNL A   1      32.349  34.900  28.327  1.00  0.00    -0.744 OA
ENDBRANCH  83  84
ENDBRANCH  51  76
BRANCH  63  88
ATOM     88  C   UNL A   1      39.846  34.425  37.091  1.00  0.00     0.058 A 
ATOM     89  C   UNL A   1      40.516  35.645  36.914  1.00  0.00     0.135 A 
ATOM     90  C   UNL A   1      39.030  34.282  38.224  1.00  0.00     0.135 A 
ATOM     91  F   UNL A   1      41.319  35.829  35.853  1.00  0.00    -0.206 F 
ATOM     92  C   UNL A   1      40.389  36.683  37.831  1.00  0.00     0.059 A 
ATOM     93  C   UNL A   1      38.864  35.317  39.139  1.00  0.00     0.059 A 
ATOM     94  F   UNL A   1      38.361  33.137  38.437  1.00  0.00    -0.206 F 
ATOM     95  C   UNL A   1      39.553  36.513  38.935  1.00  0.00     0.060 A 
BRANCH  95  96
ATOM     96  S   UNL A   1      39.357  37.890  40.086  1.00  0.00     0.124 S 
ATOM     97  O   UNL A   1      40.605  38.619  39.889  1.00  0.00    -0.237 OA
ATOM     98  O   UNL A   1      38.154  38.546  39.581  1.00  0.00    -0.237 OA
ATOM     99  O   UNL A   1      39.209  37.235  41.382  1.00  0.00    -0.744 OA
ENDBRANCH  95  96
ENDBRANCH  63  88
ENDBRANCH  37  38
ENDBRANCH  30  32
ENDBRANCH  29  30
ENDBRANCH  28  29
ENDBRANCH   1  28
TORSDOF 19
ENDMDL
