MODEL 1
REMARK VINA RESULT:     -12.1      0.000      0.000
REMARK SMILES CC(=O)Oc1ccc2oc(N)c([C@@H]3[NH2+][C@@H](C(=O)OCCOC(=O)c4ccc(-c5c6nc(c(-c7c(F)cc(S(=O)(=O)[O-])cc7F)c7ccc([nH]7)c(-c7c(F)cc(S(=O)(=O)[O-])cc7F)c7nc(c(-c8c(F)cc(S(=O)(=O)[O-])cc8F)c8ccc5[nH]8)C=C7)C=C6)cc4)C(C)(C)S3)c(=O)c2c1
REMARK SMILES IDX 19 1 18 2 16 3 17 4 15 5 13 6 14 7 93 8 90 11 91 12 92 13
REMARK SMILES IDX 12 14 5 15 6 16 97 17 7 18 96 19 8 20 94 21 9 22 95 23 10 24
REMARK SMILES IDX 4 25 2 26 1 27 3 28 11 29 20 32 21 33 22 34 23 35 24 36
REMARK SMILES IDX 25 37 89 38 26 39 88 40 27 41 28 42 29 43 82 44 30 45 87 46
REMARK SMILES IDX 81 47 83 48 31 49 86 50 80 51 79 52 32 54 66 55 45 56 65 57
REMARK SMILES IDX 46 58 49 59 64 60 84 61 47 62 48 63 63 65 85 66 50 67 33 68
REMARK SMILES IDX 34 69 43 70 35 71 36 72 42 73 44 74 37 75 38 76 39 77 40 78
REMARK SMILES IDX 41 79 67 80 68 81 77 82 69 83 70 84 76 85 78 86 71 87 72 88
REMARK SMILES IDX 73 89 74 90 75 91 51 92 52 93 61 94 53 95 54 96 60 97 62 98
REMARK SMILES IDX 55 99 56 100 57 101 58 102 59 103
REMARK H PARENT 14 9 14 10 11 30 11 31 83 53 49 64
REMARK Flexibility Score: inf
ROOT
ATOM      1  C   UNL A   1      37.789  22.370  25.489  1.00  0.00     0.274 C 
ENDROOT
BRANCH   1   2
ATOM      2  O   UNL A   1      36.870  23.457  25.245  1.00  0.00    -0.458 OA
BRANCH   2   3
ATOM      3  C   UNL A   1      36.032  23.276  24.196  1.00  0.00     0.366 C 
ATOM      4  O   UNL A   1      36.419  23.039  23.054  1.00  0.00    -0.245 OA
BRANCH   3   5
ATOM      5  C   UNL A   1      34.539  23.412  24.532  1.00  0.00     0.310 C 
ATOM      6  C   UNL A   1      32.880  24.788  25.545  1.00  0.00     0.284 C 
ATOM      7  N   UNL A   1      34.331  24.628  25.366  1.00  0.00    -0.318 N 
ATOM      8  S   UNL A   1      32.169  23.116  25.643  1.00  0.00    -0.081 SA
ATOM      9  H   UNL A   1      34.784  24.512  26.272  1.00  0.00     0.348 HD
ATOM     10  H   UNL A   1      34.733  25.451  24.916  1.00  0.00     0.348 HD
ATOM     11  C   UNL A   1      33.725  22.249  25.140  1.00  0.00     0.079 C 
ATOM     12  C   UNL A   1      34.313  21.594  26.392  1.00  0.00     0.030 C 
ATOM     13  C   UNL A   1      33.317  21.173  24.131  1.00  0.00     0.030 C 
BRANCH   6  14
ATOM     14  C   UNL A   1      32.226  25.686  24.514  1.00  0.00     0.128 A 
ATOM     15  C   UNL A   1      30.004  30.008  23.766  1.00  0.00     0.131 A 
ATOM     16  C   UNL A   1      29.684  29.600  22.470  1.00  0.00     0.051 A 
ATOM     17  C   UNL A   1      30.827  29.239  24.587  1.00  0.00     0.063 A 
ATOM     18  C   UNL A   1      30.136  28.362  22.017  1.00  0.00     0.052 A 
ATOM     19  C   UNL A   1      31.267  27.998  24.121  1.00  0.00     0.069 A 
ATOM     20  C   UNL A   1      30.901  27.556  22.859  1.00  0.00     0.140 A 
ATOM     21  C   UNL A   1      32.089  27.110  24.954  1.00  0.00     0.205 A 
ATOM     22  O   UNL A   1      31.245  26.322  22.398  1.00  0.00    -0.440 OA
ATOM     23  O   UNL A   1      32.565  27.528  26.005  1.00  0.00    -0.288 OA
ATOM     24  C   UNL A   1      31.720  25.378  23.295  1.00  0.00     0.205 A 
BRANCH  15  25
ATOM     25  O   UNL A   1      29.542  31.233  24.251  1.00  0.00    -0.427 OA
BRANCH  25  26
ATOM     26  C   UNL A   1      28.392  31.685  23.612  1.00  0.00     0.308 C 
ATOM     27  C   UNL A   1      28.736  32.886  22.783  1.00  0.00     0.139 C 
ATOM     28  O   UNL A   1      27.261  31.228  23.713  1.00  0.00    -0.252 OA
ENDBRANCH  25  26
ENDBRANCH  15  25
BRANCH  24  29
ATOM     29  N   UNL A   1      31.593  24.120  22.777  1.00  0.00    -0.369 N 
ATOM     30  H   UNL A   1      32.319  23.466  22.890  1.00  0.00     0.159 HD
ATOM     31  H   UNL A   1      30.774  23.868  22.292  1.00  0.00     0.159 HD
ENDBRANCH  24  29
ENDBRANCH   6  14
ENDBRANCH   3   5
ENDBRANCH   2   3
ENDBRANCH   1   2
BRANCH   1  32
ATOM     32  C   UNL A   1      38.910  22.775  26.451  1.00  0.00     0.275 C 
BRANCH  32  33
ATOM     33  O   UNL A   1      39.047  24.205  26.534  1.00  0.00    -0.458 OA
BRANCH  33  34
ATOM     34  C   UNL A   1      40.308  24.647  26.743  1.00  0.00     0.338 C 
ATOM     35  O   UNL A   1      41.319  24.281  26.171  1.00  0.00    -0.246 OA
BRANCH  34  36
ATOM     36  C   UNL A   1      40.307  25.715  27.751  1.00  0.00     0.060 A 
ATOM     37  C   UNL A   1      39.332  25.722  28.746  1.00  0.00     0.016 A 
ATOM     38  C   UNL A   1      41.341  26.653  27.761  1.00  0.00     0.016 A 
ATOM     39  C   UNL A   1      39.382  26.703  29.738  1.00  0.00     0.010 A 
ATOM     40  C   UNL A   1      41.407  27.612  28.768  1.00  0.00     0.010 A 
ATOM     41  C   UNL A   1      40.417  27.657  29.755  1.00  0.00    -0.014 A 
BRANCH  41  42
ATOM     42  C   UNL A   1      40.451  28.700  30.808  1.00  0.00     0.031 A 
ATOM     43  C   UNL A   1      39.484  29.851  30.768  1.00  0.00     0.074 A 
ATOM     44  C   UNL A   1      41.344  28.594  31.811  1.00  0.00     0.049 A 
ATOM     45  N   UNL A   1      39.283  30.784  31.662  1.00  0.00    -0.248 NA
ATOM     46  C   UNL A   1      38.643  29.978  29.567  1.00  0.00     0.031 C 
ATOM     47  C   UNL A   1      42.369  27.555  31.920  1.00  0.00     0.029 A 
ATOM     48  N   UNL A   1      41.521  29.357  32.938  1.00  0.00    -0.354 N 
ATOM     49  C   UNL A   1      38.277  31.592  31.145  1.00  0.00     0.074 A 
ATOM     50  C   UNL A   1      37.958  31.082  29.830  1.00  0.00     0.031 C 
ATOM     51  C   UNL A   1      43.035  27.716  33.075  1.00  0.00     0.029 A 
ATOM     52  C   UNL A   1      42.495  28.875  33.780  1.00  0.00     0.049 A 
ATOM     53  H   UNL A   1      41.000  30.171  33.125  1.00  0.00     0.167 HD
ATOM     54  C   UNL A   1      37.654  32.643  31.729  1.00  0.00     0.037 A 
ATOM     55  C   UNL A   1      42.888  29.306  34.995  1.00  0.00     0.037 A 
ATOM     56  C   UNL A   1      37.975  33.142  33.041  1.00  0.00     0.049 A 
ATOM     57  C   UNL A   1      42.188  30.482  35.618  1.00  0.00     0.074 A 
ATOM     58  C   UNL A   1      37.376  34.176  33.738  1.00  0.00     0.029 A 
ATOM     59  N   UNL A   1      38.984  32.644  33.852  1.00  0.00    -0.354 N 
ATOM     60  N   UNL A   1      41.188  31.189  35.148  1.00  0.00    -0.248 NA
ATOM     61  C   UNL A   1      42.663  30.915  36.940  1.00  0.00     0.031 C 
ATOM     62  C   UNL A   1      38.046  34.327  34.956  1.00  0.00     0.029 A 
ATOM     63  C   UNL A   1      39.037  33.361  35.036  1.00  0.00     0.049 A 
ATOM     64  H   UNL A   1      39.575  31.892  33.621  1.00  0.00     0.167 HD
ATOM     65  C   UNL A   1      40.902  32.138  36.122  1.00  0.00     0.074 A 
ATOM     66  C   UNL A   1      41.824  31.905  37.216  1.00  0.00     0.031 C 
ATOM     67  C   UNL A   1      39.962  33.115  36.113  1.00  0.00     0.037 A 
BRANCH  54  68
ATOM     68  C   UNL A   1      36.538  33.305  30.970  1.00  0.00     0.058 A 
ATOM     69  C   UNL A   1      35.198  33.130  31.351  1.00  0.00     0.135 A 
ATOM     70  C   UNL A   1      36.807  34.172  29.900  1.00  0.00     0.135 A 
ATOM     71  F   UNL A   1      34.885  32.300  32.360  1.00  0.00    -0.206 F 
ATOM     72  C   UNL A   1      34.163  33.781  30.691  1.00  0.00     0.059 A 
ATOM     73  C   UNL A   1      35.788  34.853  29.238  1.00  0.00     0.059 A 
ATOM     74  F   UNL A   1      38.070  34.374  29.494  1.00  0.00    -0.206 F 
ATOM     75  C   UNL A   1      34.467  34.645  29.637  1.00  0.00     0.060 A 
BRANCH  75  76
ATOM     76  S   UNL A   1      33.111  35.507  28.816  1.00  0.00     0.124 S 
ATOM     77  O   UNL A   1      32.342  35.998  29.957  1.00  0.00    -0.237 OA
ATOM     78  O   UNL A   1      33.813  36.525  28.041  1.00  0.00    -0.237 OA
ATOM     79  O   UNL A   1      32.466  34.459  28.031  1.00  0.00    -0.744 OA
ENDBRANCH  75  76
ENDBRANCH  54  68
BRANCH  55  80
ATOM     80  C   UNL A   1      43.962  28.582  35.724  1.00  0.00     0.058 A 
ATOM     81  C   UNL A   1      45.304  28.965  35.594  1.00  0.00     0.135 A 
ATOM     82  C   UNL A   1      43.667  27.509  36.580  1.00  0.00     0.135 A 
ATOM     83  F   UNL A   1      45.634  29.983  34.784  1.00  0.00    -0.206 F 
ATOM     84  C   UNL A   1      46.321  28.305  36.276  1.00  0.00     0.059 A 
ATOM     85  C   UNL A   1      44.664  26.847  37.290  1.00  0.00     0.059 A 
ATOM     86  F   UNL A   1      42.397  27.113  36.751  1.00  0.00    -0.206 F 
ATOM     87  C   UNL A   1      45.990  27.247  37.124  1.00  0.00     0.060 A 
BRANCH  87  88
ATOM     88  S   UNL A   1      47.313  26.431  38.042  1.00  0.00     0.124 S 
ATOM     89  O   UNL A   1      47.922  25.604  37.007  1.00  0.00    -0.237 OA
ATOM     90  O   UNL A   1      48.109  27.563  38.506  1.00  0.00    -0.237 OA
ATOM     91  O   UNL A   1      46.598  25.706  39.089  1.00  0.00    -0.744 OA
ENDBRANCH  87  88
ENDBRANCH  55  80
BRANCH  67  92
ATOM     92  C   UNL A   1      39.874  34.004  37.320  1.00  0.00     0.058 A 
ATOM     93  C   UNL A   1      40.632  35.181  37.418  1.00  0.00     0.135 A 
ATOM     94  C   UNL A   1      38.970  33.716  38.356  1.00  0.00     0.135 A 
ATOM     95  F   UNL A   1      41.515  35.498  36.457  1.00  0.00    -0.206 F 
ATOM     96  C   UNL A   1      40.507  36.037  38.507  1.00  0.00     0.059 A 
ATOM     97  C   UNL A   1      38.810  34.571  39.443  1.00  0.00     0.059 A 
ATOM     98  F   UNL A   1      38.215  32.607  38.305  1.00  0.00    -0.206 F 
ATOM     99  C   UNL A   1      39.589  35.725  39.512  1.00  0.00     0.060 A 
BRANCH  99 100
ATOM    100  S   UNL A   1      39.403  36.870  40.895  1.00  0.00     0.124 S 
ATOM    101  O   UNL A   1      38.546  37.898  40.313  1.00  0.00    -0.237 OA
ATOM    102  O   UNL A   1      38.782  36.029  41.914  1.00  0.00    -0.237 OA
ATOM    103  O   UNL A   1      40.773  37.283  41.182  1.00  0.00    -0.744 OA
ENDBRANCH  99 100
ENDBRANCH  67  92
ENDBRANCH  41  42
ENDBRANCH  34  36
ENDBRANCH  33  34
ENDBRANCH  32  33
ENDBRANCH   1  32
TORSDOF 18
ENDMDL
MODEL 2
REMARK VINA RESULT:     -12.0      2.417      3.007
REMARK SMILES CC(=O)Oc1ccc2oc(N)c([C@@H]3[NH2+][C@@H](C(=O)OCCOC(=O)c4ccc(-c5c6nc(c(-c7c(F)cc(S(=O)(=O)[O-])cc7F)c7ccc([nH]7)c(-c7c(F)cc(S(=O)(=O)[O-])cc7F)c7nc(c(-c8c(F)cc(S(=O)(=O)[O-])cc8F)c8ccc5[nH]8)C=C7)C=C6)cc4)C(C)(C)S3)c(=O)c2c1
REMARK SMILES IDX 19 1 18 2 16 3 17 4 15 5 13 6 14 7 93 8 90 11 91 12 92 13
REMARK SMILES IDX 12 14 5 15 6 16 97 17 7 18 96 19 8 20 94 21 9 22 95 23 10 24
REMARK SMILES IDX 4 25 2 26 1 27 3 28 11 29 20 32 21 33 22 34 23 35 24 36
REMARK SMILES IDX 25 37 89 38 26 39 88 40 27 41 28 42 29 43 82 44 30 45 87 46
REMARK SMILES IDX 81 47 83 48 31 49 86 50 80 51 79 52 32 54 66 55 45 56 65 57
REMARK SMILES IDX 46 58 49 59 64 60 84 61 47 62 48 63 63 65 85 66 50 67 33 68
REMARK SMILES IDX 34 69 43 70 35 71 36 72 42 73 44 74 37 75 38 76 39 77 40 78
REMARK SMILES IDX 41 79 67 80 68 81 77 82 69 83 70 84 76 85 78 86 71 87 72 88
REMARK SMILES IDX 73 89 74 90 75 91 51 92 52 93 61 94 53 95 54 96 60 97 62 98
REMARK SMILES IDX 55 99 56 100 57 101 58 102 59 103
REMARK H PARENT 14 9 14 10 11 30 11 31 83 53 49 64
REMARK Flexibility Score: inf
ROOT
ATOM      1  C   UNL A   1      36.520  22.976  23.416  1.00  0.00     0.274 C 
ENDROOT
BRANCH   1   2
ATOM      2  O   UNL A   1      35.574  24.033  23.691  1.00  0.00    -0.458 OA
BRANCH   2   3
ATOM      3  C   UNL A   1      34.302  23.780  23.300  1.00  0.00     0.366 C 
ATOM      4  O   UNL A   1      34.011  23.328  22.195  1.00  0.00    -0.245 OA
BRANCH   3   5
ATOM      5  C   UNL A   1      33.226  24.126  24.340  1.00  0.00     0.310 C 
ATOM      6  C   UNL A   1      32.211  25.876  25.597  1.00  0.00     0.284 C 
ATOM      7  N   UNL A   1      33.340  25.565  24.707  1.00  0.00    -0.318 N 
ATOM      8  S   UNL A   1      31.901  24.391  26.601  1.00  0.00    -0.081 SA
ATOM      9  H   UNL A   1      34.222  25.735  25.189  1.00  0.00     0.348 HD
ATOM     10  H   UNL A   1      33.318  26.154  23.874  1.00  0.00     0.348 HD
ATOM     11  C   UNL A   1      33.038  23.300  25.631  1.00  0.00     0.079 C 
ATOM     12  C   UNL A   1      34.293  23.073  26.478  1.00  0.00     0.030 C 
ATOM     13  C   UNL A   1      32.300  21.974  25.428  1.00  0.00     0.030 C 
BRANCH   6  14
ATOM     14  C   UNL A   1      30.987  26.411  24.879  1.00  0.00     0.128 A 
ATOM     15  C   UNL A   1      29.194  30.115  22.189  1.00  0.00     0.131 A 
ATOM     16  C   UNL A   1      27.918  29.560  22.307  1.00  0.00     0.051 A 
ATOM     17  C   UNL A   1      30.323  29.446  22.658  1.00  0.00     0.063 A 
ATOM     18  C   UNL A   1      27.764  28.347  22.974  1.00  0.00     0.052 A 
ATOM     19  C   UNL A   1      30.152  28.234  23.329  1.00  0.00     0.069 A 
ATOM     20  C   UNL A   1      28.883  27.706  23.508  1.00  0.00     0.140 A 
ATOM     21  C   UNL A   1      31.291  27.502  23.901  1.00  0.00     0.205 A 
ATOM     22  O   UNL A   1      28.666  26.568  24.223  1.00  0.00    -0.440 OA
ATOM     23  O   UNL A   1      32.436  27.848  23.627  1.00  0.00    -0.288 OA
ATOM     24  C   UNL A   1      29.683  26.077  25.027  1.00  0.00     0.205 A 
BRANCH  15  25
ATOM     25  O   UNL A   1      29.370  31.342  21.546  1.00  0.00    -0.427 OA
BRANCH  25  26
ATOM     26  C   UNL A   1      28.387  32.277  21.857  1.00  0.00     0.308 C 
ATOM     27  C   UNL A   1      27.721  32.721  20.589  1.00  0.00     0.139 C 
ATOM     28  O   UNL A   1      28.109  32.718  22.964  1.00  0.00    -0.252 OA
ENDBRANCH  25  26
ENDBRANCH  15  25
BRANCH  24  29
ATOM     29  N   UNL A   1      29.176  25.234  25.975  1.00  0.00    -0.369 N 
ATOM     30  H   UNL A   1      29.416  25.356  26.922  1.00  0.00     0.159 HD
ATOM     31  H   UNL A   1      28.571  24.504  25.711  1.00  0.00     0.159 HD
ENDBRANCH  24  29
ENDBRANCH   6  14
ENDBRANCH   3   5
ENDBRANCH   2   3
ENDBRANCH   1   2
BRANCH   1  32
ATOM     32  C   UNL A   1      37.245  22.516  24.684  1.00  0.00     0.275 C 
BRANCH  32  33
ATOM     33  O   UNL A   1      37.773  23.629  25.428  1.00  0.00    -0.458 OA
BRANCH  33  34
ATOM     34  C   UNL A   1      38.912  23.372  26.110  1.00  0.00     0.338 C 
ATOM     35  O   UNL A   1      39.574  22.351  26.076  1.00  0.00    -0.246 OA
BRANCH  34  36
ATOM     36  C   UNL A   1      39.306  24.549  26.894  1.00  0.00     0.060 A 
ATOM     37  C   UNL A   1      38.897  24.662  28.221  1.00  0.00     0.016 A 
ATOM     38  C   UNL A   1      40.168  25.493  26.333  1.00  0.00     0.016 A 
ATOM     39  C   UNL A   1      39.333  25.752  28.976  1.00  0.00     0.010 A 
ATOM     40  C   UNL A   1      40.628  26.563  27.095  1.00  0.00     0.010 A 
ATOM     41  C   UNL A   1      40.199  26.712  28.418  1.00  0.00    -0.014 A 
BRANCH  41  42
ATOM     42  C   UNL A   1      40.647  27.871  29.227  1.00  0.00     0.031 A 
ATOM     43  C   UNL A   1      39.763  29.079  29.376  1.00  0.00     0.074 A 
ATOM     44  C   UNL A   1      41.843  27.821  29.844  1.00  0.00     0.049 A 
ATOM     45  N   UNL A   1      39.930  30.128  30.140  1.00  0.00    -0.248 NA
ATOM     46  C   UNL A   1      38.543  29.122  28.555  1.00  0.00     0.031 C 
ATOM     47  C   UNL A   1      42.809  26.728  29.722  1.00  0.00     0.029 A 
ATOM     48  N   UNL A   1      42.443  28.701  30.710  1.00  0.00    -0.354 N 
ATOM     49  C   UNL A   1      38.826  30.941  29.912  1.00  0.00     0.074 A 
ATOM     50  C   UNL A   1      38.032  30.299  28.888  1.00  0.00     0.031 C 
ATOM     51  C   UNL A   1      43.857  26.978  30.523  1.00  0.00     0.029 A 
ATOM     52  C   UNL A   1      43.645  28.252  31.203  1.00  0.00     0.049 A 
ATOM     53  H   UNL A   1      42.049  29.569  30.955  1.00  0.00     0.167 HD
ATOM     54  C   UNL A   1      38.490  32.100  30.525  1.00  0.00     0.037 A 
ATOM     55  C   UNL A   1      44.469  28.797  32.119  1.00  0.00     0.037 A 
ATOM     56  C   UNL A   1      39.285  32.731  31.547  1.00  0.00     0.049 A 
ATOM     57  C   UNL A   1      44.080  30.092  32.779  1.00  0.00     0.074 A 
ATOM     58  C   UNL A   1      39.013  33.886  32.258  1.00  0.00     0.029 A 
ATOM     59  N   UNL A   1      40.509  32.260  32.001  1.00  0.00    -0.354 N 
ATOM     60  N   UNL A   1      42.996  30.810  32.606  1.00  0.00    -0.248 NA
ATOM     61  C   UNL A   1      45.020  30.646  33.764  1.00  0.00     0.031 C 
ATOM     62  C   UNL A   1      40.088  34.133  33.118  1.00  0.00     0.029 A 
ATOM     63  C   UNL A   1      41.012  33.110  32.971  1.00  0.00     0.049 A 
ATOM     64  H   UNL A   1      40.953  31.442  31.682  1.00  0.00     0.167 HD
ATOM     65  C   UNL A   1      43.114  31.891  33.472  1.00  0.00     0.074 A 
ATOM     66  C   UNL A   1      44.368  31.723  34.180  1.00  0.00     0.031 C 
ATOM     67  C   UNL A   1      42.263  32.928  33.665  1.00  0.00     0.037 A 
BRANCH  54  68
ATOM     68  C   UNL A   1      37.191  32.748  30.135  1.00  0.00     0.058 A 
ATOM     69  C   UNL A   1      36.008  32.483  30.842  1.00  0.00     0.135 A 
ATOM     70  C   UNL A   1      37.136  33.688  29.095  1.00  0.00     0.135 A 
ATOM     71  F   UNL A   1      36.002  31.581  31.837  1.00  0.00    -0.206 F 
ATOM     72  C   UNL A   1      34.813  33.117  30.524  1.00  0.00     0.059 A 
ATOM     73  C   UNL A   1      35.956  34.353  28.774  1.00  0.00     0.059 A 
ATOM     74  F   UNL A   1      38.238  33.978  28.386  1.00  0.00    -0.206 F 
ATOM     75  C   UNL A   1      34.797  34.056  29.491  1.00  0.00     0.060 A 
BRANCH  75  76
ATOM     76  S   UNL A   1      33.243  34.894  29.117  1.00  0.00     0.124 S 
ATOM     77  O   UNL A   1      32.647  33.986  28.142  1.00  0.00    -0.237 OA
ATOM     78  O   UNL A   1      32.590  34.937  30.422  1.00  0.00    -0.237 OA
ATOM     79  O   UNL A   1      33.670  36.187  28.590  1.00  0.00    -0.744 OA
ENDBRANCH  75  76
ENDBRANCH  54  68
BRANCH  55  80
ATOM     80  C   UNL A   1      45.717  28.088  32.506  1.00  0.00     0.058 A 
ATOM     81  C   UNL A   1      46.924  28.339  31.838  1.00  0.00     0.135 A 
ATOM     82  C   UNL A   1      45.733  27.164  33.562  1.00  0.00     0.135 A 
ATOM     83  F   UNL A   1      46.956  29.212  30.819  1.00  0.00    -0.206 F 
ATOM     84  C   UNL A   1      48.102  27.691  32.193  1.00  0.00     0.059 A 
ATOM     85  C   UNL A   1      46.904  26.520  33.951  1.00  0.00     0.059 A 
ATOM     86  F   UNL A   1      44.608  26.900  34.244  1.00  0.00    -0.206 F 
ATOM     87  C   UNL A   1      48.083  26.784  33.254  1.00  0.00     0.060 A 
BRANCH  87  88
ATOM     88  S   UNL A   1      49.629  25.988  33.737  1.00  0.00     0.124 S 
ATOM     89  O   UNL A   1      50.564  26.549  32.769  1.00  0.00    -0.237 OA
ATOM     90  O   UNL A   1      49.789  26.439  35.116  1.00  0.00    -0.237 OA
ATOM     91  O   UNL A   1      49.338  24.565  33.581  1.00  0.00    -0.744 OA
ENDBRANCH  87  88
ENDBRANCH  55  80
BRANCH  67  92
ATOM     92  C   UNL A   1      42.649  33.963  34.682  1.00  0.00     0.058 A 
ATOM     93  C   UNL A   1      43.335  35.130  34.313  1.00  0.00     0.135 A 
ATOM     94  C   UNL A   1      42.266  33.822  36.026  1.00  0.00     0.135 A 
ATOM     95  F   UNL A   1      43.729  35.310  33.042  1.00  0.00    -0.206 F 
ATOM     96  C   UNL A   1      43.640  36.118  35.244  1.00  0.00     0.059 A 
ATOM     97  C   UNL A   1      42.539  34.809  36.969  1.00  0.00     0.059 A 
ATOM     98  F   UNL A   1      41.600  32.728  36.428  1.00  0.00    -0.206 F 
ATOM     99  C   UNL A   1      43.233  35.950  36.568  1.00  0.00     0.060 A 
BRANCH  99 100
ATOM    100  S   UNL A   1      43.594  37.262  37.754  1.00  0.00     0.124 S 
ATOM    101  O   UNL A   1      44.658  36.656  38.549  1.00  0.00    -0.237 OA
ATOM    102  O   UNL A   1      44.000  38.363  36.886  1.00  0.00    -0.237 OA
ATOM    103  O   UNL A   1      42.324  37.454  38.448  1.00  0.00    -0.744 OA
ENDBRANCH  99 100
ENDBRANCH  67  92
ENDBRANCH  41  42
ENDBRANCH  34  36
ENDBRANCH  33  34
ENDBRANCH  32  33
ENDBRANCH   1  32
TORSDOF 18
ENDMDL
MODEL 3
REMARK VINA RESULT:     -11.7      5.069      9.116
REMARK SMILES CC(=O)Oc1ccc2oc(N)c([C@@H]3[NH2+][C@@H](C(=O)OCCOC(=O)c4ccc(-c5c6nc(c(-c7c(F)cc(S(=O)(=O)[O-])cc7F)c7ccc([nH]7)c(-c7c(F)cc(S(=O)(=O)[O-])cc7F)c7nc(c(-c8c(F)cc(S(=O)(=O)[O-])cc8F)c8ccc5[nH]8)C=C7)C=C6)cc4)C(C)(C)S3)c(=O)c2c1
REMARK SMILES IDX 19 1 18 2 16 3 17 4 15 5 13 6 14 7 93 8 90 11 91 12 92 13
REMARK SMILES IDX 12 14 5 15 6 16 97 17 7 18 96 19 8 20 94 21 9 22 95 23 10 24
REMARK SMILES IDX 4 25 2 26 1 27 3 28 11 29 20 32 21 33 22 34 23 35 24 36
REMARK SMILES IDX 25 37 89 38 26 39 88 40 27 41 28 42 29 43 82 44 30 45 87 46
REMARK SMILES IDX 81 47 83 48 31 49 86 50 80 51 79 52 32 54 66 55 45 56 65 57
REMARK SMILES IDX 46 58 49 59 64 60 84 61 47 62 48 63 63 65 85 66 50 67 33 68
REMARK SMILES IDX 34 69 43 70 35 71 36 72 42 73 44 74 37 75 38 76 39 77 40 78
REMARK SMILES IDX 41 79 67 80 68 81 77 82 69 83 70 84 76 85 78 86 71 87 72 88
REMARK SMILES IDX 73 89 74 90 75 91 51 92 52 93 61 94 53 95 54 96 60 97 62 98
REMARK SMILES IDX 55 99 56 100 57 101 58 102 59 103
REMARK H PARENT 14 9 14 10 11 30 11 31 83 53 49 64
REMARK Flexibility Score: inf
ROOT
ATOM      1  C   UNL A   1      36.459  22.634  23.469  1.00  0.00     0.274 C 
ENDROOT
BRANCH   1   2
ATOM      2  O   UNL A   1      35.628  23.771  23.793  1.00  0.00    -0.458 OA
BRANCH   2   3
ATOM      3  C   UNL A   1      34.345  23.684  23.368  1.00  0.00     0.366 C 
ATOM      4  O   UNL A   1      34.032  23.344  22.229  1.00  0.00    -0.245 OA
BRANCH   3   5
ATOM      5  C   UNL A   1      33.290  24.069  24.416  1.00  0.00     0.310 C 
ATOM      6  C   UNL A   1      32.295  25.867  25.620  1.00  0.00     0.284 C 
ATOM      7  N   UNL A   1      33.406  25.522  24.721  1.00  0.00    -0.318 N 
ATOM      8  S   UNL A   1      32.012  24.424  26.692  1.00  0.00    -0.081 SA
ATOM      9  H   UNL A   1      34.297  25.714  25.177  1.00  0.00     0.348 HD
ATOM     10  H   UNL A   1      33.364  26.077  23.865  1.00  0.00     0.348 HD
ATOM     11  C   UNL A   1      33.132  23.296  25.744  1.00  0.00     0.079 C 
ATOM     12  C   UNL A   1      34.406  23.108  26.573  1.00  0.00     0.030 C 
ATOM     13  C   UNL A   1      32.395  21.961  25.610  1.00  0.00     0.030 C 
BRANCH   6  14
ATOM     14  C   UNL A   1      31.055  26.368  24.907  1.00  0.00     0.128 A 
ATOM     15  C   UNL A   1      29.185  29.965  22.125  1.00  0.00     0.131 A 
ATOM     16  C   UNL A   1      27.916  29.405  22.285  1.00  0.00     0.051 A 
ATOM     17  C   UNL A   1      30.327  29.320  22.596  1.00  0.00     0.063 A 
ATOM     18  C   UNL A   1      27.783  28.215  22.996  1.00  0.00     0.052 A 
ATOM     19  C   UNL A   1      30.178  28.131  23.312  1.00  0.00     0.069 A 
ATOM     20  C   UNL A   1      28.916  27.600  23.531  1.00  0.00     0.140 A 
ATOM     21  C   UNL A   1      31.333  27.427  23.887  1.00  0.00     0.205 A 
ATOM     22  O   UNL A   1      28.721  26.486  24.288  1.00  0.00    -0.440 OA
ATOM     23  O   UNL A   1      32.470  27.772  23.580  1.00  0.00    -0.288 OA
ATOM     24  C   UNL A   1      29.755  26.030  25.090  1.00  0.00     0.205 A 
BRANCH  15  25
ATOM     25  O   UNL A   1      29.340  31.170  21.437  1.00  0.00    -0.427 OA
BRANCH  25  26
ATOM     26  C   UNL A   1      28.561  32.205  21.948  1.00  0.00     0.308 C 
ATOM     27  C   UNL A   1      28.899  32.397  23.396  1.00  0.00     0.139 C 
ATOM     28  O   UNL A   1      27.706  32.849  21.356  1.00  0.00    -0.252 OA
ENDBRANCH  25  26
ENDBRANCH  15  25
BRANCH  24  29
ATOM     29  N   UNL A   1      29.273  25.216  26.076  1.00  0.00    -0.369 N 
ATOM     30  H   UNL A   1      29.210  24.245  25.925  1.00  0.00     0.159 HD
ATOM     31  H   UNL A   1      28.988  25.600  26.936  1.00  0.00     0.159 HD
ENDBRANCH  24  29
ENDBRANCH   6  14
ENDBRANCH   3   5
ENDBRANCH   2   3
ENDBRANCH   1   2
BRANCH   1  32
ATOM     32  C   UNL A   1      37.301  22.182  24.665  1.00  0.00     0.275 C 
BRANCH  32  33
ATOM     33  O   UNL A   1      37.789  23.303  25.425  1.00  0.00    -0.458 OA
BRANCH  33  34
ATOM     34  C   UNL A   1      38.798  23.019  26.279  1.00  0.00     0.338 C 
ATOM     35  O   UNL A   1      39.237  21.918  26.557  1.00  0.00    -0.246 OA
BRANCH  34  36
ATOM     36  C   UNL A   1      39.369  24.261  26.814  1.00  0.00     0.060 A 
ATOM     37  C   UNL A   1      39.428  24.455  28.193  1.00  0.00     0.016 A 
ATOM     38  C   UNL A   1      39.938  25.190  25.940  1.00  0.00     0.016 A 
ATOM     39  C   UNL A   1      40.034  25.610  28.691  1.00  0.00     0.010 A 
ATOM     40  C   UNL A   1      40.569  26.326  26.440  1.00  0.00     0.010 A 
ATOM     41  C   UNL A   1      40.606  26.555  27.819  1.00  0.00    -0.014 A 
BRANCH  41  42
ATOM     42  C   UNL A   1      41.237  27.782  28.361  1.00  0.00     0.031 A 
ATOM     43  C   UNL A   1      42.725  27.978  28.263  1.00  0.00     0.074 A 
ATOM     44  C   UNL A   1      40.460  28.729  28.923  1.00  0.00     0.049 A 
ATOM     45  N   UNL A   1      43.435  29.034  28.566  1.00  0.00    -0.248 NA
ATOM     46  C   UNL A   1      43.519  26.840  27.774  1.00  0.00     0.031 C 
ATOM     47  C   UNL A   1      39.015  28.621  29.127  1.00  0.00     0.029 A 
ATOM     48  N   UNL A   1      40.774  29.974  29.408  1.00  0.00    -0.354 N 
ATOM     49  C   UNL A   1      44.753  28.698  28.280  1.00  0.00     0.074 A 
ATOM     50  C   UNL A   1      44.753  27.317  27.847  1.00  0.00     0.031 C 
ATOM     51  C   UNL A   1      38.559  29.771  29.648  1.00  0.00     0.029 A 
ATOM     52  C   UNL A   1      39.679  30.691  29.829  1.00  0.00     0.049 A 
ATOM     53  H   UNL A   1      41.694  30.320  29.449  1.00  0.00     0.167 HD
ATOM     54  C   UNL A   1      45.856  29.480  28.341  1.00  0.00     0.037 A 
ATOM     55  C   UNL A   1      39.588  31.956  30.284  1.00  0.00     0.037 A 
ATOM     56  C   UNL A   1      45.846  30.854  28.770  1.00  0.00     0.049 A 
ATOM     57  C   UNL A   1      40.829  32.801  30.354  1.00  0.00     0.074 A 
ATOM     58  C   UNL A   1      46.904  31.744  28.831  1.00  0.00     0.029 A 
ATOM     59  N   UNL A   1      44.722  31.537  29.213  1.00  0.00    -0.354 N 
ATOM     60  N   UNL A   1      42.057  32.492  30.009  1.00  0.00    -0.248 NA
ATOM     61  C   UNL A   1      40.674  34.170  30.866  1.00  0.00     0.031 C 
ATOM     62  C   UNL A   1      46.428  32.955  29.344  1.00  0.00     0.029 A 
ATOM     63  C   UNL A   1      45.064  32.832  29.565  1.00  0.00     0.049 A 
ATOM     64  H   UNL A   1      43.816  31.158  29.268  1.00  0.00     0.167 HD
ATOM     65  C   UNL A   1      42.816  33.632  30.246  1.00  0.00     0.074 A 
ATOM     66  C   UNL A   1      41.907  34.643  30.747  1.00  0.00     0.031 C 
ATOM     67  C   UNL A   1      44.146  33.825  30.064  1.00  0.00     0.037 A 
BRANCH  54  68
ATOM     68  C   UNL A   1      47.164  28.881  27.904  1.00  0.00     0.058 A 
ATOM     69  C   UNL A   1      48.020  28.258  28.826  1.00  0.00     0.135 A 
ATOM     70  C   UNL A   1      47.536  28.866  26.551  1.00  0.00     0.135 A 
ATOM     71  F   UNL A   1      47.718  28.256  30.135  1.00  0.00    -0.206 F 
ATOM     72  C   UNL A   1      49.206  27.654  28.425  1.00  0.00     0.059 A 
ATOM     73  C   UNL A   1      48.708  28.247  26.123  1.00  0.00     0.059 A 
ATOM     74  F   UNL A   1      46.755  29.449  25.628  1.00  0.00    -0.206 F 
ATOM     75  C   UNL A   1      49.540  27.649  27.069  1.00  0.00     0.060 A 
BRANCH  75  76
ATOM     76  S   UNL A   1      51.066  26.828  26.565  1.00  0.00     0.124 S 
ATOM     77  O   UNL A   1      51.456  26.152  27.800  1.00  0.00    -0.237 OA
ATOM     78  O   UNL A   1      50.610  25.958  25.485  1.00  0.00    -0.237 OA
ATOM     79  O   UNL A   1      51.928  27.932  26.156  1.00  0.00    -0.744 OA
ENDBRANCH  75  76
ENDBRANCH  54  68
BRANCH  55  80
ATOM     80  C   UNL A   1      38.261  32.515  30.654  1.00  0.00     0.058 A 
ATOM     81  C   UNL A   1      37.754  32.365  31.953  1.00  0.00     0.135 A 
ATOM     82  C   UNL A   1      37.485  33.226  29.726  1.00  0.00     0.135 A 
ATOM     83  F   UNL A   1      38.460  31.688  32.873  1.00  0.00    -0.206 F 
ATOM     84  C   UNL A   1      36.519  32.889  32.319  1.00  0.00     0.059 A 
ATOM     85  C   UNL A   1      36.256  33.779  30.074  1.00  0.00     0.059 A 
ATOM     86  F   UNL A   1      37.932  33.411  28.475  1.00  0.00    -0.206 F 
ATOM     87  C   UNL A   1      35.778  33.597  31.372  1.00  0.00     0.060 A 
BRANCH  87  88
ATOM     88  S   UNL A   1      34.199  34.316  31.873  1.00  0.00     0.124 S 
ATOM     89  O   UNL A   1      33.672  33.281  32.756  1.00  0.00    -0.237 OA
ATOM     90  O   UNL A   1      34.617  35.555  32.521  1.00  0.00    -0.237 OA
ATOM     91  O   UNL A   1      33.490  34.486  30.608  1.00  0.00    -0.744 OA
ENDBRANCH  87  88
ENDBRANCH  55  80
BRANCH  67  92
ATOM     92  C   UNL A   1      44.704  35.178  30.402  1.00  0.00     0.058 A 
ATOM     93  C   UNL A   1      45.234  35.452  31.672  1.00  0.00     0.135 A 
ATOM     94  C   UNL A   1      44.775  36.186  29.427  1.00  0.00     0.135 A 
ATOM     95  F   UNL A   1      45.184  34.524  32.641  1.00  0.00    -0.206 F 
ATOM     96  C   UNL A   1      45.806  36.686  31.968  1.00  0.00     0.059 A 
ATOM     97  C   UNL A   1      45.365  37.418  29.694  1.00  0.00     0.059 A 
ATOM     98  F   UNL A   1      44.290  35.970  28.194  1.00  0.00    -0.206 F 
ATOM     99  C   UNL A   1      45.871  37.660  30.971  1.00  0.00     0.060 A 
BRANCH  99 100
ATOM    100  S   UNL A   1      46.659  39.238  31.357  1.00  0.00     0.124 S 
ATOM    101  O   UNL A   1      45.681  39.843  32.256  1.00  0.00    -0.237 OA
ATOM    102  O   UNL A   1      47.913  38.817  31.974  1.00  0.00    -0.237 OA
ATOM    103  O   UNL A   1      46.794  39.879  30.053  1.00  0.00    -0.744 OA
ENDBRANCH  99 100
ENDBRANCH  67  92
ENDBRANCH  41  42
ENDBRANCH  34  36
ENDBRANCH  33  34
ENDBRANCH  32  33
ENDBRANCH   1  32
TORSDOF 18
ENDMDL
