MODEL 1
REMARK VINA RESULT:     -11.2      0.000      0.000
REMARK SMILES C#Cc1cc(Cl)cc2c1O[C@H](C(F)(F)F)C(C(=O)OCCOC(=O)c1ccc(-c3c4nc(c(-c5c(F)cc(S(=O)(=O)[O-])cc5F)c5ccc([nH]5)c(-c5c(F)cc(S(=O)(=O)[O-])cc5F)c5nc(c(-c6c(F)cc(S(=O)(=O)[O-])cc6F)c6ccc3[nH]6)C=C5)C=C4)cc1)=C2
REMARK SMILES IDX 21 1 20 2 19 3 17 4 18 5 16 6 3 7 4 8 9 9 5 10 8 11 10 12
REMARK SMILES IDX 6 13 7 14 91 15 11 16 2 17 1 18 12 19 13 20 14 21 15 22
REMARK SMILES IDX 22 23 23 24 24 25 25 26 26 27 90 28 27 29 89 30 28 31 29 32
REMARK SMILES IDX 30 33 83 34 31 35 88 36 82 37 84 38 32 39 87 40 81 41 80 42
REMARK SMILES IDX 33 44 67 45 46 46 66 47 47 48 50 49 65 50 85 51 48 52 49 53
REMARK SMILES IDX 64 55 86 56 51 57 34 58 35 59 44 60 36 61 37 62 43 63 45 64
REMARK SMILES IDX 38 65 39 66 40 67 41 68 42 69 68 70 69 71 78 72 70 73 71 74
REMARK SMILES IDX 77 75 79 76 72 77 73 78 74 79 75 80 76 81 52 82 53 83 62 84
REMARK SMILES IDX 54 85 55 86 61 87 63 88 56 89 57 90 58 91 59 92 60 93
REMARK H PARENT 84 43 50 54
REMARK Flexibility Score: inf
ROOT
ATOM      1  C   UNL A   1      33.902  28.572  25.803  1.00  0.00     0.275 C 
ENDROOT
BRANCH   1   2
ATOM      2  C   UNL A   1      32.508  28.045  25.455  1.00  0.00     0.275 C 
BRANCH   2   3
ATOM      3  O   UNL A   1      32.559  26.678  24.989  1.00  0.00    -0.459 OA
BRANCH   3   4
ATOM      4  C   UNL A   1      31.990  25.764  25.809  1.00  0.00     0.338 C 
ATOM      5  O   UNL A   1      30.993  25.927  26.493  1.00  0.00    -0.246 OA
BRANCH   4   6
ATOM      6  C   UNL A   1      32.742  24.494  25.786  1.00  0.00     0.087 C 
ATOM      7  C   UNL A   1      35.014  21.027  25.187  1.00  0.00     0.068 A 
ATOM      8  C   UNL A   1      36.405  21.085  25.353  1.00  0.00     0.041 A 
ATOM      9  C   UNL A   1      34.226  22.158  25.441  1.00  0.00     0.143 A 
ATOM     10  C   UNL A   1      37.004  22.262  25.789  1.00  0.00     0.043 A 
ATOM     11  C   UNL A   1      34.843  23.333  25.870  1.00  0.00     0.020 A 
ATOM     12  O   UNL A   1      32.868  22.058  25.272  1.00  0.00    -0.474 OA
ATOM     13  Cl  UNL A   1      38.712  22.338  25.979  1.00  0.00    -0.084 Cl
ATOM     14  C   UNL A   1      36.230  23.386  26.057  1.00  0.00     0.032 A 
ATOM     15  C   UNL A   1      34.046  24.524  26.075  1.00  0.00     0.027 C 
ATOM     16  C   UNL A   1      32.055  23.264  25.277  1.00  0.00     0.316 C 
BRANCH   7  17
ATOM     17  C   UNL A   1      34.427  19.803  24.735  1.00  0.00    -0.067 C 
ATOM     18  C   UNL A   1      33.930  18.774  24.362  1.00  0.00     0.010 C 
ENDBRANCH   7  17
BRANCH  16  19
ATOM     19  C   UNL A   1      31.482  23.492  23.869  1.00  0.00     0.430 C 
ATOM     20  F   UNL A   1      30.275  24.104  23.919  1.00  0.00    -0.167 F 
ATOM     21  F   UNL A   1      32.285  24.296  23.129  1.00  0.00    -0.167 F 
ATOM     22  F   UNL A   1      31.325  22.337  23.186  1.00  0.00    -0.167 F 
ENDBRANCH  16  19
ENDBRANCH   4   6
ENDBRANCH   3   4
ENDBRANCH   2   3
ENDBRANCH   1   2
BRANCH   1  23
ATOM     23  O   UNL A   1      34.097  28.613  27.229  1.00  0.00    -0.458 OA
BRANCH  23  24
ATOM     24  C   UNL A   1      34.387  29.839  27.718  1.00  0.00     0.338 C 
ATOM     25  O   UNL A   1      33.617  30.774  27.869  1.00  0.00    -0.246 OA
BRANCH  24  26
ATOM     26  C   UNL A   1      35.777  29.895  28.185  1.00  0.00     0.060 A 
ATOM     27  C   UNL A   1      36.753  30.233  27.259  1.00  0.00     0.016 A 
ATOM     28  C   UNL A   1      36.141  29.375  29.422  1.00  0.00     0.016 A 
ATOM     29  C   UNL A   1      38.071  29.855  27.470  1.00  0.00     0.010 A 
ATOM     30  C   UNL A   1      37.498  29.178  29.707  1.00  0.00     0.010 A 
ATOM     31  C   UNL A   1      38.477  29.357  28.712  1.00  0.00    -0.014 A 
BRANCH  31  32
ATOM     32  C   UNL A   1      39.913  29.027  28.950  1.00  0.00     0.031 A 
ATOM     33  C   UNL A   1      40.844  30.054  29.550  1.00  0.00     0.074 A 
ATOM     34  C   UNL A   1      40.380  27.794  28.651  1.00  0.00     0.049 A 
ATOM     35  N   UNL A   1      42.148  30.020  29.657  1.00  0.00    -0.248 NA
ATOM     36  C   UNL A   1      40.237  31.285  30.083  1.00  0.00     0.031 C 
ATOM     37  C   UNL A   1      39.579  26.684  28.122  1.00  0.00     0.029 A 
ATOM     38  N   UNL A   1      41.639  27.255  28.756  1.00  0.00    -0.354 N 
ATOM     39  C   UNL A   1      42.519  31.234  30.226  1.00  0.00     0.074 A 
ATOM     40  C   UNL A   1      41.305  31.997  30.418  1.00  0.00     0.031 C 
ATOM     41  C   UNL A   1      40.344  25.592  28.009  1.00  0.00     0.029 A 
ATOM     42  C   UNL A   1      41.718  25.948  28.328  1.00  0.00     0.049 A 
ATOM     43  H   UNL A   1      42.412  27.756  29.104  1.00  0.00     0.167 HD
ATOM     44  C   UNL A   1      43.757  31.665  30.566  1.00  0.00     0.037 A 
ATOM     45  C   UNL A   1      42.777  25.137  28.151  1.00  0.00     0.037 A 
ATOM     46  C   UNL A   1      44.951  30.873  30.412  1.00  0.00     0.049 A 
ATOM     47  C   UNL A   1      44.148  25.674  28.450  1.00  0.00     0.074 A 
ATOM     48  C   UNL A   1      46.255  31.217  30.723  1.00  0.00     0.029 A 
ATOM     49  N   UNL A   1      44.986  29.575  29.923  1.00  0.00    -0.354 N 
ATOM     50  N   UNL A   1      44.486  26.845  28.935  1.00  0.00    -0.248 NA
ATOM     51  C   UNL A   1      45.284  24.790  28.160  1.00  0.00     0.031 C 
ATOM     52  C   UNL A   1      47.085  30.151  30.370  1.00  0.00     0.029 A 
ATOM     53  C   UNL A   1      46.293  29.115  29.900  1.00  0.00     0.049 A 
ATOM     54  H   UNL A   1      44.200  29.058  29.634  1.00  0.00     0.167 HD
ATOM     55  C   UNL A   1      45.870  26.828  29.035  1.00  0.00     0.074 A 
ATOM     56  C   UNL A   1      46.306  25.524  28.577  1.00  0.00     0.031 C 
ATOM     57  C   UNL A   1      46.707  27.807  29.457  1.00  0.00     0.037 A 
BRANCH  44  58
ATOM     58  C   UNL A   1      43.905  33.054  31.130  1.00  0.00     0.058 A 
ATOM     59  C   UNL A   1      43.916  33.296  32.512  1.00  0.00     0.135 A 
ATOM     60  C   UNL A   1      44.136  34.146  30.274  1.00  0.00     0.135 A 
ATOM     61  F   UNL A   1      43.682  32.296  33.376  1.00  0.00    -0.206 F 
ATOM     62  C   UNL A   1      44.144  34.569  33.026  1.00  0.00     0.059 A 
ATOM     63  C   UNL A   1      44.397  35.422  30.767  1.00  0.00     0.059 A 
ATOM     64  F   UNL A   1      44.134  33.974  28.943  1.00  0.00    -0.206 F 
ATOM     65  C   UNL A   1      44.396  35.624  32.146  1.00  0.00     0.060 A 
BRANCH  65  66
ATOM     66  S   UNL A   1      44.735  37.257  32.836  1.00  0.00     0.124 S 
ATOM     67  O   UNL A   1      45.130  38.003  31.644  1.00  0.00    -0.237 OA
ATOM     68  O   UNL A   1      43.446  37.623  33.412  1.00  0.00    -0.237 OA
ATOM     69  O   UNL A   1      45.803  37.008  33.799  1.00  0.00    -0.744 OA
ENDBRANCH  65  66
ENDBRANCH  44  58
BRANCH  45  70
ATOM     70  C   UNL A   1      42.588  23.755  27.629  1.00  0.00     0.058 A 
ATOM     71  C   UNL A   1      42.485  22.663  28.502  1.00  0.00     0.135 A 
ATOM     72  C   UNL A   1      42.501  23.494  26.249  1.00  0.00     0.135 A 
ATOM     73  F   UNL A   1      42.569  22.855  29.828  1.00  0.00    -0.206 F 
ATOM     74  C   UNL A   1      42.323  21.365  28.032  1.00  0.00     0.059 A 
ATOM     75  C   UNL A   1      42.300  22.210  25.756  1.00  0.00     0.059 A 
ATOM     76  F   UNL A   1      42.579  24.503  25.366  1.00  0.00    -0.206 F 
ATOM     77  C   UNL A   1      42.228  21.148  26.655  1.00  0.00     0.060 A 
BRANCH  77  78
ATOM     78  S   UNL A   1      41.998  19.459  26.061  1.00  0.00     0.124 S 
ATOM     79  O   UNL A   1      42.860  19.442  24.885  1.00  0.00    -0.237 OA
ATOM     80  O   UNL A   1      42.457  18.672  27.201  1.00  0.00    -0.237 OA
ATOM     81  O   UNL A   1      40.565  19.389  25.793  1.00  0.00    -0.744 OA
ENDBRANCH  77  78
ENDBRANCH  45  70
BRANCH  57  82
ATOM     82  C   UNL A   1      48.178  27.499  29.485  1.00  0.00     0.058 A 
ATOM     83  C   UNL A   1      49.010  27.786  28.392  1.00  0.00     0.135 A 
ATOM     84  C   UNL A   1      48.773  26.977  30.646  1.00  0.00     0.135 A 
ATOM     85  F   UNL A   1      48.491  28.277  27.256  1.00  0.00    -0.206 F 
ATOM     86  C   UNL A   1      50.379  27.550  28.443  1.00  0.00     0.059 A 
ATOM     87  C   UNL A   1      50.144  26.767  30.731  1.00  0.00     0.059 A 
ATOM     88  F   UNL A   1      48.022  26.694  31.722  1.00  0.00    -0.206 F 
ATOM     89  C   UNL A   1      50.938  27.049  29.621  1.00  0.00     0.060 A 
BRANCH  89  90
ATOM     90  S   UNL A   1      52.723  26.793  29.682  1.00  0.00     0.124 S 
ATOM     91  O   UNL A   1      53.210  28.154  29.879  1.00  0.00    -0.237 OA
ATOM     92  O   UNL A   1      52.867  25.897  30.825  1.00  0.00    -0.237 OA
ATOM     93  O   UNL A   1      53.028  26.200  28.383  1.00  0.00    -0.744 OA
ENDBRANCH  89  90
ENDBRANCH  57  82
ENDBRANCH  31  32
ENDBRANCH  24  26
ENDBRANCH  23  24
ENDBRANCH   1  23
TORSDOF 16
ENDMDL
MODEL 2
REMARK VINA RESULT:     -11.0      5.486      8.340
REMARK SMILES C#Cc1cc(Cl)cc2c1O[C@H](C(F)(F)F)C(C(=O)OCCOC(=O)c1ccc(-c3c4nc(c(-c5c(F)cc(S(=O)(=O)[O-])cc5F)c5ccc([nH]5)c(-c5c(F)cc(S(=O)(=O)[O-])cc5F)c5nc(c(-c6c(F)cc(S(=O)(=O)[O-])cc6F)c6ccc3[nH]6)C=C5)C=C4)cc1)=C2
REMARK SMILES IDX 21 1 20 2 19 3 17 4 18 5 16 6 3 7 4 8 9 9 5 10 8 11 10 12
REMARK SMILES IDX 6 13 7 14 91 15 11 16 2 17 1 18 12 19 13 20 14 21 15 22
REMARK SMILES IDX 22 23 23 24 24 25 25 26 26 27 90 28 27 29 89 30 28 31 29 32
REMARK SMILES IDX 30 33 83 34 31 35 88 36 82 37 84 38 32 39 87 40 81 41 80 42
REMARK SMILES IDX 33 44 67 45 46 46 66 47 47 48 50 49 65 50 85 51 48 52 49 53
REMARK SMILES IDX 64 55 86 56 51 57 34 58 35 59 44 60 36 61 37 62 43 63 45 64
REMARK SMILES IDX 38 65 39 66 40 67 41 68 42 69 68 70 69 71 78 72 70 73 71 74
REMARK SMILES IDX 77 75 79 76 72 77 73 78 74 79 75 80 76 81 52 82 53 83 62 84
REMARK SMILES IDX 54 85 55 86 61 87 63 88 56 89 57 90 58 91 59 92 60 93
REMARK H PARENT 84 43 50 54
REMARK Flexibility Score: inf
ROOT
ATOM      1  C   UNL A   1      33.498  33.739  28.272  1.00  0.00     0.275 C 
ENDROOT
BRANCH   1   2
ATOM      2  C   UNL A   1      34.123  34.902  29.046  1.00  0.00     0.275 C 
BRANCH   2   3
ATOM      3  O   UNL A   1      33.995  34.718  30.474  1.00  0.00    -0.459 OA
BRANCH   3   4
ATOM      4  C   UNL A   1      34.678  33.667  30.987  1.00  0.00     0.338 C 
ATOM      5  O   UNL A   1      34.321  32.500  30.982  1.00  0.00    -0.246 OA
BRANCH   4   6
ATOM      6  C   UNL A   1      35.955  34.108  31.582  1.00  0.00     0.087 C 
ATOM      7  C   UNL A   1      39.601  34.841  33.508  1.00  0.00     0.068 A 
ATOM      8  C   UNL A   1      40.790  34.402  32.909  1.00  0.00     0.041 A 
ATOM      9  C   UNL A   1      38.374  34.661  32.855  1.00  0.00     0.143 A 
ATOM     10  C   UNL A   1      40.756  33.805  31.653  1.00  0.00     0.043 A 
ATOM     11  C   UNL A   1      38.356  34.053  31.599  1.00  0.00     0.020 A 
ATOM     12  O   UNL A   1      37.234  35.109  33.473  1.00  0.00    -0.474 OA
ATOM     13  Cl  UNL A   1      42.213  33.254  30.924  1.00  0.00    -0.084 Cl
ATOM     14  C   UNL A   1      39.546  33.635  30.990  1.00  0.00     0.032 A 
ATOM     15  C   UNL A   1      37.089  33.807  30.943  1.00  0.00     0.027 C 
ATOM     16  C   UNL A   1      35.934  34.717  32.950  1.00  0.00     0.316 C 
BRANCH   7  17
ATOM     17  C   UNL A   1      39.667  35.449  34.801  1.00  0.00    -0.067 C 
ATOM     18  C   UNL A   1      39.725  35.967  35.885  1.00  0.00     0.010 C 
ENDBRANCH   7  17
BRANCH  16  19
ATOM     19  C   UNL A   1      35.245  33.785  33.961  1.00  0.00     0.430 C 
ATOM     20  F   UNL A   1      35.716  32.518  33.866  1.00  0.00    -0.167 F 
ATOM     21  F   UNL A   1      35.473  34.180  35.238  1.00  0.00    -0.167 F 
ATOM     22  F   UNL A   1      33.907  33.737  33.784  1.00  0.00    -0.167 F 
ENDBRANCH  16  19
ENDBRANCH   4   6
ENDBRANCH   3   4
ENDBRANCH   2   3
ENDBRANCH   1   2
BRANCH   1  23
ATOM     23  O   UNL A   1      34.500  33.006  27.545  1.00  0.00    -0.458 OA
BRANCH  23  24
ATOM     24  C   UNL A   1      34.369  31.663  27.611  1.00  0.00     0.338 C 
ATOM     25  O   UNL A   1      33.393  31.000  27.296  1.00  0.00    -0.246 OA
BRANCH  24  26
ATOM     26  C   UNL A   1      35.635  31.038  28.012  1.00  0.00     0.060 A 
ATOM     27  C   UNL A   1      35.576  29.777  28.586  1.00  0.00     0.016 A 
ATOM     28  C   UNL A   1      36.813  31.774  28.066  1.00  0.00     0.016 A 
ATOM     29  C   UNL A   1      36.609  29.336  29.401  1.00  0.00     0.010 A 
ATOM     30  C   UNL A   1      37.925  31.234  28.726  1.00  0.00     0.010 A 
ATOM     31  C   UNL A   1      37.819  30.035  29.455  1.00  0.00    -0.014 A 
BRANCH  31  32
ATOM     32  C   UNL A   1      38.949  29.508  30.275  1.00  0.00     0.031 A 
ATOM     33  C   UNL A   1      39.130  29.958  31.705  1.00  0.00     0.074 A 
ATOM     34  C   UNL A   1      39.804  28.605  29.745  1.00  0.00     0.049 A 
ATOM     35  N   UNL A   1      40.144  29.761  32.509  1.00  0.00    -0.248 NA
ATOM     36  C   UNL A   1      38.040  30.744  32.308  1.00  0.00     0.031 C 
ATOM     37  C   UNL A   1      39.713  28.037  28.395  1.00  0.00     0.029 A 
ATOM     38  N   UNL A   1      40.913  27.993  30.274  1.00  0.00    -0.354 N 
ATOM     39  C   UNL A   1      39.835  30.431  33.689  1.00  0.00     0.074 A 
ATOM     40  C   UNL A   1      38.551  31.065  33.490  1.00  0.00     0.031 C 
ATOM     41  C   UNL A   1      40.678  27.124  28.227  1.00  0.00     0.029 A 
ATOM     42  C   UNL A   1      41.537  27.130  29.400  1.00  0.00     0.049 A 
ATOM     43  H   UNL A   1      41.232  28.154  31.192  1.00  0.00     0.167 HD
ATOM     44  C   UNL A   1      40.555  30.499  34.834  1.00  0.00     0.037 A 
ATOM     45  C   UNL A   1      42.701  26.461  29.497  1.00  0.00     0.037 A 
ATOM     46  C   UNL A   1      41.812  29.823  35.033  1.00  0.00     0.049 A 
ATOM     47  C   UNL A   1      43.523  26.629  30.743  1.00  0.00     0.074 A 
ATOM     48  C   UNL A   1      42.621  29.830  36.154  1.00  0.00     0.029 A 
ATOM     49  N   UNL A   1      42.431  29.005  34.098  1.00  0.00    -0.354 N 
ATOM     50  N   UNL A   1      43.242  27.312  31.828  1.00  0.00    -0.248 NA
ATOM     51  C   UNL A   1      44.827  25.955  30.774  1.00  0.00     0.031 C 
ATOM     52  C   UNL A   1      43.757  29.064  35.879  1.00  0.00     0.029 A 
ATOM     53  C   UNL A   1      43.624  28.524  34.609  1.00  0.00     0.049 A 
ATOM     54  H   UNL A   1      42.074  28.799  33.203  1.00  0.00     0.167 HD
ATOM     55  C   UNL A   1      44.322  27.127  32.681  1.00  0.00     0.074 A 
ATOM     56  C   UNL A   1      45.252  26.253  31.995  1.00  0.00     0.031 C 
ATOM     57  C   UNL A   1      44.530  27.640  33.917  1.00  0.00     0.037 A 
BRANCH  44  58
ATOM     58  C   UNL A   1      40.023  31.337  35.968  1.00  0.00     0.058 A 
ATOM     59  C   UNL A   1      38.853  30.989  36.661  1.00  0.00     0.135 A 
ATOM     60  C   UNL A   1      40.748  32.451  36.429  1.00  0.00     0.135 A 
ATOM     61  F   UNL A   1      38.110  29.948  36.255  1.00  0.00    -0.206 F 
ATOM     62  C   UNL A   1      38.419  31.716  37.766  1.00  0.00     0.059 A 
ATOM     63  C   UNL A   1      40.348  33.173  37.549  1.00  0.00     0.059 A 
ATOM     64  F   UNL A   1      41.873  32.831  35.802  1.00  0.00    -0.206 F 
ATOM     65  C   UNL A   1      39.179  32.801  38.209  1.00  0.00     0.060 A 
BRANCH  65  66
ATOM     66  S   UNL A   1      38.622  33.701  39.671  1.00  0.00     0.124 S 
ATOM     67  O   UNL A   1      39.454  33.110  40.715  1.00  0.00    -0.237 OA
ATOM     68  O   UNL A   1      38.932  35.083  39.319  1.00  0.00    -0.237 OA
ATOM     69  O   UNL A   1      37.200  33.381  39.750  1.00  0.00    -0.744 OA
ENDBRANCH  65  66
ENDBRANCH  44  58
BRANCH  45  70
ATOM     70  C   UNL A   1      43.177  25.611  28.370  1.00  0.00     0.058 A 
ATOM     71  C   UNL A   1      44.029  26.131  27.385  1.00  0.00     0.135 A 
ATOM     72  C   UNL A   1      42.798  24.261  28.254  1.00  0.00     0.135 A 
ATOM     73  F   UNL A   1      44.416  27.415  27.444  1.00  0.00    -0.206 F 
ATOM     74  C   UNL A   1      44.471  25.356  26.318  1.00  0.00     0.059 A 
ATOM     75  C   UNL A   1      43.258  23.456  27.218  1.00  0.00     0.059 A 
ATOM     76  F   UNL A   1      41.996  23.705  29.175  1.00  0.00    -0.206 F 
ATOM     77  C   UNL A   1      44.082  24.017  26.245  1.00  0.00     0.060 A 
BRANCH  77  78
ATOM     78  S   UNL A   1      44.680  23.019  24.865  1.00  0.00     0.124 S 
ATOM     79  O   UNL A   1      43.432  22.650  24.207  1.00  0.00    -0.237 OA
ATOM     80  O   UNL A   1      45.525  23.969  24.148  1.00  0.00    -0.237 OA
ATOM     81  O   UNL A   1      45.392  21.927  25.523  1.00  0.00    -0.744 OA
ENDBRANCH  77  78
ENDBRANCH  45  70
BRANCH  57  82
ATOM     82  C   UNL A   1      45.792  27.245  34.631  1.00  0.00     0.058 A 
ATOM     83  C   UNL A   1      46.959  28.019  34.547  1.00  0.00     0.135 A 
ATOM     84  C   UNL A   1      45.812  26.115  35.466  1.00  0.00     0.135 A 
ATOM     85  F   UNL A   1      46.996  29.104  33.756  1.00  0.00    -0.206 F 
ATOM     86  C   UNL A   1      48.107  27.678  35.252  1.00  0.00     0.059 A 
ATOM     87  C   UNL A   1      46.937  25.775  36.208  1.00  0.00     0.059 A 
ATOM     88  F   UNL A   1      44.719  25.345  35.589  1.00  0.00    -0.206 F 
ATOM     89  C   UNL A   1      48.083  26.559  36.087  1.00  0.00     0.060 A 
BRANCH  89  90
ATOM     90  S   UNL A   1      49.570  26.161  37.030  1.00  0.00     0.124 S 
ATOM     91  O   UNL A   1      50.131  27.485  37.270  1.00  0.00    -0.237 OA
ATOM     92  O   UNL A   1      49.020  25.484  38.200  1.00  0.00    -0.237 OA
ATOM     93  O   UNL A   1      50.334  25.312  36.120  1.00  0.00    -0.744 OA
ENDBRANCH  89  90
ENDBRANCH  57  82
ENDBRANCH  31  32
ENDBRANCH  24  26
ENDBRANCH  23  24
ENDBRANCH   1  23
TORSDOF 16
ENDMDL
MODEL 3
REMARK VINA RESULT:     -10.8      3.564      9.514
REMARK SMILES C#Cc1cc(Cl)cc2c1O[C@H](C(F)(F)F)C(C(=O)OCCOC(=O)c1ccc(-c3c4nc(c(-c5c(F)cc(S(=O)(=O)[O-])cc5F)c5ccc([nH]5)c(-c5c(F)cc(S(=O)(=O)[O-])cc5F)c5nc(c(-c6c(F)cc(S(=O)(=O)[O-])cc6F)c6ccc3[nH]6)C=C5)C=C4)cc1)=C2
REMARK SMILES IDX 21 1 20 2 19 3 17 4 18 5 16 6 3 7 4 8 9 9 5 10 8 11 10 12
REMARK SMILES IDX 6 13 7 14 91 15 11 16 2 17 1 18 12 19 13 20 14 21 15 22
REMARK SMILES IDX 22 23 23 24 24 25 25 26 26 27 90 28 27 29 89 30 28 31 29 32
REMARK SMILES IDX 30 33 83 34 31 35 88 36 82 37 84 38 32 39 87 40 81 41 80 42
REMARK SMILES IDX 33 44 67 45 46 46 66 47 47 48 50 49 65 50 85 51 48 52 49 53
REMARK SMILES IDX 64 55 86 56 51 57 34 58 35 59 44 60 36 61 37 62 43 63 45 64
REMARK SMILES IDX 38 65 39 66 40 67 41 68 42 69 68 70 69 71 78 72 70 73 71 74
REMARK SMILES IDX 77 75 79 76 72 77 73 78 74 79 75 80 76 81 52 82 53 83 62 84
REMARK SMILES IDX 54 85 55 86 61 87 63 88 56 89 57 90 58 91 59 92 60 93
REMARK H PARENT 84 43 50 54
REMARK Flexibility Score: inf
ROOT
ATOM      1  C   UNL A   1      36.413  23.212  24.601  1.00  0.00     0.275 C 
ENDROOT
BRANCH   1   2
ATOM      2  C   UNL A   1      35.258  22.640  25.425  1.00  0.00     0.275 C 
BRANCH   2   3
ATOM      3  O   UNL A   1      34.154  23.568  25.508  1.00  0.00    -0.459 OA
BRANCH   3   4
ATOM      4  C   UNL A   1      33.607  23.926  24.322  1.00  0.00     0.338 C 
ATOM      5  O   UNL A   1      33.456  23.207  23.348  1.00  0.00    -0.246 OA
BRANCH   4   6
ATOM      6  C   UNL A   1      33.199  25.345  24.336  1.00  0.00     0.087 C 
ATOM      7  C   UNL A   1      31.724  29.234  24.826  1.00  0.00     0.068 A 
ATOM      8  C   UNL A   1      32.336  30.083  25.758  1.00  0.00     0.041 A 
ATOM      9  C   UNL A   1      32.237  27.949  24.600  1.00  0.00     0.143 A 
ATOM     10  C   UNL A   1      33.467  29.659  26.448  1.00  0.00     0.043 A 
ATOM     11  C   UNL A   1      33.367  27.535  25.306  1.00  0.00     0.020 A 
ATOM     12  O   UNL A   1      31.612  27.151  23.675  1.00  0.00    -0.474 OA
ATOM     13  Cl  UNL A   1      34.208  30.696  27.603  1.00  0.00    -0.084 Cl
ATOM     14  C   UNL A   1      33.992  28.392  26.221  1.00  0.00     0.032 A 
ATOM     15  C   UNL A   1      33.868  26.189  25.127  1.00  0.00     0.027 C 
ATOM     16  C   UNL A   1      31.956  25.739  23.600  1.00  0.00     0.316 C 
BRANCH   7  17
ATOM     17  C   UNL A   1      30.561  29.697  24.133  1.00  0.00    -0.067 C 
ATOM     18  C   UNL A   1      29.586  30.083  23.545  1.00  0.00     0.010 C 
ENDBRANCH   7  17
BRANCH  16  19
ATOM     19  C   UNL A   1      30.751  24.903  24.062  1.00  0.00     0.430 C 
ATOM     20  F   UNL A   1      30.955  24.379  25.294  1.00  0.00    -0.167 F 
ATOM     21  F   UNL A   1      29.627  25.656  24.151  1.00  0.00    -0.167 F 
ATOM     22  F   UNL A   1      30.486  23.878  23.222  1.00  0.00    -0.167 F 
ENDBRANCH  16  19
ENDBRANCH   4   6
ENDBRANCH   3   4
ENDBRANCH   2   3
ENDBRANCH   1   2
BRANCH   1  23
ATOM     23  O   UNL A   1      37.257  24.053  25.409  1.00  0.00    -0.458 OA
BRANCH  23  24
ATOM     24  C   UNL A   1      38.425  23.482  25.778  1.00  0.00     0.338 C 
ATOM     25  O   UNL A   1      38.869  22.406  25.411  1.00  0.00    -0.246 OA
BRANCH  24  26
ATOM     26  C   UNL A   1      39.202  24.395  26.624  1.00  0.00     0.060 A 
ATOM     27  C   UNL A   1      39.004  24.327  27.995  1.00  0.00     0.016 A 
ATOM     28  C   UNL A   1      39.904  25.461  26.074  1.00  0.00     0.016 A 
ATOM     29  C   UNL A   1      39.307  25.420  28.795  1.00  0.00     0.010 A 
ATOM     30  C   UNL A   1      40.385  26.471  26.918  1.00  0.00     0.010 A 
ATOM     31  C   UNL A   1      40.039  26.495  28.282  1.00  0.00    -0.014 A 
BRANCH  31  32
ATOM     32  C   UNL A   1      40.425  27.628  29.173  1.00  0.00     0.031 A 
ATOM     33  C   UNL A   1      41.733  27.595  29.929  1.00  0.00     0.074 A 
ATOM     34  C   UNL A   1      39.614  28.702  29.289  1.00  0.00     0.049 A 
ATOM     35  N   UNL A   1      42.153  28.385  30.883  1.00  0.00    -0.248 NA
ATOM     36  C   UNL A   1      42.686  26.528  29.579  1.00  0.00     0.031 C 
ATOM     37  C   UNL A   1      38.348  28.895  28.571  1.00  0.00     0.029 A 
ATOM     38  N   UNL A   1      39.728  29.844  30.043  1.00  0.00    -0.354 N 
ATOM     39  C   UNL A   1      43.391  27.888  31.276  1.00  0.00     0.074 A 
ATOM     40  C   UNL A   1      43.646  26.710  30.477  1.00  0.00     0.031 C 
ATOM     41  C   UNL A   1      37.841  30.098  28.870  1.00  0.00     0.029 A 
ATOM     42  C   UNL A   1      38.668  30.712  29.897  1.00  0.00     0.049 A 
ATOM     43  H   UNL A   1      40.496  30.026  30.632  1.00  0.00     0.167 HD
ATOM     44  C   UNL A   1      44.240  28.378  32.211  1.00  0.00     0.037 A 
ATOM     45  C   UNL A   1      38.356  31.845  30.553  1.00  0.00     0.037 A 
ATOM     46  C   UNL A   1      43.993  29.580  32.967  1.00  0.00     0.049 A 
ATOM     47  C   UNL A   1      39.269  32.315  31.648  1.00  0.00     0.074 A 
ATOM     48  C   UNL A   1      44.787  30.161  33.939  1.00  0.00     0.029 A 
ATOM     49  N   UNL A   1      42.878  30.395  32.822  1.00  0.00    -0.354 N 
ATOM     50  N   UNL A   1      40.410  31.802  32.045  1.00  0.00    -0.248 NA
ATOM     51  C   UNL A   1      38.848  33.505  32.398  1.00  0.00     0.031 C 
ATOM     52  C   UNL A   1      44.128  31.294  34.423  1.00  0.00     0.029 A 
ATOM     53  C   UNL A   1      42.954  31.458  33.706  1.00  0.00     0.049 A 
ATOM     54  H   UNL A   1      42.143  30.239  32.187  1.00  0.00     0.167 HD
ATOM     55  C   UNL A   1      40.855  32.621  33.073  1.00  0.00     0.074 A 
ATOM     56  C   UNL A   1      39.872  33.675  33.224  1.00  0.00     0.031 C 
ATOM     57  C   UNL A   1      41.973  32.508  33.831  1.00  0.00     0.037 A 
BRANCH  44  58
ATOM     58  C   UNL A   1      45.514  27.625  32.491  1.00  0.00     0.058 A 
ATOM     59  C   UNL A   1      45.540  26.492  33.318  1.00  0.00     0.135 A 
ATOM     60  C   UNL A   1      46.709  27.987  31.843  1.00  0.00     0.135 A 
ATOM     61  F   UNL A   1      44.435  26.110  33.977  1.00  0.00    -0.206 F 
ATOM     62  C   UNL A   1      46.702  25.748  33.498  1.00  0.00     0.059 A 
ATOM     63  C   UNL A   1      47.875  27.240  31.985  1.00  0.00     0.059 A 
ATOM     64  F   UNL A   1      46.744  29.063  31.042  1.00  0.00    -0.206 F 
ATOM     65  C   UNL A   1      47.863  26.123  32.818  1.00  0.00     0.060 A 
BRANCH  65  66
ATOM     66  S   UNL A   1      49.347  25.117  33.030  1.00  0.00     0.124 S 
ATOM     67  O   UNL A   1      49.739  24.877  31.644  1.00  0.00    -0.237 OA
ATOM     68  O   UNL A   1      50.218  26.009  33.789  1.00  0.00    -0.237 OA
ATOM     69  O   UNL A   1      48.867  23.945  33.755  1.00  0.00    -0.744 OA
ENDBRANCH  65  66
ENDBRANCH  44  58
BRANCH  45  70
ATOM     70  C   UNL A   1      37.106  32.585  30.222  1.00  0.00     0.058 A 
ATOM     71  C   UNL A   1      37.074  33.510  29.167  1.00  0.00     0.135 A 
ATOM     72  C   UNL A   1      35.916  32.383  30.944  1.00  0.00     0.135 A 
ATOM     73  F   UNL A   1      38.183  33.746  28.450  1.00  0.00    -0.206 F 
ATOM     74  C   UNL A   1      35.921  34.220  28.854  1.00  0.00     0.059 A 
ATOM     75  C   UNL A   1      34.740  33.053  30.625  1.00  0.00     0.059 A 
ATOM     76  F   UNL A   1      35.883  31.500  31.955  1.00  0.00    -0.206 F 
ATOM     77  C   UNL A   1      34.756  33.982  29.587  1.00  0.00     0.060 A 
BRANCH  77  78
ATOM     78  S   UNL A   1      33.262  34.898  29.156  1.00  0.00     0.124 S 
ATOM     79  O   UNL A   1      32.560  34.934  30.433  1.00  0.00    -0.237 OA
ATOM     80  O   UNL A   1      33.809  36.169  28.691  1.00  0.00    -0.237 OA
ATOM     81  O   UNL A   1      32.647  34.071  28.121  1.00  0.00    -0.744 OA
ENDBRANCH  77  78
ENDBRANCH  45  70
BRANCH  57  82
ATOM     82  C   UNL A   1      42.220  33.567  34.868  1.00  0.00     0.058 A 
ATOM     83  C   UNL A   1      42.890  34.760  34.557  1.00  0.00     0.135 A 
ATOM     84  C   UNL A   1      41.717  33.416  36.171  1.00  0.00     0.135 A 
ATOM     85  F   UNL A   1      43.398  34.950  33.329  1.00  0.00    -0.206 F 
ATOM     86  C   UNL A   1      43.068  35.759  35.507  1.00  0.00     0.059 A 
ATOM     87  C   UNL A   1      41.851  34.418  37.126  1.00  0.00     0.059 A 
ATOM     88  F   UNL A   1      41.059  32.298  36.518  1.00  0.00    -0.206 F 
ATOM     89  C   UNL A   1      42.537  35.583  36.786  1.00  0.00     0.060 A 
BRANCH  89  90
ATOM     90  S   UNL A   1      42.739  36.912  37.990  1.00  0.00     0.124 S 
ATOM     91  O   UNL A   1      41.353  37.219  38.326  1.00  0.00    -0.237 OA
ATOM     92  O   UNL A   1      43.517  36.261  39.039  1.00  0.00    -0.237 OA
ATOM     93  O   UNL A   1      43.446  37.946  37.241  1.00  0.00    -0.744 OA
ENDBRANCH  89  90
ENDBRANCH  57  82
ENDBRANCH  31  32
ENDBRANCH  24  26
ENDBRANCH  23  24
ENDBRANCH   1  23
TORSDOF 16
ENDMDL
