MODEL 1
REMARK VINA RESULT:     -11.8      0.000      0.000
REMARK SMILES Cc1ccnc(C(=O)c2[nH]c3ccc(OC(F)(F)F)cc3c2CC(=O)OCCOC(=O)c2ccc(-c3c4nc(c(-c5c(F)cc(S(=O)(=O)[O-])cc5F)c5ccc([nH]5)c(-c5c(F)cc(S(=O)(=O)[O-])cc5F)c5nc(c(-c6c(F)cc(S(=O)(=O)[O-])cc6F)c6ccc3[nH]6)C=C5)C=C4)cc2)c1
REMARK SMILES IDX 27 1 26 2 24 3 25 4 23 5 22 6 9 7 10 8 11 9 21 11 12 12
REMARK SMILES IDX 20 13 13 14 14 15 7 16 8 17 6 18 1 19 2 20 3 21 98 22 4 23
REMARK SMILES IDX 5 24 15 25 16 26 17 27 18 28 19 29 28 30 29 31 30 32 31 33
REMARK SMILES IDX 32 34 33 35 97 36 34 37 96 38 35 39 36 40 37 41 90 42 38 43
REMARK SMILES IDX 95 44 89 45 91 46 39 47 94 48 88 49 87 50 40 52 74 53 53 54
REMARK SMILES IDX 73 55 54 56 57 57 72 58 92 59 55 60 56 61 71 63 93 64 58 65
REMARK SMILES IDX 41 66 42 67 51 68 43 69 44 70 50 71 52 72 45 73 46 74 47 75
REMARK SMILES IDX 48 76 49 77 75 78 76 79 85 80 77 81 78 82 84 83 86 84 79 85
REMARK SMILES IDX 80 86 81 87 82 88 83 89 59 90 60 91 69 92 61 93 62 94 68 95
REMARK SMILES IDX 70 96 63 97 64 98 65 99 66 100 67 101
REMARK H PARENT 10 10 91 51 57 62
REMARK Flexibility Score: inf
ROOT
ATOM      1  C   UNL A   1      32.203  27.165  26.712  1.00  0.00     0.274 C 
ENDROOT
BRANCH   1   2
ATOM      2  O   UNL A   1      33.257  26.370  26.122  1.00  0.00    -0.462 OA
BRANCH   2   3
ATOM      3  C   UNL A   1      33.052  25.031  26.099  1.00  0.00     0.310 C 
ATOM      4  O   UNL A   1      32.106  24.474  26.654  1.00  0.00    -0.252 OA
BRANCH   3   5
ATOM      5  C   UNL A   1      33.994  24.248  25.209  1.00  0.00     0.161 C 
BRANCH   5   6
ATOM      6  C   UNL A   1      33.477  23.617  23.954  1.00  0.00     0.000 A 
ATOM      7  C   UNL A   1      33.045  24.246  22.786  1.00  0.00     0.093 A 
ATOM      8  N   UNL A   1      32.600  23.262  21.937  1.00  0.00    -0.352 N 
ATOM      9  C   UNL A   1      32.569  22.048  22.566  1.00  0.00     0.046 A 
ATOM     10  H   UNL A   1      32.337  23.412  21.001  1.00  0.00     0.167 HD
ATOM     11  C   UNL A   1      33.180  22.216  23.804  1.00  0.00     0.008 A 
ATOM     12  C   UNL A   1      32.052  20.830  22.125  1.00  0.00     0.030 A 
ATOM     13  C   UNL A   1      33.327  21.076  24.625  1.00  0.00     0.057 A 
ATOM     14  C   UNL A   1      32.182  19.726  22.971  1.00  0.00     0.049 A 
ATOM     15  C   UNL A   1      32.829  19.831  24.202  1.00  0.00     0.130 A 
BRANCH   7  16
ATOM     16  C   UNL A   1      33.020  25.628  22.327  1.00  0.00     0.227 C 
ATOM     17  O   UNL A   1      33.622  25.938  21.300  1.00  0.00    -0.285 OA
BRANCH  16  18
ATOM     18  C   UNL A   1      32.023  26.596  22.926  1.00  0.00     0.113 A 
ATOM     19  C   UNL A   1      28.354  26.768  23.904  1.00  0.00     0.044 C 
ATOM     20  C   UNL A   1      29.775  27.144  23.603  1.00  0.00    -0.047 A 
ATOM     21  C   UNL A   1      30.129  28.492  23.539  1.00  0.00     0.023 A 
ATOM     22  C   UNL A   1      30.746  26.177  23.310  1.00  0.00     0.036 A 
ATOM     23  C   UNL A   1      31.423  28.819  23.177  1.00  0.00     0.112 A 
ATOM     24  N   UNL A   1      32.368  27.911  22.863  1.00  0.00    -0.253 NA
ENDBRANCH  16  18
ENDBRANCH   7  16
BRANCH  15  25
ATOM     25  O   UNL A   1      33.037  18.809  25.089  1.00  0.00    -0.406 OA
BRANCH  25  26
ATOM     26  C   UNL A   1      33.691  17.648  24.609  1.00  0.00     0.573 C 
ATOM     27  F   UNL A   1      34.892  17.950  24.067  1.00  0.00    -0.132 F 
ATOM     28  F   UNL A   1      33.858  16.733  25.589  1.00  0.00    -0.132 F 
ATOM     29  F   UNL A   1      32.929  17.085  23.644  1.00  0.00    -0.132 F 
ENDBRANCH  25  26
ENDBRANCH  15  25
ENDBRANCH   5   6
ENDBRANCH   3   5
ENDBRANCH   2   3
ENDBRANCH   1   2
BRANCH   1  30
ATOM     30  C   UNL A   1      32.677  28.585  27.058  1.00  0.00     0.275 C 
BRANCH  30  31
ATOM     31  O   UNL A   1      34.102  28.666  27.279  1.00  0.00    -0.458 OA
BRANCH  31  32
ATOM     32  C   UNL A   1      34.503  29.869  27.733  1.00  0.00     0.338 C 
ATOM     33  O   UNL A   1      33.801  30.867  27.855  1.00  0.00    -0.246 OA
BRANCH  32  34
ATOM     34  C   UNL A   1      35.878  29.888  28.220  1.00  0.00     0.060 A 
ATOM     35  C   UNL A   1      36.881  30.116  27.277  1.00  0.00     0.016 A 
ATOM     36  C   UNL A   1      36.193  29.415  29.495  1.00  0.00     0.016 A 
ATOM     37  C   UNL A   1      38.193  29.788  27.574  1.00  0.00     0.010 A 
ATOM     38  C   UNL A   1      37.530  29.160  29.819  1.00  0.00     0.010 A 
ATOM     39  C   UNL A   1      38.536  29.314  28.849  1.00  0.00    -0.014 A 
BRANCH  39  40
ATOM     40  C   UNL A   1      39.965  29.038  29.133  1.00  0.00     0.031 A 
ATOM     41  C   UNL A   1      40.820  30.021  29.880  1.00  0.00     0.074 A 
ATOM     42  C   UNL A   1      40.456  27.833  28.788  1.00  0.00     0.049 A 
ATOM     43  N   UNL A   1      42.053  29.887  30.297  1.00  0.00    -0.248 NA
ATOM     44  C   UNL A   1      40.213  31.318  30.218  1.00  0.00     0.031 C 
ATOM     45  C   UNL A   1      39.706  26.792  28.079  1.00  0.00     0.029 A 
ATOM     46  N   UNL A   1      41.683  27.268  29.009  1.00  0.00    -0.354 N 
ATOM     47  C   UNL A   1      42.365  31.067  30.961  1.00  0.00     0.074 A 
ATOM     48  C   UNL A   1      41.201  31.923  30.865  1.00  0.00     0.031 C 
ATOM     49  C   UNL A   1      40.477  25.703  27.955  1.00  0.00     0.029 A 
ATOM     50  C   UNL A   1      41.788  25.986  28.527  1.00  0.00     0.049 A 
ATOM     51  H   UNL A   1      42.418  27.734  29.469  1.00  0.00     0.167 HD
ATOM     52  C   UNL A   1      43.515  31.401  31.595  1.00  0.00     0.037 A 
ATOM     53  C   UNL A   1      42.831  25.137  28.528  1.00  0.00     0.037 A 
ATOM     54  C   UNL A   1      44.684  30.560  31.651  1.00  0.00     0.049 A 
ATOM     55  C   UNL A   1      44.120  25.570  29.156  1.00  0.00     0.074 A 
ATOM     56  C   UNL A   1      45.907  30.818  32.249  1.00  0.00     0.029 A 
ATOM     57  N   UNL A   1      44.782  29.301  31.077  1.00  0.00    -0.354 N 
ATOM     58  N   UNL A   1      44.395  26.690  29.781  1.00  0.00    -0.248 NA
ATOM     59  C   UNL A   1      45.245  24.631  29.069  1.00  0.00     0.031 C 
ATOM     60  C   UNL A   1      46.754  29.731  32.005  1.00  0.00     0.029 A 
ATOM     61  C   UNL A   1      46.049  28.781  31.284  1.00  0.00     0.049 A 
ATOM     62  H   UNL A   1      44.057  28.845  30.592  1.00  0.00     0.167 HD
ATOM     63  C   UNL A   1      45.727  26.591  30.162  1.00  0.00     0.074 A 
ATOM     64  C   UNL A   1      46.193  25.291  29.719  1.00  0.00     0.031 C 
ATOM     65  C   UNL A   1      46.498  27.496  30.814  1.00  0.00     0.037 A 
BRANCH  52  66
ATOM     66  C   UNL A   1      43.573  32.739  32.275  1.00  0.00     0.058 A 
ATOM     67  C   UNL A   1      43.227  32.883  33.628  1.00  0.00     0.135 A 
ATOM     68  C   UNL A   1      44.034  33.873  31.590  1.00  0.00     0.135 A 
ATOM     69  F   UNL A   1      42.757  31.834  34.322  1.00  0.00    -0.206 F 
ATOM     70  C   UNL A   1      43.335  34.108  34.278  1.00  0.00     0.059 A 
ATOM     71  C   UNL A   1      44.162  35.107  32.224  1.00  0.00     0.059 A 
ATOM     72  F   UNL A   1      44.370  33.789  30.293  1.00  0.00    -0.206 F 
ATOM     73  C   UNL A   1      43.804  35.214  33.568  1.00  0.00     0.060 A 
BRANCH  73  74
ATOM     74  S   UNL A   1      43.950  36.794  34.432  1.00  0.00     0.124 S 
ATOM     75  O   UNL A   1      45.314  37.185  34.088  1.00  0.00    -0.237 OA
ATOM     76  O   UNL A   1      42.891  37.586  33.816  1.00  0.00    -0.237 OA
ATOM     77  O   UNL A   1      43.733  36.438  35.830  1.00  0.00    -0.744 OA
ENDBRANCH  73  74
ENDBRANCH  52  66
BRANCH  53  78
ATOM     78  C   UNL A   1      42.700  23.812  27.874  1.00  0.00     0.058 A 
ATOM     79  C   UNL A   1      42.829  23.668  26.487  1.00  0.00     0.135 A 
ATOM     80  C   UNL A   1      42.465  22.658  28.639  1.00  0.00     0.135 A 
ATOM     81  F   UNL A   1      43.052  24.746  25.718  1.00  0.00    -0.206 F 
ATOM     82  C   UNL A   1      42.717  22.425  25.874  1.00  0.00     0.059 A 
ATOM     83  C   UNL A   1      42.371  21.403  28.052  1.00  0.00     0.059 A 
ATOM     84  F   UNL A   1      42.352  22.747  29.973  1.00  0.00    -0.206 F 
ATOM     85  C   UNL A   1      42.487  21.298  26.667  1.00  0.00     0.060 A 
BRANCH  85  86
ATOM     86  S   UNL A   1      42.389  19.674  25.883  1.00  0.00     0.124 S 
ATOM     87  O   UNL A   1      42.725  18.794  26.996  1.00  0.00    -0.237 OA
ATOM     88  O   UNL A   1      41.004  19.625  25.426  1.00  0.00    -0.237 OA
ATOM     89  O   UNL A   1      43.387  19.762  24.821  1.00  0.00    -0.744 OA
ENDBRANCH  85  86
ENDBRANCH  53  78
BRANCH  65  90
ATOM     90  C   UNL A   1      47.919  27.095  31.071  1.00  0.00     0.058 A 
ATOM     91  C   UNL A   1      48.942  27.430  30.170  1.00  0.00     0.135 A 
ATOM     92  C   UNL A   1      48.259  26.352  32.212  1.00  0.00     0.135 A 
ATOM     93  F   UNL A   1      48.663  28.132  29.061  1.00  0.00    -0.206 F 
ATOM     94  C   UNL A   1      50.251  27.005  30.372  1.00  0.00     0.059 A 
ATOM     95  C   UNL A   1      49.565  25.934  32.442  1.00  0.00     0.059 A 
ATOM     96  F   UNL A   1      47.315  26.015  33.104  1.00  0.00    -0.206 F 
ATOM     97  C   UNL A   1      50.550  26.247  31.505  1.00  0.00     0.060 A 
BRANCH  97  98
ATOM     98  S   UNL A   1      52.245  25.680  31.759  1.00  0.00     0.124 S 
ATOM     99  O   UNL A   1      52.037  24.270  32.068  1.00  0.00    -0.237 OA
ATOM    100  O   UNL A   1      52.874  25.960  30.471  1.00  0.00    -0.237 OA
ATOM    101  O   UNL A   1      52.710  26.507  32.868  1.00  0.00    -0.744 OA
ENDBRANCH  97  98
ENDBRANCH  65  90
ENDBRANCH  39  40
ENDBRANCH  32  34
ENDBRANCH  31  32
ENDBRANCH  30  31
ENDBRANCH   1  30
TORSDOF 19
ENDMDL
MODEL 2
REMARK VINA RESULT:     -11.7      5.007      9.871
REMARK SMILES Cc1ccnc(C(=O)c2[nH]c3ccc(OC(F)(F)F)cc3c2CC(=O)OCCOC(=O)c2ccc(-c3c4nc(c(-c5c(F)cc(S(=O)(=O)[O-])cc5F)c5ccc([nH]5)c(-c5c(F)cc(S(=O)(=O)[O-])cc5F)c5nc(c(-c6c(F)cc(S(=O)(=O)[O-])cc6F)c6ccc3[nH]6)C=C5)C=C4)cc2)c1
REMARK SMILES IDX 27 1 26 2 24 3 25 4 23 5 22 6 9 7 10 8 11 9 21 11 12 12
REMARK SMILES IDX 20 13 13 14 14 15 7 16 8 17 6 18 1 19 2 20 3 21 98 22 4 23
REMARK SMILES IDX 5 24 15 25 16 26 17 27 18 28 19 29 28 30 29 31 30 32 31 33
REMARK SMILES IDX 32 34 33 35 97 36 34 37 96 38 35 39 36 40 37 41 90 42 38 43
REMARK SMILES IDX 95 44 89 45 91 46 39 47 94 48 88 49 87 50 40 52 74 53 53 54
REMARK SMILES IDX 73 55 54 56 57 57 72 58 92 59 55 60 56 61 71 63 93 64 58 65
REMARK SMILES IDX 41 66 42 67 51 68 43 69 44 70 50 71 52 72 45 73 46 74 47 75
REMARK SMILES IDX 48 76 49 77 75 78 76 79 85 80 77 81 78 82 84 83 86 84 79 85
REMARK SMILES IDX 80 86 81 87 82 88 83 89 59 90 60 91 69 92 61 93 62 94 68 95
REMARK SMILES IDX 70 96 63 97 64 98 65 99 66 100 67 101
REMARK H PARENT 10 10 91 51 57 62
REMARK Flexibility Score: inf
ROOT
ATOM      1  C   UNL A   1      37.406  23.074  25.604  1.00  0.00     0.274 C 
ENDROOT
BRANCH   1   2
ATOM      2  O   UNL A   1      36.483  24.182  25.514  1.00  0.00    -0.462 OA
BRANCH   2   3
ATOM      3  C   UNL A   1      35.206  23.928  25.892  1.00  0.00     0.310 C 
ATOM      4  O   UNL A   1      34.903  23.159  26.803  1.00  0.00    -0.252 OA
BRANCH   3   5
ATOM      5  C   UNL A   1      34.150  24.773  25.212  1.00  0.00     0.161 C 
BRANCH   5   6
ATOM      6  C   UNL A   1      33.079  25.424  26.030  1.00  0.00     0.000 A 
ATOM      7  C   UNL A   1      31.865  24.882  26.451  1.00  0.00     0.093 A 
ATOM      8  N   UNL A   1      31.188  25.875  27.117  1.00  0.00    -0.352 N 
ATOM      9  C   UNL A   1      31.834  27.074  26.999  1.00  0.00     0.046 A 
ATOM     10  H   UNL A   1      30.348  25.740  27.612  1.00  0.00     0.167 HD
ATOM     11  C   UNL A   1      33.058  26.819  26.391  1.00  0.00     0.008 A 
ATOM     12  C   UNL A   1      31.423  28.349  27.388  1.00  0.00     0.030 A 
ATOM     13  C   UNL A   1      33.944  27.904  26.212  1.00  0.00     0.057 A 
ATOM     14  C   UNL A   1      32.306  29.410  27.172  1.00  0.00     0.049 A 
ATOM     15  C   UNL A   1      33.565  29.198  26.608  1.00  0.00     0.130 A 
BRANCH   7  16
ATOM     16  C   UNL A   1      31.255  23.563  26.358  1.00  0.00     0.227 C 
ATOM     17  O   UNL A   1      30.402  23.228  27.179  1.00  0.00    -0.285 OA
BRANCH  16  18
ATOM     18  C   UNL A   1      31.440  22.741  25.101  1.00  0.00     0.113 A 
ATOM     19  C   UNL A   1      33.044  19.494  23.951  1.00  0.00     0.044 C 
ATOM     20  C   UNL A   1      32.365  20.831  23.958  1.00  0.00    -0.047 A 
ATOM     21  C   UNL A   1      32.192  21.519  22.756  1.00  0.00     0.023 A 
ATOM     22  C   UNL A   1      31.962  21.447  25.151  1.00  0.00     0.036 A 
ATOM     23  C   UNL A   1      31.641  22.787  22.793  1.00  0.00     0.112 A 
ATOM     24  N   UNL A   1      31.271  23.413  23.929  1.00  0.00    -0.253 NA
ENDBRANCH  16  18
ENDBRANCH   7  16
BRANCH  15  25
ATOM     25  O   UNL A   1      34.514  30.159  26.383  1.00  0.00    -0.406 OA
BRANCH  25  26
ATOM     26  C   UNL A   1      35.513  30.338  27.371  1.00  0.00     0.573 C 
ATOM     27  F   UNL A   1      36.673  29.745  27.007  1.00  0.00    -0.132 F 
ATOM     28  F   UNL A   1      35.737  31.648  27.616  1.00  0.00    -0.132 F 
ATOM     29  F   UNL A   1      35.096  29.766  28.523  1.00  0.00    -0.132 F 
ENDBRANCH  25  26
ENDBRANCH  15  25
ENDBRANCH   5   6
ENDBRANCH   3   5
ENDBRANCH   2   3
ENDBRANCH   1   2
BRANCH   1  30
ATOM     30  C   UNL A   1      38.601  23.392  26.517  1.00  0.00     0.275 C 
BRANCH  30  31
ATOM     31  O   UNL A   1      39.092  24.740  26.353  1.00  0.00    -0.458 OA
BRANCH  31  32
ATOM     32  C   UNL A   1      40.385  24.881  26.703  1.00  0.00     0.338 C 
ATOM     33  O   UNL A   1      41.354  24.483  26.067  1.00  0.00    -0.246 OA
BRANCH  32  34
ATOM     34  C   UNL A   1      40.588  25.695  27.897  1.00  0.00     0.060 A 
ATOM     35  C   UNL A   1      39.511  25.809  28.776  1.00  0.00     0.016 A 
ATOM     36  C   UNL A   1      41.690  26.545  28.005  1.00  0.00     0.016 A 
ATOM     37  C   UNL A   1      39.490  26.832  29.710  1.00  0.00     0.010 A 
ATOM     38  C   UNL A   1      41.701  27.525  29.003  1.00  0.00     0.010 A 
ATOM     39  C   UNL A   1      40.586  27.697  29.841  1.00  0.00    -0.014 A 
BRANCH  39  40
ATOM     40  C   UNL A   1      40.538  28.734  30.900  1.00  0.00     0.031 A 
ATOM     41  C   UNL A   1      39.554  29.867  30.845  1.00  0.00     0.074 A 
ATOM     42  C   UNL A   1      41.338  28.578  31.972  1.00  0.00     0.049 A 
ATOM     43  N   UNL A   1      39.316  30.792  31.739  1.00  0.00    -0.248 NA
ATOM     44  C   UNL A   1      38.719  29.972  29.640  1.00  0.00     0.031 C 
ATOM     45  C   UNL A   1      42.316  27.499  32.141  1.00  0.00     0.029 A 
ATOM     46  N   UNL A   1      41.439  29.303  33.129  1.00  0.00    -0.354 N 
ATOM     47  C   UNL A   1      38.294  31.576  31.218  1.00  0.00     0.074 A 
ATOM     48  C   UNL A   1      37.976  31.037  29.912  1.00  0.00     0.031 C 
ATOM     49  C   UNL A   1      42.892  27.613  33.346  1.00  0.00     0.029 A 
ATOM     50  C   UNL A   1      42.363  28.798  34.010  1.00  0.00     0.049 A 
ATOM     51  H   UNL A   1      40.901  30.106  33.311  1.00  0.00     0.167 HD
ATOM     52  C   UNL A   1      37.676  32.642  31.782  1.00  0.00     0.037 A 
ATOM     53  C   UNL A   1      42.757  29.249  35.214  1.00  0.00     0.037 A 
ATOM     54  C   UNL A   1      38.025  33.197  33.065  1.00  0.00     0.049 A 
ATOM     55  C   UNL A   1      42.119  30.485  35.771  1.00  0.00     0.074 A 
ATOM     56  C   UNL A   1      37.473  34.291  33.713  1.00  0.00     0.029 A 
ATOM     57  N   UNL A   1      39.025  32.710  33.892  1.00  0.00    -0.354 N 
ATOM     58  N   UNL A   1      41.151  31.211  35.264  1.00  0.00    -0.248 NA
ATOM     59  C   UNL A   1      42.633  30.971  37.058  1.00  0.00     0.031 C 
ATOM     60  C   UNL A   1      38.166  34.485  34.914  1.00  0.00     0.029 A 
ATOM     61  C   UNL A   1      39.125  33.493  35.031  1.00  0.00     0.049 A 
ATOM     62  H   UNL A   1      39.584  31.923  33.698  1.00  0.00     0.167 HD
ATOM     63  C   UNL A   1      40.941  32.243  36.170  1.00  0.00     0.074 A 
ATOM     64  C   UNL A   1      41.865  32.030  37.268  1.00  0.00     0.031 C 
ATOM     65  C   UNL A   1      40.067  33.277  36.098  1.00  0.00     0.037 A 
BRANCH  52  66
ATOM     66  C   UNL A   1      36.560  33.289  31.011  1.00  0.00     0.058 A 
ATOM     67  C   UNL A   1      35.219  33.103  31.380  1.00  0.00     0.135 A 
ATOM     68  C   UNL A   1      36.833  34.147  29.936  1.00  0.00     0.135 A 
ATOM     69  F   UNL A   1      34.902  32.272  32.386  1.00  0.00    -0.206 F 
ATOM     70  C   UNL A   1      34.185  33.746  30.707  1.00  0.00     0.059 A 
ATOM     71  C   UNL A   1      35.816  34.811  29.255  1.00  0.00     0.059 A 
ATOM     72  F   UNL A   1      38.100  34.352  29.540  1.00  0.00    -0.206 F 
ATOM     73  C   UNL A   1      34.494  34.599  29.645  1.00  0.00     0.060 A 
BRANCH  73  74
ATOM     74  S   UNL A   1      33.140  35.436  28.791  1.00  0.00     0.124 S 
ATOM     75  O   UNL A   1      32.389  35.989  29.913  1.00  0.00    -0.237 OA
ATOM     76  O   UNL A   1      33.847  36.407  27.963  1.00  0.00    -0.237 OA
ATOM     77  O   UNL A   1      32.479  34.357  28.064  1.00  0.00    -0.744 OA
ENDBRANCH  73  74
ENDBRANCH  52  66
BRANCH  53  78
ATOM     78  C   UNL A   1      43.837  28.544  35.946  1.00  0.00     0.058 A 
ATOM     79  C   UNL A   1      43.553  27.487  36.822  1.00  0.00     0.135 A 
ATOM     80  C   UNL A   1      45.181  28.905  35.761  1.00  0.00     0.135 A 
ATOM     81  F   UNL A   1      42.282  27.111  37.030  1.00  0.00    -0.206 F 
ATOM     82  C   UNL A   1      44.566  26.817  37.501  1.00  0.00     0.059 A 
ATOM     83  C   UNL A   1      46.211  28.237  36.410  1.00  0.00     0.059 A 
ATOM     84  F   UNL A   1      45.499  29.899  34.918  1.00  0.00    -0.206 F 
ATOM     85  C   UNL A   1      45.892  27.202  37.288  1.00  0.00     0.060 A 
BRANCH  85  86
ATOM     86  S   UNL A   1      47.215  26.304  38.127  1.00  0.00     0.124 S 
ATOM     87  O   UNL A   1      47.964  25.766  36.998  1.00  0.00    -0.237 OA
ATOM     88  O   UNL A   1      47.878  27.358  38.889  1.00  0.00    -0.237 OA
ATOM     89  O   UNL A   1      46.488  25.325  38.932  1.00  0.00    -0.744 OA
ENDBRANCH  85  86
ENDBRANCH  53  78
BRANCH  65  90
ATOM     90  C   UNL A   1      40.089  34.246  37.242  1.00  0.00     0.058 A 
ATOM     91  C   UNL A   1      40.974  35.336  37.253  1.00  0.00     0.135 A 
ATOM     92  C   UNL A   1      39.239  34.073  38.344  1.00  0.00     0.135 A 
ATOM     93  F   UNL A   1      41.812  35.537  36.224  1.00  0.00    -0.206 F 
ATOM     94  C   UNL A   1      41.043  36.200  38.340  1.00  0.00     0.059 A 
ATOM     95  C   UNL A   1      39.278  34.937  39.433  1.00  0.00     0.059 A 
ATOM     96  F   UNL A   1      38.372  33.049  38.375  1.00  0.00    -0.206 F 
ATOM     97  C   UNL A   1      40.199  35.985  39.431  1.00  0.00     0.060 A 
BRANCH  97  98
ATOM     98  S   UNL A   1      40.300  37.096  40.850  1.00  0.00     0.124 S 
ATOM     99  O   UNL A   1      39.230  36.582  41.698  1.00  0.00    -0.237 OA
ATOM    100  O   UNL A   1      41.658  36.872  41.338  1.00  0.00    -0.237 OA
ATOM    101  O   UNL A   1      40.062  38.411  40.262  1.00  0.00    -0.744 OA
ENDBRANCH  97  98
ENDBRANCH  65  90
ENDBRANCH  39  40
ENDBRANCH  32  34
ENDBRANCH  31  32
ENDBRANCH  30  31
ENDBRANCH   1  30
TORSDOF 19
ENDMDL
MODEL 3
REMARK VINA RESULT:     -11.6      3.170      9.213
REMARK SMILES Cc1ccnc(C(=O)c2[nH]c3ccc(OC(F)(F)F)cc3c2CC(=O)OCCOC(=O)c2ccc(-c3c4nc(c(-c5c(F)cc(S(=O)(=O)[O-])cc5F)c5ccc([nH]5)c(-c5c(F)cc(S(=O)(=O)[O-])cc5F)c5nc(c(-c6c(F)cc(S(=O)(=O)[O-])cc6F)c6ccc3[nH]6)C=C5)C=C4)cc2)c1
REMARK SMILES IDX 27 1 26 2 24 3 25 4 23 5 22 6 9 7 10 8 11 9 21 11 12 12
REMARK SMILES IDX 20 13 13 14 14 15 7 16 8 17 6 18 1 19 2 20 3 21 98 22 4 23
REMARK SMILES IDX 5 24 15 25 16 26 17 27 18 28 19 29 28 30 29 31 30 32 31 33
REMARK SMILES IDX 32 34 33 35 97 36 34 37 96 38 35 39 36 40 37 41 90 42 38 43
REMARK SMILES IDX 95 44 89 45 91 46 39 47 94 48 88 49 87 50 40 52 74 53 53 54
REMARK SMILES IDX 73 55 54 56 57 57 72 58 92 59 55 60 56 61 71 63 93 64 58 65
REMARK SMILES IDX 41 66 42 67 51 68 43 69 44 70 50 71 52 72 45 73 46 74 47 75
REMARK SMILES IDX 48 76 49 77 75 78 76 79 85 80 77 81 78 82 84 83 86 84 79 85
REMARK SMILES IDX 80 86 81 87 82 88 83 89 59 90 60 91 69 92 61 93 62 94 68 95
REMARK SMILES IDX 70 96 63 97 64 98 65 99 66 100 67 101
REMARK H PARENT 10 10 91 51 57 62
REMARK Flexibility Score: inf
ROOT
ATOM      1  C   UNL A   1      33.455  27.853  25.278  1.00  0.00     0.274 C 
ENDROOT
BRANCH   1   2
ATOM      2  O   UNL A   1      33.205  28.752  24.174  1.00  0.00    -0.462 OA
BRANCH   2   3
ATOM      3  C   UNL A   1      33.272  28.208  22.934  1.00  0.00     0.310 C 
ATOM      4  O   UNL A   1      33.935  28.684  22.014  1.00  0.00    -0.252 OA
BRANCH   3   5
ATOM      5  C   UNL A   1      32.585  26.868  22.779  1.00  0.00     0.161 C 
BRANCH   5   6
ATOM      6  C   UNL A   1      31.181  26.692  23.265  1.00  0.00     0.000 A 
ATOM      7  C   UNL A   1      30.574  25.533  23.747  1.00  0.00     0.093 A 
ATOM      8  N   UNL A   1      29.261  25.842  24.010  1.00  0.00    -0.352 N 
ATOM      9  C   UNL A   1      28.954  27.097  23.564  1.00  0.00     0.046 A 
ATOM     10  H   UNL A   1      28.626  25.239  24.460  1.00  0.00     0.167 HD
ATOM     11  C   UNL A   1      30.146  27.689  23.160  1.00  0.00     0.008 A 
ATOM     12  C   UNL A   1      27.718  27.740  23.494  1.00  0.00     0.030 A 
ATOM     13  C   UNL A   1      30.098  29.026  22.709  1.00  0.00     0.057 A 
ATOM     14  C   UNL A   1      27.695  29.053  23.016  1.00  0.00     0.049 A 
ATOM     15  C   UNL A   1      28.870  29.706  22.643  1.00  0.00     0.130 A 
BRANCH   7  16
ATOM     16  C   UNL A   1      31.044  24.185  24.036  1.00  0.00     0.227 C 
ATOM     17  O   UNL A   1      30.838  23.282  23.225  1.00  0.00    -0.285 OA
BRANCH  16  18
ATOM     18  C   UNL A   1      32.033  23.963  25.160  1.00  0.00     0.113 A 
ATOM     19  C   UNL A   1      35.783  23.795  25.752  1.00  0.00     0.044 C 
ATOM     20  C   UNL A   1      34.297  23.708  25.944  1.00  0.00    -0.047 A 
ATOM     21  C   UNL A   1      33.789  23.077  27.080  1.00  0.00     0.023 A 
ATOM     22  C   UNL A   1      33.401  24.177  24.975  1.00  0.00     0.036 A 
ATOM     23  C   UNL A   1      32.419  22.931  27.197  1.00  0.00     0.112 A 
ATOM     24  N   UNL A   1      31.536  23.349  26.268  1.00  0.00    -0.253 NA
ENDBRANCH  16  18
ENDBRANCH   7  16
BRANCH  15  25
ATOM     25  O   UNL A   1      28.961  30.995  22.193  1.00  0.00    -0.406 OA
BRANCH  25  26
ATOM     26  C   UNL A   1      28.689  32.034  23.117  1.00  0.00     0.573 C 
ATOM     27  F   UNL A   1      29.328  31.824  24.290  1.00  0.00    -0.132 F 
ATOM     28  F   UNL A   1      29.043  33.241  22.623  1.00  0.00    -0.132 F 
ATOM     29  F   UNL A   1      27.360  32.062  23.365  1.00  0.00    -0.132 F 
ENDBRANCH  25  26
ENDBRANCH  15  25
ENDBRANCH   5   6
ENDBRANCH   3   5
ENDBRANCH   2   3
ENDBRANCH   1   2
BRANCH   1  30
ATOM     30  C   UNL A   1      32.987  28.442  26.618  1.00  0.00     0.275 C 
BRANCH  30  31
ATOM     31  O   UNL A   1      34.043  28.516  27.601  1.00  0.00    -0.458 OA
BRANCH  31  32
ATOM     32  C   UNL A   1      34.526  29.761  27.769  1.00  0.00     0.338 C 
ATOM     33  O   UNL A   1      33.892  30.804  27.663  1.00  0.00    -0.246 OA
BRANCH  32  34
ATOM     34  C   UNL A   1      35.908  29.800  28.237  1.00  0.00     0.060 A 
ATOM     35  C   UNL A   1      36.900  29.964  27.270  1.00  0.00     0.016 A 
ATOM     36  C   UNL A   1      36.236  29.401  29.534  1.00  0.00     0.016 A 
ATOM     37  C   UNL A   1      38.214  29.644  27.570  1.00  0.00     0.010 A 
ATOM     38  C   UNL A   1      37.576  29.157  29.856  1.00  0.00     0.010 A 
ATOM     39  C   UNL A   1      38.570  29.245  28.867  1.00  0.00    -0.014 A 
BRANCH  39  40
ATOM     40  C   UNL A   1      40.001  28.976  29.149  1.00  0.00     0.031 A 
ATOM     41  C   UNL A   1      40.629  27.651  28.827  1.00  0.00     0.074 A 
ATOM     42  C   UNL A   1      40.753  29.991  29.615  1.00  0.00     0.049 A 
ATOM     43  N   UNL A   1      41.885  27.294  28.917  1.00  0.00    -0.248 NA
ATOM     44  C   UNL A   1      39.741  26.591  28.327  1.00  0.00     0.031 C 
ATOM     45  C   UNL A   1      40.250  31.329  29.941  1.00  0.00     0.029 A 
ATOM     46  N   UNL A   1      42.096  30.070  29.868  1.00  0.00    -0.354 N 
ATOM     47  C   UNL A   1      41.944  25.980  28.468  1.00  0.00     0.074 A 
ATOM     48  C   UNL A   1      40.590  25.589  28.135  1.00  0.00     0.031 C 
ATOM     49  C   UNL A   1      41.276  32.105  30.316  1.00  0.00     0.029 A 
ATOM     50  C   UNL A   1      42.497  31.308  30.307  1.00  0.00     0.049 A 
ATOM     51  H   UNL A   1      42.714  29.314  29.745  1.00  0.00     0.167 HD
ATOM     52  C   UNL A   1      43.029  25.179  28.341  1.00  0.00     0.037 A 
ATOM     53  C   UNL A   1      43.711  31.749  30.681  1.00  0.00     0.037 A 
ATOM     54  C   UNL A   1      44.368  25.562  28.712  1.00  0.00     0.049 A 
ATOM     55  C   UNL A   1      44.877  30.810  30.617  1.00  0.00     0.074 A 
ATOM     56  C   UNL A   1      45.531  24.812  28.644  1.00  0.00     0.029 A 
ATOM     57  N   UNL A   1      44.722  26.796  29.235  1.00  0.00    -0.354 N 
ATOM     58  N   UNL A   1      44.913  29.572  30.187  1.00  0.00    -0.248 NA
ATOM     59  C   UNL A   1      46.165  31.324  31.100  1.00  0.00     0.031 C 
ATOM     60  C   UNL A   1      46.581  25.582  29.159  1.00  0.00     0.029 A 
ATOM     61  C   UNL A   1      46.078  26.823  29.517  1.00  0.00     0.049 A 
ATOM     62  H   UNL A   1      44.100  27.544  29.384  1.00  0.00     0.167 HD
ATOM     63  C   UNL A   1      46.228  29.156  30.349  1.00  0.00     0.074 A 
ATOM     64  C   UNL A   1      46.959  30.284  30.892  1.00  0.00     0.031 C 
ATOM     65  C   UNL A   1      46.780  27.947  30.079  1.00  0.00     0.037 A 
BRANCH  52  66
ATOM     66  C   UNL A   1      42.817  23.800  27.784  1.00  0.00     0.058 A 
ATOM     67  C   UNL A   1      42.602  22.700  28.628  1.00  0.00     0.135 A 
ATOM     68  C   UNL A   1      42.767  23.585  26.398  1.00  0.00     0.135 A 
ATOM     69  F   UNL A   1      42.664  22.847  29.961  1.00  0.00    -0.206 F 
ATOM     70  C   UNL A   1      42.348  21.432  28.117  1.00  0.00     0.059 A 
ATOM     71  C   UNL A   1      42.502  22.327  25.863  1.00  0.00     0.059 A 
ATOM     72  F   UNL A   1      42.973  24.604  25.549  1.00  0.00    -0.206 F 
ATOM     73  C   UNL A   1      42.299  21.255  26.733  1.00  0.00     0.060 A 
BRANCH  73  74
ATOM     74  S   UNL A   1      41.953  19.604  26.086  1.00  0.00     0.124 S 
ATOM     75  O   UNL A   1      42.819  19.567  24.912  1.00  0.00    -0.237 OA
ATOM     76  O   UNL A   1      42.355  18.745  27.195  1.00  0.00    -0.237 OA
ATOM     77  O   UNL A   1      40.521  19.640  25.809  1.00  0.00    -0.744 OA
ENDBRANCH  73  74
ENDBRANCH  52  66
BRANCH  53  78
ATOM     78  C   UNL A   1      43.865  33.135  31.185  1.00  0.00     0.058 A 
ATOM     79  C   UNL A   1      44.161  34.197  30.320  1.00  0.00     0.135 A 
ATOM     80  C   UNL A   1      43.695  33.424  32.549  1.00  0.00     0.135 A 
ATOM     81  F   UNL A   1      44.335  33.965  29.009  1.00  0.00    -0.206 F 
ATOM     82  C   UNL A   1      44.296  35.499  30.790  1.00  0.00     0.059 A 
ATOM     83  C   UNL A   1      43.802  34.719  33.038  1.00  0.00     0.059 A 
ATOM     84  F   UNL A   1      43.393  32.441  33.411  1.00  0.00    -0.206 F 
ATOM     85  C   UNL A   1      44.115  35.748  32.152  1.00  0.00     0.060 A 
BRANCH  85  86
ATOM     86  S   UNL A   1      44.239  37.444  32.762  1.00  0.00     0.124 S 
ATOM     87  O   UNL A   1      45.582  37.451  33.329  1.00  0.00    -0.237 OA
ATOM     88  O   UNL A   1      44.055  38.231  31.546  1.00  0.00    -0.237 OA
ATOM     89  O   UNL A   1      43.143  37.527  33.723  1.00  0.00    -0.744 OA
ENDBRANCH  85  86
ENDBRANCH  53  78
BRANCH  65  90
ATOM     90  C   UNL A   1      48.242  27.803  30.379  1.00  0.00     0.058 A 
ATOM     91  C   UNL A   1      48.685  27.356  31.634  1.00  0.00     0.135 A 
ATOM     92  C   UNL A   1      49.207  28.135  29.416  1.00  0.00     0.135 A 
ATOM     93  F   UNL A   1      47.798  27.035  32.589  1.00  0.00    -0.206 F 
ATOM     94  C   UNL A   1      50.040  27.282  31.938  1.00  0.00     0.059 A 
ATOM     95  C   UNL A   1      50.567  28.050  29.693  1.00  0.00     0.059 A 
ATOM     96  F   UNL A   1      48.830  28.560  28.201  1.00  0.00    -0.206 F 
ATOM     97  C   UNL A   1      50.973  27.643  30.965  1.00  0.00     0.060 A 
BRANCH  97  98
ATOM     98  S   UNL A   1      52.731  27.564  31.364  1.00  0.00     0.124 S 
ATOM     99  O   UNL A   1      53.336  27.905  30.082  1.00  0.00    -0.237 OA
ATOM    100  O   UNL A   1      52.868  28.567  32.415  1.00  0.00    -0.237 OA
ATOM    101  O   UNL A   1      52.913  26.182  31.800  1.00  0.00    -0.744 OA
ENDBRANCH  97  98
ENDBRANCH  65  90
ENDBRANCH  39  40
ENDBRANCH  32  34
ENDBRANCH  31  32
ENDBRANCH  30  31
ENDBRANCH   1  30
TORSDOF 19
ENDMDL
