MODEL 1
REMARK VINA RESULT:     -11.3      0.000      0.000
REMARK SMILES C[C@@H](Sc1nc2ccccc2c(=O)n1N)C(=O)OCCOC(=O)c1ccc(-c2c3nc(c(-c4c(F)cc(S(=O)(=O)[O-])cc4F)c4ccc([nH]4)c(-c4c(F)cc(S(=O)(=O)[O-])cc4F)c4nc(c(-c5c(F)cc(S(=O)(=O)[O-])cc5F)c5ccc2[nH]5)C=C4)C=C3)cc1
REMARK SMILES IDX 19 1 18 2 16 3 17 4 2 5 1 6 3 7 4 8 5 9 14 10 6 11 12 12
REMARK SMILES IDX 7 13 11 14 13 15 8 16 10 17 9 18 15 19 20 22 21 23 22 24
REMARK SMILES IDX 23 25 24 26 25 27 89 28 26 29 88 30 27 31 28 32 29 33 82 34
REMARK SMILES IDX 30 35 87 36 81 37 83 38 31 39 86 40 80 41 79 42 32 44 66 45
REMARK SMILES IDX 45 46 65 47 46 48 49 49 64 50 84 51 47 52 48 53 63 55 85 56
REMARK SMILES IDX 50 57 33 58 34 59 43 60 35 61 36 62 42 63 44 64 37 65 38 66
REMARK SMILES IDX 39 67 40 68 41 69 67 70 68 71 77 72 69 73 70 74 76 75 78 76
REMARK SMILES IDX 71 77 72 78 73 79 74 80 75 81 51 82 52 83 61 84 53 85 54 86
REMARK SMILES IDX 60 87 62 88 55 89 56 90 57 91 58 92 59 93
REMARK H PARENT 15 20 15 21 83 43 49 54
REMARK Flexibility Score: inf
ROOT
ATOM      1  C   UNL A   1      37.278  22.658  25.397  1.00  0.00     0.274 C 
ENDROOT
BRANCH   1   2
ATOM      2  O   UNL A   1      36.246  23.352  26.123  1.00  0.00    -0.461 OA
BRANCH   2   3
ATOM      3  C   UNL A   1      35.072  22.682  26.282  1.00  0.00     0.319 C 
ATOM      4  O   UNL A   1      34.454  22.627  27.341  1.00  0.00    -0.251 OA
BRANCH   3   5
ATOM      5  C   UNL A   1      34.589  22.003  25.003  1.00  0.00     0.161 C 
ATOM      6  C   UNL A   1      34.824  20.500  24.948  1.00  0.00     0.032 C 
BRANCH   5   7
ATOM      7  S   UNL A   1      32.827  22.433  24.790  1.00  0.00    -0.071 SA
BRANCH   7   8
ATOM      8  C   UNL A   1      32.965  24.002  24.034  1.00  0.00     0.191 A 
ATOM      9  N   UNL A   1      33.074  25.016  24.832  1.00  0.00    -0.222 NA
ATOM     10  N   UNL A   1      33.021  24.099  22.645  1.00  0.00    -0.202 N 
ATOM     11  C   UNL A   1      33.275  26.282  24.271  1.00  0.00     0.079 A 
ATOM     12  C   UNL A   1      33.211  25.327  22.008  1.00  0.00     0.280 A 
ATOM     13  C   UNL A   1      33.430  27.373  25.129  1.00  0.00     0.029 A 
ATOM     14  C   UNL A   1      33.359  26.495  22.895  1.00  0.00     0.068 A 
ATOM     15  O   UNL A   1      33.272  25.458  20.786  1.00  0.00    -0.267 OA
ATOM     16  C   UNL A   1      33.674  28.651  24.621  1.00  0.00     0.002 A 
ATOM     17  C   UNL A   1      33.599  27.772  22.374  1.00  0.00     0.016 A 
ATOM     18  C   UNL A   1      33.759  28.850  23.243  1.00  0.00     0.001 A 
BRANCH  10  19
ATOM     19  N   UNL A   1      32.884  22.953  21.793  1.00  0.00    -0.334 N 
ATOM     20  H   UNL A   1      33.573  22.250  21.800  1.00  0.00     0.178 HD
ATOM     21  H   UNL A   1      32.101  22.870  21.202  1.00  0.00     0.178 HD
ENDBRANCH  10  19
ENDBRANCH   7   8
ENDBRANCH   5   7
ENDBRANCH   3   5
ENDBRANCH   2   3
ENDBRANCH   1   2
BRANCH   1  22
ATOM     22  C   UNL A   1      38.623  22.719  26.126  1.00  0.00     0.275 C 
BRANCH  22  23
ATOM     23  O   UNL A   1      38.906  24.030  26.646  1.00  0.00    -0.458 OA
BRANCH  23  24
ATOM     24  C   UNL A   1      40.211  24.282  26.910  1.00  0.00     0.338 C 
ATOM     25  O   UNL A   1      41.182  23.777  26.376  1.00  0.00    -0.246 OA
BRANCH  24  26
ATOM     26  C   UNL A   1      40.310  25.383  27.878  1.00  0.00     0.060 A 
ATOM     27  C   UNL A   1      39.248  25.584  28.763  1.00  0.00     0.016 A 
ATOM     28  C   UNL A   1      41.408  26.244  27.877  1.00  0.00     0.016 A 
ATOM     29  C   UNL A   1      39.279  26.644  29.663  1.00  0.00     0.010 A 
ATOM     30  C   UNL A   1      41.443  27.303  28.790  1.00  0.00     0.010 A 
ATOM     31  C   UNL A   1      40.381  27.506  29.690  1.00  0.00    -0.014 A 
BRANCH  31  32
ATOM     32  C   UNL A   1      40.441  28.603  30.684  1.00  0.00     0.031 A 
ATOM     33  C   UNL A   1      41.356  28.497  31.867  1.00  0.00     0.074 A 
ATOM     34  C   UNL A   1      39.642  29.675  30.525  1.00  0.00     0.049 A 
ATOM     35  N   UNL A   1      41.434  29.271  32.917  1.00  0.00    -0.248 NA
ATOM     36  C   UNL A   1      42.305  27.373  31.874  1.00  0.00     0.031 C 
ATOM     37  C   UNL A   1      38.736  29.892  29.394  1.00  0.00     0.029 A 
ATOM     38  N   UNL A   1      39.441  30.768  31.329  1.00  0.00    -0.354 N 
ATOM     39  C   UNL A   1      42.414  28.714  33.727  1.00  0.00     0.074 A 
ATOM     40  C   UNL A   1      42.910  27.537  33.046  1.00  0.00     0.031 C 
ATOM     41  C   UNL A   1      38.056  31.033  29.591  1.00  0.00     0.029 A 
ATOM     42  C   UNL A   1      38.438  31.596  30.881  1.00  0.00     0.049 A 
ATOM     43  H   UNL A   1      39.962  30.943  32.146  1.00  0.00     0.167 HD
ATOM     44  C   UNL A   1      42.851  29.148  34.932  1.00  0.00     0.037 A 
ATOM     45  C   UNL A   1      37.854  32.657  31.472  1.00  0.00     0.037 A 
ATOM     46  C   UNL A   1      42.370  30.340  35.583  1.00  0.00     0.049 A 
ATOM     47  C   UNL A   1      38.323  33.085  32.835  1.00  0.00     0.074 A 
ATOM     48  C   UNL A   1      42.800  30.903  36.772  1.00  0.00     0.029 A 
ATOM     49  N   UNL A   1      41.348  31.145  35.105  1.00  0.00    -0.354 N 
ATOM     50  N   UNL A   1      39.275  32.569  33.577  1.00  0.00    -0.248 NA
ATOM     51  C   UNL A   1      37.634  34.229  33.448  1.00  0.00     0.031 C 
ATOM     52  C   UNL A   1      42.005  32.022  37.038  1.00  0.00     0.029 A 
ATOM     53  C   UNL A   1      41.106  32.179  35.994  1.00  0.00     0.049 A 
ATOM     54  H   UNL A   1      40.864  31.003  34.259  1.00  0.00     0.167 HD
ATOM     55  C   UNL A   1      39.300  33.327  34.741  1.00  0.00     0.074 A 
ATOM     56  C   UNL A   1      38.284  34.350  34.598  1.00  0.00     0.031 C 
ATOM     57  C   UNL A   1      40.088  33.185  35.834  1.00  0.00     0.037 A 
BRANCH  44  58
ATOM     58  C   UNL A   1      43.881  28.328  35.651  1.00  0.00     0.058 A 
ATOM     59  C   UNL A   1      45.256  28.545  35.477  1.00  0.00     0.135 A 
ATOM     60  C   UNL A   1      43.482  27.369  36.596  1.00  0.00     0.135 A 
ATOM     61  F   UNL A   1      45.690  29.439  34.574  1.00  0.00    -0.206 F 
ATOM     62  C   UNL A   1      46.201  27.839  36.215  1.00  0.00     0.059 A 
ATOM     63  C   UNL A   1      44.409  26.663  37.358  1.00  0.00     0.059 A 
ATOM     64  F   UNL A   1      42.178  27.121  36.796  1.00  0.00    -0.206 F 
ATOM     65  C   UNL A   1      45.767  26.903  37.158  1.00  0.00     0.060 A 
BRANCH  65  66
ATOM     66  S   UNL A   1      47.004  26.027  38.140  1.00  0.00     0.124 S 
ATOM     67  O   UNL A   1      47.312  24.892  37.276  1.00  0.00    -0.237 OA
ATOM     68  O   UNL A   1      48.059  27.025  38.277  1.00  0.00    -0.237 OA
ATOM     69  O   UNL A   1      46.291  25.702  39.371  1.00  0.00    -0.744 OA
ENDBRANCH  65  66
ENDBRANCH  44  58
BRANCH  45  70
ATOM     70  C   UNL A   1      36.713  33.341  30.810  1.00  0.00     0.058 A 
ATOM     71  C   UNL A   1      36.911  34.207  29.726  1.00  0.00     0.135 A 
ATOM     72  C   UNL A   1      35.397  33.149  31.264  1.00  0.00     0.135 A 
ATOM     73  F   UNL A   1      38.151  34.430  29.264  1.00  0.00    -0.206 F 
ATOM     74  C   UNL A   1      35.849  34.877  29.126  1.00  0.00     0.059 A 
ATOM     75  C   UNL A   1      34.317  33.787  30.664  1.00  0.00     0.059 A 
ATOM     76  F   UNL A   1      35.154  32.321  32.291  1.00  0.00    -0.206 F 
ATOM     77  C   UNL A   1      34.554  34.662  29.605  1.00  0.00     0.060 A 
BRANCH  77  78
ATOM     78  S   UNL A   1      33.176  35.513  28.808  1.00  0.00     0.124 S 
ATOM     79  O   UNL A   1      33.874  36.506  28.000  1.00  0.00    -0.237 OA
ATOM     80  O   UNL A   1      32.528  34.432  28.071  1.00  0.00    -0.237 OA
ATOM     81  O   UNL A   1      32.412  36.037  29.936  1.00  0.00    -0.744 OA
ENDBRANCH  77  78
ENDBRANCH  45  70
BRANCH  57  82
ATOM     82  C   UNL A   1      39.891  34.161  36.957  1.00  0.00     0.058 A 
ATOM     83  C   UNL A   1      40.536  35.408  36.959  1.00  0.00     0.135 A 
ATOM     84  C   UNL A   1      39.005  33.875  38.007  1.00  0.00     0.135 A 
ATOM     85  F   UNL A   1      41.401  35.723  35.982  1.00  0.00    -0.206 F 
ATOM     86  C   UNL A   1      40.315  36.336  37.970  1.00  0.00     0.059 A 
ATOM     87  C   UNL A   1      38.752  34.797  39.017  1.00  0.00     0.059 A 
ATOM     88  F   UNL A   1      38.359  32.699  38.046  1.00  0.00    -0.206 F 
ATOM     89  C   UNL A   1      39.418  36.023  38.993  1.00  0.00     0.060 A 
BRANCH  89  90
ATOM     90  S   UNL A   1      39.099  37.256  40.274  1.00  0.00     0.124 S 
ATOM     91  O   UNL A   1      38.546  36.431  41.344  1.00  0.00    -0.237 OA
ATOM     92  O   UNL A   1      40.428  37.806  40.520  1.00  0.00    -0.237 OA
ATOM     93  O   UNL A   1      38.157  38.171  39.636  1.00  0.00    -0.744 OA
ENDBRANCH  89  90
ENDBRANCH  57  82
ENDBRANCH  31  32
ENDBRANCH  24  26
ENDBRANCH  23  24
ENDBRANCH  22  23
ENDBRANCH   1  22
TORSDOF 17
ENDMDL
MODEL 2
REMARK VINA RESULT:     -11.2      6.678     13.138
REMARK SMILES C[C@@H](Sc1nc2ccccc2c(=O)n1N)C(=O)OCCOC(=O)c1ccc(-c2c3nc(c(-c4c(F)cc(S(=O)(=O)[O-])cc4F)c4ccc([nH]4)c(-c4c(F)cc(S(=O)(=O)[O-])cc4F)c4nc(c(-c5c(F)cc(S(=O)(=O)[O-])cc5F)c5ccc2[nH]5)C=C4)C=C3)cc1
REMARK SMILES IDX 19 1 18 2 16 3 17 4 2 5 1 6 3 7 4 8 5 9 14 10 6 11 12 12
REMARK SMILES IDX 7 13 11 14 13 15 8 16 10 17 9 18 15 19 20 22 21 23 22 24
REMARK SMILES IDX 23 25 24 26 25 27 89 28 26 29 88 30 27 31 28 32 29 33 82 34
REMARK SMILES IDX 30 35 87 36 81 37 83 38 31 39 86 40 80 41 79 42 32 44 66 45
REMARK SMILES IDX 45 46 65 47 46 48 49 49 64 50 84 51 47 52 48 53 63 55 85 56
REMARK SMILES IDX 50 57 33 58 34 59 43 60 35 61 36 62 42 63 44 64 37 65 38 66
REMARK SMILES IDX 39 67 40 68 41 69 67 70 68 71 77 72 69 73 70 74 76 75 78 76
REMARK SMILES IDX 71 77 72 78 73 79 74 80 75 81 51 82 52 83 61 84 53 85 54 86
REMARK SMILES IDX 60 87 62 88 55 89 56 90 57 91 58 92 59 93
REMARK H PARENT 15 20 15 21 83 43 49 54
REMARK Flexibility Score: inf
ROOT
ATOM      1  C   UNL A   1      33.747  31.577  27.744  1.00  0.00     0.274 C 
ENDROOT
BRANCH   1   2
ATOM      2  O   UNL A   1      33.693  32.534  28.818  1.00  0.00    -0.461 OA
BRANCH   2   3
ATOM      3  C   UNL A   1      33.287  33.789  28.482  1.00  0.00     0.319 C 
ATOM      4  O   UNL A   1      32.341  34.025  27.735  1.00  0.00    -0.251 OA
BRANCH   3   5
ATOM      5  C   UNL A   1      34.123  34.886  29.134  1.00  0.00     0.161 C 
ATOM      6  C   UNL A   1      33.935  36.275  28.538  1.00  0.00     0.032 C 
BRANCH   5   7
ATOM      7  S   UNL A   1      33.766  34.853  30.925  1.00  0.00    -0.071 SA
BRANCH   7   8
ATOM      8  C   UNL A   1      35.217  34.090  31.531  1.00  0.00     0.191 A 
ATOM      9  N   UNL A   1      36.243  34.102  30.742  1.00  0.00    -0.222 NA
ATOM     10  N   UNL A   1      35.240  33.573  32.824  1.00  0.00    -0.202 N 
ATOM     11  C   UNL A   1      37.451  33.580  31.218  1.00  0.00     0.079 A 
ATOM     12  C   UNL A   1      36.404  33.028  33.370  1.00  0.00     0.280 A 
ATOM     13  C   UNL A   1      38.570  33.625  30.384  1.00  0.00     0.029 A 
ATOM     14  C   UNL A   1      37.593  33.049  32.500  1.00  0.00     0.068 A 
ATOM     15  O   UNL A   1      36.470  32.566  34.508  1.00  0.00    -0.267 OA
ATOM     16  C   UNL A   1      39.809  33.155  30.826  1.00  0.00     0.002 A 
ATOM     17  C   UNL A   1      38.827  32.571  32.953  1.00  0.00     0.016 A 
ATOM     18  C   UNL A   1      39.938  32.629  32.111  1.00  0.00     0.001 A 
BRANCH  10  19
ATOM     19  N   UNL A   1      34.077  33.567  33.665  1.00  0.00    -0.334 N 
ATOM     20  H   UNL A   1      33.333  34.184  33.480  1.00  0.00     0.178 HD
ATOM     21  H   UNL A   1      34.023  32.945  34.425  1.00  0.00     0.178 HD
ENDBRANCH  10  19
ENDBRANCH   7   8
ENDBRANCH   5   7
ENDBRANCH   3   5
ENDBRANCH   2   3
ENDBRANCH   1   2
BRANCH   1  22
ATOM     22  C   UNL A   1      35.105  30.872  27.680  1.00  0.00     0.275 C 
BRANCH  22  23
ATOM     23  O   UNL A   1      36.033  31.381  28.654  1.00  0.00    -0.458 OA
BRANCH  23  24
ATOM     24  C   UNL A   1      36.344  30.530  29.662  1.00  0.00     0.338 C 
ATOM     25  O   UNL A   1      35.590  30.082  30.507  1.00  0.00    -0.246 OA
BRANCH  24  26
ATOM     26  C   UNL A   1      37.741  30.096  29.522  1.00  0.00     0.060 A 
ATOM     27  C   UNL A   1      38.299  30.066  28.242  1.00  0.00     0.016 A 
ATOM     28  C   UNL A   1      38.475  29.668  30.628  1.00  0.00     0.016 A 
ATOM     29  C   UNL A   1      39.603  29.616  28.058  1.00  0.00     0.010 A 
ATOM     30  C   UNL A   1      39.789  29.227  30.444  1.00  0.00     0.010 A 
ATOM     31  C   UNL A   1      40.361  29.202  29.158  1.00  0.00    -0.014 A 
BRANCH  31  32
ATOM     32  C   UNL A   1      41.767  28.775  28.973  1.00  0.00     0.031 A 
ATOM     33  C   UNL A   1      42.876  29.780  29.052  1.00  0.00     0.074 A 
ATOM     34  C   UNL A   1      42.027  27.482  28.701  1.00  0.00     0.049 A 
ATOM     35  N   UNL A   1      44.142  29.630  28.764  1.00  0.00    -0.248 NA
ATOM     36  C   UNL A   1      42.517  31.131  29.512  1.00  0.00     0.031 C 
ATOM     37  C   UNL A   1      41.024  26.416  28.631  1.00  0.00     0.029 A 
ATOM     38  N   UNL A   1      43.208  26.850  28.404  1.00  0.00    -0.354 N 
ATOM     39  C   UNL A   1      44.728  30.872  28.974  1.00  0.00     0.074 A 
ATOM     40  C   UNL A   1      43.680  31.765  29.420  1.00  0.00     0.031 C 
ATOM     41  C   UNL A   1      41.629  25.268  28.284  1.00  0.00     0.029 A 
ATOM     42  C   UNL A   1      43.047  25.529  28.057  1.00  0.00     0.049 A 
ATOM     43  H   UNL A   1      44.084  27.297  28.437  1.00  0.00     0.167 HD
ATOM     44  C   UNL A   1      46.023  31.227  28.802  1.00  0.00     0.037 A 
ATOM     45  C   UNL A   1      43.931  24.644  27.558  1.00  0.00     0.037 A 
ATOM     46  C   UNL A   1      47.060  30.317  28.389  1.00  0.00     0.049 A 
ATOM     47  C   UNL A   1      45.351  25.081  27.326  1.00  0.00     0.074 A 
ATOM     48  C   UNL A   1      48.415  30.564  28.254  1.00  0.00     0.029 A 
ATOM     49  N   UNL A   1      46.856  28.992  28.035  1.00  0.00    -0.354 N 
ATOM     50  N   UNL A   1      45.900  26.250  27.559  1.00  0.00    -0.248 NA
ATOM     51  C   UNL A   1      46.269  24.088  26.751  1.00  0.00     0.031 C 
ATOM     52  C   UNL A   1      49.025  29.401  27.773  1.00  0.00     0.029 A 
ATOM     53  C   UNL A   1      48.055  28.418  27.645  1.00  0.00     0.049 A 
ATOM     54  H   UNL A   1      45.989  28.528  28.057  1.00  0.00     0.167 HD
ATOM     55  C   UNL A   1      47.227  26.130  27.164  1.00  0.00     0.074 A 
ATOM     56  C   UNL A   1      47.405  24.770  26.697  1.00  0.00     0.031 C 
ATOM     57  C   UNL A   1      48.209  27.064  27.180  1.00  0.00     0.037 A 
BRANCH  44  58
ATOM     58  C   UNL A   1      46.401  32.660  29.030  1.00  0.00     0.058 A 
ATOM     59  C   UNL A   1      46.340  33.615  28.004  1.00  0.00     0.135 A 
ATOM     60  C   UNL A   1      46.746  33.101  30.318  1.00  0.00     0.135 A 
ATOM     61  F   UNL A   1      46.031  33.243  26.752  1.00  0.00    -0.206 F 
ATOM     62  C   UNL A   1      46.608  34.959  28.248  1.00  0.00     0.059 A 
ATOM     63  C   UNL A   1      47.001  34.442  30.589  1.00  0.00     0.059 A 
ATOM     64  F   UNL A   1      46.823  32.225  31.332  1.00  0.00    -0.206 F 
ATOM     65  C   UNL A   1      46.932  35.364  29.545  1.00  0.00     0.060 A 
BRANCH  65  66
ATOM     66  S   UNL A   1      47.232  37.118  29.855  1.00  0.00     0.124 S 
ATOM     67  O   UNL A   1      46.195  37.740  29.037  1.00  0.00    -0.237 OA
ATOM     68  O   UNL A   1      47.045  37.217  31.298  1.00  0.00    -0.237 OA
ATOM     69  O   UNL A   1      48.601  37.315  29.390  1.00  0.00    -0.744 OA
ENDBRANCH  65  66
ENDBRANCH  44  58
BRANCH  45  70
ATOM     70  C   UNL A   1      43.483  23.280  27.173  1.00  0.00     0.058 A 
ATOM     71  C   UNL A   1      43.265  22.286  28.137  1.00  0.00     0.135 A 
ATOM     72  C   UNL A   1      43.276  22.943  25.825  1.00  0.00     0.135 A 
ATOM     73  F   UNL A   1      43.459  22.558  29.437  1.00  0.00    -0.206 F 
ATOM     74  C   UNL A   1      42.879  20.998  27.779  1.00  0.00     0.059 A 
ATOM     75  C   UNL A   1      42.865  21.670  25.445  1.00  0.00     0.059 A 
ATOM     76  F   UNL A   1      43.459  23.863  24.866  1.00  0.00    -0.206 F 
ATOM     77  C   UNL A   1      42.684  20.699  26.428  1.00  0.00     0.060 A 
BRANCH  77  78
ATOM     78  S   UNL A   1      42.158  19.034  25.969  1.00  0.00     0.124 S 
ATOM     79  O   UNL A   1      40.718  19.212  25.826  1.00  0.00    -0.237 OA
ATOM     80  O   UNL A   1      42.899  18.804  24.733  1.00  0.00    -0.237 OA
ATOM     81  O   UNL A   1      42.585  18.225  27.107  1.00  0.00    -0.744 OA
ENDBRANCH  77  78
ENDBRANCH  45  70
BRANCH  57  82
ATOM     82  C   UNL A   1      49.564  26.647  26.687  1.00  0.00     0.058 A 
ATOM     83  C   UNL A   1      50.479  26.000  27.532  1.00  0.00     0.135 A 
ATOM     84  C   UNL A   1      49.928  26.839  25.345  1.00  0.00     0.135 A 
ATOM     85  F   UNL A   1      50.181  25.804  28.826  1.00  0.00    -0.206 F 
ATOM     86  C   UNL A   1      51.714  25.566  27.065  1.00  0.00     0.059 A 
ATOM     87  C   UNL A   1      51.148  26.393  24.851  1.00  0.00     0.059 A 
ATOM     88  F   UNL A   1      49.083  27.446  24.496  1.00  0.00    -0.206 F 
ATOM     89  C   UNL A   1      52.038  25.763  25.721  1.00  0.00     0.060 A 
BRANCH  89  90
ATOM     90  S   UNL A   1      53.624  25.148  25.112  1.00  0.00     0.124 S 
ATOM     91  O   UNL A   1      53.451  23.706  25.249  1.00  0.00    -0.237 OA
ATOM     92  O   UNL A   1      53.654  25.656  23.745  1.00  0.00    -0.237 OA
ATOM     93  O   UNL A   1      54.593  25.753  26.020  1.00  0.00    -0.744 OA
ENDBRANCH  89  90
ENDBRANCH  57  82
ENDBRANCH  31  32
ENDBRANCH  24  26
ENDBRANCH  23  24
ENDBRANCH  22  23
ENDBRANCH   1  22
TORSDOF 17
ENDMDL
MODEL 3
REMARK VINA RESULT:     -11.2      6.770     12.071
REMARK SMILES C[C@@H](Sc1nc2ccccc2c(=O)n1N)C(=O)OCCOC(=O)c1ccc(-c2c3nc(c(-c4c(F)cc(S(=O)(=O)[O-])cc4F)c4ccc([nH]4)c(-c4c(F)cc(S(=O)(=O)[O-])cc4F)c4nc(c(-c5c(F)cc(S(=O)(=O)[O-])cc5F)c5ccc2[nH]5)C=C4)C=C3)cc1
REMARK SMILES IDX 19 1 18 2 16 3 17 4 2 5 1 6 3 7 4 8 5 9 14 10 6 11 12 12
REMARK SMILES IDX 7 13 11 14 13 15 8 16 10 17 9 18 15 19 20 22 21 23 22 24
REMARK SMILES IDX 23 25 24 26 25 27 89 28 26 29 88 30 27 31 28 32 29 33 82 34
REMARK SMILES IDX 30 35 87 36 81 37 83 38 31 39 86 40 80 41 79 42 32 44 66 45
REMARK SMILES IDX 45 46 65 47 46 48 49 49 64 50 84 51 47 52 48 53 63 55 85 56
REMARK SMILES IDX 50 57 33 58 34 59 43 60 35 61 36 62 42 63 44 64 37 65 38 66
REMARK SMILES IDX 39 67 40 68 41 69 67 70 68 71 77 72 69 73 70 74 76 75 78 76
REMARK SMILES IDX 71 77 72 78 73 79 74 80 75 81 51 82 52 83 61 84 53 85 54 86
REMARK SMILES IDX 60 87 62 88 55 89 56 90 57 91 58 92 59 93
REMARK H PARENT 15 20 15 21 83 43 49 54
REMARK Flexibility Score: inf
ROOT
ATOM      1  C   UNL A   1      33.067  29.661  27.161  1.00  0.00     0.274 C 
ENDROOT
BRANCH   1   2
ATOM      2  O   UNL A   1      33.426  28.550  26.318  1.00  0.00    -0.461 OA
BRANCH   2   3
ATOM      3  C   UNL A   1      33.033  28.635  25.017  1.00  0.00     0.319 C 
ATOM      4  O   UNL A   1      33.791  28.902  24.089  1.00  0.00    -0.251 OA
BRANCH   3   5
ATOM      5  C   UNL A   1      31.545  28.357  24.820  1.00  0.00     0.161 C 
ATOM      6  C   UNL A   1      30.726  29.553  24.352  1.00  0.00     0.032 C 
BRANCH   5   7
ATOM      7  S   UNL A   1      31.401  26.936  23.681  1.00  0.00    -0.071 SA
BRANCH   7   8
ATOM      8  C   UNL A   1      31.744  25.613  24.769  1.00  0.00     0.191 A 
ATOM      9  N   UNL A   1      32.976  25.218  24.821  1.00  0.00    -0.222 NA
ATOM     10  N   UNL A   1      30.728  25.090  25.565  1.00  0.00    -0.202 N 
ATOM     11  C   UNL A   1      33.312  24.219  25.742  1.00  0.00     0.079 A 
ATOM     12  C   UNL A   1      30.981  24.087  26.503  1.00  0.00     0.280 A 
ATOM     13  C   UNL A   1      34.647  23.817  25.829  1.00  0.00     0.029 A 
ATOM     14  C   UNL A   1      32.379  23.634  26.599  1.00  0.00     0.068 A 
ATOM     15  O   UNL A   1      30.115  23.602  27.231  1.00  0.00    -0.267 OA
ATOM     16  C   UNL A   1      35.042  22.853  26.760  1.00  0.00     0.002 A 
ATOM     17  C   UNL A   1      32.763  22.665  27.533  1.00  0.00     0.016 A 
ATOM     18  C   UNL A   1      34.100  22.278  27.613  1.00  0.00     0.001 A 
BRANCH  10  19
ATOM     19  N   UNL A   1      29.371  25.547  25.469  1.00  0.00    -0.334 N 
ATOM     20  H   UNL A   1      28.724  25.054  24.914  1.00  0.00     0.178 HD
ATOM     21  H   UNL A   1      29.087  26.352  25.958  1.00  0.00     0.178 HD
ENDBRANCH  10  19
ENDBRANCH   7   8
ENDBRANCH   5   7
ENDBRANCH   3   5
ENDBRANCH   2   3
ENDBRANCH   1   2
BRANCH   1  22
ATOM     22  C   UNL A   1      34.284  30.521  27.513  1.00  0.00     0.275 C 
BRANCH  22  23
ATOM     23  O   UNL A   1      35.327  29.762  28.150  1.00  0.00    -0.458 OA
BRANCH  23  24
ATOM     24  C   UNL A   1      36.102  30.453  29.020  1.00  0.00     0.338 C 
ATOM     25  O   UNL A   1      35.730  31.237  29.876  1.00  0.00    -0.246 OA
BRANCH  24  26
ATOM     26  C   UNL A   1      37.500  30.024  28.879  1.00  0.00     0.060 A 
ATOM     27  C   UNL A   1      38.295  29.974  30.027  1.00  0.00     0.016 A 
ATOM     28  C   UNL A   1      38.039  29.729  27.627  1.00  0.00     0.016 A 
ATOM     29  C   UNL A   1      39.637  29.619  29.933  1.00  0.00     0.010 A 
ATOM     30  C   UNL A   1      39.386  29.362  27.536  1.00  0.00     0.010 A 
ATOM     31  C   UNL A   1      40.190  29.301  28.689  1.00  0.00    -0.014 A 
BRANCH  31  32
ATOM     32  C   UNL A   1      41.604  28.870  28.593  1.00  0.00     0.031 A 
ATOM     33  C   UNL A   1      42.707  29.882  28.686  1.00  0.00     0.074 A 
ATOM     34  C   UNL A   1      41.879  27.568  28.389  1.00  0.00     0.049 A 
ATOM     35  N   UNL A   1      43.986  29.724  28.470  1.00  0.00    -0.248 NA
ATOM     36  C   UNL A   1      42.324  31.249  29.070  1.00  0.00     0.031 C 
ATOM     37  C   UNL A   1      40.882  26.497  28.313  1.00  0.00     0.029 A 
ATOM     38  N   UNL A   1      43.074  26.928  28.180  1.00  0.00    -0.354 N 
ATOM     39  C   UNL A   1      44.559  30.974  28.657  1.00  0.00     0.074 A 
ATOM     40  C   UNL A   1      43.489  31.883  29.011  1.00  0.00     0.031 C 
ATOM     41  C   UNL A   1      41.505  25.338  28.046  1.00  0.00     0.029 A 
ATOM     42  C   UNL A   1      42.932  25.593  27.881  1.00  0.00     0.049 A 
ATOM     43  H   UNL A   1      43.947  27.379  28.238  1.00  0.00     0.167 HD
ATOM     44  C   UNL A   1      45.861  31.326  28.536  1.00  0.00     0.037 A 
ATOM     45  C   UNL A   1      43.841  24.690  27.464  1.00  0.00     0.037 A 
ATOM     46  C   UNL A   1      46.918  30.403  28.215  1.00  0.00     0.049 A 
ATOM     47  C   UNL A   1      45.271  25.122  27.287  1.00  0.00     0.074 A 
ATOM     48  C   UNL A   1      48.279  30.648  28.139  1.00  0.00     0.029 A 
ATOM     49  N   UNL A   1      46.735  29.064  27.907  1.00  0.00    -0.354 N 
ATOM     50  N   UNL A   1      45.807  26.301  27.499  1.00  0.00    -0.248 NA
ATOM     51  C   UNL A   1      46.218  24.108  26.802  1.00  0.00     0.031 C 
ATOM     52  C   UNL A   1      48.913  29.467  27.739  1.00  0.00     0.029 A 
ATOM     53  C   UNL A   1      47.952  28.478  27.603  1.00  0.00     0.049 A 
ATOM     54  H   UNL A   1      45.867  28.598  27.904  1.00  0.00     0.167 HD
ATOM     55  C   UNL A   1      47.151  26.169  27.177  1.00  0.00     0.074 A 
ATOM     56  C   UNL A   1      47.355  24.791  26.777  1.00  0.00     0.031 C 
ATOM     57  C   UNL A   1      48.131  27.106  27.204  1.00  0.00     0.037 A 
BRANCH  44  58
ATOM     58  C   UNL A   1      46.226  32.769  28.722  1.00  0.00     0.058 A 
ATOM     59  C   UNL A   1      46.614  33.281  29.970  1.00  0.00     0.135 A 
ATOM     60  C   UNL A   1      46.273  33.631  27.615  1.00  0.00     0.135 A 
ATOM     61  F   UNL A   1      46.571  32.502  31.062  1.00  0.00    -0.206 F 
ATOM     62  C   UNL A   1      47.036  34.599  30.113  1.00  0.00     0.059 A 
ATOM     63  C   UNL A   1      46.708  34.948  27.731  1.00  0.00     0.059 A 
ATOM     64  F   UNL A   1      45.907  33.191  26.401  1.00  0.00    -0.206 F 
ATOM     65  C   UNL A   1      47.085  35.424  28.986  1.00  0.00     0.060 A 
BRANCH  65  66
ATOM     66  S   UNL A   1      47.678  37.119  29.180  1.00  0.00     0.124 S 
ATOM     67  O   UNL A   1      47.716  37.574  27.793  1.00  0.00    -0.237 OA
ATOM     68  O   UNL A   1      46.644  37.719  30.015  1.00  0.00    -0.237 OA
ATOM     69  O   UNL A   1      48.978  36.953  29.820  1.00  0.00    -0.744 OA
ENDBRANCH  65  66
ENDBRANCH  44  58
BRANCH  45  70
ATOM     70  C   UNL A   1      43.414  23.310  27.115  1.00  0.00     0.058 A 
ATOM     71  C   UNL A   1      43.234  22.919  25.782  1.00  0.00     0.135 A 
ATOM     72  C   UNL A   1      43.166  22.358  28.117  1.00  0.00     0.135 A 
ATOM     73  F   UNL A   1      43.450  23.797  24.790  1.00  0.00    -0.206 F 
ATOM     74  C   UNL A   1      42.801  21.638  25.452  1.00  0.00     0.059 A 
ATOM     75  C   UNL A   1      42.757  21.065  27.812  1.00  0.00     0.059 A 
ATOM     76  F   UNL A   1      43.336  22.680  29.409  1.00  0.00    -0.206 F 
ATOM     77  C   UNL A   1      42.562  20.718  26.476  1.00  0.00     0.060 A 
BRANCH  77  78
ATOM     78  S   UNL A   1      42.025  19.050  26.043  1.00  0.00     0.124 S 
ATOM     79  O   UNL A   1      42.414  18.300  27.231  1.00  0.00    -0.237 OA
ATOM     80  O   UNL A   1      40.590  19.228  25.842  1.00  0.00    -0.237 OA
ATOM     81  O   UNL A   1      42.788  18.759  24.832  1.00  0.00    -0.744 OA
ENDBRANCH  77  78
ENDBRANCH  45  70
BRANCH  57  82
ATOM     82  C   UNL A   1      49.510  26.673  26.798  1.00  0.00     0.058 A 
ATOM     83  C   UNL A   1      50.449  26.247  27.751  1.00  0.00     0.135 A 
ATOM     84  C   UNL A   1      49.875  26.624  25.444  1.00  0.00     0.135 A 
ATOM     85  F   UNL A   1      50.150  26.287  29.059  1.00  0.00    -0.206 F 
ATOM     86  C   UNL A   1      51.708  25.796  27.374  1.00  0.00     0.059 A 
ATOM     87  C   UNL A   1      51.121  26.154  25.043  1.00  0.00     0.059 A 
ATOM     88  F   UNL A   1      49.009  27.013  24.495  1.00  0.00    -0.206 F 
ATOM     89  C   UNL A   1      52.034  25.749  26.017  1.00  0.00     0.060 A 
BRANCH  89  90
ATOM     90  S   UNL A   1      53.654  25.112  25.535  1.00  0.00     0.124 S 
ATOM     91  O   UNL A   1      54.449  25.404  26.724  1.00  0.00    -0.237 OA
ATOM     92  O   UNL A   1      53.376  23.701  25.289  1.00  0.00    -0.237 OA
ATOM     93  O   UNL A   1      53.987  25.894  24.349  1.00  0.00    -0.744 OA
ENDBRANCH  89  90
ENDBRANCH  57  82
ENDBRANCH  31  32
ENDBRANCH  24  26
ENDBRANCH  23  24
ENDBRANCH  22  23
ENDBRANCH   1  22
TORSDOF 17
ENDMDL
