MODEL 1
REMARK VINA RESULT:     -10.4      0.000      0.000
REMARK SMILES CC(C)(C)c1n[nH]c2c1CC[C@@H](C(=O)OCCOC(=O)c1ccc(-c3c4nc(c(-c5c(F)cc(S(=O)(=O)[O-])cc5F)c5ccc([nH]5)c(-c5c(F)cc(S(=O)(=O)[O-])cc5F)c5nc(c(-c6c(F)cc(S(=O)(=O)[O-])cc6F)c6ccc3[nH]6)C=C5)C=C4)cc1)C2
REMARK SMILES IDX 17 1 16 2 15 3 13 4 14 5 12 6 5 7 6 8 9 9 7 10 8 11 10 12
REMARK SMILES IDX 87 14 11 15 2 16 1 17 3 18 4 19 18 20 19 21 20 22 21 23
REMARK SMILES IDX 22 24 86 25 23 26 85 27 24 28 25 29 26 30 79 31 27 32 84 33
REMARK SMILES IDX 78 34 80 35 28 36 83 37 77 38 76 39 29 41 63 42 42 43 62 44
REMARK SMILES IDX 43 45 46 46 61 47 81 48 44 49 45 50 60 52 82 53 47 54 30 55
REMARK SMILES IDX 31 56 40 57 32 58 33 59 39 60 41 61 34 62 35 63 36 64 37 65
REMARK SMILES IDX 38 66 64 67 65 68 74 69 66 70 67 71 73 72 75 73 68 74 69 75
REMARK SMILES IDX 70 76 71 77 72 78 48 79 49 80 58 81 50 82 51 83 57 84 59 85
REMARK SMILES IDX 52 86 53 87 54 88 55 89 56 90
REMARK H PARENT 7 13 80 40 46 51
REMARK Flexibility Score: inf
ROOT
ATOM      1  C   UNL A   1      34.243  33.066  28.662  1.00  0.00     0.275 C 
ENDROOT
BRANCH   1   2
ATOM      2  C   UNL A   1      34.183  34.196  29.687  1.00  0.00     0.274 C 
BRANCH   2   3
ATOM      3  O   UNL A   1      34.134  33.688  31.036  1.00  0.00    -0.462 OA
BRANCH   3   4
ATOM      4  C   UNL A   1      34.884  34.360  31.947  1.00  0.00     0.309 C 
ATOM      5  O   UNL A   1      34.630  35.483  32.369  1.00  0.00    -0.252 OA
BRANCH   4   6
ATOM      6  C   UNL A   1      36.080  33.571  32.429  1.00  0.00     0.105 C 
ATOM      7  C   UNL A   1      39.080  30.794  33.409  1.00  0.00     0.071 A 
ATOM      8  N   UNL A   1      38.313  29.750  33.773  1.00  0.00    -0.180 NA
ATOM      9  C   UNL A   1      38.286  31.810  32.805  1.00  0.00    -0.003 A 
ATOM     10  N   UNL A   1      37.062  30.100  33.448  1.00  0.00    -0.282 N 
ATOM     11  C   UNL A   1      36.995  31.341  32.904  1.00  0.00     0.040 A 
ATOM     12  C   UNL A   1      38.590  33.167  32.266  1.00  0.00     0.040 C 
ATOM     13  H   UNL A   1      36.279  29.521  33.589  1.00  0.00     0.190 HD
ATOM     14  C   UNL A   1      35.752  32.072  32.551  1.00  0.00     0.071 C 
ATOM     15  C   UNL A   1      37.352  33.797  31.587  1.00  0.00     0.020 C 
BRANCH   7  16
ATOM     16  C   UNL A   1      40.562  30.763  33.764  1.00  0.00     0.006 C 
ATOM     17  C   UNL A   1      41.262  32.115  33.543  1.00  0.00     0.017 C 
ATOM     18  C   UNL A   1      41.309  29.717  32.907  1.00  0.00     0.017 C 
ATOM     19  C   UNL A   1      40.714  30.380  35.253  1.00  0.00     0.017 C 
ENDBRANCH   7  16
ENDBRANCH   4   6
ENDBRANCH   3   4
ENDBRANCH   2   3
ENDBRANCH   1   2
BRANCH   1  20
ATOM     20  O   UNL A   1      34.679  31.848  29.287  1.00  0.00    -0.458 OA
BRANCH  20  21
ATOM     21  C   UNL A   1      34.716  30.766  28.478  1.00  0.00     0.338 C 
ATOM     22  O   UNL A   1      33.824  30.336  27.767  1.00  0.00    -0.246 OA
BRANCH  21  23
ATOM     23  C   UNL A   1      36.050  30.155  28.536  1.00  0.00     0.060 A 
ATOM     24  C   UNL A   1      36.541  29.707  29.760  1.00  0.00     0.016 A 
ATOM     25  C   UNL A   1      36.863  30.160  27.404  1.00  0.00     0.016 A 
ATOM     26  C   UNL A   1      37.882  29.357  29.886  1.00  0.00     0.010 A 
ATOM     27  C   UNL A   1      38.181  29.711  27.512  1.00  0.00     0.010 A 
ATOM     28  C   UNL A   1      38.715  29.343  28.761  1.00  0.00    -0.014 A 
BRANCH  28  29
ATOM     29  C   UNL A   1      40.151  28.970  28.874  1.00  0.00     0.031 A 
ATOM     30  C   UNL A   1      41.165  30.015  29.251  1.00  0.00     0.074 A 
ATOM     31  C   UNL A   1      40.553  27.714  28.603  1.00  0.00     0.049 A 
ATOM     32  N   UNL A   1      42.468  29.977  29.152  1.00  0.00    -0.248 NA
ATOM     33  C   UNL A   1      40.639  31.277  29.795  1.00  0.00     0.031 C 
ATOM     34  C   UNL A   1      39.674  26.594  28.269  1.00  0.00     0.029 A 
ATOM     35  N   UNL A   1      41.815  27.174  28.549  1.00  0.00    -0.354 N 
ATOM     36  C   UNL A   1      42.913  31.234  29.544  1.00  0.00     0.074 A 
ATOM     37  C   UNL A   1      41.741  32.004  29.906  1.00  0.00     0.031 C 
ATOM     38  C   UNL A   1      40.418  25.500  28.050  1.00  0.00     0.029 A 
ATOM     39  C   UNL A   1      41.828  25.861  28.143  1.00  0.00     0.049 A 
ATOM     40  H   UNL A   1      42.629  27.678  28.778  1.00  0.00     0.167 HD
ATOM     41  C   UNL A   1      44.183  31.704  29.581  1.00  0.00     0.037 A 
ATOM     42  C   UNL A   1      42.854  25.051  27.819  1.00  0.00     0.037 A 
ATOM     43  C   UNL A   1      45.344  30.909  29.279  1.00  0.00     0.049 A 
ATOM     44  C   UNL A   1      44.256  25.582  27.877  1.00  0.00     0.074 A 
ATOM     45  C   UNL A   1      46.677  31.280  29.319  1.00  0.00     0.029 A 
ATOM     46  N   UNL A   1      45.309  29.578  28.894  1.00  0.00    -0.354 N 
ATOM     47  N   UNL A   1      44.663  26.787  28.198  1.00  0.00    -0.248 NA
ATOM     48  C   UNL A   1      45.336  24.657  27.510  1.00  0.00     0.031 C 
ATOM     49  C   UNL A   1      47.447  30.176  28.935  1.00  0.00     0.029 A 
ATOM     50  C   UNL A   1      46.595  29.111  28.684  1.00  0.00     0.049 A 
ATOM     51  H   UNL A   1      44.490  29.042  28.786  1.00  0.00     0.167 HD
ATOM     52  C   UNL A   1      46.046  26.767  28.073  1.00  0.00     0.074 A 
ATOM     53  C   UNL A   1      46.408  25.425  27.660  1.00  0.00     0.031 C 
ATOM     54  C   UNL A   1      46.933  27.770  28.276  1.00  0.00     0.037 A 
BRANCH  41  55
ATOM     55  C   UNL A   1      44.369  33.158  29.909  1.00  0.00     0.058 A 
ATOM     56  C   UNL A   1      44.249  34.165  28.940  1.00  0.00     0.135 A 
ATOM     57  C   UNL A   1      44.689  33.545  31.221  1.00  0.00     0.135 A 
ATOM     58  F   UNL A   1      43.963  33.848  27.667  1.00  0.00    -0.206 F 
ATOM     59  C   UNL A   1      44.477  35.503  29.251  1.00  0.00     0.059 A 
ATOM     60  C   UNL A   1      44.901  34.876  31.559  1.00  0.00     0.059 A 
ATOM     61  F   UNL A   1      44.817  32.619  32.186  1.00  0.00    -0.206 F 
ATOM     62  C   UNL A   1      44.816  35.846  30.562  1.00  0.00     0.060 A 
BRANCH  62  63
ATOM     63  S   UNL A   1      45.152  37.576  30.954  1.00  0.00     0.124 S 
ATOM     64  O   UNL A   1      46.036  37.445  32.109  1.00  0.00    -0.237 OA
ATOM     65  O   UNL A   1      45.780  38.065  29.731  1.00  0.00    -0.237 OA
ATOM     66  O   UNL A   1      43.828  38.122  31.235  1.00  0.00    -0.744 OA
ENDBRANCH  62  63
ENDBRANCH  41  55
BRANCH  42  67
ATOM     67  C   UNL A   1      42.561  23.670  27.362  1.00  0.00     0.058 A 
ATOM     68  C   UNL A   1      42.563  23.345  25.999  1.00  0.00     0.135 A 
ATOM     69  C   UNL A   1      42.375  22.629  28.286  1.00  0.00     0.135 A 
ATOM     70  F   UNL A   1      42.727  24.308  25.079  1.00  0.00    -0.206 F 
ATOM     71  C   UNL A   1      42.413  22.030  25.566  1.00  0.00     0.059 A 
ATOM     72  C   UNL A   1      42.245  21.306  27.879  1.00  0.00     0.059 A 
ATOM     73  F   UNL A   1      42.383  22.891  29.603  1.00  0.00    -0.206 F 
ATOM     74  C   UNL A   1      42.268  21.016  26.516  1.00  0.00     0.060 A 
BRANCH  74  75
ATOM     75  S   UNL A   1      42.204  19.299  25.957  1.00  0.00     0.124 S 
ATOM     76  O   UNL A   1      42.712  18.592  27.126  1.00  0.00    -0.237 OA
ATOM     77  O   UNL A   1      40.784  19.118  25.669  1.00  0.00    -0.237 OA
ATOM     78  O   UNL A   1      43.076  19.297  24.786  1.00  0.00    -0.744 OA
ENDBRANCH  74  75
ENDBRANCH  42  67
BRANCH  54  79
ATOM     79  C   UNL A   1      48.386  27.458  28.073  1.00  0.00     0.058 A 
ATOM     80  C   UNL A   1      49.177  26.960  29.118  1.00  0.00     0.135 A 
ATOM     81  C   UNL A   1      48.969  27.580  26.801  1.00  0.00     0.135 A 
ATOM     82  F   UNL A   1      48.665  26.834  30.352  1.00  0.00    -0.206 F 
ATOM     83  C   UNL A   1      50.501  26.590  28.909  1.00  0.00     0.059 A 
ATOM     84  C   UNL A   1      50.286  27.203  26.567  1.00  0.00     0.059 A 
ATOM     85  F   UNL A   1      48.247  28.048  25.770  1.00  0.00    -0.206 F 
ATOM     86  C   UNL A   1      51.045  26.710  27.629  1.00  0.00     0.060 A 
BRANCH  86  87
ATOM     87  S   UNL A   1      52.745  26.165  27.351  1.00  0.00     0.124 S 
ATOM     88  O   UNL A   1      53.295  27.289  26.600  1.00  0.00    -0.237 OA
ATOM     89  O   UNL A   1      53.251  26.001  28.710  1.00  0.00    -0.237 OA
ATOM     90  O   UNL A   1      52.582  24.925  26.598  1.00  0.00    -0.744 OA
ENDBRANCH  86  87
ENDBRANCH  54  79
ENDBRANCH  28  29
ENDBRANCH  21  23
ENDBRANCH  20  21
ENDBRANCH   1  20
TORSDOF 15
ENDMDL
MODEL 2
REMARK VINA RESULT:     -10.2      5.691     12.465
REMARK SMILES CC(C)(C)c1n[nH]c2c1CC[C@@H](C(=O)OCCOC(=O)c1ccc(-c3c4nc(c(-c5c(F)cc(S(=O)(=O)[O-])cc5F)c5ccc([nH]5)c(-c5c(F)cc(S(=O)(=O)[O-])cc5F)c5nc(c(-c6c(F)cc(S(=O)(=O)[O-])cc6F)c6ccc3[nH]6)C=C5)C=C4)cc1)C2
REMARK SMILES IDX 17 1 16 2 15 3 13 4 14 5 12 6 5 7 6 8 9 9 7 10 8 11 10 12
REMARK SMILES IDX 87 14 11 15 2 16 1 17 3 18 4 19 18 20 19 21 20 22 21 23
REMARK SMILES IDX 22 24 86 25 23 26 85 27 24 28 25 29 26 30 79 31 27 32 84 33
REMARK SMILES IDX 78 34 80 35 28 36 83 37 77 38 76 39 29 41 63 42 42 43 62 44
REMARK SMILES IDX 43 45 46 46 61 47 81 48 44 49 45 50 60 52 82 53 47 54 30 55
REMARK SMILES IDX 31 56 40 57 32 58 33 59 39 60 41 61 34 62 35 63 36 64 37 65
REMARK SMILES IDX 38 66 64 67 65 68 74 69 66 70 67 71 73 72 75 73 68 74 69 75
REMARK SMILES IDX 70 76 71 77 72 78 48 79 49 80 58 81 50 82 51 83 57 84 59 85
REMARK SMILES IDX 52 86 53 87 54 88 55 89 56 90
REMARK H PARENT 7 13 80 40 46 51
REMARK Flexibility Score: inf
ROOT
ATOM      1  C   UNL A   1      40.237  22.277  26.651  1.00  0.00     0.275 C 
ENDROOT
BRANCH   1   2
ATOM      2  C   UNL A   1      39.077  21.447  26.107  1.00  0.00     0.274 C 
BRANCH   2   3
ATOM      3  O   UNL A   1      37.921  22.264  25.833  1.00  0.00    -0.462 OA
BRANCH   3   4
ATOM      4  C   UNL A   1      36.812  21.598  25.421  1.00  0.00     0.309 C 
ATOM      5  O   UNL A   1      36.797  20.431  25.044  1.00  0.00    -0.252 OA
BRANCH   4   6
ATOM      6  C   UNL A   1      35.555  22.435  25.494  1.00  0.00     0.105 C 
ATOM      7  C   UNL A   1      32.056  24.568  26.431  1.00  0.00     0.071 A 
ATOM      8  N   UNL A   1      31.419  23.646  27.176  1.00  0.00    -0.180 NA
ATOM      9  C   UNL A   1      33.396  24.164  26.173  1.00  0.00    -0.003 A 
ATOM     10  N   UNL A   1      32.311  22.664  27.360  1.00  0.00    -0.282 N 
ATOM     11  C   UNL A   1      33.493  22.913  26.742  1.00  0.00     0.040 A 
ATOM     12  C   UNL A   1      34.516  24.758  25.386  1.00  0.00     0.040 C 
ATOM     13  H   UNL A   1      32.128  21.851  27.884  1.00  0.00     0.190 HD
ATOM     14  C   UNL A   1      34.641  21.977  26.646  1.00  0.00     0.071 C 
ATOM     15  C   UNL A   1      35.822  23.951  25.563  1.00  0.00     0.020 C 
BRANCH   7  16
ATOM     16  C   UNL A   1      31.262  25.772  25.935  1.00  0.00     0.006 C 
ATOM     17  C   UNL A   1      29.744  25.611  26.124  1.00  0.00     0.017 C 
ATOM     18  C   UNL A   1      31.511  26.009  24.428  1.00  0.00     0.017 C 
ATOM     19  C   UNL A   1      31.714  27.028  26.712  1.00  0.00     0.017 C 
ENDBRANCH   7  16
ENDBRANCH   4   6
ENDBRANCH   3   4
ENDBRANCH   2   3
ENDBRANCH   1   2
BRANCH   1  20
ATOM     20  O   UNL A   1      39.902  23.673  26.636  1.00  0.00    -0.458 OA
BRANCH  20  21
ATOM     21  C   UNL A   1      40.952  24.518  26.539  1.00  0.00     0.338 C 
ATOM     22  O   UNL A   1      41.940  24.400  25.834  1.00  0.00    -0.246 OA
BRANCH  21  23
ATOM     23  C   UNL A   1      40.731  25.679  27.408  1.00  0.00     0.060 A 
ATOM     24  C   UNL A   1      41.530  26.810  27.252  1.00  0.00     0.016 A 
ATOM     25  C   UNL A   1      39.830  25.589  28.467  1.00  0.00     0.016 A 
ATOM     26  C   UNL A   1      41.510  27.816  28.214  1.00  0.00     0.010 A 
ATOM     27  C   UNL A   1      39.738  26.647  29.375  1.00  0.00     0.010 A 
ATOM     28  C   UNL A   1      40.604  27.753  29.280  1.00  0.00    -0.014 A 
BRANCH  28  29
ATOM     29  C   UNL A   1      40.565  28.818  30.317  1.00  0.00     0.031 A 
ATOM     30  C   UNL A   1      41.498  28.748  31.494  1.00  0.00     0.074 A 
ATOM     31  C   UNL A   1      39.674  29.824  30.229  1.00  0.00     0.049 A 
ATOM     32  N   UNL A   1      41.457  29.406  32.623  1.00  0.00    -0.248 NA
ATOM     33  C   UNL A   1      42.615  27.795  31.393  1.00  0.00     0.031 C 
ATOM     34  C   UNL A   1      38.742  30.039  29.121  1.00  0.00     0.029 A 
ATOM     35  N   UNL A   1      39.394  30.847  31.101  1.00  0.00    -0.354 N 
ATOM     36  C   UNL A   1      42.490  28.892  33.397  1.00  0.00     0.074 A 
ATOM     37  C   UNL A   1      43.156  27.884  32.599  1.00  0.00     0.031 C 
ATOM     38  C   UNL A   1      37.999  31.125  29.375  1.00  0.00     0.029 A 
ATOM     39  C   UNL A   1      38.340  31.633  30.700  1.00  0.00     0.049 A 
ATOM     40  H   UNL A   1      39.899  31.002  31.932  1.00  0.00     0.167 HD
ATOM     41  C   UNL A   1      42.837  29.223  34.664  1.00  0.00     0.037 A 
ATOM     42  C   UNL A   1      37.678  32.611  31.345  1.00  0.00     0.037 A 
ATOM     43  C   UNL A   1      42.208  30.270  35.424  1.00  0.00     0.049 A 
ATOM     44  C   UNL A   1      38.082  32.975  32.743  1.00  0.00     0.074 A 
ATOM     45  C   UNL A   1      42.506  30.707  36.703  1.00  0.00     0.029 A 
ATOM     46  N   UNL A   1      41.159  31.053  34.967  1.00  0.00    -0.354 N 
ATOM     47  N   UNL A   1      39.026  32.448  33.485  1.00  0.00    -0.248 NA
ATOM     48  C   UNL A   1      37.323  34.047  33.400  1.00  0.00     0.031 C 
ATOM     49  C   UNL A   1      41.621  31.741  37.028  1.00  0.00     0.029 A 
ATOM     50  C   UNL A   1      40.791  31.966  35.941  1.00  0.00     0.049 A 
ATOM     51  H   UNL A   1      40.738  30.973  34.081  1.00  0.00     0.167 HD
ATOM     52  C   UNL A   1      38.976  33.123  34.698  1.00  0.00     0.074 A 
ATOM     53  C   UNL A   1      37.917  34.107  34.585  1.00  0.00     0.031 C 
ATOM     54  C   UNL A   1      39.735  32.940  35.806  1.00  0.00     0.037 A 
BRANCH  41  55
ATOM     55  C   UNL A   1      43.912  28.403  35.319  1.00  0.00     0.058 A 
ATOM     56  C   UNL A   1      43.628  27.233  36.039  1.00  0.00     0.135 A 
ATOM     57  C   UNL A   1      45.254  28.810  35.233  1.00  0.00     0.135 A 
ATOM     58  F   UNL A   1      42.360  26.810  36.167  1.00  0.00    -0.206 F 
ATOM     59  C   UNL A   1      44.631  26.515  36.683  1.00  0.00     0.059 A 
ATOM     60  C   UNL A   1      46.275  28.097  35.851  1.00  0.00     0.059 A 
ATOM     61  F   UNL A   1      45.580  29.923  34.556  1.00  0.00    -0.206 F 
ATOM     62  C   UNL A   1      45.951  26.963  36.594  1.00  0.00     0.060 A 
BRANCH  62  63
ATOM     63  S   UNL A   1      47.245  26.054  37.465  1.00  0.00     0.124 S 
ATOM     64  O   UNL A   1      48.257  25.920  36.422  1.00  0.00    -0.237 OA
ATOM     65  O   UNL A   1      47.584  26.954  38.563  1.00  0.00    -0.237 OA
ATOM     66  O   UNL A   1      46.581  24.816  37.858  1.00  0.00    -0.744 OA
ENDBRANCH  62  63
ENDBRANCH  41  55
BRANCH  42  67
ATOM     67  C   UNL A   1      36.529  33.265  30.670  1.00  0.00     0.058 A 
ATOM     68  C   UNL A   1      35.216  33.056  31.113  1.00  0.00     0.135 A 
ATOM     69  C   UNL A   1      36.734  34.192  29.635  1.00  0.00     0.135 A 
ATOM     70  F   UNL A   1      34.972  32.173  32.092  1.00  0.00    -0.206 F 
ATOM     71  C   UNL A   1      34.146  33.759  30.568  1.00  0.00     0.059 A 
ATOM     72  C   UNL A   1      35.683  34.923  29.090  1.00  0.00     0.059 A 
ATOM     73  F   UNL A   1      37.976  34.438  29.189  1.00  0.00    -0.206 F 
ATOM     74  C   UNL A   1      34.392  34.701  29.566  1.00  0.00     0.060 A 
BRANCH  74  75
ATOM     75  S   UNL A   1      33.019  35.703  28.953  1.00  0.00     0.124 S 
ATOM     76  O   UNL A   1      32.336  34.759  28.077  1.00  0.00    -0.237 OA
ATOM     77  O   UNL A   1      32.317  36.057  30.183  1.00  0.00    -0.237 OA
ATOM     78  O   UNL A   1      33.691  36.814  28.285  1.00  0.00    -0.744 OA
ENDBRANCH  74  75
ENDBRANCH  42  67
BRANCH  54  79
ATOM     79  C   UNL A   1      39.465  33.829  36.982  1.00  0.00     0.058 A 
ATOM     80  C   UNL A   1      38.668  33.398  38.053  1.00  0.00     0.135 A 
ATOM     81  C   UNL A   1      40.076  35.090  37.077  1.00  0.00     0.135 A 
ATOM     82  F   UNL A   1      38.058  32.204  38.004  1.00  0.00    -0.206 F 
ATOM     83  C   UNL A   1      38.488  34.188  39.183  1.00  0.00     0.059 A 
ATOM     84  C   UNL A   1      39.919  35.890  38.203  1.00  0.00     0.059 A 
ATOM     85  F   UNL A   1      40.850  35.540  36.077  1.00  0.00    -0.206 F 
ATOM     86  C   UNL A   1      39.121  35.431  39.250  1.00  0.00     0.060 A 
BRANCH  86  87
ATOM     87  S   UNL A   1      38.935  36.422  40.749  1.00  0.00     0.124 S 
ATOM     88  O   UNL A   1      38.519  37.709  40.200  1.00  0.00    -0.237 OA
ATOM     89  O   UNL A   1      37.914  35.688  41.490  1.00  0.00    -0.237 OA
ATOM     90  O   UNL A   1      40.269  36.393  41.340  1.00  0.00    -0.744 OA
ENDBRANCH  86  87
ENDBRANCH  54  79
ENDBRANCH  28  29
ENDBRANCH  21  23
ENDBRANCH  20  21
ENDBRANCH   1  20
TORSDOF 15
ENDMDL
MODEL 3
REMARK VINA RESULT:     -10.1      3.570      5.625
REMARK SMILES CC(C)(C)c1n[nH]c2c1CC[C@@H](C(=O)OCCOC(=O)c1ccc(-c3c4nc(c(-c5c(F)cc(S(=O)(=O)[O-])cc5F)c5ccc([nH]5)c(-c5c(F)cc(S(=O)(=O)[O-])cc5F)c5nc(c(-c6c(F)cc(S(=O)(=O)[O-])cc6F)c6ccc3[nH]6)C=C5)C=C4)cc1)C2
REMARK SMILES IDX 17 1 16 2 15 3 13 4 14 5 12 6 5 7 6 8 9 9 7 10 8 11 10 12
REMARK SMILES IDX 87 14 11 15 2 16 1 17 3 18 4 19 18 20 19 21 20 22 21 23
REMARK SMILES IDX 22 24 86 25 23 26 85 27 24 28 25 29 26 30 79 31 27 32 84 33
REMARK SMILES IDX 78 34 80 35 28 36 83 37 77 38 76 39 29 41 63 42 42 43 62 44
REMARK SMILES IDX 43 45 46 46 61 47 81 48 44 49 45 50 60 52 82 53 47 54 30 55
REMARK SMILES IDX 31 56 40 57 32 58 33 59 39 60 41 61 34 62 35 63 36 64 37 65
REMARK SMILES IDX 38 66 64 67 65 68 74 69 66 70 67 71 73 72 75 73 68 74 69 75
REMARK SMILES IDX 70 76 71 77 72 78 48 79 49 80 58 81 50 82 51 83 57 84 59 85
REMARK SMILES IDX 52 86 53 87 54 88 55 89 56 90
REMARK H PARENT 7 13 80 40 46 51
REMARK Flexibility Score: inf
ROOT
ATOM      1  C   UNL A   1      33.239  31.208  27.236  1.00  0.00     0.275 C 
ENDROOT
BRANCH   1   2
ATOM      2  C   UNL A   1      32.017  30.380  26.845  1.00  0.00     0.274 C 
BRANCH   2   3
ATOM      3  O   UNL A   1      32.382  29.034  26.478  1.00  0.00    -0.462 OA
BRANCH   3   4
ATOM      4  C   UNL A   1      31.743  28.044  27.153  1.00  0.00     0.309 C 
ATOM      5  O   UNL A   1      31.133  28.198  28.204  1.00  0.00    -0.252 OA
BRANCH   4   6
ATOM      6  C   UNL A   1      31.831  26.702  26.462  1.00  0.00     0.105 C 
ATOM      7  C   UNL A   1      31.818  23.345  23.932  1.00  0.00     0.071 A 
ATOM      8  N   UNL A   1      30.621  23.510  23.341  1.00  0.00    -0.180 NA
ATOM      9  C   UNL A   1      32.166  24.501  24.686  1.00  0.00    -0.003 A 
ATOM     10  N   UNL A   1      30.196  24.718  23.733  1.00  0.00    -0.282 N 
ATOM     11  C   UNL A   1      31.071  25.329  24.572  1.00  0.00     0.040 A 
ATOM     12  C   UNL A   1      33.327  24.850  25.556  1.00  0.00     0.040 C 
ATOM     13  H   UNL A   1      29.344  25.117  23.446  1.00  0.00     0.190 HD
ATOM     14  C   UNL A   1      30.847  26.613  25.281  1.00  0.00     0.071 C 
ATOM     15  C   UNL A   1      33.260  26.321  26.026  1.00  0.00     0.020 C 
BRANCH   7  16
ATOM     16  C   UNL A   1      32.519  21.999  23.785  1.00  0.00     0.006 C 
ATOM     17  C   UNL A   1      34.052  22.117  23.771  1.00  0.00     0.017 C 
ATOM     18  C   UNL A   1      32.103  21.306  22.468  1.00  0.00     0.017 C 
ATOM     19  C   UNL A   1      32.117  21.091  24.968  1.00  0.00     0.017 C 
ENDBRANCH   7  16
ENDBRANCH   4   6
ENDBRANCH   3   4
ENDBRANCH   2   3
ENDBRANCH   1   2
BRANCH   1  20
ATOM     20  O   UNL A   1      34.238  30.371  27.838  1.00  0.00    -0.458 OA
BRANCH  20  21
ATOM     21  C   UNL A   1      35.010  30.973  28.770  1.00  0.00     0.338 C 
ATOM     22  O   UNL A   1      34.707  31.897  29.504  1.00  0.00    -0.246 OA
BRANCH  21  23
ATOM     23  C   UNL A   1      36.323  30.318  28.817  1.00  0.00     0.060 A 
ATOM     24  C   UNL A   1      36.862  29.960  30.051  1.00  0.00     0.016 A 
ATOM     25  C   UNL A   1      37.076  30.191  27.651  1.00  0.00     0.016 A 
ATOM     26  C   UNL A   1      38.195  29.571  30.142  1.00  0.00     0.010 A 
ATOM     27  C   UNL A   1      38.381  29.703  27.734  1.00  0.00     0.010 A 
ATOM     28  C   UNL A   1      38.967  29.425  28.983  1.00  0.00    -0.014 A 
BRANCH  28  29
ATOM     29  C   UNL A   1      40.393  29.008  29.059  1.00  0.00     0.031 A 
ATOM     30  C   UNL A   1      41.448  30.020  29.411  1.00  0.00     0.074 A 
ATOM     31  C   UNL A   1      40.749  27.741  28.777  1.00  0.00     0.049 A 
ATOM     32  N   UNL A   1      42.746  29.943  29.278  1.00  0.00    -0.248 NA
ATOM     33  C   UNL A   1      40.976  31.297  29.969  1.00  0.00     0.031 C 
ATOM     34  C   UNL A   1      39.828  26.648  28.465  1.00  0.00     0.029 A 
ATOM     35  N   UNL A   1      41.992  27.162  28.689  1.00  0.00    -0.354 N 
ATOM     36  C   UNL A   1      43.240  31.185  29.659  1.00  0.00     0.074 A 
ATOM     37  C   UNL A   1      42.103  31.989  30.052  1.00  0.00     0.031 C 
ATOM     38  C   UNL A   1      40.531  25.533  28.226  1.00  0.00     0.029 A 
ATOM     39  C   UNL A   1      41.954  25.850  28.282  1.00  0.00     0.049 A 
ATOM     40  H   UNL A   1      42.827  27.640  28.898  1.00  0.00     0.167 HD
ATOM     41  C   UNL A   1      44.524  31.614  29.664  1.00  0.00     0.037 A 
ATOM     42  C   UNL A   1      42.946  25.009  27.931  1.00  0.00     0.037 A 
ATOM     43  C   UNL A   1      45.652  30.785  29.332  1.00  0.00     0.049 A 
ATOM     44  C   UNL A   1      44.364  25.496  27.953  1.00  0.00     0.074 A 
ATOM     45  C   UNL A   1      46.996  31.114  29.337  1.00  0.00     0.029 A 
ATOM     46  N   UNL A   1      45.566  29.456  28.947  1.00  0.00    -0.354 N 
ATOM     47  N   UNL A   1      44.817  26.687  28.265  1.00  0.00    -0.248 NA
ATOM     48  C   UNL A   1      45.405  24.539  27.559  1.00  0.00     0.031 C 
ATOM     49  C   UNL A   1      47.722  29.988  28.933  1.00  0.00     0.029 A 
ATOM     50  C   UNL A   1      46.832  28.950  28.703  1.00  0.00     0.049 A 
ATOM     51  H   UNL A   1      44.729  28.946  28.859  1.00  0.00     0.167 HD
ATOM     52  C   UNL A   1      46.195  26.625  28.104  1.00  0.00     0.074 A 
ATOM     53  C   UNL A   1      46.504  25.273  27.681  1.00  0.00     0.031 C 
ATOM     54  C   UNL A   1      47.118  27.600  28.285  1.00  0.00     0.037 A 
BRANCH  41  55
ATOM     55  C   UNL A   1      44.764  33.062  29.988  1.00  0.00     0.058 A 
ATOM     56  C   UNL A   1      45.024  33.504  31.294  1.00  0.00     0.135 A 
ATOM     57  C   UNL A   1      44.717  34.025  28.967  1.00  0.00     0.135 A 
ATOM     58  F   UNL A   1      45.062  32.626  32.309  1.00  0.00    -0.206 F 
ATOM     59  C   UNL A   1      45.191  34.855  31.583  1.00  0.00     0.059 A 
ATOM     60  C   UNL A   1      44.901  35.378  29.229  1.00  0.00     0.059 A 
ATOM     61  F   UNL A   1      44.470  33.654  27.700  1.00  0.00    -0.206 F 
ATOM     62  C   UNL A   1      45.114  35.786  30.544  1.00  0.00     0.060 A 
BRANCH  62  63
ATOM     63  S   UNL A   1      45.290  37.542  30.928  1.00  0.00     0.124 S 
ATOM     64  O   UNL A   1      46.336  37.512  31.947  1.00  0.00    -0.237 OA
ATOM     65  O   UNL A   1      45.676  38.113  29.642  1.00  0.00    -0.237 OA
ATOM     66  O   UNL A   1      43.962  37.918  31.402  1.00  0.00    -0.744 OA
ENDBRANCH  62  63
ENDBRANCH  41  55
BRANCH  42  67
ATOM     67  C   UNL A   1      42.598  23.638  27.481  1.00  0.00     0.058 A 
ATOM     68  C   UNL A   1      42.478  23.335  26.118  1.00  0.00     0.135 A 
ATOM     69  C   UNL A   1      42.482  22.585  28.402  1.00  0.00     0.135 A 
ATOM     70  F   UNL A   1      42.572  24.311  25.203  1.00  0.00    -0.206 F 
ATOM     71  C   UNL A   1      42.277  22.029  25.680  1.00  0.00     0.059 A 
ATOM     72  C   UNL A   1      42.303  21.269  27.988  1.00  0.00     0.059 A 
ATOM     73  F   UNL A   1      42.607  22.826  29.717  1.00  0.00    -0.206 F 
ATOM     74  C   UNL A   1      42.204  21.001  26.623  1.00  0.00     0.060 A 
BRANCH  74  75
ATOM     75  S   UNL A   1      42.071  19.294  26.046  1.00  0.00     0.124 S 
ATOM     76  O   UNL A   1      42.469  18.552  27.236  1.00  0.00    -0.237 OA
ATOM     77  O   UNL A   1      40.662  19.199  25.676  1.00  0.00    -0.237 OA
ATOM     78  O   UNL A   1      43.008  19.248  24.928  1.00  0.00    -0.744 OA
ENDBRANCH  74  75
ENDBRANCH  42  67
BRANCH  54  79
ATOM     79  C   UNL A   1      48.554  27.244  28.044  1.00  0.00     0.058 A 
ATOM     80  C   UNL A   1      49.168  27.488  26.807  1.00  0.00     0.135 A 
ATOM     81  C   UNL A   1      49.344  26.731  29.086  1.00  0.00     0.135 A 
ATOM     82  F   UNL A   1      48.450  27.970  25.781  1.00  0.00    -0.206 F 
ATOM     83  C   UNL A   1      50.521  27.238  26.610  1.00  0.00     0.059 A 
ATOM     84  C   UNL A   1      50.702  26.487  28.914  1.00  0.00     0.059 A 
ATOM     85  F   UNL A   1      48.800  26.487  30.288  1.00  0.00    -0.206 F 
ATOM     86  C   UNL A   1      51.281  26.742  27.671  1.00  0.00     0.060 A 
BRANCH  86  87
ATOM     87  S   UNL A   1      53.052  26.482  27.426  1.00  0.00     0.124 S 
ATOM     88  O   UNL A   1      53.064  25.227  26.681  1.00  0.00    -0.237 OA
ATOM     89  O   UNL A   1      53.445  27.670  26.675  1.00  0.00    -0.237 OA
ATOM     90  O   UNL A   1      53.573  26.410  28.788  1.00  0.00    -0.744 OA
ENDBRANCH  86  87
ENDBRANCH  54  79
ENDBRANCH  28  29
ENDBRANCH  21  23
ENDBRANCH  20  21
ENDBRANCH   1  20
TORSDOF 15
ENDMDL
