MODEL 1
REMARK VINA RESULT:     -11.9      0.000      0.000
REMARK SMILES O=C(CS[C@H](C(=O)Nc1ccc(C(F)(F)F)cc1)c1ccccc1)OCCOC(=O)c1ccc(-c2c3nc(c(-c4c(F)cc(S(=O)(=O)[O-])cc4F)c4ccc([nH]4)c(-c4c(F)cc(S(=O)(=O)[O-])cc4F)c4nc(c(-c5c(F)cc(S(=O)(=O)[O-])cc5F)c5ccc2[nH]5)C=C4)C=C3)cc1
REMARK SMILES IDX 26 1 25 2 2 3 1 4 3 5 4 6 5 7 19 8 20 9 24 10 21 11 23 12
REMARK SMILES IDX 22 13 6 14 7 15 8 16 9 18 10 19 18 20 11 21 17 22 12 23
REMARK SMILES IDX 13 24 14 25 15 26 16 27 27 28 28 29 29 30 30 31 31 32 32 33
REMARK SMILES IDX 96 34 33 35 95 36 34 37 35 38 36 39 89 40 37 41 94 42 88 43
REMARK SMILES IDX 90 44 38 45 93 46 87 47 86 48 39 50 73 51 52 52 72 53 53 54
REMARK SMILES IDX 56 55 71 56 91 57 54 58 55 59 70 61 92 62 57 63 40 64 41 65
REMARK SMILES IDX 50 66 42 67 43 68 49 69 51 70 44 71 45 72 46 73 47 74 48 75
REMARK SMILES IDX 74 76 75 77 84 78 76 79 77 80 83 81 85 82 78 83 79 84 80 85
REMARK SMILES IDX 81 86 82 87 58 88 59 89 68 90 60 91 61 92 67 93 69 94 62 95
REMARK SMILES IDX 63 96 64 97 65 98 66 99
REMARK H PARENT 8 17 90 49 56 60
REMARK Flexibility Score: inf
ROOT
ATOM      1  C   UNL A   1      37.279  21.682  24.661  1.00  0.00     0.274 C 
ENDROOT
BRANCH   1   2
ATOM      2  O   UNL A   1      36.155  21.831  25.560  1.00  0.00    -0.461 OA
BRANCH   2   3
ATOM      3  C   UNL A   1      34.854  21.538  25.289  1.00  0.00     0.316 C 
ATOM      4  O   UNL A   1      34.554  20.383  24.986  1.00  0.00    -0.251 OA
BRANCH   3   5
ATOM      5  C   UNL A   1      33.818  22.637  25.340  1.00  0.00     0.193 C 
BRANCH   5   6
ATOM      6  S   UNL A   1      34.531  24.321  25.420  1.00  0.00    -0.132 SA
BRANCH   6   7
ATOM      7  C   UNL A   1      33.199  25.450  24.757  1.00  0.00     0.166 C 
BRANCH   7   8
ATOM      8  C   UNL A   1      32.987  26.624  25.707  1.00  0.00    -0.026 A 
ATOM      9  C   UNL A   1      34.005  27.583  25.875  1.00  0.00     0.005 A 
ATOM     10  C   UNL A   1      31.789  26.857  26.397  1.00  0.00     0.005 A 
ATOM     11  C   UNL A   1      33.837  28.685  26.727  1.00  0.00     0.000 A 
ATOM     12  C   UNL A   1      31.613  27.954  27.245  1.00  0.00     0.000 A 
ATOM     13  C   UNL A   1      32.642  28.865  27.418  1.00  0.00     0.000 A 
ENDBRANCH   7   8
BRANCH   7  14
ATOM     14  C   UNL A   1      33.248  25.597  23.212  1.00  0.00     0.242 C 
ATOM     15  O   UNL A   1      34.043  24.935  22.525  1.00  0.00    -0.273 OA
ATOM     16  N   UNL A   1      32.334  26.257  22.440  1.00  0.00    -0.325 N 
ATOM     17  H   UNL A   1      32.448  26.117  21.472  1.00  0.00     0.169 HD
BRANCH  16  18
ATOM     18  C   UNL A   1      31.273  27.087  22.774  1.00  0.00     0.041 A 
ATOM     19  C   UNL A   1      31.466  28.463  22.686  1.00  0.00     0.027 A 
ATOM     20  C   UNL A   1      30.063  26.589  23.236  1.00  0.00     0.027 A 
ATOM     21  C   UNL A   1      30.374  29.320  22.820  1.00  0.00     0.015 A 
ATOM     22  C   UNL A   1      28.969  27.440  23.373  1.00  0.00     0.015 A 
ATOM     23  C   UNL A   1      29.097  28.804  23.083  1.00  0.00     0.056 A 
BRANCH  23  24
ATOM     24  C   UNL A   1      27.878  29.688  23.029  1.00  0.00     0.416 C 
ATOM     25  F   UNL A   1      27.975  30.772  23.843  1.00  0.00    -0.166 F 
ATOM     26  F   UNL A   1      27.635  30.174  21.779  1.00  0.00    -0.166 F 
ATOM     27  F   UNL A   1      26.737  29.039  23.397  1.00  0.00    -0.166 F 
ENDBRANCH  23  24
ENDBRANCH  16  18
ENDBRANCH   7  14
ENDBRANCH   6   7
ENDBRANCH   5   6
ENDBRANCH   3   5
ENDBRANCH   2   3
ENDBRANCH   1   2
BRANCH   1  28
ATOM     28  C   UNL A   1      38.543  21.228  25.376  1.00  0.00     0.275 C 
BRANCH  28  29
ATOM     29  O   UNL A   1      38.869  22.176  26.392  1.00  0.00    -0.458 OA
BRANCH  29  30
ATOM     30  C   UNL A   1      40.141  22.642  26.315  1.00  0.00     0.338 C 
ATOM     31  O   UNL A   1      41.081  22.124  25.739  1.00  0.00    -0.246 OA
BRANCH  30  32
ATOM     32  C   UNL A   1      40.148  24.009  26.854  1.00  0.00     0.060 A 
ATOM     33  C   UNL A   1      41.097  24.913  26.358  1.00  0.00     0.016 A 
ATOM     34  C   UNL A   1      39.227  24.393  27.831  1.00  0.00     0.016 A 
ATOM     35  C   UNL A   1      41.174  26.195  26.893  1.00  0.00     0.010 A 
ATOM     36  C   UNL A   1      39.312  25.668  28.373  1.00  0.00     0.010 A 
ATOM     37  C   UNL A   1      40.320  26.548  27.942  1.00  0.00    -0.014 A 
BRANCH  37  38
ATOM     38  C   UNL A   1      40.635  27.697  28.812  1.00  0.00     0.031 A 
ATOM     39  C   UNL A   1      41.819  27.557  29.723  1.00  0.00     0.074 A 
ATOM     40  C   UNL A   1      39.829  28.767  28.862  1.00  0.00     0.049 A 
ATOM     41  N   UNL A   1      42.193  28.307  30.723  1.00  0.00    -0.248 NA
ATOM     42  C   UNL A   1      42.683  26.385  29.490  1.00  0.00     0.031 C 
ATOM     43  C   UNL A   1      38.667  28.994  28.007  1.00  0.00     0.029 A 
ATOM     44  N   UNL A   1      39.850  29.845  29.708  1.00  0.00    -0.354 N 
ATOM     45  C   UNL A   1      43.317  27.686  31.254  1.00  0.00     0.074 A 
ATOM     46  C   UNL A   1      43.554  26.488  30.480  1.00  0.00     0.031 C 
ATOM     47  C   UNL A   1      38.054  30.124  28.402  1.00  0.00     0.029 A 
ATOM     48  C   UNL A   1      38.764  30.673  29.556  1.00  0.00     0.049 A 
ATOM     49  H   UNL A   1      40.569  30.010  30.359  1.00  0.00     0.167 HD
ATOM     50  C   UNL A   1      44.080  28.080  32.298  1.00  0.00     0.037 A 
ATOM     51  C   UNL A   1      38.375  31.728  30.298  1.00  0.00     0.037 A 
ATOM     52  C   UNL A   1      43.815  29.266  33.064  1.00  0.00     0.049 A 
ATOM     53  C   UNL A   1      39.219  32.143  31.474  1.00  0.00     0.074 A 
ATOM     54  C   UNL A   1      44.526  29.786  34.127  1.00  0.00     0.029 A 
ATOM     55  N   UNL A   1      42.732  30.112  32.849  1.00  0.00    -0.354 N 
ATOM     56  N   UNL A   1      40.305  31.576  31.949  1.00  0.00    -0.248 NA
ATOM     57  C   UNL A   1      38.794  33.339  32.211  1.00  0.00     0.031 C 
ATOM     58  C   UNL A   1      43.852  30.923  34.584  1.00  0.00     0.029 A 
ATOM     59  C   UNL A   1      42.747  31.141  33.773  1.00  0.00     0.049 A 
ATOM     60  H   UNL A   1      42.056  29.995  32.144  1.00  0.00     0.167 HD
ATOM     61  C   UNL A   1      40.710  32.362  33.023  1.00  0.00     0.074 A 
ATOM     62  C   UNL A   1      39.749  33.443  33.129  1.00  0.00     0.031 C 
ATOM     63  C   UNL A   1      41.781  32.211  33.841  1.00  0.00     0.037 A 
BRANCH  50  64
ATOM     64  C   UNL A   1      45.228  27.189  32.682  1.00  0.00     0.058 A 
ATOM     65  C   UNL A   1      45.062  26.104  33.560  1.00  0.00     0.135 A 
ATOM     66  C   UNL A   1      46.520  27.449  32.201  1.00  0.00     0.135 A 
ATOM     67  F   UNL A   1      43.852  25.824  34.069  1.00  0.00    -0.206 F 
ATOM     68  C   UNL A   1      46.145  25.343  33.987  1.00  0.00     0.059 A 
ATOM     69  C   UNL A   1      47.614  26.682  32.592  1.00  0.00     0.059 A 
ATOM     70  F   UNL A   1      46.737  28.476  31.365  1.00  0.00    -0.206 F 
ATOM     71  C   UNL A   1      47.420  25.646  33.505  1.00  0.00     0.060 A 
BRANCH  71  72
ATOM     72  S   UNL A   1      48.823  24.680  34.099  1.00  0.00     0.124 S 
ATOM     73  O   UNL A   1      48.161  23.470  34.577  1.00  0.00    -0.237 OA
ATOM     74  O   UNL A   1      49.632  24.525  32.894  1.00  0.00    -0.237 OA
ATOM     75  O   UNL A   1      49.406  25.529  35.134  1.00  0.00    -0.744 OA
ENDBRANCH  71  72
ENDBRANCH  50  64
BRANCH  51  76
ATOM     76  C   UNL A   1      37.127  32.449  29.938  1.00  0.00     0.058 A 
ATOM     77  C   UNL A   1      35.892  32.066  30.476  1.00  0.00     0.135 A 
ATOM     78  C   UNL A   1      37.157  33.581  29.106  1.00  0.00     0.135 A 
ATOM     79  F   UNL A   1      35.812  30.987  31.269  1.00  0.00    -0.206 F 
ATOM     80  C   UNL A   1      34.729  32.782  30.212  1.00  0.00     0.059 A 
ATOM     81  C   UNL A   1      36.011  34.325  28.842  1.00  0.00     0.059 A 
ATOM     82  F   UNL A   1      38.319  33.994  28.575  1.00  0.00    -0.206 F 
ATOM     83  C   UNL A   1      34.800  33.918  29.401  1.00  0.00     0.060 A 
BRANCH  83  84
ATOM     84  S   UNL A   1      33.302  34.893  29.142  1.00  0.00     0.124 S 
ATOM     85  O   UNL A   1      32.755  34.958  30.493  1.00  0.00    -0.237 OA
ATOM     86  O   UNL A   1      33.838  36.143  28.610  1.00  0.00    -0.237 OA
ATOM     87  O   UNL A   1      32.539  34.093  28.189  1.00  0.00    -0.744 OA
ENDBRANCH  83  84
ENDBRANCH  51  76
BRANCH  63  88
ATOM     88  C   UNL A   1      42.007  33.257  34.895  1.00  0.00     0.058 A 
ATOM     89  C   UNL A   1      41.463  33.140  36.182  1.00  0.00     0.135 A 
ATOM     90  C   UNL A   1      42.869  34.337  34.638  1.00  0.00     0.135 A 
ATOM     91  F   UNL A   1      40.631  32.129  36.475  1.00  0.00    -0.206 F 
ATOM     92  C   UNL A   1      41.763  34.061  37.181  1.00  0.00     0.059 A 
ATOM     93  C   UNL A   1      43.201  35.255  35.628  1.00  0.00     0.059 A 
ATOM     94  F   UNL A   1      43.423  34.485  33.425  1.00  0.00    -0.206 F 
ATOM     95  C   UNL A   1      42.639  35.110  36.896  1.00  0.00     0.060 A 
BRANCH  95  96
ATOM     96  S   UNL A   1      43.076  36.258  38.219  1.00  0.00     0.124 S 
ATOM     97  O   UNL A   1      41.902  36.174  39.081  1.00  0.00    -0.237 OA
ATOM     98  O   UNL A   1      44.299  35.668  38.754  1.00  0.00    -0.237 OA
ATOM     99  O   UNL A   1      43.255  37.529  37.523  1.00  0.00    -0.744 OA
ENDBRANCH  95  96
ENDBRANCH  63  88
ENDBRANCH  37  38
ENDBRANCH  30  32
ENDBRANCH  29  30
ENDBRANCH  28  29
ENDBRANCH   1  28
TORSDOF 20
ENDMDL
MODEL 2
REMARK VINA RESULT:     -11.8      1.283      1.996
REMARK SMILES O=C(CS[C@H](C(=O)Nc1ccc(C(F)(F)F)cc1)c1ccccc1)OCCOC(=O)c1ccc(-c2c3nc(c(-c4c(F)cc(S(=O)(=O)[O-])cc4F)c4ccc([nH]4)c(-c4c(F)cc(S(=O)(=O)[O-])cc4F)c4nc(c(-c5c(F)cc(S(=O)(=O)[O-])cc5F)c5ccc2[nH]5)C=C4)C=C3)cc1
REMARK SMILES IDX 26 1 25 2 2 3 1 4 3 5 4 6 5 7 19 8 20 9 24 10 21 11 23 12
REMARK SMILES IDX 22 13 6 14 7 15 8 16 9 18 10 19 18 20 11 21 17 22 12 23
REMARK SMILES IDX 13 24 14 25 15 26 16 27 27 28 28 29 29 30 30 31 31 32 32 33
REMARK SMILES IDX 96 34 33 35 95 36 34 37 35 38 36 39 89 40 37 41 94 42 88 43
REMARK SMILES IDX 90 44 38 45 93 46 87 47 86 48 39 50 73 51 52 52 72 53 53 54
REMARK SMILES IDX 56 55 71 56 91 57 54 58 55 59 70 61 92 62 57 63 40 64 41 65
REMARK SMILES IDX 50 66 42 67 43 68 49 69 51 70 44 71 45 72 46 73 47 74 48 75
REMARK SMILES IDX 74 76 75 77 84 78 76 79 77 80 83 81 85 82 78 83 79 84 80 85
REMARK SMILES IDX 81 86 82 87 58 88 59 89 68 90 60 91 61 92 67 93 69 94 62 95
REMARK SMILES IDX 63 96 64 97 65 98 66 99
REMARK H PARENT 8 17 90 49 56 60
REMARK Flexibility Score: inf
ROOT
ATOM      1  C   UNL A   1      37.366  20.961  24.662  1.00  0.00     0.274 C 
ENDROOT
BRANCH   1   2
ATOM      2  O   UNL A   1      36.091  20.959  25.345  1.00  0.00    -0.461 OA
BRANCH   2   3
ATOM      3  C   UNL A   1      35.196  21.984  25.398  1.00  0.00     0.316 C 
ATOM      4  O   UNL A   1      35.129  22.662  26.423  1.00  0.00    -0.251 OA
BRANCH   3   5
ATOM      5  C   UNL A   1      34.293  22.245  24.215  1.00  0.00     0.193 C 
BRANCH   5   6
ATOM      6  S   UNL A   1      34.721  23.758  23.278  1.00  0.00    -0.132 SA
BRANCH   6   7
ATOM      7  C   UNL A   1      33.085  24.559  22.867  1.00  0.00     0.166 C 
BRANCH   7   8
ATOM      8  C   UNL A   1      32.385  25.007  24.147  1.00  0.00    -0.026 A 
ATOM      9  C   UNL A   1      33.142  25.530  25.214  1.00  0.00     0.005 A 
ATOM     10  C   UNL A   1      30.994  24.993  24.316  1.00  0.00     0.005 A 
ATOM     11  C   UNL A   1      32.529  25.967  26.398  1.00  0.00     0.000 A 
ATOM     12  C   UNL A   1      30.376  25.431  25.491  1.00  0.00     0.000 A 
ATOM     13  C   UNL A   1      31.146  25.910  26.538  1.00  0.00     0.000 A 
ENDBRANCH   7   8
BRANCH   7  14
ATOM     14  C   UNL A   1      33.143  25.422  21.577  1.00  0.00     0.242 C 
ATOM     15  O   UNL A   1      33.213  24.898  20.453  1.00  0.00    -0.273 OA
ATOM     16  N   UNL A   1      32.910  26.765  21.499  1.00  0.00    -0.325 N 
ATOM     17  H   UNL A   1      32.844  27.111  20.579  1.00  0.00     0.169 HD
BRANCH  16  18
ATOM     18  C   UNL A   1      32.749  27.731  22.483  1.00  0.00     0.041 A 
ATOM     19  C   UNL A   1      31.461  28.191  22.744  1.00  0.00     0.027 A 
ATOM     20  C   UNL A   1      33.827  28.278  23.165  1.00  0.00     0.027 A 
ATOM     21  C   UNL A   1      31.233  29.007  23.852  1.00  0.00     0.015 A 
ATOM     22  C   UNL A   1      33.606  29.095  24.271  1.00  0.00     0.015 A 
ATOM     23  C   UNL A   1      32.300  29.397  24.674  1.00  0.00     0.056 A 
BRANCH  23  24
ATOM     24  C   UNL A   1      32.052  30.105  25.981  1.00  0.00     0.416 C 
ATOM     25  F   UNL A   1      31.519  29.290  26.930  1.00  0.00    -0.166 F 
ATOM     26  F   UNL A   1      33.189  30.624  26.524  1.00  0.00    -0.166 F 
ATOM     27  F   UNL A   1      31.192  31.156  25.859  1.00  0.00    -0.166 F 
ENDBRANCH  23  24
ENDBRANCH  16  18
ENDBRANCH   7  14
ENDBRANCH   6   7
ENDBRANCH   5   6
ENDBRANCH   3   5
ENDBRANCH   2   3
ENDBRANCH   1   2
BRANCH   1  28
ATOM     28  C   UNL A   1      38.539  21.131  25.617  1.00  0.00     0.275 C 
BRANCH  28  29
ATOM     29  O   UNL A   1      38.805  22.524  25.785  1.00  0.00    -0.458 OA
BRANCH  29  30
ATOM     30  C   UNL A   1      40.057  22.789  26.234  1.00  0.00     0.338 C 
ATOM     31  O   UNL A   1      41.065  22.133  26.036  1.00  0.00    -0.246 OA
BRANCH  30  32
ATOM     32  C   UNL A   1      40.045  24.138  26.817  1.00  0.00     0.060 A 
ATOM     33  C   UNL A   1      40.940  25.089  26.308  1.00  0.00     0.016 A 
ATOM     34  C   UNL A   1      39.159  24.459  27.847  1.00  0.00     0.016 A 
ATOM     35  C   UNL A   1      41.000  26.355  26.881  1.00  0.00     0.010 A 
ATOM     36  C   UNL A   1      39.227  25.719  28.427  1.00  0.00     0.010 A 
ATOM     37  C   UNL A   1      40.185  26.646  27.979  1.00  0.00    -0.014 A 
BRANCH  37  38
ATOM     38  C   UNL A   1      40.503  27.778  28.871  1.00  0.00     0.031 A 
ATOM     39  C   UNL A   1      41.681  27.613  29.786  1.00  0.00     0.074 A 
ATOM     40  C   UNL A   1      39.704  28.852  28.935  1.00  0.00     0.049 A 
ATOM     41  N   UNL A   1      42.053  28.343  30.801  1.00  0.00    -0.248 NA
ATOM     42  C   UNL A   1      42.538  26.440  29.537  1.00  0.00     0.031 C 
ATOM     43  C   UNL A   1      38.548  29.102  28.078  1.00  0.00     0.029 A 
ATOM     44  N   UNL A   1      39.726  29.914  29.801  1.00  0.00    -0.354 N 
ATOM     45  C   UNL A   1      43.170  27.705  31.327  1.00  0.00     0.074 A 
ATOM     46  C   UNL A   1      43.404  26.519  30.534  1.00  0.00     0.031 C 
ATOM     47  C   UNL A   1      37.940  30.228  28.490  1.00  0.00     0.029 A 
ATOM     48  C   UNL A   1      38.647  30.752  29.658  1.00  0.00     0.049 A 
ATOM     49  H   UNL A   1      40.443  30.063  30.458  1.00  0.00     0.167 HD
ATOM     50  C   UNL A   1      43.930  28.075  32.383  1.00  0.00     0.037 A 
ATOM     51  C   UNL A   1      38.261  31.796  30.416  1.00  0.00     0.037 A 
ATOM     52  C   UNL A   1      43.668  29.250  33.168  1.00  0.00     0.049 A 
ATOM     53  C   UNL A   1      39.101  32.185  31.603  1.00  0.00     0.074 A 
ATOM     54  C   UNL A   1      44.377  29.746  34.244  1.00  0.00     0.029 A 
ATOM     55  N   UNL A   1      42.592  30.106  32.962  1.00  0.00    -0.354 N 
ATOM     56  N   UNL A   1      40.180  31.602  32.075  1.00  0.00    -0.248 NA
ATOM     57  C   UNL A   1      38.680  33.371  32.359  1.00  0.00     0.031 C 
ATOM     58  C   UNL A   1      43.707  30.879  34.717  1.00  0.00     0.029 A 
ATOM     59  C   UNL A   1      42.608  31.118  33.904  1.00  0.00     0.049 A 
ATOM     60  H   UNL A   1      41.920  30.006  32.251  1.00  0.00     0.167 HD
ATOM     61  C   UNL A   1      40.584  32.367  33.164  1.00  0.00     0.074 A 
ATOM     62  C   UNL A   1      39.630  33.452  33.284  1.00  0.00     0.031 C 
ATOM     63  C   UNL A   1      41.650  32.194  33.986  1.00  0.00     0.037 A 
BRANCH  50  64
ATOM     64  C   UNL A   1      45.069  27.170  32.758  1.00  0.00     0.058 A 
ATOM     65  C   UNL A   1      44.914  26.129  33.690  1.00  0.00     0.135 A 
ATOM     66  C   UNL A   1      46.346  27.372  32.211  1.00  0.00     0.135 A 
ATOM     67  F   UNL A   1      43.720  25.907  34.261  1.00  0.00    -0.206 F 
ATOM     68  C   UNL A   1      45.994  25.357  34.104  1.00  0.00     0.059 A 
ATOM     69  C   UNL A   1      47.435  26.592  32.589  1.00  0.00     0.059 A 
ATOM     70  F   UNL A   1      46.553  28.355  31.321  1.00  0.00    -0.206 F 
ATOM     71  C   UNL A   1      47.254  25.603  33.555  1.00  0.00     0.060 A 
BRANCH  71  72
ATOM     72  S   UNL A   1      48.656  24.625  34.132  1.00  0.00     0.124 S 
ATOM     73  O   UNL A   1      49.623  24.845  33.061  1.00  0.00    -0.237 OA
ATOM     74  O   UNL A   1      48.974  25.252  35.411  1.00  0.00    -0.237 OA
ATOM     75  O   UNL A   1      48.113  23.273  34.220  1.00  0.00    -0.744 OA
ENDBRANCH  71  72
ENDBRANCH  50  64
BRANCH  51  76
ATOM     76  C   UNL A   1      37.020  32.532  30.061  1.00  0.00     0.058 A 
ATOM     77  C   UNL A   1      35.794  32.208  30.657  1.00  0.00     0.135 A 
ATOM     78  C   UNL A   1      37.050  33.621  29.174  1.00  0.00     0.135 A 
ATOM     79  F   UNL A   1      35.714  31.171  31.504  1.00  0.00    -0.206 F 
ATOM     80  C   UNL A   1      34.641  32.942  30.396  1.00  0.00     0.059 A 
ATOM     81  C   UNL A   1      35.915  34.382  28.911  1.00  0.00     0.059 A 
ATOM     82  F   UNL A   1      38.203  33.978  28.586  1.00  0.00    -0.206 F 
ATOM     83  C   UNL A   1      34.713  34.035  29.529  1.00  0.00     0.060 A 
BRANCH  83  84
ATOM     84  S   UNL A   1      33.232  35.036  29.271  1.00  0.00     0.124 S 
ATOM     85  O   UNL A   1      32.632  35.022  30.601  1.00  0.00    -0.237 OA
ATOM     86  O   UNL A   1      33.796  36.311  28.839  1.00  0.00    -0.237 OA
ATOM     87  O   UNL A   1      32.503  34.301  28.242  1.00  0.00    -0.744 OA
ENDBRANCH  83  84
ENDBRANCH  51  76
BRANCH  63  88
ATOM     88  C   UNL A   1      41.877  33.219  35.059  1.00  0.00     0.058 A 
ATOM     89  C   UNL A   1      42.616  34.388  34.821  1.00  0.00     0.135 A 
ATOM     90  C   UNL A   1      41.255  33.075  36.311  1.00  0.00     0.135 A 
ATOM     91  F   UNL A   1      43.232  34.570  33.644  1.00  0.00    -0.206 F 
ATOM     92  C   UNL A   1      42.732  35.379  35.791  1.00  0.00     0.059 A 
ATOM     93  C   UNL A   1      41.339  34.063  37.285  1.00  0.00     0.059 A 
ATOM     94  F   UNL A   1      40.528  31.979  36.581  1.00  0.00    -0.206 F 
ATOM     95  C   UNL A   1      42.084  35.211  37.016  1.00  0.00     0.060 A 
BRANCH  95  96
ATOM     96  S   UNL A   1      42.185  36.535  38.239  1.00  0.00     0.124 S 
ATOM     97  O   UNL A   1      42.626  35.807  39.424  1.00  0.00    -0.237 OA
ATOM     98  O   UNL A   1      43.168  37.435  37.645  1.00  0.00    -0.237 OA
ATOM     99  O   UNL A   1      40.821  37.054  38.292  1.00  0.00    -0.744 OA
ENDBRANCH  95  96
ENDBRANCH  63  88
ENDBRANCH  37  38
ENDBRANCH  30  32
ENDBRANCH  29  30
ENDBRANCH  28  29
ENDBRANCH   1  28
TORSDOF 20
ENDMDL
MODEL 3
REMARK VINA RESULT:     -11.7      5.502     10.842
REMARK SMILES O=C(CS[C@H](C(=O)Nc1ccc(C(F)(F)F)cc1)c1ccccc1)OCCOC(=O)c1ccc(-c2c3nc(c(-c4c(F)cc(S(=O)(=O)[O-])cc4F)c4ccc([nH]4)c(-c4c(F)cc(S(=O)(=O)[O-])cc4F)c4nc(c(-c5c(F)cc(S(=O)(=O)[O-])cc5F)c5ccc2[nH]5)C=C4)C=C3)cc1
REMARK SMILES IDX 26 1 25 2 2 3 1 4 3 5 4 6 5 7 19 8 20 9 24 10 21 11 23 12
REMARK SMILES IDX 22 13 6 14 7 15 8 16 9 18 10 19 18 20 11 21 17 22 12 23
REMARK SMILES IDX 13 24 14 25 15 26 16 27 27 28 28 29 29 30 30 31 31 32 32 33
REMARK SMILES IDX 96 34 33 35 95 36 34 37 35 38 36 39 89 40 37 41 94 42 88 43
REMARK SMILES IDX 90 44 38 45 93 46 87 47 86 48 39 50 73 51 52 52 72 53 53 54
REMARK SMILES IDX 56 55 71 56 91 57 54 58 55 59 70 61 92 62 57 63 40 64 41 65
REMARK SMILES IDX 50 66 42 67 43 68 49 69 51 70 44 71 45 72 46 73 47 74 48 75
REMARK SMILES IDX 74 76 75 77 84 78 76 79 77 80 83 81 85 82 78 83 79 84 80 85
REMARK SMILES IDX 81 86 82 87 58 88 59 89 68 90 60 91 61 92 67 93 69 94 62 95
REMARK SMILES IDX 63 96 64 97 65 98 66 99
REMARK H PARENT 8 17 90 49 56 60
REMARK Flexibility Score: inf
ROOT
ATOM      1  C   UNL A   1      33.860  31.717  28.023  1.00  0.00     0.274 C 
ENDROOT
BRANCH   1   2
ATOM      2  O   UNL A   1      33.938  30.696  27.002  1.00  0.00    -0.461 OA
BRANCH   2   3
ATOM      3  C   UNL A   1      32.893  30.133  26.335  1.00  0.00     0.316 C 
ATOM      4  O   UNL A   1      31.746  30.463  26.637  1.00  0.00    -0.251 OA
BRANCH   3   5
ATOM      5  C   UNL A   1      33.163  29.102  25.263  1.00  0.00     0.193 C 
BRANCH   5   6
ATOM      6  S   UNL A   1      34.011  27.601  25.879  1.00  0.00    -0.132 SA
BRANCH   6   7
ATOM      7  C   UNL A   1      32.888  26.181  25.421  1.00  0.00     0.166 C 
BRANCH   7   8
ATOM      8  C   UNL A   1      33.687  25.085  24.722  1.00  0.00    -0.026 A 
ATOM      9  C   UNL A   1      33.209  24.527  23.520  1.00  0.00     0.005 A 
ATOM     10  C   UNL A   1      34.931  24.625  25.173  1.00  0.00     0.005 A 
ATOM     11  C   UNL A   1      33.927  23.530  22.842  1.00  0.00     0.000 A 
ATOM     12  C   UNL A   1      35.654  23.635  24.502  1.00  0.00     0.000 A 
ATOM     13  C   UNL A   1      35.147  23.080  23.339  1.00  0.00     0.000 A 
ENDBRANCH   7   8
BRANCH   7  14
ATOM     14  C   UNL A   1      31.806  25.896  26.498  1.00  0.00     0.242 C 
ATOM     15  O   UNL A   1      31.113  26.811  26.974  1.00  0.00    -0.273 OA
ATOM     16  N   UNL A   1      31.349  24.664  26.870  1.00  0.00    -0.325 N 
ATOM     17  H   UNL A   1      30.559  24.687  27.457  1.00  0.00     0.169 HD
BRANCH  16  18
ATOM     18  C   UNL A   1      31.797  23.386  26.568  1.00  0.00     0.041 A 
ATOM     19  C   UNL A   1      31.140  22.682  25.563  1.00  0.00     0.027 A 
ATOM     20  C   UNL A   1      32.833  22.782  27.267  1.00  0.00     0.027 A 
ATOM     21  C   UNL A   1      31.680  21.484  25.096  1.00  0.00     0.015 A 
ATOM     22  C   UNL A   1      33.376  21.585  26.807  1.00  0.00     0.015 A 
ATOM     23  C   UNL A   1      32.854  20.968  25.664  1.00  0.00     0.056 A 
BRANCH  23  24
ATOM     24  C   UNL A   1      33.561  19.791  25.044  1.00  0.00     0.416 C 
ATOM     25  F   UNL A   1      34.915  19.900  25.097  1.00  0.00    -0.166 F 
ATOM     26  F   UNL A   1      33.253  18.611  25.652  1.00  0.00    -0.166 F 
ATOM     27  F   UNL A   1      33.247  19.618  23.729  1.00  0.00    -0.166 F 
ENDBRANCH  23  24
ENDBRANCH  16  18
ENDBRANCH   7  14
ENDBRANCH   6   7
ENDBRANCH   5   6
ENDBRANCH   3   5
ENDBRANCH   2   3
ENDBRANCH   1   2
BRANCH   1  28
ATOM     28  C   UNL A   1      35.060  31.698  28.960  1.00  0.00     0.275 C 
BRANCH  28  29
ATOM     29  O   UNL A   1      35.761  30.465  28.794  1.00  0.00    -0.458 OA
BRANCH  29  30
ATOM     30  C   UNL A   1      36.381  30.035  29.921  1.00  0.00     0.338 C 
ATOM     31  O   UNL A   1      35.857  29.591  30.927  1.00  0.00    -0.246 OA
BRANCH  30  32
ATOM     32  C   UNL A   1      37.823  29.979  29.642  1.00  0.00     0.060 A 
ATOM     33  C   UNL A   1      38.236  29.793  28.316  1.00  0.00     0.016 A 
ATOM     34  C   UNL A   1      38.753  30.115  30.675  1.00  0.00     0.016 A 
ATOM     35  C   UNL A   1      39.590  29.670  28.026  1.00  0.00     0.010 A 
ATOM     36  C   UNL A   1      40.104  29.980  30.388  1.00  0.00     0.010 A 
ATOM     37  C   UNL A   1      40.517  29.703  29.073  1.00  0.00    -0.014 A 
BRANCH  37  38
ATOM     38  C   UNL A   1      41.877  29.162  28.888  1.00  0.00     0.031 A 
ATOM     39  C   UNL A   1      43.008  30.150  28.883  1.00  0.00     0.074 A 
ATOM     40  C   UNL A   1      42.075  27.863  28.623  1.00  0.00     0.049 A 
ATOM     41  N   UNL A   1      44.254  29.985  28.537  1.00  0.00    -0.248 NA
ATOM     42  C   UNL A   1      42.671  31.524  29.296  1.00  0.00     0.031 C 
ATOM     43  C   UNL A   1      41.040  26.832  28.620  1.00  0.00     0.029 A 
ATOM     44  N   UNL A   1      43.219  27.203  28.259  1.00  0.00    -0.354 N 
ATOM     45  C   UNL A   1      44.844  31.237  28.665  1.00  0.00     0.074 A 
ATOM     46  C   UNL A   1      43.817  32.155  29.100  1.00  0.00     0.031 C 
ATOM     47  C   UNL A   1      41.590  25.670  28.226  1.00  0.00     0.029 A 
ATOM     48  C   UNL A   1      43.003  25.890  27.918  1.00  0.00     0.049 A 
ATOM     49  H   UNL A   1      44.108  27.627  28.244  1.00  0.00     0.167 HD
ATOM     50  C   UNL A   1      46.130  31.587  28.435  1.00  0.00     0.037 A 
ATOM     51  C   UNL A   1      43.846  24.990  27.379  1.00  0.00     0.037 A 
ATOM     52  C   UNL A   1      47.130  30.659  27.985  1.00  0.00     0.049 A 
ATOM     53  C   UNL A   1      45.270  25.398  27.104  1.00  0.00     0.074 A 
ATOM     54  C   UNL A   1      48.471  30.885  27.740  1.00  0.00     0.029 A 
ATOM     55  N   UNL A   1      46.886  29.322  27.698  1.00  0.00    -0.354 N 
ATOM     56  N   UNL A   1      45.835  26.573  27.264  1.00  0.00    -0.248 NA
ATOM     57  C   UNL A   1      46.171  24.364  26.582  1.00  0.00     0.031 C 
ATOM     58  C   UNL A   1      49.029  29.694  27.264  1.00  0.00     0.029 A 
ATOM     59  C   UNL A   1      48.048  28.713  27.260  1.00  0.00     0.049 A 
ATOM     60  H   UNL A   1      46.015  28.874  27.793  1.00  0.00     0.167 HD
ATOM     61  C   UNL A   1      47.165  26.413  26.890  1.00  0.00     0.074 A 
ATOM     62  C   UNL A   1      47.318  25.028  26.492  1.00  0.00     0.031 C 
ATOM     63  C   UNL A   1      48.170  27.325  26.885  1.00  0.00     0.037 A 
BRANCH  50  64
ATOM     64  C   UNL A   1      46.489  33.034  28.622  1.00  0.00     0.058 A 
ATOM     65  C   UNL A   1      46.915  33.538  29.863  1.00  0.00     0.135 A 
ATOM     66  C   UNL A   1      46.363  33.940  27.558  1.00  0.00     0.135 A 
ATOM     67  F   UNL A   1      47.030  32.719  30.921  1.00  0.00    -0.206 F 
ATOM     68  C   UNL A   1      47.152  34.895  30.054  1.00  0.00     0.059 A 
ATOM     69  C   UNL A   1      46.624  35.298  27.719  1.00  0.00     0.059 A 
ATOM     70  F   UNL A   1      45.954  33.516  26.352  1.00  0.00    -0.206 F 
ATOM     71  C   UNL A   1      46.994  35.770  28.978  1.00  0.00     0.060 A 
BRANCH  71  72
ATOM     72  S   UNL A   1      47.262  37.533  29.248  1.00  0.00     0.124 S 
ATOM     73  O   UNL A   1      47.823  37.538  30.595  1.00  0.00    -0.237 OA
ATOM     74  O   UNL A   1      48.189  37.879  28.175  1.00  0.00    -0.237 OA
ATOM     75  O   UNL A   1      45.924  38.103  29.122  1.00  0.00    -0.744 OA
ENDBRANCH  71  72
ENDBRANCH  50  64
BRANCH  51  76
ATOM     76  C   UNL A   1      43.351  23.623  27.071  1.00  0.00     0.058 A 
ATOM     77  C   UNL A   1      43.113  23.223  25.751  1.00  0.00     0.135 A 
ATOM     78  C   UNL A   1      43.177  22.668  28.087  1.00  0.00     0.135 A 
ATOM     79  F   UNL A   1      43.258  24.102  24.748  1.00  0.00    -0.206 F 
ATOM     80  C   UNL A   1      42.728  21.922  25.441  1.00  0.00     0.059 A 
ATOM     81  C   UNL A   1      42.812  21.356  27.802  1.00  0.00     0.059 A 
ATOM     82  F   UNL A   1      43.404  23.000  29.368  1.00  0.00    -0.206 F 
ATOM     83  C   UNL A   1      42.590  20.992  26.474  1.00  0.00     0.060 A 
BRANCH  83  84
ATOM     84  S   UNL A   1      42.183  19.283  26.053  1.00  0.00     0.124 S 
ATOM     85  O   UNL A   1      40.737  19.360  25.875  1.00  0.00    -0.237 OA
ATOM     86  O   UNL A   1      42.965  19.072  24.838  1.00  0.00    -0.237 OA
ATOM     87  O   UNL A   1      42.636  18.531  27.218  1.00  0.00    -0.744 OA
ENDBRANCH  83  84
ENDBRANCH  51  76
BRANCH  63  88
ATOM     88  C   UNL A   1      49.537  26.853  26.481  1.00  0.00     0.058 A 
ATOM     89  C   UNL A   1      50.379  26.173  27.374  1.00  0.00     0.135 A 
ATOM     90  C   UNL A   1      49.963  26.993  25.149  1.00  0.00     0.135 A 
ATOM     91  F   UNL A   1      50.018  26.018  28.657  1.00  0.00    -0.206 F 
ATOM     92  C   UNL A   1      51.600  25.650  26.961  1.00  0.00     0.059 A 
ATOM     93  C   UNL A   1      51.169  26.458  24.710  1.00  0.00     0.059 A 
ATOM     94  F   UNL A   1      49.188  27.626  24.255  1.00  0.00    -0.206 F 
ATOM     95  C   UNL A   1      51.982  25.790  25.625  1.00  0.00     0.060 A 
BRANCH  95  96
ATOM     96  S   UNL A   1      53.535  25.046  25.085  1.00  0.00     0.124 S 
ATOM     97  O   UNL A   1      54.484  25.628  26.028  1.00  0.00    -0.237 OA
ATOM     98  O   UNL A   1      53.273  23.620  25.249  1.00  0.00    -0.237 OA
ATOM     99  O   UNL A   1      53.666  25.496  23.702  1.00  0.00    -0.744 OA
ENDBRANCH  95  96
ENDBRANCH  63  88
ENDBRANCH  37  38
ENDBRANCH  30  32
ENDBRANCH  29  30
ENDBRANCH  28  29
ENDBRANCH   1  28
TORSDOF 20
ENDMDL
