MODEL 1
REMARK VINA RESULT:     -10.8      0.000      0.000
REMARK SMILES COc1ccc(OC)c([C@H](C(=O)OCCOC(=O)c2ccc(-c3c4nc(c(-c5c(F)cc(S(=O)(=O)[O-])cc5F)c5ccc([nH]5)c(-c5c(F)cc(S(=O)(=O)[O-])cc5F)c5nc(c(-c6c(F)cc(S(=O)(=O)[O-])cc6F)c6ccc3[nH]6)C=C5)C=C4)cc2)[NH+]2CC[NH+](Cc3nccn3C)CC2)c1
REMARK SMILES IDX 14 1 13 2 11 3 12 4 10 5 9 6 3 7 4 8 98 9 5 10 6 11 2 12
REMARK SMILES IDX 1 13 7 14 8 15 85 16 86 17 97 18 87 20 96 21 88 22 89 24
REMARK SMILES IDX 90 25 91 26 94 27 92 28 93 29 95 30 15 31 16 32 17 33 18 34
REMARK SMILES IDX 19 35 20 36 84 37 21 38 83 39 22 40 23 41 24 42 77 43 25 44
REMARK SMILES IDX 82 45 76 46 78 47 26 48 81 49 75 50 74 51 27 53 61 54 40 55
REMARK SMILES IDX 60 56 41 57 44 58 59 59 79 60 42 61 43 62 58 64 80 65 45 66
REMARK SMILES IDX 28 67 29 68 38 69 30 70 31 71 37 72 39 73 32 74 33 75 34 76
REMARK SMILES IDX 35 77 36 78 62 79 63 80 72 81 64 82 65 83 71 84 73 85 66 86
REMARK SMILES IDX 67 87 68 88 69 89 70 90 46 91 47 92 56 93 48 94 49 95 55 96
REMARK SMILES IDX 57 97 50 98 51 99 52 100 53 101 54 102
REMARK H PARENT 85 19 88 23 78 52 44 63
REMARK Flexibility Score: inf
ROOT
ATOM      1  C   UNL A   1      37.022  22.731  26.061  1.00  0.00     0.274 C 
ENDROOT
BRANCH   1   2
ATOM      2  O   UNL A   1      36.379  23.991  25.772  1.00  0.00    -0.457 OA
BRANCH   2   3
ATOM      3  C   UNL A   1      35.296  23.944  24.949  1.00  0.00     0.370 C 
ATOM      4  O   UNL A   1      35.375  23.970  23.723  1.00  0.00    -0.245 OA
BRANCH   3   5
ATOM      5  C   UNL A   1      33.954  23.954  25.689  1.00  0.00     0.330 C 
BRANCH   5   6
ATOM      6  C   UNL A   1      33.167  25.265  25.736  1.00  0.00     0.067 A 
ATOM      7  C   UNL A   1      32.788  27.585  25.035  1.00  0.00     0.119 A 
ATOM      8  C   UNL A   1      31.571  27.597  25.716  1.00  0.00     0.050 A 
ATOM      9  C   UNL A   1      33.586  26.432  25.059  1.00  0.00     0.060 A 
ATOM     10  C   UNL A   1      31.141  26.469  26.405  1.00  0.00     0.051 A 
ATOM     11  C   UNL A   1      31.921  25.312  26.395  1.00  0.00     0.128 A 
BRANCH   7  12
ATOM     12  O   UNL A   1      33.070  28.759  24.393  1.00  0.00    -0.497 OA
ATOM     13  C   UNL A   1      33.168  28.728  22.977  1.00  0.00     0.278 C 
ENDBRANCH   7  12
BRANCH  11  14
ATOM     14  O   UNL A   1      31.448  24.253  27.127  1.00  0.00    -0.496 OA
ATOM     15  C   UNL A   1      30.099  23.935  26.785  1.00  0.00     0.278 C 
ENDBRANCH  11  14
ENDBRANCH   5   6
BRANCH   5  16
ATOM     16  N   UNL A   1      33.105  22.772  25.417  1.00  0.00    -0.310 N 
ATOM     17  C   UNL A   1      32.358  22.707  24.161  1.00  0.00     0.325 C 
ATOM     18  C   UNL A   1      33.652  21.496  25.866  1.00  0.00     0.325 C 
ATOM     19  H   UNL A   1      32.339  22.982  26.058  1.00  0.00     0.349 HD
ATOM     20  C   UNL A   1      32.832  21.692  23.095  1.00  0.00     0.324 C 
ATOM     21  C   UNL A   1      34.174  20.554  24.761  1.00  0.00     0.324 C 
ATOM     22  N   UNL A   1      33.335  20.395  23.572  1.00  0.00    -0.319 N 
ATOM     23  H   UNL A   1      33.961  20.019  22.860  1.00  0.00     0.348 HD
BRANCH  22  24
ATOM     24  C   UNL A   1      32.293  19.360  23.653  1.00  0.00     0.339 C 
BRANCH  24  25
ATOM     25  C   UNL A   1      32.625  18.127  24.439  1.00  0.00     0.164 A 
ATOM     26  N   UNL A   1      32.199  17.873  25.665  1.00  0.00    -0.236 NA
ATOM     27  N   UNL A   1      33.414  17.091  23.993  1.00  0.00    -0.333 N 
ATOM     28  C   UNL A   1      32.840  16.733  26.063  1.00  0.00     0.131 A 
ATOM     29  C   UNL A   1      33.600  16.227  25.040  1.00  0.00     0.107 A 
ATOM     30  C   UNL A   1      34.005  16.910  22.692  1.00  0.00     0.151 C 
ENDBRANCH  24  25
ENDBRANCH  22  24
ENDBRANCH   5  16
ENDBRANCH   3   5
ENDBRANCH   2   3
ENDBRANCH   1   2
BRANCH   1  31
ATOM     31  C   UNL A   1      38.534  22.900  26.102  1.00  0.00     0.275 C 
BRANCH  31  32
ATOM     32  O   UNL A   1      38.824  24.027  26.936  1.00  0.00    -0.458 OA
BRANCH  32  33
ATOM     33  C   UNL A   1      40.112  24.432  26.939  1.00  0.00     0.338 C 
ATOM     34  O   UNL A   1      41.012  24.069  26.202  1.00  0.00    -0.246 OA
BRANCH  33  35
ATOM     35  C   UNL A   1      40.257  25.491  27.947  1.00  0.00     0.060 A 
ATOM     36  C   UNL A   1      39.245  25.665  28.893  1.00  0.00     0.016 A 
ATOM     37  C   UNL A   1      41.332  26.373  27.887  1.00  0.00     0.016 A 
ATOM     38  C   UNL A   1      39.269  26.756  29.750  1.00  0.00     0.010 A 
ATOM     39  C   UNL A   1      41.404  27.414  28.813  1.00  0.00     0.010 A 
ATOM     40  C   UNL A   1      40.369  27.618  29.745  1.00  0.00    -0.014 A 
BRANCH  40  41
ATOM     41  C   UNL A   1      40.455  28.721  30.730  1.00  0.00     0.031 A 
ATOM     42  C   UNL A   1      41.452  28.649  31.848  1.00  0.00     0.074 A 
ATOM     43  C   UNL A   1      39.608  29.765  30.633  1.00  0.00     0.049 A 
ATOM     44  N   UNL A   1      41.513  29.360  32.943  1.00  0.00    -0.248 NA
ATOM     45  C   UNL A   1      42.506  27.629  31.727  1.00  0.00     0.031 C 
ATOM     46  C   UNL A   1      38.632  29.970  29.560  1.00  0.00     0.029 A 
ATOM     47  N   UNL A   1      39.423  30.845  31.458  1.00  0.00    -0.354 N 
ATOM     48  C   UNL A   1      42.576  28.839  33.670  1.00  0.00     0.074 A 
ATOM     49  C   UNL A   1      43.135  27.756  32.889  1.00  0.00     0.031 C 
ATOM     50  C   UNL A   1      37.961  31.109  29.785  1.00  0.00     0.029 A 
ATOM     51  C   UNL A   1      38.398  31.669  31.058  1.00  0.00     0.049 A 
ATOM     52  H   UNL A   1      39.970  31.013  32.259  1.00  0.00     0.167 HD
ATOM     53  C   UNL A   1      43.030  29.232  34.884  1.00  0.00     0.037 A 
ATOM     54  C   UNL A   1      37.835  32.725  31.672  1.00  0.00     0.037 A 
ATOM     55  C   UNL A   1      42.488  30.345  35.621  1.00  0.00     0.049 A 
ATOM     56  C   UNL A   1      38.341  33.127  33.026  1.00  0.00     0.074 A 
ATOM     57  C   UNL A   1      42.880  30.837  36.855  1.00  0.00     0.029 A 
ATOM     58  N   UNL A   1      41.447  31.152  35.183  1.00  0.00    -0.354 N 
ATOM     59  N   UNL A   1      39.300  32.585  33.740  1.00  0.00    -0.248 NA
ATOM     60  C   UNL A   1      37.679  34.269  33.669  1.00  0.00     0.031 C 
ATOM     61  C   UNL A   1      42.058  31.925  37.172  1.00  0.00     0.029 A 
ATOM     62  C   UNL A   1      41.177  32.133  36.122  1.00  0.00     0.049 A 
ATOM     63  H   UNL A   1      40.971  31.044  34.328  1.00  0.00     0.167 HD
ATOM     64  C   UNL A   1      39.359  33.321  34.915  1.00  0.00     0.074 A 
ATOM     65  C   UNL A   1      38.352  34.360  34.807  1.00  0.00     0.031 C 
ATOM     66  C   UNL A   1      40.166  33.151  35.991  1.00  0.00     0.037 A 
BRANCH  53  67
ATOM     67  C   UNL A   1      44.139  28.431  35.504  1.00  0.00     0.058 A 
ATOM     68  C   UNL A   1      45.491  28.741  35.292  1.00  0.00     0.135 A 
ATOM     69  C   UNL A   1      43.841  27.348  36.346  1.00  0.00     0.135 A 
ATOM     70  F   UNL A   1      45.832  29.754  34.481  1.00  0.00    -0.206 F 
ATOM     71  C   UNL A   1      46.508  27.991  35.875  1.00  0.00     0.059 A 
ATOM     72  C   UNL A   1      44.841  26.598  36.958  1.00  0.00     0.059 A 
ATOM     73  F   UNL A   1      42.564  27.007  36.582  1.00  0.00    -0.206 F 
ATOM     74  C   UNL A   1      46.174  26.918  36.703  1.00  0.00     0.060 A 
BRANCH  74  75
ATOM     75  S   UNL A   1      47.501  25.955  37.460  1.00  0.00     0.124 S 
ATOM     76  O   UNL A   1      47.234  26.157  38.880  1.00  0.00    -0.237 OA
ATOM     77  O   UNL A   1      47.245  24.611  36.952  1.00  0.00    -0.237 OA
ATOM     78  O   UNL A   1      48.713  26.592  36.952  1.00  0.00    -0.744 OA
ENDBRANCH  74  75
ENDBRANCH  53  67
BRANCH  54  79
ATOM     79  C   UNL A   1      36.700  33.435  31.027  1.00  0.00     0.058 A 
ATOM     80  C   UNL A   1      36.908  34.267  29.919  1.00  0.00     0.135 A 
ATOM     81  C   UNL A   1      35.382  33.262  31.480  1.00  0.00     0.135 A 
ATOM     82  F   UNL A   1      38.151  34.468  29.456  1.00  0.00    -0.206 F 
ATOM     83  C   UNL A   1      35.851  34.908  29.282  1.00  0.00     0.059 A 
ATOM     84  C   UNL A   1      34.307  33.874  30.845  1.00  0.00     0.059 A 
ATOM     85  F   UNL A   1      35.130  32.463  32.528  1.00  0.00    -0.206 F 
ATOM     86  C   UNL A   1      34.552  34.701  29.751  1.00  0.00     0.060 A 
BRANCH  86  87
ATOM     87  S   UNL A   1      33.175  35.481  28.879  1.00  0.00     0.124 S 
ATOM     88  O   UNL A   1      33.870  36.470  28.062  1.00  0.00    -0.237 OA
ATOM     89  O   UNL A   1      32.587  34.357  28.158  1.00  0.00    -0.237 OA
ATOM     90  O   UNL A   1      32.356  36.017  29.961  1.00  0.00    -0.744 OA
ENDBRANCH  86  87
ENDBRANCH  54  79
BRANCH  66  91
ATOM     91  C   UNL A   1      39.997  34.124  37.121  1.00  0.00     0.058 A 
ATOM     92  C   UNL A   1      39.131  33.858  38.193  1.00  0.00     0.135 A 
ATOM     93  C   UNL A   1      40.723  35.324  37.142  1.00  0.00     0.135 A 
ATOM     94  F   UNL A   1      38.408  32.727  38.211  1.00  0.00    -0.206 F 
ATOM     95  C   UNL A   1      38.971  34.762  39.236  1.00  0.00     0.059 A 
ATOM     96  C   UNL A   1      40.595  36.233  38.185  1.00  0.00     0.059 A 
ATOM     97  F   UNL A   1      41.569  35.619  36.142  1.00  0.00    -0.206 F 
ATOM     98  C   UNL A   1      39.705  35.951  39.221  1.00  0.00     0.060 A 
BRANCH  98  99
ATOM     99  S   UNL A   1      39.504  37.112  40.587  1.00  0.00     0.124 S 
ATOM    100  O   UNL A   1      38.244  37.760  40.237  1.00  0.00    -0.237 OA
ATOM    101  O   UNL A   1      39.461  36.231  41.750  1.00  0.00    -0.237 OA
ATOM    102  O   UNL A   1      40.693  37.955  40.491  1.00  0.00    -0.744 OA
ENDBRANCH  98  99
ENDBRANCH  66  91
ENDBRANCH  40  41
ENDBRANCH  33  35
ENDBRANCH  32  33
ENDBRANCH  31  32
ENDBRANCH   1  31
TORSDOF 20
ENDMDL
MODEL 2
REMARK VINA RESULT:     -10.8      2.260      4.893
REMARK SMILES COc1ccc(OC)c([C@H](C(=O)OCCOC(=O)c2ccc(-c3c4nc(c(-c5c(F)cc(S(=O)(=O)[O-])cc5F)c5ccc([nH]5)c(-c5c(F)cc(S(=O)(=O)[O-])cc5F)c5nc(c(-c6c(F)cc(S(=O)(=O)[O-])cc6F)c6ccc3[nH]6)C=C5)C=C4)cc2)[NH+]2CC[NH+](Cc3nccn3C)CC2)c1
REMARK SMILES IDX 14 1 13 2 11 3 12 4 10 5 9 6 3 7 4 8 98 9 5 10 6 11 2 12
REMARK SMILES IDX 1 13 7 14 8 15 85 16 86 17 97 18 87 20 96 21 88 22 89 24
REMARK SMILES IDX 90 25 91 26 94 27 92 28 93 29 95 30 15 31 16 32 17 33 18 34
REMARK SMILES IDX 19 35 20 36 84 37 21 38 83 39 22 40 23 41 24 42 77 43 25 44
REMARK SMILES IDX 82 45 76 46 78 47 26 48 81 49 75 50 74 51 27 53 61 54 40 55
REMARK SMILES IDX 60 56 41 57 44 58 59 59 79 60 42 61 43 62 58 64 80 65 45 66
REMARK SMILES IDX 28 67 29 68 38 69 30 70 31 71 37 72 39 73 32 74 33 75 34 76
REMARK SMILES IDX 35 77 36 78 62 79 63 80 72 81 64 82 65 83 71 84 73 85 66 86
REMARK SMILES IDX 67 87 68 88 69 89 70 90 46 91 47 92 56 93 48 94 49 95 55 96
REMARK SMILES IDX 57 97 50 98 51 99 52 100 53 101 54 102
REMARK H PARENT 85 19 88 23 78 52 44 63
REMARK Flexibility Score: inf
ROOT
ATOM      1  C   UNL A   1      36.312  21.714  24.838  1.00  0.00     0.274 C 
ENDROOT
BRANCH   1   2
ATOM      2  O   UNL A   1      35.776  21.993  26.150  1.00  0.00    -0.457 OA
BRANCH   2   3
ATOM      3  C   UNL A   1      34.471  21.666  26.353  1.00  0.00     0.370 C 
ATOM      4  O   UNL A   1      33.990  21.454  27.464  1.00  0.00    -0.245 OA
BRANCH   3   5
ATOM      5  C   UNL A   1      33.667  21.486  25.061  1.00  0.00     0.330 C 
BRANCH   5   6
ATOM      6  C   UNL A   1      33.328  20.062  24.615  1.00  0.00     0.067 A 
ATOM      7  C   UNL A   1      33.254  17.639  24.991  1.00  0.00     0.119 A 
ATOM      8  C   UNL A   1      32.510  17.476  23.823  1.00  0.00     0.050 A 
ATOM      9  C   UNL A   1      33.673  18.921  25.375  1.00  0.00     0.060 A 
ATOM     10  C   UNL A   1      32.171  18.578  23.047  1.00  0.00     0.051 A 
ATOM     11  C   UNL A   1      32.558  19.856  23.452  1.00  0.00     0.128 A 
BRANCH   7  12
ATOM     12  O   UNL A   1      33.497  16.469  25.656  1.00  0.00    -0.497 OA
ATOM     13  C   UNL A   1      32.474  15.486  25.654  1.00  0.00     0.278 C 
ENDBRANCH   7  12
BRANCH  11  14
ATOM     14  O   UNL A   1      32.219  20.889  22.615  1.00  0.00    -0.496 OA
ATOM     15  C   UNL A   1      31.778  20.414  21.343  1.00  0.00     0.278 C 
ENDBRANCH  11  14
ENDBRANCH   5   6
BRANCH   5  16
ATOM     16  N   UNL A   1      32.535  22.429  24.917  1.00  0.00    -0.310 N 
ATOM     17  C   UNL A   1      31.348  22.247  25.752  1.00  0.00     0.325 C 
ATOM     18  C   UNL A   1      32.909  23.820  24.685  1.00  0.00     0.325 C 
ATOM     19  H   UNL A   1      32.167  22.092  24.026  1.00  0.00     0.349 HD
ATOM     20  C   UNL A   1      31.100  23.275  26.881  1.00  0.00     0.324 C 
ATOM     21  C   UNL A   1      32.704  24.785  25.872  1.00  0.00     0.324 C 
ATOM     22  N   UNL A   1      31.442  24.678  26.605  1.00  0.00    -0.319 N 
ATOM     23  H   UNL A   1      31.619  25.140  27.497  1.00  0.00     0.348 HD
BRANCH  22  24
ATOM     24  C   UNL A   1      30.316  25.456  26.065  1.00  0.00     0.339 C 
BRANCH  24  25
ATOM     25  C   UNL A   1      30.655  26.738  25.366  1.00  0.00     0.164 A 
ATOM     26  N   UNL A   1      30.452  26.976  24.080  1.00  0.00    -0.236 NA
ATOM     27  N   UNL A   1      31.221  27.842  25.962  1.00  0.00    -0.333 N 
ATOM     28  C   UNL A   1      31.027  28.190  23.821  1.00  0.00     0.131 A 
ATOM     29  C   UNL A   1      31.510  28.748  24.976  1.00  0.00     0.107 A 
ATOM     30  C   UNL A   1      31.522  28.053  27.356  1.00  0.00     0.151 C 
ENDBRANCH  24  25
ENDBRANCH  22  24
ENDBRANCH   5  16
ENDBRANCH   3   5
ENDBRANCH   2   3
ENDBRANCH   1   2
BRANCH   1  31
ATOM     31  C   UNL A   1      37.403  22.712  24.484  1.00  0.00     0.275 C 
BRANCH  31  32
ATOM     32  O   UNL A   1      37.710  23.461  25.666  1.00  0.00    -0.458 OA
BRANCH  32  33
ATOM     33  C   UNL A   1      38.965  23.310  26.140  1.00  0.00     0.338 C 
ATOM     34  O   UNL A   1      39.755  22.416  25.895  1.00  0.00    -0.246 OA
BRANCH  33  35
ATOM     35  C   UNL A   1      39.288  24.484  26.964  1.00  0.00     0.060 A 
ATOM     36  C   UNL A   1      40.109  25.478  26.429  1.00  0.00     0.016 A 
ATOM     37  C   UNL A   1      38.872  24.544  28.290  1.00  0.00     0.016 A 
ATOM     38  C   UNL A   1      40.569  26.512  27.231  1.00  0.00     0.010 A 
ATOM     39  C   UNL A   1      39.256  25.636  29.069  1.00  0.00     0.010 A 
ATOM     40  C   UNL A   1      40.114  26.622  28.548  1.00  0.00    -0.014 A 
BRANCH  40  41
ATOM     41  C   UNL A   1      40.513  27.783  29.379  1.00  0.00     0.031 A 
ATOM     42  C   UNL A   1      41.778  27.728  30.181  1.00  0.00     0.074 A 
ATOM     43  C   UNL A   1      39.711  28.865  29.434  1.00  0.00     0.049 A 
ATOM     44  N   UNL A   1      42.168  28.507  31.156  1.00  0.00    -0.248 NA
ATOM     45  C   UNL A   1      42.718  26.643  29.858  1.00  0.00     0.031 C 
ATOM     46  C   UNL A   1      38.483  29.053  28.657  1.00  0.00     0.029 A 
ATOM     47  N   UNL A   1      39.804  30.007  30.188  1.00  0.00    -0.354 N 
ATOM     48  C   UNL A   1      43.371  27.975  31.603  1.00  0.00     0.074 A 
ATOM     49  C   UNL A   1      43.650  26.811  30.788  1.00  0.00     0.031 C 
ATOM     50  C   UNL A   1      37.945  30.243  28.965  1.00  0.00     0.029 A 
ATOM     51  C   UNL A   1      38.739  30.860  30.019  1.00  0.00     0.049 A 
ATOM     52  H   UNL A   1      40.558  30.197  30.791  1.00  0.00     0.167 HD
ATOM     53  C   UNL A   1      44.159  28.423  32.609  1.00  0.00     0.037 A 
ATOM     54  C   UNL A   1      38.409  31.986  30.677  1.00  0.00     0.037 A 
ATOM     55  C   UNL A   1      43.886  29.612  33.374  1.00  0.00     0.049 A 
ATOM     56  C   UNL A   1      39.287  32.449  31.803  1.00  0.00     0.074 A 
ATOM     57  C   UNL A   1      44.624  30.163  34.408  1.00  0.00     0.029 A 
ATOM     58  N   UNL A   1      42.795  30.447  33.175  1.00  0.00    -0.354 N 
ATOM     59  N   UNL A   1      40.385  31.902  32.267  1.00  0.00    -0.248 NA
ATOM     60  C   UNL A   1      38.872  33.668  32.508  1.00  0.00     0.031 C 
ATOM     61  C   UNL A   1      43.964  31.316  34.850  1.00  0.00     0.029 A 
ATOM     62  C   UNL A   1      42.834  31.503  34.069  1.00  0.00     0.049 A 
ATOM     63  H   UNL A   1      42.096  30.309  32.495  1.00  0.00     0.167 HD
ATOM     64  C   UNL A   1      40.796  32.711  33.317  1.00  0.00     0.074 A 
ATOM     65  C   UNL A   1      39.839  33.797  33.406  1.00  0.00     0.031 C 
ATOM     66  C   UNL A   1      41.864  32.567  34.140  1.00  0.00     0.037 A 
BRANCH  53  67
ATOM     67  C   UNL A   1      45.367  27.602  32.964  1.00  0.00     0.058 A 
ATOM     68  C   UNL A   1      45.306  26.546  33.885  1.00  0.00     0.135 A 
ATOM     69  C   UNL A   1      46.602  27.866  32.351  1.00  0.00     0.135 A 
ATOM     70  F   UNL A   1      44.155  26.263  34.514  1.00  0.00    -0.206 F 
ATOM     71  C   UNL A   1      46.433  25.793  34.202  1.00  0.00     0.059 A 
ATOM     72  C   UNL A   1      47.737  27.112  32.636  1.00  0.00     0.059 A 
ATOM     73  F   UNL A   1      46.717  28.867  31.464  1.00  0.00    -0.206 F 
ATOM     74  C   UNL A   1      47.645  26.086  33.575  1.00  0.00     0.060 A 
BRANCH  74  75
ATOM     75  S   UNL A   1      49.101  25.099  33.989  1.00  0.00     0.124 S 
ATOM     76  O   UNL A   1      48.488  23.852  34.437  1.00  0.00    -0.237 OA
ATOM     77  O   UNL A   1      49.811  25.034  32.716  1.00  0.00    -0.237 OA
ATOM     78  O   UNL A   1      49.757  25.885  35.029  1.00  0.00    -0.744 OA
ENDBRANCH  74  75
ENDBRANCH  53  67
BRANCH  54  79
ATOM     79  C   UNL A   1      37.167  32.716  30.313  1.00  0.00     0.058 A 
ATOM     80  C   UNL A   1      37.180  33.714  29.331  1.00  0.00     0.135 A 
ATOM     81  C   UNL A   1      35.936  32.400  30.911  1.00  0.00     0.135 A 
ATOM     82  F   UNL A   1      38.334  34.056  28.738  1.00  0.00    -0.206 F 
ATOM     83  C   UNL A   1      36.018  34.380  28.954  1.00  0.00     0.059 A 
ATOM     84  C   UNL A   1      34.757  33.034  30.534  1.00  0.00     0.059 A 
ATOM     85  F   UNL A   1      35.869  31.440  31.847  1.00  0.00    -0.206 F 
ATOM     86  C   UNL A   1      34.810  34.028  29.559  1.00  0.00     0.060 A 
BRANCH  86  87
ATOM     87  S   UNL A   1      33.292  34.847  29.017  1.00  0.00     0.124 S 
ATOM     88  O   UNL A   1      33.814  36.086  28.452  1.00  0.00    -0.237 OA
ATOM     89  O   UNL A   1      32.747  33.889  28.060  1.00  0.00    -0.237 OA
ATOM     90  O   UNL A   1      32.529  34.986  30.254  1.00  0.00    -0.744 OA
ENDBRANCH  86  87
ENDBRANCH  54  79
BRANCH  66  91
ATOM     91  C   UNL A   1      42.053  33.622  35.190  1.00  0.00     0.058 A 
ATOM     92  C   UNL A   1      42.676  34.844  34.896  1.00  0.00     0.135 A 
ATOM     93  C   UNL A   1      41.587  33.416  36.498  1.00  0.00     0.135 A 
ATOM     94  F   UNL A   1      43.147  35.082  33.661  1.00  0.00    -0.206 F 
ATOM     95  C   UNL A   1      42.856  35.819  35.871  1.00  0.00     0.059 A 
ATOM     96  C   UNL A   1      41.737  34.385  37.483  1.00  0.00     0.059 A 
ATOM     97  F   UNL A   1      40.978  32.266  36.825  1.00  0.00    -0.206 F 
ATOM     98  C   UNL A   1      42.386  35.578  37.164  1.00  0.00     0.060 A 
BRANCH  98  99
ATOM     99  S   UNL A   1      42.608  36.854  38.420  1.00  0.00     0.124 S 
ATOM    100  O   UNL A   1      43.450  37.815  37.715  1.00  0.00    -0.237 OA
ATOM    101  O   UNL A   1      41.238  37.285  38.681  1.00  0.00    -0.237 OA
ATOM    102  O   UNL A   1      43.252  36.140  39.518  1.00  0.00    -0.744 OA
ENDBRANCH  98  99
ENDBRANCH  66  91
ENDBRANCH  40  41
ENDBRANCH  33  35
ENDBRANCH  32  33
ENDBRANCH  31  32
ENDBRANCH   1  31
TORSDOF 20
ENDMDL
MODEL 3
REMARK VINA RESULT:     -10.7      1.189      8.100
REMARK SMILES COc1ccc(OC)c([C@H](C(=O)OCCOC(=O)c2ccc(-c3c4nc(c(-c5c(F)cc(S(=O)(=O)[O-])cc5F)c5ccc([nH]5)c(-c5c(F)cc(S(=O)(=O)[O-])cc5F)c5nc(c(-c6c(F)cc(S(=O)(=O)[O-])cc6F)c6ccc3[nH]6)C=C5)C=C4)cc2)[NH+]2CC[NH+](Cc3nccn3C)CC2)c1
REMARK SMILES IDX 14 1 13 2 11 3 12 4 10 5 9 6 3 7 4 8 98 9 5 10 6 11 2 12
REMARK SMILES IDX 1 13 7 14 8 15 85 16 86 17 97 18 87 20 96 21 88 22 89 24
REMARK SMILES IDX 90 25 91 26 94 27 92 28 93 29 95 30 15 31 16 32 17 33 18 34
REMARK SMILES IDX 19 35 20 36 84 37 21 38 83 39 22 40 23 41 24 42 77 43 25 44
REMARK SMILES IDX 82 45 76 46 78 47 26 48 81 49 75 50 74 51 27 53 61 54 40 55
REMARK SMILES IDX 60 56 41 57 44 58 59 59 79 60 42 61 43 62 58 64 80 65 45 66
REMARK SMILES IDX 28 67 29 68 38 69 30 70 31 71 37 72 39 73 32 74 33 75 34 76
REMARK SMILES IDX 35 77 36 78 62 79 63 80 72 81 64 82 65 83 71 84 73 85 66 86
REMARK SMILES IDX 67 87 68 88 69 89 70 90 46 91 47 92 56 93 48 94 49 95 55 96
REMARK SMILES IDX 57 97 50 98 51 99 52 100 53 101 54 102
REMARK H PARENT 85 19 88 23 78 52 44 63
REMARK Flexibility Score: inf
ROOT
ATOM      1  C   UNL A   1      38.267  22.492  25.811  1.00  0.00     0.274 C 
ENDROOT
BRANCH   1   2
ATOM      2  O   UNL A   1      37.000  23.137  26.067  1.00  0.00    -0.457 OA
BRANCH   2   3
ATOM      3  C   UNL A   1      36.321  23.590  24.978  1.00  0.00     0.370 C 
ATOM      4  O   UNL A   1      36.852  23.820  23.894  1.00  0.00    -0.245 OA
BRANCH   3   5
ATOM      5  C   UNL A   1      34.841  23.884  25.248  1.00  0.00     0.330 C 
BRANCH   5   6
ATOM      6  C   UNL A   1      34.276  25.226  24.778  1.00  0.00     0.067 A 
ATOM      7  C   UNL A   1      33.646  27.564  25.173  1.00  0.00     0.119 A 
ATOM      8  C   UNL A   1      33.402  27.733  23.810  1.00  0.00     0.050 A 
ATOM      9  C   UNL A   1      34.064  26.315  25.654  1.00  0.00     0.060 A 
ATOM     10  C   UNL A   1      33.585  26.675  22.927  1.00  0.00     0.051 A 
ATOM     11  C   UNL A   1      34.037  25.445  23.405  1.00  0.00     0.128 A 
BRANCH   7  12
ATOM     12  O   UNL A   1      33.437  28.694  25.913  1.00  0.00    -0.497 OA
ATOM     13  C   UNL A   1      34.351  28.971  26.963  1.00  0.00     0.278 C 
ENDBRANCH   7  12
BRANCH  11  14
ATOM     14  O   UNL A   1      34.158  24.439  22.480  1.00  0.00    -0.496 OA
ATOM     15  C   UNL A   1      32.908  24.143  21.856  1.00  0.00     0.278 C 
ENDBRANCH  11  14
ENDBRANCH   5   6
BRANCH   5  16
ATOM     16  N   UNL A   1      33.938  22.742  24.976  1.00  0.00    -0.310 N 
ATOM     17  C   UNL A   1      34.460  21.576  24.265  1.00  0.00     0.325 C 
ATOM     18  C   UNL A   1      32.991  22.431  26.042  1.00  0.00     0.325 C 
ATOM     19  H   UNL A   1      33.382  23.160  24.230  1.00  0.00     0.349 HD
ATOM     20  C   UNL A   1      34.661  20.273  25.072  1.00  0.00     0.324 C 
ATOM     21  C   UNL A   1      33.283  21.155  26.860  1.00  0.00     0.324 C 
ATOM     22  N   UNL A   1      33.667  19.959  26.109  1.00  0.00    -0.319 N 
ATOM     23  H   UNL A   1      34.110  19.351  26.797  1.00  0.00     0.348 HD
BRANCH  22  24
ATOM     24  C   UNL A   1      32.559  19.124  25.619  1.00  0.00     0.339 C 
BRANCH  24  25
ATOM     25  C   UNL A   1      32.922  17.788  25.044  1.00  0.00     0.164 A 
ATOM     26  N   UNL A   1      33.270  16.727  25.753  1.00  0.00    -0.236 NA
ATOM     27  N   UNL A   1      32.943  17.481  23.702  1.00  0.00    -0.333 N 
ATOM     28  C   UNL A   1      33.658  15.775  24.851  1.00  0.00     0.131 A 
ATOM     29  C   UNL A   1      33.462  16.220  23.569  1.00  0.00     0.107 A 
ATOM     30  C   UNL A   1      32.547  18.305  22.588  1.00  0.00     0.151 C 
ENDBRANCH  24  25
ENDBRANCH  22  24
ENDBRANCH   5  16
ENDBRANCH   3   5
ENDBRANCH   2   3
ENDBRANCH   1   2
BRANCH   1  31
ATOM     31  C   UNL A   1      39.375  23.158  26.613  1.00  0.00     0.275 C 
BRANCH  31  32
ATOM     32  O   UNL A   1      39.213  24.575  26.488  1.00  0.00    -0.458 OA
BRANCH  32  33
ATOM     33  C   UNL A   1      40.353  25.297  26.534  1.00  0.00     0.338 C 
ATOM     34  O   UNL A   1      41.242  25.344  25.702  1.00  0.00    -0.246 OA
BRANCH  33  35
ATOM     35  C   UNL A   1      40.323  26.125  27.747  1.00  0.00     0.060 A 
ATOM     36  C   UNL A   1      39.369  25.850  28.728  1.00  0.00     0.016 A 
ATOM     37  C   UNL A   1      41.158  27.232  27.859  1.00  0.00     0.016 A 
ATOM     38  C   UNL A   1      39.203  26.711  29.803  1.00  0.00     0.010 A 
ATOM     39  C   UNL A   1      41.055  28.044  28.990  1.00  0.00     0.010 A 
ATOM     40  C   UNL A   1      40.071  27.794  29.965  1.00  0.00    -0.014 A 
BRANCH  40  41
ATOM     41  C   UNL A   1      39.972  28.655  31.166  1.00  0.00     0.031 A 
ATOM     42  C   UNL A   1      38.982  29.782  31.199  1.00  0.00     0.074 A 
ATOM     43  C   UNL A   1      40.801  28.440  32.207  1.00  0.00     0.049 A 
ATOM     44  N   UNL A   1      38.916  30.794  32.022  1.00  0.00    -0.248 NA
ATOM     45  C   UNL A   1      37.945  29.779  30.155  1.00  0.00     0.031 C 
ATOM     46  C   UNL A   1      41.767  27.344  32.311  1.00  0.00     0.029 A 
ATOM     47  N   UNL A   1      40.972  29.143  33.372  1.00  0.00    -0.354 N 
ATOM     48  C   UNL A   1      37.866  31.581  31.566  1.00  0.00     0.074 A 
ATOM     49  C   UNL A   1      37.321  30.925  30.396  1.00  0.00     0.031 C 
ATOM     50  C   UNL A   1      42.420  27.440  33.478  1.00  0.00     0.029 A 
ATOM     51  C   UNL A   1      41.981  28.649  34.164  1.00  0.00     0.049 A 
ATOM     52  H   UNL A   1      40.427  29.925  33.616  1.00  0.00     0.167 HD
ATOM     53  C   UNL A   1      37.412  32.749  32.080  1.00  0.00     0.037 A 
ATOM     54  C   UNL A   1      42.530  29.142  35.289  1.00  0.00     0.037 A 
ATOM     55  C   UNL A   1      37.939  33.358  33.275  1.00  0.00     0.049 A 
ATOM     56  C   UNL A   1      42.025  30.448  35.827  1.00  0.00     0.074 A 
ATOM     57  C   UNL A   1      37.546  34.534  33.890  1.00  0.00     0.029 A 
ATOM     58  N   UNL A   1      38.964  32.828  34.046  1.00  0.00    -0.354 N 
ATOM     59  N   UNL A   1      41.080  31.223  35.350  1.00  0.00    -0.248 NA
ATOM     60  C   UNL A   1      42.672  30.959  37.041  1.00  0.00     0.031 C 
ATOM     61  C   UNL A   1      38.352  34.727  35.019  1.00  0.00     0.029 A 
ATOM     62  C   UNL A   1      39.223  33.654  35.127  1.00  0.00     0.049 A 
ATOM     63  H   UNL A   1      39.437  31.986  33.854  1.00  0.00     0.167 HD
ATOM     64  C   UNL A   1      41.015  32.313  36.207  1.00  0.00     0.074 A 
ATOM     65  C   UNL A   1      42.004  32.087  37.244  1.00  0.00     0.031 C 
ATOM     66  C   UNL A   1      40.217  33.407  36.141  1.00  0.00     0.037 A 
BRANCH  53  67
ATOM     67  C   UNL A   1      36.320  33.460  31.333  1.00  0.00     0.058 A 
ATOM     68  C   UNL A   1      35.038  33.636  31.876  1.00  0.00     0.135 A 
ATOM     69  C   UNL A   1      36.570  33.995  30.059  1.00  0.00     0.135 A 
ATOM     70  F   UNL A   1      34.740  33.129  33.082  1.00  0.00    -0.206 F 
ATOM     71  C   UNL A   1      34.036  34.299  31.173  1.00  0.00     0.059 A 
ATOM     72  C   UNL A   1      35.590  34.681  29.348  1.00  0.00     0.059 A 
ATOM     73  F   UNL A   1      37.778  33.853  29.492  1.00  0.00    -0.206 F 
ATOM     74  C   UNL A   1      34.321  34.815  29.907  1.00  0.00     0.060 A 
BRANCH  74  75
ATOM     75  S   UNL A   1      33.015  35.678  29.005  1.00  0.00     0.124 S 
ATOM     76  O   UNL A   1      32.523  34.622  28.126  1.00  0.00    -0.237 OA
ATOM     77  O   UNL A   1      32.108  36.085  30.075  1.00  0.00    -0.237 OA
ATOM     78  O   UNL A   1      33.725  36.767  28.343  1.00  0.00    -0.744 OA
ENDBRANCH  74  75
ENDBRANCH  53  67
BRANCH  54  79
ATOM     79  C   UNL A   1      43.649  28.416  35.943  1.00  0.00     0.058 A 
ATOM     80  C   UNL A   1      44.981  28.782  35.708  1.00  0.00     0.135 A 
ATOM     81  C   UNL A   1      43.407  27.370  36.848  1.00  0.00     0.135 A 
ATOM     82  F   UNL A   1      45.262  29.771  34.846  1.00  0.00    -0.206 F 
ATOM     83  C   UNL A   1      46.036  28.136  36.343  1.00  0.00     0.059 A 
ATOM     84  C   UNL A   1      44.444  26.724  37.512  1.00  0.00     0.059 A 
ATOM     85  F   UNL A   1      42.147  26.991  37.118  1.00  0.00    -0.206 F 
ATOM     86  C   UNL A   1      45.757  27.110  37.247  1.00  0.00     0.060 A 
BRANCH  86  87
ATOM     87  S   UNL A   1      47.126  26.319  38.121  1.00  0.00     0.124 S 
ATOM     88  O   UNL A   1      47.598  27.406  38.971  1.00  0.00    -0.237 OA
ATOM     89  O   UNL A   1      46.462  25.215  38.807  1.00  0.00    -0.237 OA
ATOM     90  O   UNL A   1      48.026  25.922  37.042  1.00  0.00    -0.744 OA
ENDBRANCH  86  87
ENDBRANCH  54  79
BRANCH  66  91
ATOM     91  C   UNL A   1      40.376  34.424  37.232  1.00  0.00     0.058 A 
ATOM     92  C   UNL A   1      39.636  34.343  38.421  1.00  0.00     0.135 A 
ATOM     93  C   UNL A   1      41.292  35.479  37.094  1.00  0.00     0.135 A 
ATOM     94  F   UNL A   1      38.741  33.358  38.594  1.00  0.00    -0.206 F 
ATOM     95  C   UNL A   1      39.780  35.290  39.430  1.00  0.00     0.059 A 
ATOM     96  C   UNL A   1      41.467  36.424  38.098  1.00  0.00     0.059 A 
ATOM     97  F   UNL A   1      42.027  35.594  35.978  1.00  0.00    -0.206 F 
ATOM     98  C   UNL A   1      40.696  36.330  39.257  1.00  0.00     0.060 A 
BRANCH  98  99
ATOM     99  S   UNL A   1      40.889  37.545  40.576  1.00  0.00     0.124 S 
ATOM    100  O   UNL A   1      39.579  38.187  40.578  1.00  0.00    -0.237 OA
ATOM    101  O   UNL A   1      41.186  36.710  41.736  1.00  0.00    -0.237 OA
ATOM    102  O   UNL A   1      41.996  38.376  40.111  1.00  0.00    -0.744 OA
ENDBRANCH  98  99
ENDBRANCH  66  91
ENDBRANCH  40  41
ENDBRANCH  33  35
ENDBRANCH  32  33
ENDBRANCH  31  32
ENDBRANCH   1  31
TORSDOF 20
ENDMDL
