MODEL 1
REMARK VINA RESULT:     -11.2      0.000      0.000
REMARK SMILES O=C(Cc1ccccc1C(=O)OCCOC(=O)c1ccc(-c2c3nc(c(-c4c(F)cc(S(=O)(=O)[O-])cc4F)c4ccc([nH]4)c(-c4c(F)cc(S(=O)(=O)[O-])cc4F)c4nc(c(-c5c(F)cc(S(=O)(=O)[O-])cc5F)c5ccc2[nH]5)C=C4)C=C3)cc1)Nc1cccc(OC[C@@H]2CCCO2)c1
REMARK SMILES IDX 12 1 10 2 11 3 9 4 4 5 5 6 6 7 8 8 7 9 3 10 2 11 1 12 84 13
REMARK SMILES IDX 85 15 86 16 97 17 87 18 89 19 88 20 90 21 91 22 92 23 93 24
REMARK SMILES IDX 96 25 94 26 95 27 13 28 14 29 15 30 16 31 17 32 18 33 19 34
REMARK SMILES IDX 83 35 20 36 82 37 21 38 22 39 23 40 76 41 24 42 81 43 75 44
REMARK SMILES IDX 77 45 25 46 80 47 74 48 73 49 26 51 60 52 39 53 59 54 40 55
REMARK SMILES IDX 43 56 58 57 78 58 41 59 42 60 57 62 79 63 44 64 27 65 28 66
REMARK SMILES IDX 37 67 29 68 30 69 36 70 38 71 31 72 32 73 33 74 34 75 35 76
REMARK SMILES IDX 61 77 62 78 71 79 63 80 64 81 70 82 72 83 65 84 66 85 67 86
REMARK SMILES IDX 68 87 69 88 45 89 46 90 55 91 47 92 48 93 54 94 56 95 49 96
REMARK SMILES IDX 50 97 51 98 52 99 53 100
REMARK H PARENT 84 14 77 50 43 61
REMARK Flexibility Score: inf
ROOT
ATOM      1  O   UNL A   1      36.823  21.447  25.938  1.00  0.00    -0.458 OA
ENDROOT
BRANCH   1   2
ATOM      2  C   UNL A   1      35.940  21.443  24.908  1.00  0.00     0.338 C 
ATOM      3  O   UNL A   1      35.912  22.232  23.982  1.00  0.00    -0.246 OA
BRANCH   2   4
ATOM      4  C   UNL A   1      34.989  20.298  24.990  1.00  0.00     0.063 A 
ATOM      5  C   UNL A   1      33.642  20.408  25.376  1.00  0.00    -0.024 A 
ATOM      6  C   UNL A   1      32.808  19.273  25.255  1.00  0.00     0.005 A 
ATOM      7  C   UNL A   1      33.309  18.048  24.820  1.00  0.00     0.000 A 
ATOM      8  C   UNL A   1      35.466  19.063  24.515  1.00  0.00     0.016 A 
ATOM      9  C   UNL A   1      34.644  17.940  24.461  1.00  0.00     0.001 A 
BRANCH   5  10
ATOM     10  C   UNL A   1      33.021  21.679  25.900  1.00  0.00     0.136 C 
BRANCH  10  11
ATOM     11  C   UNL A   1      32.581  22.678  24.839  1.00  0.00     0.228 C 
ATOM     12  O   UNL A   1      31.618  22.404  24.124  1.00  0.00    -0.274 OA
ATOM     13  N   UNL A   1      33.258  23.888  24.854  1.00  0.00    -0.326 N 
ATOM     14  H   UNL A   1      34.062  23.933  25.420  1.00  0.00     0.169 HD
BRANCH  13  15
ATOM     15  C   UNL A   1      32.924  25.063  24.145  1.00  0.00     0.044 A 
ATOM     16  C   UNL A   1      33.373  25.184  22.825  1.00  0.00     0.026 A 
ATOM     17  C   UNL A   1      32.173  26.099  24.703  1.00  0.00     0.072 A 
ATOM     18  C   UNL A   1      33.024  26.300  22.063  1.00  0.00     0.006 A 
ATOM     19  C   UNL A   1      31.771  27.190  23.935  1.00  0.00     0.121 A 
ATOM     20  C   UNL A   1      32.213  27.292  22.615  1.00  0.00     0.046 A 
BRANCH  19  21
ATOM     21  O   UNL A   1      30.950  28.200  24.354  1.00  0.00    -0.491 OA
BRANCH  21  22
ATOM     22  C   UNL A   1      30.917  29.419  23.603  1.00  0.00     0.261 C 
BRANCH  22  23
ATOM     23  C   UNL A   1      29.519  30.055  23.408  1.00  0.00     0.156 C 
ATOM     24  C   UNL A   1      28.400  29.039  23.204  1.00  0.00     0.038 C 
ATOM     25  O   UNL A   1      29.461  30.994  22.324  1.00  0.00    -0.375 OA
ATOM     26  C   UNL A   1      27.527  29.663  22.144  1.00  0.00     0.031 C 
ATOM     27  C   UNL A   1      28.487  30.539  21.377  1.00  0.00     0.161 C 
ENDBRANCH  22  23
ENDBRANCH  21  22
ENDBRANCH  19  21
ENDBRANCH  13  15
ENDBRANCH  10  11
ENDBRANCH   5  10
ENDBRANCH   2   4
ENDBRANCH   1   2
BRANCH   1  28
ATOM     28  C   UNL A   1      38.172  21.847  25.602  1.00  0.00     0.275 C 
BRANCH  28  29
ATOM     29  C   UNL A   1      38.491  23.258  26.089  1.00  0.00     0.275 C 
BRANCH  29  30
ATOM     30  O   UNL A   1      39.530  23.218  27.080  1.00  0.00    -0.458 OA
BRANCH  30  31
ATOM     31  C   UNL A   1      40.530  24.105  26.891  1.00  0.00     0.338 C 
ATOM     32  O   UNL A   1      41.516  23.979  26.181  1.00  0.00    -0.246 OA
BRANCH  31  33
ATOM     33  C   UNL A   1      40.250  25.338  27.639  1.00  0.00     0.060 A 
ATOM     34  C   UNL A   1      41.064  26.445  27.423  1.00  0.00     0.016 A 
ATOM     35  C   UNL A   1      39.321  25.339  28.676  1.00  0.00     0.016 A 
ATOM     36  C   UNL A   1      41.054  27.504  28.325  1.00  0.00     0.010 A 
ATOM     37  C   UNL A   1      39.232  26.457  29.513  1.00  0.00     0.010 A 
ATOM     38  C   UNL A   1      40.139  27.526  29.389  1.00  0.00    -0.014 A 
BRANCH  38  39
ATOM     39  C   UNL A   1      40.178  28.619  30.407  1.00  0.00     0.031 A 
ATOM     40  C   UNL A   1      41.218  28.590  31.504  1.00  0.00     0.074 A 
ATOM     41  C   UNL A   1      39.306  29.646  30.354  1.00  0.00     0.049 A 
ATOM     42  N   UNL A   1      41.302  29.319  32.587  1.00  0.00    -0.248 NA
ATOM     43  C   UNL A   1      42.294  27.594  31.372  1.00  0.00     0.031 C 
ATOM     44  C   UNL A   1      38.276  29.835  29.329  1.00  0.00     0.029 A 
ATOM     45  N   UNL A   1      39.150  30.734  31.179  1.00  0.00    -0.354 N 
ATOM     46  C   UNL A   1      42.390  28.823  33.299  1.00  0.00     0.074 A 
ATOM     47  C   UNL A   1      42.937  27.732  32.523  1.00  0.00     0.031 C 
ATOM     48  C   UNL A   1      37.627  30.986  29.562  1.00  0.00     0.029 A 
ATOM     49  C   UNL A   1      38.126  31.571  30.801  1.00  0.00     0.049 A 
ATOM     50  H   UNL A   1      39.718  30.899  31.966  1.00  0.00     0.167 HD
ATOM     51  C   UNL A   1      42.887  29.239  34.490  1.00  0.00     0.037 A 
ATOM     52  C   UNL A   1      37.609  32.660  31.404  1.00  0.00     0.037 A 
ATOM     53  C   UNL A   1      42.382  30.374  35.222  1.00  0.00     0.049 A 
ATOM     54  C   UNL A   1      38.178  33.108  32.719  1.00  0.00     0.074 A 
ATOM     55  C   UNL A   1      42.822  30.883  36.433  1.00  0.00     0.029 A 
ATOM     56  N   UNL A   1      41.343  31.189  34.800  1.00  0.00    -0.354 N 
ATOM     57  N   UNL A   1      39.158  32.583  33.415  1.00  0.00    -0.248 NA
ATOM     58  C   UNL A   1      37.561  34.288  33.341  1.00  0.00     0.031 C 
ATOM     59  C   UNL A   1      42.031  31.993  36.753  1.00  0.00     0.029 A 
ATOM     60  C   UNL A   1      41.128  32.199  35.724  1.00  0.00     0.049 A 
ATOM     61  H   UNL A   1      40.834  31.069  33.966  1.00  0.00     0.167 HD
ATOM     62  C   UNL A   1      39.285  33.375  34.550  1.00  0.00     0.074 A 
ATOM     63  C   UNL A   1      38.293  34.425  34.439  1.00  0.00     0.031 C 
ATOM     64  C   UNL A   1      40.142  33.243  35.592  1.00  0.00     0.037 A 
BRANCH  51  65
ATOM     65  C   UNL A   1      44.012  28.442  35.095  1.00  0.00     0.058 A 
ATOM     66  C   UNL A   1      45.360  28.718  34.818  1.00  0.00     0.135 A 
ATOM     67  C   UNL A   1      43.732  27.397  35.992  1.00  0.00     0.135 A 
ATOM     68  F   UNL A   1      45.686  29.695  33.957  1.00  0.00    -0.206 F 
ATOM     69  C   UNL A   1      46.388  27.966  35.380  1.00  0.00     0.059 A 
ATOM     70  C   UNL A   1      44.743  26.650  36.588  1.00  0.00     0.059 A 
ATOM     71  F   UNL A   1      42.461  27.091  36.297  1.00  0.00    -0.206 F 
ATOM     72  C   UNL A   1      46.069  26.931  36.261  1.00  0.00     0.060 A 
BRANCH  72  73
ATOM     73  S   UNL A   1      47.411  25.958  36.981  1.00  0.00     0.124 S 
ATOM     74  O   UNL A   1      48.583  26.643  36.447  1.00  0.00    -0.237 OA
ATOM     75  O   UNL A   1      47.182  26.118  38.413  1.00  0.00    -0.237 OA
ATOM     76  O   UNL A   1      47.175  24.616  36.458  1.00  0.00    -0.744 OA
ENDBRANCH  72  73
ENDBRANCH  51  65
BRANCH  52  77
ATOM     77  C   UNL A   1      36.467  33.378  30.777  1.00  0.00     0.058 A 
ATOM     78  C   UNL A   1      35.169  33.263  31.294  1.00  0.00     0.135 A 
ATOM     79  C   UNL A   1      36.658  34.220  29.670  1.00  0.00     0.135 A 
ATOM     80  F   UNL A   1      34.934  32.461  32.345  1.00  0.00    -0.206 F 
ATOM     81  C   UNL A   1      34.099  33.954  30.736  1.00  0.00     0.059 A 
ATOM     82  C   UNL A   1      35.609  34.944  29.112  1.00  0.00     0.059 A 
ATOM     83  F   UNL A   1      37.883  34.375  29.145  1.00  0.00    -0.206 F 
ATOM     84  C   UNL A   1      34.331  34.798  29.648  1.00  0.00     0.060 A 
BRANCH  84  85
ATOM     85  S   UNL A   1      32.950  35.748  28.974  1.00  0.00     0.124 S 
ATOM     86  O   UNL A   1      33.640  36.878  28.365  1.00  0.00    -0.237 OA
ATOM     87  O   UNL A   1      32.341  34.796  28.050  1.00  0.00    -0.237 OA
ATOM     88  O   UNL A   1      32.151  36.057  30.157  1.00  0.00    -0.744 OA
ENDBRANCH  84  85
ENDBRANCH  52  77
BRANCH  64  89
ATOM     89  C   UNL A   1      40.077  34.286  36.670  1.00  0.00     0.058 A 
ATOM     90  C   UNL A   1      39.163  34.197  37.731  1.00  0.00     0.135 A 
ATOM     91  C   UNL A   1      40.962  35.377  36.655  1.00  0.00     0.135 A 
ATOM     92  F   UNL A   1      38.291  33.177  37.787  1.00  0.00    -0.206 F 
ATOM     93  C   UNL A   1      39.108  35.169  38.725  1.00  0.00     0.059 A 
ATOM     94  C   UNL A   1      40.941  36.346  37.650  1.00  0.00     0.059 A 
ATOM     95  F   UNL A   1      41.861  35.503  35.666  1.00  0.00    -0.206 F 
ATOM     96  C   UNL A   1      40.000  36.241  38.674  1.00  0.00     0.060 A 
BRANCH  96  97
ATOM     97  S   UNL A   1      39.932  37.490  39.976  1.00  0.00     0.124 S 
ATOM     98  O   UNL A   1      41.091  38.315  39.651  1.00  0.00    -0.237 OA
ATOM     99  O   UNL A   1      38.629  38.110  39.750  1.00  0.00    -0.237 OA
ATOM    100  O   UNL A   1      40.041  36.707  41.203  1.00  0.00    -0.744 OA
ENDBRANCH  96  97
ENDBRANCH  64  89
ENDBRANCH  38  39
ENDBRANCH  31  33
ENDBRANCH  30  31
ENDBRANCH  29  30
ENDBRANCH  28  29
ENDBRANCH   1  28
TORSDOF 20
ENDMDL
MODEL 2
REMARK VINA RESULT:     -11.0      5.292      9.168
REMARK SMILES O=C(Cc1ccccc1C(=O)OCCOC(=O)c1ccc(-c2c3nc(c(-c4c(F)cc(S(=O)(=O)[O-])cc4F)c4ccc([nH]4)c(-c4c(F)cc(S(=O)(=O)[O-])cc4F)c4nc(c(-c5c(F)cc(S(=O)(=O)[O-])cc5F)c5ccc2[nH]5)C=C4)C=C3)cc1)Nc1cccc(OC[C@@H]2CCCO2)c1
REMARK SMILES IDX 12 1 10 2 11 3 9 4 4 5 5 6 6 7 8 8 7 9 3 10 2 11 1 12 84 13
REMARK SMILES IDX 85 15 86 16 97 17 87 18 89 19 88 20 90 21 91 22 92 23 93 24
REMARK SMILES IDX 96 25 94 26 95 27 13 28 14 29 15 30 16 31 17 32 18 33 19 34
REMARK SMILES IDX 83 35 20 36 82 37 21 38 22 39 23 40 76 41 24 42 81 43 75 44
REMARK SMILES IDX 77 45 25 46 80 47 74 48 73 49 26 51 60 52 39 53 59 54 40 55
REMARK SMILES IDX 43 56 58 57 78 58 41 59 42 60 57 62 79 63 44 64 27 65 28 66
REMARK SMILES IDX 37 67 29 68 30 69 36 70 38 71 31 72 32 73 33 74 34 75 35 76
REMARK SMILES IDX 61 77 62 78 71 79 63 80 64 81 70 82 72 83 65 84 66 85 67 86
REMARK SMILES IDX 68 87 69 88 45 89 46 90 55 91 47 92 48 93 54 94 56 95 49 96
REMARK SMILES IDX 50 97 51 98 52 99 53 100
REMARK H PARENT 84 14 77 50 43 61
REMARK Flexibility Score: inf
ROOT
ATOM      1  O   UNL A   1      35.832  20.793  25.102  1.00  0.00    -0.458 OA
ENDROOT
BRANCH   1   2
ATOM      2  C   UNL A   1      34.586  20.470  25.530  1.00  0.00     0.338 C 
ATOM      3  O   UNL A   1      33.997  20.970  26.470  1.00  0.00    -0.246 OA
BRANCH   2   4
ATOM      4  C   UNL A   1      33.953  19.426  24.676  1.00  0.00     0.063 A 
ATOM      5  C   UNL A   1      32.741  19.591  23.982  1.00  0.00    -0.024 A 
ATOM      6  C   UNL A   1      32.334  18.583  23.080  1.00  0.00     0.005 A 
ATOM      7  C   UNL A   1      33.077  17.416  22.913  1.00  0.00     0.000 A 
ATOM      8  C   UNL A   1      34.708  18.259  24.463  1.00  0.00     0.016 A 
ATOM      9  C   UNL A   1      34.260  17.248  23.616  1.00  0.00     0.001 A 
BRANCH   5  10
ATOM     10  C   UNL A   1      31.848  20.798  24.131  1.00  0.00     0.136 C 
BRANCH  10  11
ATOM     11  C   UNL A   1      32.457  22.121  23.684  1.00  0.00     0.228 C 
ATOM     12  O   UNL A   1      32.909  22.215  22.544  1.00  0.00    -0.274 OA
ATOM     13  N   UNL A   1      32.339  23.160  24.596  1.00  0.00    -0.326 N 
ATOM     14  H   UNL A   1      32.034  22.917  25.500  1.00  0.00     0.169 HD
BRANCH  13  15
ATOM     15  C   UNL A   1      32.608  24.528  24.371  1.00  0.00     0.044 A 
ATOM     16  C   UNL A   1      33.682  25.107  25.055  1.00  0.00     0.026 A 
ATOM     17  C   UNL A   1      31.852  25.319  23.505  1.00  0.00     0.072 A 
ATOM     18  C   UNL A   1      34.025  26.441  24.828  1.00  0.00     0.006 A 
ATOM     19  C   UNL A   1      32.218  26.634  23.227  1.00  0.00     0.121 A 
ATOM     20  C   UNL A   1      33.301  27.195  23.904  1.00  0.00     0.046 A 
BRANCH  19  21
ATOM     21  O   UNL A   1      31.611  27.455  22.318  1.00  0.00    -0.491 OA
BRANCH  21  22
ATOM     22  C   UNL A   1      30.307  27.968  22.614  1.00  0.00     0.261 C 
BRANCH  22  23
ATOM     23  C   UNL A   1      30.108  29.485  22.382  1.00  0.00     0.156 C 
ATOM     24  C   UNL A   1      29.494  30.218  23.570  1.00  0.00     0.038 C 
ATOM     25  O   UNL A   1      29.318  29.790  21.223  1.00  0.00    -0.375 OA
ATOM     26  C   UNL A   1      28.535  31.198  22.940  1.00  0.00     0.031 C 
ATOM     27  C   UNL A   1      28.165  30.531  21.638  1.00  0.00     0.161 C 
ENDBRANCH  22  23
ENDBRANCH  21  22
ENDBRANCH  19  21
ENDBRANCH  13  15
ENDBRANCH  10  11
ENDBRANCH   5  10
ENDBRANCH   2   4
ENDBRANCH   1   2
BRANCH   1  28
ATOM     28  C   UNL A   1      36.046  22.193  24.807  1.00  0.00     0.275 C 
BRANCH  28  29
ATOM     29  C   UNL A   1      37.030  22.840  25.779  1.00  0.00     0.275 C 
BRANCH  29  30
ATOM     30  O   UNL A   1      38.380  22.556  25.380  1.00  0.00    -0.458 OA
BRANCH  30  31
ATOM     31  C   UNL A   1      39.217  22.233  26.391  1.00  0.00     0.338 C 
ATOM     32  O   UNL A   1      39.604  21.121  26.713  1.00  0.00    -0.246 OA
BRANCH  31  33
ATOM     33  C   UNL A   1      39.681  23.455  27.061  1.00  0.00     0.060 A 
ATOM     34  C   UNL A   1      39.280  24.685  26.550  1.00  0.00     0.016 A 
ATOM     35  C   UNL A   1      40.652  23.389  28.057  1.00  0.00     0.016 A 
ATOM     36  C   UNL A   1      39.944  25.847  26.932  1.00  0.00     0.010 A 
ATOM     37  C   UNL A   1      41.236  24.572  28.522  1.00  0.00     0.010 A 
ATOM     38  C   UNL A   1      40.936  25.810  27.922  1.00  0.00    -0.014 A 
BRANCH  38  39
ATOM     39  C   UNL A   1      41.710  27.038  28.276  1.00  0.00     0.031 A 
ATOM     40  C   UNL A   1      41.032  28.168  29.016  1.00  0.00     0.074 A 
ATOM     41  C   UNL A   1      43.016  27.148  27.961  1.00  0.00     0.049 A 
ATOM     42  N   UNL A   1      41.456  29.386  29.241  1.00  0.00    -0.248 NA
ATOM     43  C   UNL A   1      39.688  27.898  29.555  1.00  0.00     0.031 C 
ATOM     44  C   UNL A   1      43.818  26.123  27.289  1.00  0.00     0.029 A 
ATOM     45  N   UNL A   1      43.906  28.174  28.170  1.00  0.00    -0.354 N 
ATOM     46  C   UNL A   1      40.410  30.044  29.880  1.00  0.00     0.074 A 
ATOM     47  C   UNL A   1      39.329  29.091  30.007  1.00  0.00     0.031 C 
ATOM     48  C   UNL A   1      45.084  26.553  27.181  1.00  0.00     0.029 A 
ATOM     49  C   UNL A   1      45.168  27.918  27.686  1.00  0.00     0.049 A 
ATOM     50  H   UNL A   1      43.663  29.014  28.624  1.00  0.00     0.167 HD
ATOM     51  C   UNL A   1      40.354  31.326  30.317  1.00  0.00     0.037 A 
ATOM     52  C   UNL A   1      46.260  28.704  27.611  1.00  0.00     0.037 A 
ATOM     53  C   UNL A   1      41.460  32.249  30.253  1.00  0.00     0.049 A 
ATOM     54  C   UNL A   1      46.180  30.119  28.108  1.00  0.00     0.074 A 
ATOM     55  C   UNL A   1      41.509  33.566  30.677  1.00  0.00     0.029 A 
ATOM     56  N   UNL A   1      42.717  31.944  29.753  1.00  0.00    -0.354 N 
ATOM     57  N   UNL A   1      45.159  30.749  28.639  1.00  0.00    -0.248 NA
ATOM     58  C   UNL A   1      47.394  30.936  27.980  1.00  0.00     0.031 C 
ATOM     59  C   UNL A   1      42.790  34.064  30.412  1.00  0.00     0.029 A 
ATOM     60  C   UNL A   1      43.550  33.046  29.860  1.00  0.00     0.049 A 
ATOM     61  H   UNL A   1      42.980  31.072  29.378  1.00  0.00     0.167 HD
ATOM     62  C   UNL A   1      45.612  32.033  28.922  1.00  0.00     0.074 A 
ATOM     63  C   UNL A   1      47.002  32.084  28.519  1.00  0.00     0.031 C 
ATOM     64  C   UNL A   1      44.935  33.076  29.463  1.00  0.00     0.037 A 
BRANCH  51  65
ATOM     65  C   UNL A   1      39.045  31.820  30.873  1.00  0.00     0.058 A 
ATOM     66  C   UNL A   1      38.000  32.265  30.048  1.00  0.00     0.135 A 
ATOM     67  C   UNL A   1      38.825  31.824  32.262  1.00  0.00     0.135 A 
ATOM     68  F   UNL A   1      38.160  32.298  28.716  1.00  0.00    -0.206 F 
ATOM     69  C   UNL A   1      36.799  32.728  30.580  1.00  0.00     0.059 A 
ATOM     70  C   UNL A   1      37.623  32.255  32.814  1.00  0.00     0.059 A 
ATOM     71  F   UNL A   1      39.788  31.405  33.099  1.00  0.00    -0.206 F 
ATOM     72  C   UNL A   1      36.621  32.722  31.964  1.00  0.00     0.060 A 
BRANCH  72  73
ATOM     73  S   UNL A   1      35.061  33.329  32.642  1.00  0.00     0.124 S 
ATOM     74  O   UNL A   1      34.092  32.529  31.900  1.00  0.00    -0.237 OA
ATOM     75  O   UNL A   1      35.190  33.012  34.060  1.00  0.00    -0.237 OA
ATOM     76  O   UNL A   1      35.080  34.752  32.318  1.00  0.00    -0.744 OA
ENDBRANCH  72  73
ENDBRANCH  51  65
BRANCH  52  77
ATOM     77  C   UNL A   1      47.512  28.171  27.010  1.00  0.00     0.058 A 
ATOM     78  C   UNL A   1      47.709  28.182  25.621  1.00  0.00     0.135 A 
ATOM     79  C   UNL A   1      48.550  27.674  27.813  1.00  0.00     0.135 A 
ATOM     80  F   UNL A   1      46.741  28.637  24.810  1.00  0.00    -0.206 F 
ATOM     81  C   UNL A   1      48.888  27.716  25.049  1.00  0.00     0.059 A 
ATOM     82  C   UNL A   1      49.749  27.229  27.267  1.00  0.00     0.059 A 
ATOM     83  F   UNL A   1      48.417  27.654  29.148  1.00  0.00    -0.206 F 
ATOM     84  C   UNL A   1      49.906  27.247  25.882  1.00  0.00     0.060 A 
BRANCH  84  85
ATOM     85  S   UNL A   1      51.461  26.712  25.137  1.00  0.00     0.124 S 
ATOM     86  O   UNL A   1      52.399  27.683  25.685  1.00  0.00    -0.237 OA
ATOM     87  O   UNL A   1      51.590  25.346  25.637  1.00  0.00    -0.237 OA
ATOM     88  O   UNL A   1      51.200  26.823  23.704  1.00  0.00    -0.744 OA
ENDBRANCH  84  85
ENDBRANCH  52  77
BRANCH  64  89
ATOM     89  C   UNL A   1      45.705  34.344  29.694  1.00  0.00     0.058 A 
ATOM     90  C   UNL A   1      45.708  35.388  28.757  1.00  0.00     0.135 A 
ATOM     91  C   UNL A   1      46.426  34.529  30.886  1.00  0.00     0.135 A 
ATOM     92  F   UNL A   1      45.041  35.258  27.599  1.00  0.00    -0.206 F 
ATOM     93  C   UNL A   1      46.425  36.560  28.978  1.00  0.00     0.059 A 
ATOM     94  C   UNL A   1      47.128  35.701  31.139  1.00  0.00     0.059 A 
ATOM     95  F   UNL A   1      46.445  33.564  31.819  1.00  0.00    -0.206 F 
ATOM     96  C   UNL A   1      47.134  36.706  30.171  1.00  0.00     0.060 A 
BRANCH  96  97
ATOM     97  S   UNL A   1      48.049  38.235  30.458  1.00  0.00     0.124 S 
ATOM     98  O   UNL A   1      47.251  38.862  31.506  1.00  0.00    -0.237 OA
ATOM     99  O   UNL A   1      49.361  37.745  30.868  1.00  0.00    -0.237 OA
ATOM    100  O   UNL A   1      48.014  38.900  29.158  1.00  0.00    -0.744 OA
ENDBRANCH  96  97
ENDBRANCH  64  89
ENDBRANCH  38  39
ENDBRANCH  31  33
ENDBRANCH  30  31
ENDBRANCH  29  30
ENDBRANCH  28  29
ENDBRANCH   1  28
TORSDOF 20
ENDMDL
MODEL 3
REMARK VINA RESULT:     -10.9      2.693      9.648
REMARK SMILES O=C(Cc1ccccc1C(=O)OCCOC(=O)c1ccc(-c2c3nc(c(-c4c(F)cc(S(=O)(=O)[O-])cc4F)c4ccc([nH]4)c(-c4c(F)cc(S(=O)(=O)[O-])cc4F)c4nc(c(-c5c(F)cc(S(=O)(=O)[O-])cc5F)c5ccc2[nH]5)C=C4)C=C3)cc1)Nc1cccc(OC[C@@H]2CCCO2)c1
REMARK SMILES IDX 12 1 10 2 11 3 9 4 4 5 5 6 6 7 8 8 7 9 3 10 2 11 1 12 84 13
REMARK SMILES IDX 85 15 86 16 97 17 87 18 89 19 88 20 90 21 91 22 92 23 93 24
REMARK SMILES IDX 96 25 94 26 95 27 13 28 14 29 15 30 16 31 17 32 18 33 19 34
REMARK SMILES IDX 83 35 20 36 82 37 21 38 22 39 23 40 76 41 24 42 81 43 75 44
REMARK SMILES IDX 77 45 25 46 80 47 74 48 73 49 26 51 60 52 39 53 59 54 40 55
REMARK SMILES IDX 43 56 58 57 78 58 41 59 42 60 57 62 79 63 44 64 27 65 28 66
REMARK SMILES IDX 37 67 29 68 30 69 36 70 38 71 31 72 32 73 33 74 34 75 35 76
REMARK SMILES IDX 61 77 62 78 71 79 63 80 64 81 70 82 72 83 65 84 66 85 67 86
REMARK SMILES IDX 68 87 69 88 45 89 46 90 55 91 47 92 48 93 54 94 56 95 49 96
REMARK SMILES IDX 50 97 51 98 52 99 53 100
REMARK H PARENT 84 14 77 50 43 61
REMARK Flexibility Score: inf
ROOT
ATOM      1  O   UNL A   1      33.641  33.436  28.638  1.00  0.00    -0.458 OA
ENDROOT
BRANCH   1   2
ATOM      2  C   UNL A   1      34.775  33.243  27.918  1.00  0.00     0.338 C 
ATOM      3  O   UNL A   1      35.383  34.093  27.294  1.00  0.00    -0.246 OA
BRANCH   2   4
ATOM      4  C   UNL A   1      35.258  31.836  27.999  1.00  0.00     0.063 A 
ATOM      5  C   UNL A   1      34.518  30.714  27.588  1.00  0.00    -0.024 A 
ATOM      6  C   UNL A   1      35.155  29.453  27.568  1.00  0.00     0.005 A 
ATOM      7  C   UNL A   1      36.470  29.297  28.001  1.00  0.00     0.000 A 
ATOM      8  C   UNL A   1      36.597  31.665  28.393  1.00  0.00     0.016 A 
ATOM      9  C   UNL A   1      37.189  30.404  28.426  1.00  0.00     0.001 A 
BRANCH   5  10
ATOM     10  C   UNL A   1      33.077  30.777  27.146  1.00  0.00     0.136 C 
BRANCH  10  11
ATOM     11  C   UNL A   1      32.657  29.721  26.133  1.00  0.00     0.228 C 
ATOM     12  O   UNL A   1      33.092  29.788  24.984  1.00  0.00    -0.274 OA
ATOM     13  N   UNL A   1      31.888  28.687  26.647  1.00  0.00    -0.326 N 
ATOM     14  H   UNL A   1      31.542  28.810  27.560  1.00  0.00     0.169 HD
BRANCH  13  15
ATOM     15  C   UNL A   1      31.544  27.477  26.004  1.00  0.00     0.044 A 
ATOM     16  C   UNL A   1      30.673  27.539  24.910  1.00  0.00     0.026 A 
ATOM     17  C   UNL A   1      32.031  26.235  26.413  1.00  0.00     0.072 A 
ATOM     18  C   UNL A   1      30.345  26.379  24.206  1.00  0.00     0.006 A 
ATOM     19  C   UNL A   1      31.755  25.079  25.684  1.00  0.00     0.121 A 
ATOM     20  C   UNL A   1      30.898  25.156  24.586  1.00  0.00     0.046 A 
BRANCH  19  21
ATOM     21  O   UNL A   1      32.268  23.837  25.937  1.00  0.00    -0.491 OA
BRANCH  21  22
ATOM     22  C   UNL A   1      33.526  23.478  25.353  1.00  0.00     0.261 C 
BRANCH  22  23
ATOM     23  C   UNL A   1      33.485  22.336  24.309  1.00  0.00     0.156 C 
ATOM     24  C   UNL A   1      32.170  21.563  24.288  1.00  0.00     0.038 C 
ATOM     25  O   UNL A   1      34.550  21.385  24.456  1.00  0.00    -0.375 OA
ATOM     26  C   UNL A   1      32.592  20.128  24.095  1.00  0.00     0.031 C 
ATOM     27  C   UNL A   1      33.980  20.092  24.689  1.00  0.00     0.161 C 
ENDBRANCH  22  23
ENDBRANCH  21  22
ENDBRANCH  19  21
ENDBRANCH  13  15
ENDBRANCH  10  11
ENDBRANCH   5  10
ENDBRANCH   2   4
ENDBRANCH   1   2
BRANCH   1  28
ATOM     28  C   UNL A   1      32.916  34.652  28.345  1.00  0.00     0.275 C 
BRANCH  28  29
ATOM     29  C   UNL A   1      32.879  35.601  29.541  1.00  0.00     0.275 C 
BRANCH  29  30
ATOM     30  O   UNL A   1      32.726  34.858  30.760  1.00  0.00    -0.458 OA
BRANCH  30  31
ATOM     31  C   UNL A   1      32.905  35.575  31.890  1.00  0.00     0.338 C 
ATOM     32  O   UNL A   1      32.254  36.534  32.277  1.00  0.00    -0.246 OA
BRANCH  31  33
ATOM     33  C   UNL A   1      34.002  34.998  32.677  1.00  0.00     0.060 A 
ATOM     34  C   UNL A   1      35.272  35.555  32.553  1.00  0.00     0.016 A 
ATOM     35  C   UNL A   1      33.821  33.808  33.376  1.00  0.00     0.016 A 
ATOM     36  C   UNL A   1      36.386  34.855  33.006  1.00  0.00     0.010 A 
ATOM     37  C   UNL A   1      34.933  33.165  33.932  1.00  0.00     0.010 A 
ATOM     38  C   UNL A   1      36.236  33.645  33.700  1.00  0.00    -0.014 A 
BRANCH  38  39
ATOM     39  C   UNL A   1      37.429  32.849  34.116  1.00  0.00     0.031 A 
ATOM     40  C   UNL A   1      38.079  33.108  35.455  1.00  0.00     0.074 A 
ATOM     41  C   UNL A   1      37.929  31.883  33.318  1.00  0.00     0.049 A 
ATOM     42  N   UNL A   1      39.224  32.677  35.920  1.00  0.00    -0.248 NA
ATOM     43  C   UNL A   1      37.352  33.986  36.387  1.00  0.00     0.031 C 
ATOM     44  C   UNL A   1      37.382  31.487  32.018  1.00  0.00     0.029 A 
ATOM     45  N   UNL A   1      39.009  31.050  33.486  1.00  0.00    -0.354 N 
ATOM     46  C   UNL A   1      39.389  33.286  37.160  1.00  0.00     0.074 A 
ATOM     47  C   UNL A   1      38.225  34.117  37.377  1.00  0.00     0.031 C 
ATOM     48  C   UNL A   1      38.101  30.465  31.529  1.00  0.00     0.029 A 
ATOM     49  C   UNL A   1      39.215  30.194  32.430  1.00  0.00     0.049 A 
ATOM     50  H   UNL A   1      39.582  31.066  34.286  1.00  0.00     0.167 HD
ATOM     51  C   UNL A   1      40.416  33.166  38.036  1.00  0.00     0.037 A 
ATOM     52  C   UNL A   1      40.211  29.319  32.184  1.00  0.00     0.037 A 
ATOM     53  C   UNL A   1      41.537  32.280  37.846  1.00  0.00     0.049 A 
ATOM     54  C   UNL A   1      41.336  29.196  33.171  1.00  0.00     0.074 A 
ATOM     55  C   UNL A   1      42.626  32.077  38.679  1.00  0.00     0.029 A 
ATOM     56  N   UNL A   1      41.703  31.433  36.761  1.00  0.00    -0.354 N 
ATOM     57  N   UNL A   1      41.514  29.836  34.302  1.00  0.00    -0.248 NA
ATOM     58  C   UNL A   1      42.406  28.244  32.841  1.00  0.00     0.031 C 
ATOM     59  C   UNL A   1      43.460  31.124  38.084  1.00  0.00     0.029 A 
ATOM     60  C   UNL A   1      42.872  30.704  36.902  1.00  0.00     0.049 A 
ATOM     61  H   UNL A   1      41.080  31.360  36.002  1.00  0.00     0.167 HD
ATOM     62  C   UNL A   1      42.709  29.354  34.826  1.00  0.00     0.074 A 
ATOM     63  C   UNL A   1      43.201  28.358  33.897  1.00  0.00     0.031 C 
ATOM     64  C   UNL A   1      43.342  29.708  35.972  1.00  0.00     0.037 A 
BRANCH  51  65
ATOM     65  C   UNL A   1      40.395  34.037  39.264  1.00  0.00     0.058 A 
ATOM     66  C   UNL A   1      39.874  33.595  40.489  1.00  0.00     0.135 A 
ATOM     67  C   UNL A   1      40.933  35.336  39.216  1.00  0.00     0.135 A 
ATOM     68  F   UNL A   1      39.333  32.370  40.590  1.00  0.00    -0.206 F 
ATOM     69  C   UNL A   1      39.854  34.417  41.612  1.00  0.00     0.059 A 
ATOM     70  C   UNL A   1      40.949  36.165  40.332  1.00  0.00     0.059 A 
ATOM     71  F   UNL A   1      41.448  35.811  38.071  1.00  0.00    -0.206 F 
ATOM     72  C   UNL A   1      40.391  35.702  41.523  1.00  0.00     0.060 A 
BRANCH  72  73
ATOM     73  S   UNL A   1      40.356  36.762  42.985  1.00  0.00     0.124 S 
ATOM     74  O   UNL A   1      39.576  35.950  43.913  1.00  0.00    -0.237 OA
ATOM     75  O   UNL A   1      41.773  36.904  43.305  1.00  0.00    -0.237 OA
ATOM     76  O   UNL A   1      39.701  37.976  42.509  1.00  0.00    -0.744 OA
ENDBRANCH  72  73
ENDBRANCH  51  65
BRANCH  52  77
ATOM     77  C   UNL A   1      40.198  28.519  30.931  1.00  0.00     0.058 A 
ATOM     78  C   UNL A   1      41.050  28.834  29.863  1.00  0.00     0.135 A 
ATOM     79  C   UNL A   1      39.358  27.403  30.790  1.00  0.00     0.135 A 
ATOM     80  F   UNL A   1      41.863  29.899  29.945  1.00  0.00    -0.206 F 
ATOM     81  C   UNL A   1      41.069  28.074  28.698  1.00  0.00     0.059 A 
ATOM     82  C   UNL A   1      39.380  26.611  29.647  1.00  0.00     0.059 A 
ATOM     83  F   UNL A   1      38.533  27.051  31.788  1.00  0.00    -0.206 F 
ATOM     84  C   UNL A   1      40.234  26.959  28.602  1.00  0.00     0.060 A 
BRANCH  84  85
ATOM     85  S   UNL A   1      40.317  25.936  27.117  1.00  0.00     0.124 S 
ATOM     86  O   UNL A   1      38.951  25.436  27.027  1.00  0.00    -0.237 OA
ATOM     87  O   UNL A   1      40.712  26.902  26.096  1.00  0.00    -0.237 OA
ATOM     88  O   UNL A   1      41.333  24.942  27.453  1.00  0.00    -0.744 OA
ENDBRANCH  84  85
ENDBRANCH  52  77
BRANCH  64  89
ATOM     89  C   UNL A   1      44.611  28.978  36.306  1.00  0.00     0.058 A 
ATOM     90  C   UNL A   1      45.870  29.488  35.957  1.00  0.00     0.135 A 
ATOM     91  C   UNL A   1      44.565  27.764  37.011  1.00  0.00     0.135 A 
ATOM     92  F   UNL A   1      45.968  30.642  35.276  1.00  0.00    -0.206 F 
ATOM     93  C   UNL A   1      47.042  28.805  36.270  1.00  0.00     0.059 A 
ATOM     94  C   UNL A   1      45.723  27.077  37.355  1.00  0.00     0.059 A 
ATOM     95  F   UNL A   1      43.385  27.240  37.376  1.00  0.00    -0.206 F 
ATOM     96  C   UNL A   1      46.958  27.599  36.967  1.00  0.00     0.060 A 
BRANCH  96  97
ATOM     97  S   UNL A   1      48.482  26.726  37.381  1.00  0.00     0.124 S 
ATOM     98  O   UNL A   1      48.098  26.029  38.604  1.00  0.00    -0.237 OA
ATOM     99  O   UNL A   1      48.691  25.881  36.209  1.00  0.00    -0.237 OA
ATOM    100  O   UNL A   1      49.454  27.803  37.550  1.00  0.00    -0.744 OA
ENDBRANCH  96  97
ENDBRANCH  64  89
ENDBRANCH  38  39
ENDBRANCH  31  33
ENDBRANCH  30  31
ENDBRANCH  29  30
ENDBRANCH  28  29
ENDBRANCH   1  28
TORSDOF 20
ENDMDL
