MODEL 1
REMARK VINA RESULT:     -10.6      0.000      0.000
REMARK SMILES O=C(OCCOC(=O)c1cccc(Nc2ccc([N+](=O)[O-])cc2)c1)c1ccc(-c2c3nc(c(-c4c(F)cc(S(=O)(=O)[O-])cc4F)c4ccc([nH]4)c(-c4c(F)cc(S(=O)(=O)[O-])cc4F)c4nc(c(-c5c(F)cc(S(=O)(=O)[O-])cc5F)c5ccc2[nH]5)C=C4)C=C3)cc1
REMARK SMILES IDX 4 1 3 2 2 3 1 4 25 5 26 6 90 7 27 8 89 9 28 10 29 11 30 12
REMARK SMILES IDX 83 13 31 14 88 15 82 16 84 17 32 18 87 19 81 20 80 21 33 23
REMARK SMILES IDX 67 24 46 25 66 26 47 27 50 28 65 29 85 30 48 31 49 32 64 34
REMARK SMILES IDX 86 35 51 36 34 37 35 38 44 39 36 40 37 41 43 42 45 43 38 44
REMARK SMILES IDX 39 45 40 46 41 47 42 48 68 49 69 50 78 51 70 52 71 53 77 54
REMARK SMILES IDX 79 55 72 56 73 57 74 58 75 59 76 60 52 61 53 62 62 63 54 64
REMARK SMILES IDX 55 65 61 66 63 67 56 68 57 69 58 70 59 71 60 72 5 73 6 74
REMARK SMILES IDX 7 75 8 76 9 77 10 78 24 79 11 80 13 81 12 82 14 83 15 85
REMARK SMILES IDX 16 86 23 87 17 88 22 89 18 90 19 91 20 92 21 93
REMARK H PARENT 84 22 50 33 14 84
REMARK Flexibility Score: inf
ROOT
ATOM      1  C   UNL A   1      40.494  21.538  27.011  1.00  0.00     0.275 C 
ENDROOT
BRANCH   1   2
ATOM      2  O   UNL A   1      39.470  21.993  26.109  1.00  0.00    -0.458 OA
BRANCH   2   3
ATOM      3  C   UNL A   1      38.630  23.047  26.259  1.00  0.00     0.338 C 
ATOM      4  O   UNL A   1      37.549  23.039  25.671  1.00  0.00    -0.246 OA
BRANCH   3   5
ATOM      5  C   UNL A   1      39.053  24.309  26.938  1.00  0.00     0.060 A 
ATOM      6  C   UNL A   1      38.726  24.679  28.245  1.00  0.00     0.016 A 
ATOM      7  C   UNL A   1      39.847  25.185  26.181  1.00  0.00     0.016 A 
ATOM      8  C   UNL A   1      39.275  25.825  28.824  1.00  0.00     0.010 A 
ATOM      9  C   UNL A   1      40.402  26.331  26.756  1.00  0.00     0.010 A 
ATOM     10  C   UNL A   1      40.131  26.648  28.092  1.00  0.00    -0.014 A 
BRANCH  10  11
ATOM     11  C   UNL A   1      40.620  27.921  28.669  1.00  0.00     0.031 A 
ATOM     12  C   UNL A   1      42.054  27.978  29.106  1.00  0.00     0.074 A 
ATOM     13  C   UNL A   1      39.816  29.000  28.757  1.00  0.00     0.049 A 
ATOM     14  N   UNL A   1      42.689  28.939  29.716  1.00  0.00    -0.248 NA
ATOM     15  C   UNL A   1      42.895  26.812  28.778  1.00  0.00     0.031 C 
ATOM     16  C   UNL A   1      38.461  29.087  28.210  1.00  0.00     0.029 A 
ATOM     17  N   UNL A   1      40.002  30.224  29.358  1.00  0.00    -0.354 N 
ATOM     18  C   UNL A   1      44.012  28.522  29.787  1.00  0.00     0.074 A 
ATOM     19  C   UNL A   1      44.078  27.187  29.241  1.00  0.00     0.031 C 
ATOM     20  C   UNL A   1      37.922  30.271  28.550  1.00  0.00     0.029 A 
ATOM     21  C   UNL A   1      38.854  30.993  29.410  1.00  0.00     0.049 A 
ATOM     22  H   UNL A   1      40.869  30.523  29.717  1.00  0.00     0.167 HD
ATOM     23  C   UNL A   1      45.082  29.223  30.223  1.00  0.00     0.037 A 
ATOM     24  C   UNL A   1      38.580  32.102  30.137  1.00  0.00     0.037 A 
ATOM     25  C   UNL A   1      44.980  30.552  30.757  1.00  0.00     0.049 A 
ATOM     26  C   UNL A   1      39.731  32.667  30.959  1.00  0.00     0.074 A 
ATOM     27  C   UNL A   1      45.990  31.398  31.173  1.00  0.00     0.029 A 
ATOM     28  N   UNL A   1      43.780  31.214  30.971  1.00  0.00    -0.354 N 
ATOM     29  N   UNL A   1      40.998  32.312  30.947  1.00  0.00    -0.248 NA
ATOM     30  C   UNL A   1      39.440  33.765  31.892  1.00  0.00     0.031 C 
ATOM     31  C   UNL A   1      45.393  32.551  31.695  1.00  0.00     0.029 A 
ATOM     32  C   UNL A   1      44.016  32.436  31.567  1.00  0.00     0.049 A 
ATOM     33  H   UNL A   1      42.892  30.863  30.733  1.00  0.00     0.167 HD
ATOM     34  C   UNL A   1      41.663  33.224  31.762  1.00  0.00     0.074 A 
ATOM     35  C   UNL A   1      40.653  34.106  32.302  1.00  0.00     0.031 C 
ATOM     36  C   UNL A   1      42.991  33.345  32.015  1.00  0.00     0.037 A 
BRANCH  23  37
ATOM     37  C   UNL A   1      46.434  28.584  30.117  1.00  0.00     0.058 A 
ATOM     38  C   UNL A   1      47.028  27.948  31.219  1.00  0.00     0.135 A 
ATOM     39  C   UNL A   1      47.121  28.559  28.895  1.00  0.00     0.135 A 
ATOM     40  F   UNL A   1      46.422  27.966  32.417  1.00  0.00    -0.206 F 
ATOM     41  C   UNL A   1      48.259  27.312  31.114  1.00  0.00     0.059 A 
ATOM     42  C   UNL A   1      48.347  27.913  28.761  1.00  0.00     0.059 A 
ATOM     43  F   UNL A   1      46.603  29.167  27.816  1.00  0.00    -0.206 F 
ATOM     44  C   UNL A   1      48.908  27.294  29.878  1.00  0.00     0.060 A 
BRANCH  44  45
ATOM     45  S   UNL A   1      50.487  26.426  29.751  1.00  0.00     0.124 S 
ATOM     46  O   UNL A   1      51.304  27.165  30.708  1.00  0.00    -0.237 OA
ATOM     47  O   UNL A   1      50.126  25.067  30.142  1.00  0.00    -0.237 OA
ATOM     48  O   UNL A   1      50.856  26.594  28.348  1.00  0.00    -0.744 OA
ENDBRANCH  44  45
ENDBRANCH  23  37
BRANCH  24  49
ATOM     49  C   UNL A   1      37.189  32.676  30.257  1.00  0.00     0.058 A 
ATOM     50  C   UNL A   1      36.612  33.504  29.281  1.00  0.00     0.135 A 
ATOM     51  C   UNL A   1      36.443  32.525  31.438  1.00  0.00     0.135 A 
ATOM     52  F   UNL A   1      37.216  33.659  28.094  1.00  0.00    -0.206 F 
ATOM     53  C   UNL A   1      35.443  34.237  29.521  1.00  0.00     0.059 A 
ATOM     54  C   UNL A   1      35.272  33.225  31.703  1.00  0.00     0.059 A 
ATOM     55  F   UNL A   1      36.831  31.653  32.370  1.00  0.00    -0.206 F 
ATOM     56  C   UNL A   1      34.793  34.107  30.748  1.00  0.00     0.060 A 
BRANCH  56  57
ATOM     57  S   UNL A   1      33.356  35.132  31.127  1.00  0.00     0.124 S 
ATOM     58  O   UNL A   1      32.511  34.925  29.956  1.00  0.00    -0.237 OA
ATOM     59  O   UNL A   1      32.890  34.530  32.371  1.00  0.00    -0.237 OA
ATOM     60  O   UNL A   1      33.928  36.470  31.254  1.00  0.00    -0.744 OA
ENDBRANCH  56  57
ENDBRANCH  24  49
BRANCH  36  61
ATOM     61  C   UNL A   1      43.448  34.560  32.770  1.00  0.00     0.058 A 
ATOM     62  C   UNL A   1      43.720  35.779  32.136  1.00  0.00     0.135 A 
ATOM     63  C   UNL A   1      43.531  34.512  34.172  1.00  0.00     0.135 A 
ATOM     64  F   UNL A   1      43.665  35.870  30.798  1.00  0.00    -0.206 F 
ATOM     65  C   UNL A   1      44.069  36.911  32.866  1.00  0.00     0.059 A 
ATOM     66  C   UNL A   1      43.847  35.637  34.924  1.00  0.00     0.059 A 
ATOM     67  F   UNL A   1      43.266  33.370  34.827  1.00  0.00    -0.206 F 
ATOM     68  C   UNL A   1      44.122  36.832  34.260  1.00  0.00     0.060 A 
BRANCH  68  69
ATOM     69  S   UNL A   1      44.513  38.320  35.204  1.00  0.00     0.124 S 
ATOM     70  O   UNL A   1      45.944  38.460  34.951  1.00  0.00    -0.237 OA
ATOM     71  O   UNL A   1      43.656  39.322  34.579  1.00  0.00    -0.237 OA
ATOM     72  O   UNL A   1      44.151  37.959  36.571  1.00  0.00    -0.744 OA
ENDBRANCH  68  69
ENDBRANCH  36  61
ENDBRANCH  10  11
ENDBRANCH   3   5
ENDBRANCH   2   3
ENDBRANCH   1   2
BRANCH   1  73
ATOM     73  C   UNL A   1      40.919  20.076  26.828  1.00  0.00     0.275 C 
BRANCH  73  74
ATOM     74  O   UNL A   1      41.638  19.836  25.609  1.00  0.00    -0.458 OA
BRANCH  74  75
ATOM     75  C   UNL A   1      42.664  18.953  25.721  1.00  0.00     0.338 C 
ATOM     76  O   UNL A   1      42.573  17.754  25.930  1.00  0.00    -0.246 OA
BRANCH  75  77
ATOM     77  C   UNL A   1      43.936  19.613  25.365  1.00  0.00     0.062 A 
ATOM     78  C   UNL A   1      44.862  18.857  24.640  1.00  0.00     0.016 A 
ATOM     79  C   UNL A   1      44.232  20.930  25.735  1.00  0.00     0.041 A 
ATOM     80  C   UNL A   1      46.064  19.434  24.243  1.00  0.00     0.003 A 
ATOM     81  C   UNL A   1      45.457  21.512  25.359  1.00  0.00     0.039 A 
ATOM     82  C   UNL A   1      46.356  20.751  24.602  1.00  0.00     0.026 A 
BRANCH  81  83
ATOM     83  N   UNL A   1      45.803  22.786  25.831  1.00  0.00    -0.355 N 
ATOM     84  H   UNL A   1      46.520  22.797  26.505  1.00  0.00     0.167 HD
BRANCH  83  85
ATOM     85  C   UNL A   1      45.288  24.056  25.495  1.00  0.00     0.039 A 
ATOM     86  C   UNL A   1      46.003  25.196  25.894  1.00  0.00     0.033 A 
ATOM     87  C   UNL A   1      43.966  24.207  25.055  1.00  0.00     0.033 A 
ATOM     88  C   UNL A   1      45.422  26.465  25.850  1.00  0.00     0.088 A 
ATOM     89  C   UNL A   1      43.371  25.473  24.998  1.00  0.00     0.088 A 
ATOM     90  C   UNL A   1      44.103  26.596  25.400  1.00  0.00     0.269 A 
BRANCH  90  91
ATOM     91  N   UNL A   1      43.482  27.924  25.364  1.00  0.00     0.062 N 
ATOM     92  O   UNL A   1      43.999  28.821  26.044  1.00  0.00    -0.258 OA
ATOM     93  O   UNL A   1      42.500  28.077  24.625  1.00  0.00    -0.258 OA
ENDBRANCH  90  91
ENDBRANCH  83  85
ENDBRANCH  81  83
ENDBRANCH  75  77
ENDBRANCH  74  75
ENDBRANCH  73  74
ENDBRANCH   1  73
TORSDOF 17
ENDMDL
MODEL 2
REMARK VINA RESULT:     -10.6      3.924      6.876
REMARK SMILES O=C(OCCOC(=O)c1cccc(Nc2ccc([N+](=O)[O-])cc2)c1)c1ccc(-c2c3nc(c(-c4c(F)cc(S(=O)(=O)[O-])cc4F)c4ccc([nH]4)c(-c4c(F)cc(S(=O)(=O)[O-])cc4F)c4nc(c(-c5c(F)cc(S(=O)(=O)[O-])cc5F)c5ccc2[nH]5)C=C4)C=C3)cc1
REMARK SMILES IDX 4 1 3 2 2 3 1 4 25 5 26 6 90 7 27 8 89 9 28 10 29 11 30 12
REMARK SMILES IDX 83 13 31 14 88 15 82 16 84 17 32 18 87 19 81 20 80 21 33 23
REMARK SMILES IDX 67 24 46 25 66 26 47 27 50 28 65 29 85 30 48 31 49 32 64 34
REMARK SMILES IDX 86 35 51 36 34 37 35 38 44 39 36 40 37 41 43 42 45 43 38 44
REMARK SMILES IDX 39 45 40 46 41 47 42 48 68 49 69 50 78 51 70 52 71 53 77 54
REMARK SMILES IDX 79 55 72 56 73 57 74 58 75 59 76 60 52 61 53 62 62 63 54 64
REMARK SMILES IDX 55 65 61 66 63 67 56 68 57 69 58 70 59 71 60 72 5 73 6 74
REMARK SMILES IDX 7 75 8 76 9 77 10 78 24 79 11 80 13 81 12 82 14 83 15 85
REMARK SMILES IDX 16 86 23 87 17 88 22 89 18 90 19 91 20 92 21 93
REMARK H PARENT 84 22 50 33 14 84
REMARK Flexibility Score: inf
ROOT
ATOM      1  C   UNL A   1      43.084  18.343  26.025  1.00  0.00     0.275 C 
ENDROOT
BRANCH   1   2
ATOM      2  O   UNL A   1      43.533  18.854  24.758  1.00  0.00    -0.458 OA
BRANCH   2   3
ATOM      3  C   UNL A   1      44.673  19.537  24.488  1.00  0.00     0.338 C 
ATOM      4  O   UNL A   1      45.683  18.912  24.165  1.00  0.00    -0.246 OA
BRANCH   3   5
ATOM      5  C   UNL A   1      44.809  20.998  24.769  1.00  0.00     0.060 A 
ATOM      6  C   UNL A   1      44.595  22.027  23.849  1.00  0.00     0.016 A 
ATOM      7  C   UNL A   1      45.186  21.346  26.075  1.00  0.00     0.016 A 
ATOM      8  C   UNL A   1      44.631  23.366  24.249  1.00  0.00     0.010 A 
ATOM      9  C   UNL A   1      45.219  22.682  26.483  1.00  0.00     0.010 A 
ATOM     10  C   UNL A   1      44.923  23.702  25.570  1.00  0.00    -0.014 A 
BRANCH  10  11
ATOM     11  C   UNL A   1      45.074  25.121  25.966  1.00  0.00     0.031 A 
ATOM     12  C   UNL A   1      46.467  25.672  26.051  1.00  0.00     0.074 A 
ATOM     13  C   UNL A   1      43.997  25.897  26.200  1.00  0.00     0.049 A 
ATOM     14  N   UNL A   1      46.863  26.845  26.458  1.00  0.00    -0.248 NA
ATOM     15  C   UNL A   1      47.557  24.797  25.579  1.00  0.00     0.031 C 
ATOM     16  C   UNL A   1      42.607  25.494  25.984  1.00  0.00     0.029 A 
ATOM     17  N   UNL A   1      43.891  27.177  26.693  1.00  0.00    -0.354 N 
ATOM     18  C   UNL A   1      48.233  26.873  26.231  1.00  0.00     0.074 A 
ATOM     19  C   UNL A   1      48.619  25.572  25.736  1.00  0.00     0.031 C 
ATOM     20  C   UNL A   1      41.792  26.481  26.397  1.00  0.00     0.029 A 
ATOM     21  C   UNL A   1      42.592  27.550  26.984  1.00  0.00     0.049 A 
ATOM     22  H   UNL A   1      44.666  27.771  26.826  1.00  0.00     0.167 HD
ATOM     23  C   UNL A   1      49.078  27.917  26.375  1.00  0.00     0.037 A 
ATOM     24  C   UNL A   1      42.127  28.593  27.713  1.00  0.00     0.037 A 
ATOM     25  C   UNL A   1      48.659  29.199  26.868  1.00  0.00     0.049 A 
ATOM     26  C   UNL A   1      43.172  29.578  28.219  1.00  0.00     0.074 A 
ATOM     27  C   UNL A   1      49.396  30.359  27.001  1.00  0.00     0.029 A 
ATOM     28  N   UNL A   1      47.381  29.473  27.332  1.00  0.00    -0.354 N 
ATOM     29  N   UNL A   1      44.453  29.637  27.922  1.00  0.00    -0.248 NA
ATOM     30  C   UNL A   1      42.738  30.627  29.152  1.00  0.00     0.031 C 
ATOM     31  C   UNL A   1      48.576  31.319  27.604  1.00  0.00     0.029 A 
ATOM     32  C   UNL A   1      47.320  30.767  27.809  1.00  0.00     0.049 A 
ATOM     33  H   UNL A   1      46.629  28.838  27.323  1.00  0.00     0.167 HD
ATOM     34  C   UNL A   1      44.936  30.797  28.523  1.00  0.00     0.074 A 
ATOM     35  C   UNL A   1      43.828  31.374  29.252  1.00  0.00     0.031 C 
ATOM     36  C   UNL A   1      46.171  31.355  28.450  1.00  0.00     0.037 A 
BRANCH  23  37
ATOM     37  C   UNL A   1      50.511  27.725  25.978  1.00  0.00     0.058 A 
ATOM     38  C   UNL A   1      50.925  27.878  24.645  1.00  0.00     0.135 A 
ATOM     39  C   UNL A   1      51.489  27.436  26.940  1.00  0.00     0.135 A 
ATOM     40  F   UNL A   1      50.024  28.130  23.682  1.00  0.00    -0.206 F 
ATOM     41  C   UNL A   1      52.259  27.749  24.279  1.00  0.00     0.059 A 
ATOM     42  C   UNL A   1      52.834  27.320  26.600  1.00  0.00     0.059 A 
ATOM     43  F   UNL A   1      51.141  27.263  28.225  1.00  0.00    -0.206 F 
ATOM     44  C   UNL A   1      53.208  27.476  25.266  1.00  0.00     0.060 A 
BRANCH  44  45
ATOM     45  S   UNL A   1      54.943  27.353  24.778  1.00  0.00     0.124 S 
ATOM     46  O   UNL A   1      55.203  28.701  24.284  1.00  0.00    -0.237 OA
ATOM     47  O   UNL A   1      55.594  27.002  26.035  1.00  0.00    -0.237 OA
ATOM     48  O   UNL A   1      54.937  26.303  23.763  1.00  0.00    -0.744 OA
ENDBRANCH  44  45
ENDBRANCH  23  37
BRANCH  24  49
ATOM     49  C   UNL A   1      40.682  28.713  28.135  1.00  0.00     0.058 A 
ATOM     50  C   UNL A   1      39.680  29.240  27.305  1.00  0.00     0.135 A 
ATOM     51  C   UNL A   1      40.288  28.433  29.455  1.00  0.00     0.135 A 
ATOM     52  F   UNL A   1      39.941  29.479  26.012  1.00  0.00    -0.206 F 
ATOM     53  C   UNL A   1      38.414  29.590  27.793  1.00  0.00     0.059 A 
ATOM     54  C   UNL A   1      39.037  28.753  29.967  1.00  0.00     0.059 A 
ATOM     55  F   UNL A   1      41.121  27.803  30.285  1.00  0.00    -0.206 F 
ATOM     56  C   UNL A   1      38.112  29.363  29.136  1.00  0.00     0.060 A 
BRANCH  56  57
ATOM     57  S   UNL A   1      36.534  29.916  29.816  1.00  0.00     0.124 S 
ATOM     58  O   UNL A   1      36.450  29.158  31.059  1.00  0.00    -0.237 OA
ATOM     59  O   UNL A   1      36.763  31.351  29.951  1.00  0.00    -0.237 OA
ATOM     60  O   UNL A   1      35.575  29.530  28.784  1.00  0.00    -0.744 OA
ENDBRANCH  56  57
ENDBRANCH  24  49
BRANCH  36  61
ATOM     61  C   UNL A   1      46.350  32.729  29.030  1.00  0.00     0.058 A 
ATOM     62  C   UNL A   1      46.843  32.938  30.324  1.00  0.00     0.135 A 
ATOM     63  C   UNL A   1      46.094  33.856  28.231  1.00  0.00     0.135 A 
ATOM     64  F   UNL A   1      47.091  31.892  31.129  1.00  0.00    -0.206 F 
ATOM     65  C   UNL A   1      47.071  34.220  30.812  1.00  0.00     0.059 A 
ATOM     66  C   UNL A   1      46.343  35.145  28.686  1.00  0.00     0.059 A 
ATOM     67  F   UNL A   1      45.633  33.706  26.978  1.00  0.00    -0.206 F 
ATOM     68  C   UNL A   1      46.824  35.318  29.982  1.00  0.00     0.060 A 
BRANCH  68  69
ATOM     69  S   UNL A   1      47.182  36.975  30.599  1.00  0.00     0.124 S 
ATOM     70  O   UNL A   1      48.607  37.095  30.310  1.00  0.00    -0.237 OA
ATOM     71  O   UNL A   1      46.297  37.809  29.793  1.00  0.00    -0.237 OA
ATOM     72  O   UNL A   1      46.835  36.892  32.015  1.00  0.00    -0.744 OA
ENDBRANCH  68  69
ENDBRANCH  36  61
ENDBRANCH  10  11
ENDBRANCH   3   5
ENDBRANCH   2   3
ENDBRANCH   1   2
BRANCH   1  73
ATOM     73  C   UNL A   1      42.262  19.325  26.868  1.00  0.00     0.275 C 
BRANCH  73  74
ATOM     74  O   UNL A   1      41.639  20.362  26.094  1.00  0.00    -0.458 OA
BRANCH  74  75
ATOM     75  C   UNL A   1      40.298  20.219  25.930  1.00  0.00     0.338 C 
ATOM     76  O   UNL A   1      39.692  19.170  25.774  1.00  0.00    -0.246 OA
BRANCH  75  77
ATOM     77  C   UNL A   1      39.623  21.512  26.153  1.00  0.00     0.062 A 
ATOM     78  C   UNL A   1      40.193  22.370  27.099  1.00  0.00     0.016 A 
ATOM     79  C   UNL A   1      38.457  21.882  25.474  1.00  0.00     0.041 A 
ATOM     80  C   UNL A   1      39.624  23.619  27.328  1.00  0.00     0.003 A 
ATOM     81  C   UNL A   1      37.860  23.132  25.719  1.00  0.00     0.039 A 
ATOM     82  C   UNL A   1      38.467  23.993  26.643  1.00  0.00     0.026 A 
BRANCH  81  83
ATOM     83  N   UNL A   1      36.630  23.452  25.129  1.00  0.00    -0.355 N 
ATOM     84  H   UNL A   1      36.625  23.432  24.145  1.00  0.00     0.167 HD
BRANCH  83  85
ATOM     85  C   UNL A   1      35.397  23.800  25.719  1.00  0.00     0.039 A 
ATOM     86  C   UNL A   1      34.736  22.843  26.504  1.00  0.00     0.033 A 
ATOM     87  C   UNL A   1      34.691  24.936  25.302  1.00  0.00     0.033 A 
ATOM     88  C   UNL A   1      33.400  23.012  26.877  1.00  0.00     0.088 A 
ATOM     89  C   UNL A   1      33.354  25.124  25.673  1.00  0.00     0.088 A 
ATOM     90  C   UNL A   1      32.715  24.157  26.457  1.00  0.00     0.269 A 
BRANCH  90  91
ATOM     91  N   UNL A   1      31.309  24.334  26.833  1.00  0.00     0.062 N 
ATOM     92  O   UNL A   1      30.760  25.401  26.527  1.00  0.00    -0.258 OA
ATOM     93  O   UNL A   1      30.744  23.389  27.400  1.00  0.00    -0.258 OA
ENDBRANCH  90  91
ENDBRANCH  83  85
ENDBRANCH  81  83
ENDBRANCH  75  77
ENDBRANCH  74  75
ENDBRANCH  73  74
ENDBRANCH   1  73
TORSDOF 17
ENDMDL
MODEL 3
REMARK VINA RESULT:     -10.6      1.627      8.509
REMARK SMILES O=C(OCCOC(=O)c1cccc(Nc2ccc([N+](=O)[O-])cc2)c1)c1ccc(-c2c3nc(c(-c4c(F)cc(S(=O)(=O)[O-])cc4F)c4ccc([nH]4)c(-c4c(F)cc(S(=O)(=O)[O-])cc4F)c4nc(c(-c5c(F)cc(S(=O)(=O)[O-])cc5F)c5ccc2[nH]5)C=C4)C=C3)cc1
REMARK SMILES IDX 4 1 3 2 2 3 1 4 25 5 26 6 90 7 27 8 89 9 28 10 29 11 30 12
REMARK SMILES IDX 83 13 31 14 88 15 82 16 84 17 32 18 87 19 81 20 80 21 33 23
REMARK SMILES IDX 67 24 46 25 66 26 47 27 50 28 65 29 85 30 48 31 49 32 64 34
REMARK SMILES IDX 86 35 51 36 34 37 35 38 44 39 36 40 37 41 43 42 45 43 38 44
REMARK SMILES IDX 39 45 40 46 41 47 42 48 68 49 69 50 78 51 70 52 71 53 77 54
REMARK SMILES IDX 79 55 72 56 73 57 74 58 75 59 76 60 52 61 53 62 62 63 54 64
REMARK SMILES IDX 55 65 61 66 63 67 56 68 57 69 58 70 59 71 60 72 5 73 6 74
REMARK SMILES IDX 7 75 8 76 9 77 10 78 24 79 11 80 13 81 12 82 14 83 15 85
REMARK SMILES IDX 16 86 23 87 17 88 22 89 18 90 19 91 20 92 21 93
REMARK H PARENT 84 22 50 33 14 84
REMARK Flexibility Score: inf
ROOT
ATOM      1  C   UNL A   1      39.939  21.426  26.471  1.00  0.00     0.275 C 
ENDROOT
BRANCH   1   2
ATOM      2  O   UNL A   1      38.883  22.165  25.833  1.00  0.00    -0.458 OA
BRANCH   2   3
ATOM      3  C   UNL A   1      38.217  23.249  26.304  1.00  0.00     0.338 C 
ATOM      4  O   UNL A   1      37.026  23.386  26.026  1.00  0.00    -0.246 OA
BRANCH   3   5
ATOM      5  C   UNL A   1      38.921  24.387  26.968  1.00  0.00     0.060 A 
ATOM      6  C   UNL A   1      38.857  24.700  28.328  1.00  0.00     0.016 A 
ATOM      7  C   UNL A   1      39.707  25.200  26.138  1.00  0.00     0.016 A 
ATOM      8  C   UNL A   1      39.652  25.715  28.868  1.00  0.00     0.010 A 
ATOM      9  C   UNL A   1      40.508  26.213  26.672  1.00  0.00     0.010 A 
ATOM     10  C   UNL A   1      40.496  26.465  28.049  1.00  0.00    -0.014 A 
BRANCH  10  11
ATOM     11  C   UNL A   1      41.250  27.613  28.601  1.00  0.00     0.031 A 
ATOM     12  C   UNL A   1      40.466  28.828  29.001  1.00  0.00     0.074 A 
ATOM     13  C   UNL A   1      42.586  27.550  28.776  1.00  0.00     0.049 A 
ATOM     14  N   UNL A   1      40.899  29.983  29.422  1.00  0.00    -0.248 NA
ATOM     15  C   UNL A   1      38.996  28.713  28.958  1.00  0.00     0.031 C 
ATOM     16  C   UNL A   1      43.406  26.356  28.568  1.00  0.00     0.029 A 
ATOM     17  N   UNL A   1      43.499  28.512  29.143  1.00  0.00    -0.354 N 
ATOM     18  C   UNL A   1      39.761  30.707  29.754  1.00  0.00     0.074 A 
ATOM     19  C   UNL A   1      38.615  29.901  29.404  1.00  0.00     0.031 C 
ATOM     20  C   UNL A   1      44.700  26.672  28.753  1.00  0.00     0.029 A 
ATOM     21  C   UNL A   1      44.813  28.104  29.008  1.00  0.00     0.049 A 
ATOM     22  H   UNL A   1      43.241  29.404  29.469  1.00  0.00     0.167 HD
ATOM     23  C   UNL A   1      39.691  31.917  30.350  1.00  0.00     0.037 A 
ATOM     24  C   UNL A   1      45.956  28.831  29.010  1.00  0.00     0.037 A 
ATOM     25  C   UNL A   1      40.853  32.690  30.687  1.00  0.00     0.049 A 
ATOM     26  C   UNL A   1      45.805  30.318  29.302  1.00  0.00     0.074 A 
ATOM     27  C   UNL A   1      40.925  33.900  31.351  1.00  0.00     0.029 A 
ATOM     28  N   UNL A   1      42.150  32.328  30.357  1.00  0.00    -0.354 N 
ATOM     29  N   UNL A   1      44.733  30.970  29.700  1.00  0.00    -0.248 NA
ATOM     30  C   UNL A   1      46.989  31.176  29.150  1.00  0.00     0.031 C 
ATOM     31  C   UNL A   1      42.267  34.297  31.367  1.00  0.00     0.029 A 
ATOM     32  C   UNL A   1      43.030  33.317  30.749  1.00  0.00     0.049 A 
ATOM     33  H   UNL A   1      42.405  31.490  29.909  1.00  0.00     0.167 HD
ATOM     34  C   UNL A   1      45.149  32.272  29.967  1.00  0.00     0.074 A 
ATOM     35  C   UNL A   1      46.553  32.333  29.626  1.00  0.00     0.031 C 
ATOM     36  C   UNL A   1      44.445  33.313  30.481  1.00  0.00     0.037 A 
BRANCH  23  37
ATOM     37  C   UNL A   1      38.334  32.458  30.690  1.00  0.00     0.058 A 
ATOM     38  C   UNL A   1      37.771  32.263  31.961  1.00  0.00     0.135 A 
ATOM     39  C   UNL A   1      37.612  33.219  29.760  1.00  0.00     0.135 A 
ATOM     40  F   UNL A   1      38.411  31.521  32.879  1.00  0.00    -0.206 F 
ATOM     41  C   UNL A   1      36.535  32.804  32.298  1.00  0.00     0.059 A 
ATOM     42  C   UNL A   1      36.381  33.785  30.081  1.00  0.00     0.059 A 
ATOM     43  F   UNL A   1      38.100  33.419  28.526  1.00  0.00    -0.206 F 
ATOM     44  C   UNL A   1      35.850  33.569  31.352  1.00  0.00     0.060 A 
BRANCH  44  45
ATOM     45  S   UNL A   1      34.266  34.297  31.823  1.00  0.00     0.124 S 
ATOM     46  O   UNL A   1      33.702  33.248  32.666  1.00  0.00    -0.237 OA
ATOM     47  O   UNL A   1      34.678  35.514  32.514  1.00  0.00    -0.237 OA
ATOM     48  O   UNL A   1      33.593  34.504  30.543  1.00  0.00    -0.744 OA
ENDBRANCH  44  45
ENDBRANCH  23  37
BRANCH  24  49
ATOM     49  C   UNL A   1      47.291  28.254  28.605  1.00  0.00     0.058 A 
ATOM     50  C   UNL A   1      47.819  28.372  27.310  1.00  0.00     0.135 A 
ATOM     51  C   UNL A   1      48.019  27.431  29.481  1.00  0.00     0.135 A 
ATOM     52  F   UNL A   1      47.232  29.187  26.421  1.00  0.00    -0.206 F 
ATOM     53  C   UNL A   1      48.917  27.616  26.880  1.00  0.00     0.059 A 
ATOM     54  C   UNL A   1      49.121  26.679  29.092  1.00  0.00     0.059 A 
ATOM     55  F   UNL A   1      47.683  27.360  30.770  1.00  0.00    -0.206 F 
ATOM     56  C   UNL A   1      49.546  26.752  27.776  1.00  0.00     0.060 A 
BRANCH  56  57
ATOM     57  S   UNL A   1      50.884  25.678  27.213  1.00  0.00     0.124 S 
ATOM     58  O   UNL A   1      52.036  26.222  27.920  1.00  0.00    -0.237 OA
ATOM     59  O   UNL A   1      50.413  24.371  27.658  1.00  0.00    -0.237 OA
ATOM     60  O   UNL A   1      50.886  25.884  25.766  1.00  0.00    -0.744 OA
ENDBRANCH  56  57
ENDBRANCH  24  49
BRANCH  36  61
ATOM     61  C   UNL A   1      45.210  34.548  30.863  1.00  0.00     0.058 A 
ATOM     62  C   UNL A   1      45.869  34.671  32.092  1.00  0.00     0.135 A 
ATOM     63  C   UNL A   1      45.346  35.593  29.933  1.00  0.00     0.135 A 
ATOM     64  F   UNL A   1      45.759  33.704  33.017  1.00  0.00    -0.206 F 
ATOM     65  C   UNL A   1      46.633  35.794  32.393  1.00  0.00     0.059 A 
ATOM     66  C   UNL A   1      46.129  36.710  30.199  1.00  0.00     0.059 A 
ATOM     67  F   UNL A   1      44.744  35.515  28.735  1.00  0.00    -0.206 F 
ATOM     68  C   UNL A   1      46.763  36.805  31.436  1.00  0.00     0.060 A 
BRANCH  68  69
ATOM     69  S   UNL A   1      47.807  38.229  31.809  1.00  0.00     0.124 S 
ATOM     70  O   UNL A   1      47.078  38.847  32.912  1.00  0.00    -0.237 OA
ATOM     71  O   UNL A   1      49.079  37.604  32.158  1.00  0.00    -0.237 OA
ATOM     72  O   UNL A   1      47.810  38.983  30.559  1.00  0.00    -0.744 OA
ENDBRANCH  68  69
ENDBRANCH  36  61
ENDBRANCH  10  11
ENDBRANCH   3   5
ENDBRANCH   2   3
ENDBRANCH   1   2
BRANCH   1  73
ATOM     73  C   UNL A   1      40.077  19.967  26.017  1.00  0.00     0.275 C 
BRANCH  73  74
ATOM     74  O   UNL A   1      41.357  19.666  25.439  1.00  0.00    -0.458 OA
BRANCH  74  75
ATOM     75  C   UNL A   1      42.356  19.480  26.341  1.00  0.00     0.338 C 
ATOM     76  O   UNL A   1      42.261  18.936  27.430  1.00  0.00    -0.246 OA
BRANCH  75  77
ATOM     77  C   UNL A   1      43.649  19.866  25.744  1.00  0.00     0.062 A 
ATOM     78  C   UNL A   1      44.411  18.847  25.164  1.00  0.00     0.016 A 
ATOM     79  C   UNL A   1      44.123  21.184  25.756  1.00  0.00     0.041 A 
ATOM     80  C   UNL A   1      45.623  19.153  24.553  1.00  0.00     0.003 A 
ATOM     81  C   UNL A   1      45.360  21.497  25.164  1.00  0.00     0.039 A 
ATOM     82  C   UNL A   1      46.090  20.468  24.555  1.00  0.00     0.026 A 
BRANCH  81  83
ATOM     83  N   UNL A   1      45.888  22.790  25.281  1.00  0.00    -0.355 N 
ATOM     84  H   UNL A   1      46.825  22.829  25.581  1.00  0.00     0.167 HD
BRANCH  83  85
ATOM     85  C   UNL A   1      45.292  24.046  25.039  1.00  0.00     0.039 A 
ATOM     86  C   UNL A   1      46.071  25.201  25.210  1.00  0.00     0.033 A 
ATOM     87  C   UNL A   1      43.901  24.178  24.934  1.00  0.00     0.033 A 
ATOM     88  C   UNL A   1      45.483  26.467  25.267  1.00  0.00     0.088 A 
ATOM     89  C   UNL A   1      43.296  25.440  24.982  1.00  0.00     0.088 A 
ATOM     90  C   UNL A   1      44.093  26.578  25.152  1.00  0.00     0.269 A 
BRANCH  90  91
ATOM     91  N   UNL A   1      43.467  27.902  25.226  1.00  0.00     0.062 N 
ATOM     92  O   UNL A   1      44.041  28.775  25.891  1.00  0.00    -0.258 OA
ATOM     93  O   UNL A   1      42.422  28.079  24.585  1.00  0.00    -0.258 OA
ENDBRANCH  90  91
ENDBRANCH  83  85
ENDBRANCH  81  83
ENDBRANCH  75  77
ENDBRANCH  74  75
ENDBRANCH  73  74
ENDBRANCH   1  73
TORSDOF 17
ENDMDL
