MODEL 1
REMARK VINA RESULT:     -10.4      0.000      0.000
REMARK SMILES O=C(OCCOC(=O)[C@@]1(c2ccccc2)CCCC[NH2+]1)c1ccc(-c2c3nc(c(-c4c(F)cc(S(=O)(=O)[O-])cc4F)c4ccc([nH]4)c(-c4c(F)cc(S(=O)(=O)[O-])cc4F)c4nc(c(-c5c(F)cc(S(=O)(=O)[O-])cc5F)c5ccc2[nH]5)C=C4)C=C3)cc1
REMARK SMILES IDX 4 1 3 2 2 3 1 4 21 5 22 6 86 7 23 8 85 9 24 10 25 11 26 12
REMARK SMILES IDX 79 13 27 14 84 15 78 16 80 17 28 18 83 19 77 20 76 21 29 23
REMARK SMILES IDX 63 24 42 25 62 26 43 27 46 28 61 29 81 30 44 31 45 32 60 34
REMARK SMILES IDX 82 35 47 36 30 37 31 38 40 39 32 40 33 41 39 42 41 43 34 44
REMARK SMILES IDX 35 45 36 46 37 47 38 48 64 49 65 50 74 51 66 52 67 53 73 54
REMARK SMILES IDX 75 55 68 56 69 57 70 58 71 59 72 60 48 61 49 62 58 63 50 64
REMARK SMILES IDX 51 65 57 66 59 67 52 68 53 69 54 70 55 71 56 72 5 73 6 74
REMARK SMILES IDX 7 75 8 76 9 77 16 78 20 79 17 80 19 81 18 84 10 85 11 86
REMARK SMILES IDX 15 87 12 88 14 89 13 90
REMARK H PARENT 80 22 46 33 20 82 20 83
REMARK Flexibility Score: inf
ROOT
ATOM      1  C   UNL A   1      44.474  25.427  25.494  1.00  0.00     0.275 C 
ENDROOT
BRANCH   1   2
ATOM      2  O   UNL A   1      43.479  26.454  25.354  1.00  0.00    -0.458 OA
BRANCH   2   3
ATOM      3  C   UNL A   1      42.191  26.392  25.765  1.00  0.00     0.338 C 
ATOM      4  O   UNL A   1      41.317  25.967  25.014  1.00  0.00    -0.246 OA
BRANCH   3   5
ATOM      5  C   UNL A   1      41.791  26.981  27.064  1.00  0.00     0.060 A 
ATOM      6  C   UNL A   1      40.751  26.522  27.876  1.00  0.00     0.016 A 
ATOM      7  C   UNL A   1      42.497  28.115  27.451  1.00  0.00     0.016 A 
ATOM      8  C   UNL A   1      40.470  27.162  29.094  1.00  0.00     0.010 A 
ATOM      9  C   UNL A   1      42.263  28.713  28.685  1.00  0.00     0.010 A 
ATOM     10  C   UNL A   1      41.220  28.271  29.504  1.00  0.00    -0.014 A 
BRANCH  10  11
ATOM     11  C   UNL A   1      40.838  29.100  30.677  1.00  0.00     0.031 A 
ATOM     12  C   UNL A   1      41.496  28.810  32.007  1.00  0.00     0.074 A 
ATOM     13  C   UNL A   1      39.871  30.035  30.594  1.00  0.00     0.049 A 
ATOM     14  N   UNL A   1      41.396  29.460  33.138  1.00  0.00    -0.248 NA
ATOM     15  C   UNL A   1      42.359  27.616  32.086  1.00  0.00     0.031 C 
ATOM     16  C   UNL A   1      39.071  30.335  29.406  1.00  0.00     0.029 A 
ATOM     17  N   UNL A   1      39.370  30.888  31.546  1.00  0.00    -0.354 N 
ATOM     18  C   UNL A   1      42.221  28.785  34.030  1.00  0.00     0.074 A 
ATOM     19  C   UNL A   1      42.689  27.593  33.366  1.00  0.00     0.031 C 
ATOM     20  C   UNL A   1      38.143  31.258  29.715  1.00  0.00     0.029 A 
ATOM     21  C   UNL A   1      38.329  31.670  31.102  1.00  0.00     0.049 A 
ATOM     22  H   UNL A   1      39.724  30.936  32.463  1.00  0.00     0.167 HD
ATOM     23  C   UNL A   1      42.633  29.168  35.261  1.00  0.00     0.037 A 
ATOM     24  C   UNL A   1      37.642  32.644  31.731  1.00  0.00     0.037 A 
ATOM     25  C   UNL A   1      42.164  30.361  35.908  1.00  0.00     0.049 A 
ATOM     26  C   UNL A   1      38.121  33.088  33.089  1.00  0.00     0.074 A 
ATOM     27  C   UNL A   1      42.560  30.909  37.113  1.00  0.00     0.029 A 
ATOM     28  N   UNL A   1      41.181  31.191  35.389  1.00  0.00    -0.354 N 
ATOM     29  N   UNL A   1      39.049  32.556  33.851  1.00  0.00    -0.248 NA
ATOM     30  C   UNL A   1      37.520  34.310  33.640  1.00  0.00     0.031 C 
ATOM     31  C   UNL A   1      41.795  32.062  37.334  1.00  0.00     0.029 A 
ATOM     32  C   UNL A   1      40.951  32.246  36.250  1.00  0.00     0.049 A 
ATOM     33  H   UNL A   1      40.714  31.047  34.534  1.00  0.00     0.167 HD
ATOM     34  C   UNL A   1      39.180  33.406  34.943  1.00  0.00     0.074 A 
ATOM     35  C   UNL A   1      38.238  34.488  34.739  1.00  0.00     0.031 C 
ATOM     36  C   UNL A   1      40.012  33.313  36.012  1.00  0.00     0.037 A 
BRANCH  23  37
ATOM     37  C   UNL A   1      43.700  28.337  35.919  1.00  0.00     0.058 A 
ATOM     38  C   UNL A   1      45.063  28.620  35.707  1.00  0.00     0.135 A 
ATOM     39  C   UNL A   1      43.384  27.268  36.770  1.00  0.00     0.135 A 
ATOM     40  F   UNL A   1      45.427  29.621  34.889  1.00  0.00    -0.206 F 
ATOM     41  C   UNL A   1      46.070  27.852  36.280  1.00  0.00     0.059 A 
ATOM     42  C   UNL A   1      44.377  26.504  37.381  1.00  0.00     0.059 A 
ATOM     43  F   UNL A   1      42.102  26.949  37.007  1.00  0.00    -0.206 F 
ATOM     44  C   UNL A   1      45.716  26.795  37.118  1.00  0.00     0.060 A 
BRANCH  44  45
ATOM     45  S   UNL A   1      47.039  25.827  37.873  1.00  0.00     0.124 S 
ATOM     46  O   UNL A   1      46.909  24.554  37.169  1.00  0.00    -0.237 OA
ATOM     47  O   UNL A   1      48.225  26.611  37.547  1.00  0.00    -0.237 OA
ATOM     48  O   UNL A   1      46.677  25.801  39.287  1.00  0.00    -0.744 OA
ENDBRANCH  44  45
ENDBRANCH  23  37
BRANCH  24  49
ATOM     49  C   UNL A   1      36.530  33.350  31.038  1.00  0.00     0.058 A 
ATOM     50  C   UNL A   1      35.197  33.176  31.442  1.00  0.00     0.135 A 
ATOM     51  C   UNL A   1      36.774  34.216  29.960  1.00  0.00     0.135 A 
ATOM     52  F   UNL A   1      34.911  32.363  32.469  1.00  0.00    -0.206 F 
ATOM     53  C   UNL A   1      34.145  33.809  30.787  1.00  0.00     0.059 A 
ATOM     54  C   UNL A   1      35.738  34.876  29.300  1.00  0.00     0.059 A 
ATOM     55  F   UNL A   1      38.031  34.436  29.547  1.00  0.00    -0.206 F 
ATOM     56  C   UNL A   1      34.425  34.657  29.714  1.00  0.00     0.060 A 
BRANCH  56  57
ATOM     57  S   UNL A   1      33.047  35.493  28.896  1.00  0.00     0.124 S 
ATOM     58  O   UNL A   1      33.726  36.550  28.173  1.00  0.00    -0.237 OA
ATOM     59  O   UNL A   1      32.478  34.417  28.084  1.00  0.00    -0.237 OA
ATOM     60  O   UNL A   1      32.207  35.924  30.016  1.00  0.00    -0.744 OA
ENDBRANCH  56  57
ENDBRANCH  24  49
BRANCH  36  61
ATOM     61  C   UNL A   1      39.963  34.425  37.017  1.00  0.00     0.058 A 
ATOM     62  C   UNL A   1      40.721  35.594  36.857  1.00  0.00     0.135 A 
ATOM     63  C   UNL A   1      39.113  34.334  38.132  1.00  0.00     0.135 A 
ATOM     64  F   UNL A   1      41.548  35.725  35.809  1.00  0.00    -0.206 F 
ATOM     65  C   UNL A   1      40.666  36.623  37.789  1.00  0.00     0.059 A 
ATOM     66  C   UNL A   1      39.020  35.365  39.060  1.00  0.00     0.059 A 
ATOM     67  F   UNL A   1      38.356  33.242  38.320  1.00  0.00    -0.206 F 
ATOM     68  C   UNL A   1      39.814  36.498  38.888  1.00  0.00     0.060 A 
BRANCH  68  69
ATOM     69  S   UNL A   1      39.740  37.848  40.083  1.00  0.00     0.124 S 
ATOM     70  O   UNL A   1      41.060  38.450  39.925  1.00  0.00    -0.237 OA
ATOM     71  O   UNL A   1      38.618  38.642  39.590  1.00  0.00    -0.237 OA
ATOM     72  O   UNL A   1      39.507  37.166  41.351  1.00  0.00    -0.744 OA
ENDBRANCH  68  69
ENDBRANCH  36  61
ENDBRANCH  10  11
ENDBRANCH   3   5
ENDBRANCH   2   3
ENDBRANCH   1   2
BRANCH   1  73
ATOM     73  C   UNL A   1      44.200  24.169  24.678  1.00  0.00     0.274 C 
BRANCH  73  74
ATOM     74  O   UNL A   1      43.266  23.260  25.283  1.00  0.00    -0.457 OA
BRANCH  74  75
ATOM     75  C   UNL A   1      43.742  22.490  26.310  1.00  0.00     0.373 C 
ATOM     76  O   UNL A   1      44.714  21.745  26.195  1.00  0.00    -0.244 OA
BRANCH  75  77
ATOM     77  C   UNL A   1      42.826  22.542  27.610  1.00  0.00     0.219 C 
ATOM     78  C   UNL A   1      41.414  23.093  27.237  1.00  0.00     0.087 C 
ATOM     79  N   UNL A   1      42.715  21.145  28.129  1.00  0.00    -0.328 N 
ATOM     80  C   UNL A   1      40.561  22.142  26.399  1.00  0.00     0.013 C 
ATOM     81  C   UNL A   1      41.957  20.253  27.256  1.00  0.00     0.261 C 
ATOM     82  H   UNL A   1      42.251  21.175  29.038  1.00  0.00     0.347 HD
ATOM     83  H   UNL A   1      43.662  20.772  28.187  1.00  0.00     0.347 HD
ATOM     84  C   UNL A   1      40.540  20.763  27.036  1.00  0.00     0.062 C 
BRANCH  77  85
ATOM     85  C   UNL A   1      43.454  23.382  28.759  1.00  0.00     0.024 A 
ATOM     86  C   UNL A   1      43.776  22.778  29.995  1.00  0.00     0.011 A 
ATOM     87  C   UNL A   1      43.756  24.749  28.636  1.00  0.00     0.011 A 
ATOM     88  C   UNL A   1      44.205  23.523  31.098  1.00  0.00     0.001 A 
ATOM     89  C   UNL A   1      44.185  25.502  29.742  1.00  0.00     0.001 A 
ATOM     90  C   UNL A   1      44.378  24.894  30.979  1.00  0.00     0.000 A 
ENDBRANCH  77  85
ENDBRANCH  75  77
ENDBRANCH  74  75
ENDBRANCH  73  74
ENDBRANCH   1  73
TORSDOF 15
ENDMDL
MODEL 2
REMARK VINA RESULT:     -10.3      5.191     11.432
REMARK SMILES O=C(OCCOC(=O)[C@@]1(c2ccccc2)CCCC[NH2+]1)c1ccc(-c2c3nc(c(-c4c(F)cc(S(=O)(=O)[O-])cc4F)c4ccc([nH]4)c(-c4c(F)cc(S(=O)(=O)[O-])cc4F)c4nc(c(-c5c(F)cc(S(=O)(=O)[O-])cc5F)c5ccc2[nH]5)C=C4)C=C3)cc1
REMARK SMILES IDX 4 1 3 2 2 3 1 4 21 5 22 6 86 7 23 8 85 9 24 10 25 11 26 12
REMARK SMILES IDX 79 13 27 14 84 15 78 16 80 17 28 18 83 19 77 20 76 21 29 23
REMARK SMILES IDX 63 24 42 25 62 26 43 27 46 28 61 29 81 30 44 31 45 32 60 34
REMARK SMILES IDX 82 35 47 36 30 37 31 38 40 39 32 40 33 41 39 42 41 43 34 44
REMARK SMILES IDX 35 45 36 46 37 47 38 48 64 49 65 50 74 51 66 52 67 53 73 54
REMARK SMILES IDX 75 55 68 56 69 57 70 58 71 59 72 60 48 61 49 62 58 63 50 64
REMARK SMILES IDX 51 65 57 66 59 67 52 68 53 69 54 70 55 71 56 72 5 73 6 74
REMARK SMILES IDX 7 75 8 76 9 77 16 78 20 79 17 80 19 81 18 84 10 85 11 86
REMARK SMILES IDX 15 87 12 88 14 89 13 90
REMARK H PARENT 80 22 46 33 20 82 20 83
REMARK Flexibility Score: inf
ROOT
ATOM      1  C   UNL A   1      33.634  27.935  26.619  1.00  0.00     0.275 C 
ENDROOT
BRANCH   1   2
ATOM      2  O   UNL A   1      33.917  29.331  26.440  1.00  0.00    -0.458 OA
BRANCH   2   3
ATOM      3  C   UNL A   1      34.411  30.181  27.371  1.00  0.00     0.338 C 
ATOM      4  O   UNL A   1      33.797  31.201  27.672  1.00  0.00    -0.246 OA
BRANCH   3   5
ATOM      5  C   UNL A   1      35.769  29.975  27.926  1.00  0.00     0.060 A 
ATOM      6  C   UNL A   1      36.965  30.124  27.218  1.00  0.00     0.016 A 
ATOM      7  C   UNL A   1      35.818  29.548  29.249  1.00  0.00     0.016 A 
ATOM      8  C   UNL A   1      38.196  29.907  27.858  1.00  0.00     0.010 A 
ATOM      9  C   UNL A   1      37.036  29.393  29.903  1.00  0.00     0.010 A 
ATOM     10  C   UNL A   1      38.240  29.529  29.206  1.00  0.00    -0.014 A 
BRANCH  10  11
ATOM     11  C   UNL A   1      39.498  29.096  29.870  1.00  0.00     0.031 A 
ATOM     12  C   UNL A   1      39.981  29.873  31.074  1.00  0.00     0.074 A 
ATOM     13  C   UNL A   1      40.245  28.089  29.375  1.00  0.00     0.049 A 
ATOM     14  N   UNL A   1      40.988  29.624  31.869  1.00  0.00    -0.248 NA
ATOM     15  C   UNL A   1      39.252  31.111  31.413  1.00  0.00     0.031 C 
ATOM     16  C   UNL A   1      39.962  27.334  28.154  1.00  0.00     0.029 A 
ATOM     17  N   UNL A   1      41.424  27.548  29.824  1.00  0.00    -0.354 N 
ATOM     18  C   UNL A   1      40.972  30.637  32.821  1.00  0.00     0.074 A 
ATOM     19  C   UNL A   1      39.964  31.587  32.421  1.00  0.00     0.031 C 
ATOM     20  C   UNL A   1      40.967  26.472  27.919  1.00  0.00     0.029 A 
ATOM     21  C   UNL A   1      41.929  26.560  29.012  1.00  0.00     0.049 A 
ATOM     22  H   UNL A   1      41.867  27.842  30.653  1.00  0.00     0.167 HD
ATOM     23  C   UNL A   1      41.666  30.724  33.979  1.00  0.00     0.037 A 
ATOM     24  C   UNL A   1      43.017  25.779  29.165  1.00  0.00     0.037 A 
ATOM     25  C   UNL A   1      42.663  29.767  34.369  1.00  0.00     0.049 A 
ATOM     26  C   UNL A   1      43.772  25.858  30.467  1.00  0.00     0.074 A 
ATOM     27  C   UNL A   1      43.380  29.689  35.548  1.00  0.00     0.029 A 
ATOM     28  N   UNL A   1      43.084  28.715  33.569  1.00  0.00    -0.354 N 
ATOM     29  N   UNL A   1      43.618  26.705  31.459  1.00  0.00    -0.248 NA
ATOM     30  C   UNL A   1      44.790  24.829  30.709  1.00  0.00     0.031 C 
ATOM     31  C   UNL A   1      44.255  28.600  35.449  1.00  0.00     0.029 A 
ATOM     32  C   UNL A   1      44.054  27.982  34.225  1.00  0.00     0.049 A 
ATOM     33  H   UNL A   1      42.743  28.520  32.666  1.00  0.00     0.167 HD
ATOM     34  C   UNL A   1      44.481  26.279  32.462  1.00  0.00     0.074 A 
ATOM     35  C   UNL A   1      45.150  25.097  31.956  1.00  0.00     0.031 C 
ATOM     36  C   UNL A   1      44.694  26.804  33.695  1.00  0.00     0.037 A 
BRANCH  23  37
ATOM     37  C   UNL A   1      41.291  31.832  34.925  1.00  0.00     0.058 A 
ATOM     38  C   UNL A   1      40.244  31.662  35.851  1.00  0.00     0.135 A 
ATOM     39  C   UNL A   1      41.969  33.060  34.930  1.00  0.00     0.135 A 
ATOM     40  F   UNL A   1      39.547  30.513  35.881  1.00  0.00    -0.206 F 
ATOM     41  C   UNL A   1      39.858  32.677  36.717  1.00  0.00     0.059 A 
ATOM     42  C   UNL A   1      41.620  34.081  35.812  1.00  0.00     0.059 A 
ATOM     43  F   UNL A   1      42.973  33.281  34.068  1.00  0.00    -0.206 F 
ATOM     44  C   UNL A   1      40.554  33.885  36.691  1.00  0.00     0.060 A 
BRANCH  44  45
ATOM     45  S   UNL A   1      40.054  35.182  37.842  1.00  0.00     0.124 S 
ATOM     46  O   UNL A   1      38.861  34.595  38.445  1.00  0.00    -0.237 OA
ATOM     47  O   UNL A   1      41.217  35.287  38.718  1.00  0.00    -0.237 OA
ATOM     48  O   UNL A   1      39.819  36.333  36.977  1.00  0.00    -0.744 OA
ENDBRANCH  44  45
ENDBRANCH  23  37
BRANCH  24  49
ATOM     49  C   UNL A   1      43.374  24.772  28.128  1.00  0.00     0.058 A 
ATOM     50  C   UNL A   1      42.898  23.454  28.205  1.00  0.00     0.135 A 
ATOM     51  C   UNL A   1      44.193  25.105  27.039  1.00  0.00     0.135 A 
ATOM     52  F   UNL A   1      42.108  23.086  29.224  1.00  0.00    -0.206 F 
ATOM     53  C   UNL A   1      43.244  22.494  27.258  1.00  0.00     0.059 A 
ATOM     54  C   UNL A   1      44.538  24.166  26.067  1.00  0.00     0.059 A 
ATOM     55  F   UNL A   1      44.657  26.357  26.904  1.00  0.00    -0.206 F 
ATOM     56  C   UNL A   1      44.068  22.860  26.191  1.00  0.00     0.060 A 
BRANCH  56  57
ATOM     57  S   UNL A   1      44.481  21.607  24.955  1.00  0.00     0.124 S 
ATOM     58  O   UNL A   1      45.806  21.198  25.377  1.00  0.00    -0.237 OA
ATOM     59  O   UNL A   1      43.411  20.628  25.147  1.00  0.00    -0.237 OA
ATOM     60  O   UNL A   1      44.413  22.349  23.694  1.00  0.00    -0.744 OA
ENDBRANCH  56  57
ENDBRANCH  24  49
BRANCH  36  61
ATOM     61  C   UNL A   1      45.660  26.085  34.589  1.00  0.00     0.058 A 
ATOM     62  C   UNL A   1      45.236  25.088  35.479  1.00  0.00     0.135 A 
ATOM     63  C   UNL A   1      47.034  26.370  34.520  1.00  0.00     0.135 A 
ATOM     64  F   UNL A   1      43.933  24.783  35.580  1.00  0.00    -0.206 F 
ATOM     65  C   UNL A   1      46.137  24.420  36.299  1.00  0.00     0.059 A 
ATOM     66  C   UNL A   1      47.956  25.693  35.311  1.00  0.00     0.059 A 
ATOM     67  F   UNL A   1      47.491  27.305  33.674  1.00  0.00    -0.206 F 
ATOM     68  C   UNL A   1      47.495  24.732  36.209  1.00  0.00     0.060 A 
BRANCH  68  69
ATOM     69  S   UNL A   1      48.657  23.848  37.269  1.00  0.00     0.124 S 
ATOM     70  O   UNL A   1      49.614  23.338  36.292  1.00  0.00    -0.237 OA
ATOM     71  O   UNL A   1      49.149  24.906  38.147  1.00  0.00    -0.237 OA
ATOM     72  O   UNL A   1      47.824  22.841  37.919  1.00  0.00    -0.744 OA
ENDBRANCH  68  69
ENDBRANCH  36  61
ENDBRANCH  10  11
ENDBRANCH   3   5
ENDBRANCH   2   3
ENDBRANCH   1   2
BRANCH   1  73
ATOM     73  C   UNL A   1      32.148  27.592  26.653  1.00  0.00     0.274 C 
BRANCH  73  74
ATOM     74  O   UNL A   1      31.378  28.184  25.595  1.00  0.00    -0.457 OA
BRANCH  74  75
ATOM     75  C   UNL A   1      30.953  27.341  24.604  1.00  0.00     0.373 C 
ATOM     76  O   UNL A   1      30.629  26.172  24.812  1.00  0.00    -0.244 OA
BRANCH  75  77
ATOM     77  C   UNL A   1      31.065  27.974  23.149  1.00  0.00     0.219 C 
ATOM     78  C   UNL A   1      32.374  28.817  23.042  1.00  0.00     0.087 C 
ATOM     79  N   UNL A   1      31.101  26.840  22.175  1.00  0.00    -0.328 N 
ATOM     80  C   UNL A   1      33.662  27.995  23.030  1.00  0.00     0.013 C 
ATOM     81  C   UNL A   1      32.316  26.035  22.254  1.00  0.00     0.261 C 
ATOM     82  H   UNL A   1      31.030  27.224  21.232  1.00  0.00     0.347 HD
ATOM     83  H   UNL A   1      30.320  26.225  22.405  1.00  0.00     0.347 HD
ATOM     84  C   UNL A   1      33.558  26.879  22.003  1.00  0.00     0.062 C 
BRANCH  77  85
ATOM     85  C   UNL A   1      29.828  28.835  22.767  1.00  0.00     0.024 A 
ATOM     86  C   UNL A   1      29.984  30.014  22.003  1.00  0.00     0.011 A 
ATOM     87  C   UNL A   1      28.512  28.493  23.124  1.00  0.00     0.011 A 
ATOM     88  C   UNL A   1      28.921  30.890  21.762  1.00  0.00     0.001 A 
ATOM     89  C   UNL A   1      27.442  29.372  22.886  1.00  0.00     0.001 A 
ATOM     90  C   UNL A   1      27.653  30.583  22.234  1.00  0.00     0.000 A 
ENDBRANCH  77  85
ENDBRANCH  75  77
ENDBRANCH  74  75
ENDBRANCH  73  74
ENDBRANCH   1  73
TORSDOF 15
ENDMDL
MODEL 3
REMARK VINA RESULT:     -10.3      5.887      8.213
REMARK SMILES O=C(OCCOC(=O)[C@@]1(c2ccccc2)CCCC[NH2+]1)c1ccc(-c2c3nc(c(-c4c(F)cc(S(=O)(=O)[O-])cc4F)c4ccc([nH]4)c(-c4c(F)cc(S(=O)(=O)[O-])cc4F)c4nc(c(-c5c(F)cc(S(=O)(=O)[O-])cc5F)c5ccc2[nH]5)C=C4)C=C3)cc1
REMARK SMILES IDX 4 1 3 2 2 3 1 4 21 5 22 6 86 7 23 8 85 9 24 10 25 11 26 12
REMARK SMILES IDX 79 13 27 14 84 15 78 16 80 17 28 18 83 19 77 20 76 21 29 23
REMARK SMILES IDX 63 24 42 25 62 26 43 27 46 28 61 29 81 30 44 31 45 32 60 34
REMARK SMILES IDX 82 35 47 36 30 37 31 38 40 39 32 40 33 41 39 42 41 43 34 44
REMARK SMILES IDX 35 45 36 46 37 47 38 48 64 49 65 50 74 51 66 52 67 53 73 54
REMARK SMILES IDX 75 55 68 56 69 57 70 58 71 59 72 60 48 61 49 62 58 63 50 64
REMARK SMILES IDX 51 65 57 66 59 67 52 68 53 69 54 70 55 71 56 72 5 73 6 74
REMARK SMILES IDX 7 75 8 76 9 77 16 78 20 79 17 80 19 81 18 84 10 85 11 86
REMARK SMILES IDX 15 87 12 88 14 89 13 90
REMARK H PARENT 80 22 46 33 20 82 20 83
REMARK Flexibility Score: inf
ROOT
ATOM      1  C   UNL A   1      37.320  21.806  24.623  1.00  0.00     0.275 C 
ENDROOT
BRANCH   1   2
ATOM      2  O   UNL A   1      37.683  22.414  25.872  1.00  0.00    -0.458 OA
BRANCH   2   3
ATOM      3  C   UNL A   1      38.936  22.581  26.355  1.00  0.00     0.338 C 
ATOM      4  O   UNL A   1      39.627  21.608  26.646  1.00  0.00    -0.246 OA
BRANCH   3   5
ATOM      5  C   UNL A   1      39.436  23.935  26.688  1.00  0.00     0.060 A 
ATOM      6  C   UNL A   1      40.007  24.833  25.783  1.00  0.00     0.016 A 
ATOM      7  C   UNL A   1      39.363  24.288  28.032  1.00  0.00     0.016 A 
ATOM      8  C   UNL A   1      40.440  26.097  26.219  1.00  0.00     0.010 A 
ATOM      9  C   UNL A   1      39.732  25.560  28.455  1.00  0.00     0.010 A 
ATOM     10  C   UNL A   1      40.313  26.466  27.565  1.00  0.00    -0.014 A 
BRANCH  10  11
ATOM     11  C   UNL A   1      40.933  27.702  28.111  1.00  0.00     0.031 A 
ATOM     12  C   UNL A   1      42.441  27.786  28.167  1.00  0.00     0.074 A 
ATOM     13  C   UNL A   1      40.184  28.697  28.625  1.00  0.00     0.049 A 
ATOM     14  N   UNL A   1      43.201  28.795  28.508  1.00  0.00    -0.248 NA
ATOM     15  C   UNL A   1      43.198  26.567  27.820  1.00  0.00     0.031 C 
ATOM     16  C   UNL A   1      38.725  28.695  28.747  1.00  0.00     0.029 A 
ATOM     17  N   UNL A   1      40.553  29.898  29.178  1.00  0.00    -0.354 N 
ATOM     18  C   UNL A   1      44.508  28.343  28.362  1.00  0.00     0.074 A 
ATOM     19  C   UNL A   1      44.445  26.935  28.057  1.00  0.00     0.031 C 
ATOM     20  C   UNL A   1      38.330  29.809  29.389  1.00  0.00     0.029 A 
ATOM     21  C   UNL A   1      39.499  30.639  29.659  1.00  0.00     0.049 A 
ATOM     22  H   UNL A   1      41.489  30.201  29.227  1.00  0.00     0.167 HD
ATOM     23  C   UNL A   1      45.659  29.056  28.383  1.00  0.00     0.037 A 
ATOM     24  C   UNL A   1      39.478  31.871  30.205  1.00  0.00     0.037 A 
ATOM     25  C   UNL A   1      45.706  30.460  28.681  1.00  0.00     0.049 A 
ATOM     26  C   UNL A   1      40.754  32.672  30.201  1.00  0.00     0.074 A 
ATOM     27  C   UNL A   1      46.789  31.317  28.656  1.00  0.00     0.029 A 
ATOM     28  N   UNL A   1      44.604  31.209  29.067  1.00  0.00    -0.354 N 
ATOM     29  N   UNL A   1      41.967  32.291  29.870  1.00  0.00    -0.248 NA
ATOM     30  C   UNL A   1      40.650  34.091  30.565  1.00  0.00     0.031 C 
ATOM     31  C   UNL A   1      46.344  32.585  29.051  1.00  0.00     0.029 A 
ATOM     32  C   UNL A   1      44.979  32.520  29.286  1.00  0.00     0.049 A 
ATOM     33  H   UNL A   1      43.690  30.857  29.170  1.00  0.00     0.167 HD
ATOM     34  C   UNL A   1      42.757  33.432  29.934  1.00  0.00     0.074 A 
ATOM     35  C   UNL A   1      41.883  34.518  30.333  1.00  0.00     0.031 C 
ATOM     36  C   UNL A   1      44.081  33.579  29.674  1.00  0.00     0.037 A 
BRANCH  23  37
ATOM     37  C   UNL A   1      46.919  28.339  27.981  1.00  0.00     0.058 A 
ATOM     38  C   UNL A   1      47.689  27.651  28.939  1.00  0.00     0.135 A 
ATOM     39  C   UNL A   1      47.365  28.317  26.652  1.00  0.00     0.135 A 
ATOM     40  F   UNL A   1      47.320  27.651  30.231  1.00  0.00    -0.206 F 
ATOM     41  C   UNL A   1      48.871  27.003  28.602  1.00  0.00     0.059 A 
ATOM     42  C   UNL A   1      48.531  27.647  26.285  1.00  0.00     0.059 A 
ATOM     43  F   UNL A   1      46.674  28.958  25.697  1.00  0.00    -0.206 F 
ATOM     44  C   UNL A   1      49.284  27.005  27.270  1.00  0.00     0.060 A 
BRANCH  44  45
ATOM     45  S   UNL A   1      50.809  26.137  26.848  1.00  0.00     0.124 S 
ATOM     46  O   UNL A   1      51.814  26.982  27.486  1.00  0.00    -0.237 OA
ATOM     47  O   UNL A   1      50.602  24.828  27.462  1.00  0.00    -0.237 OA
ATOM     48  O   UNL A   1      50.814  26.147  25.389  1.00  0.00    -0.744 OA
ENDBRANCH  44  45
ENDBRANCH  23  37
BRANCH  24  49
ATOM     49  C   UNL A   1      38.195  32.468  30.669  1.00  0.00     0.058 A 
ATOM     50  C   UNL A   1      37.391  33.222  29.801  1.00  0.00     0.135 A 
ATOM     51  C   UNL A   1      37.744  32.295  31.986  1.00  0.00     0.135 A 
ATOM     52  F   UNL A   1      37.774  33.414  28.530  1.00  0.00    -0.206 F 
ATOM     53  C   UNL A   1      36.202  33.809  30.227  1.00  0.00     0.059 A 
ATOM     54  C   UNL A   1      36.548  32.856  32.432  1.00  0.00     0.059 A 
ATOM     55  F   UNL A   1      38.463  31.564  32.852  1.00  0.00    -0.206 F 
ATOM     56  C   UNL A   1      35.790  33.621  31.548  1.00  0.00     0.060 A 
BRANCH  56  57
ATOM     57  S   UNL A   1      34.228  34.365  32.074  1.00  0.00     0.124 S 
ATOM     58  O   UNL A   1      34.683  35.557  32.763  1.00  0.00    -0.237 OA
ATOM     59  O   UNL A   1      33.548  34.578  30.796  1.00  0.00    -0.237 OA
ATOM     60  O   UNL A   1      33.632  33.327  32.919  1.00  0.00    -0.744 OA
ENDBRANCH  56  57
ENDBRANCH  24  49
BRANCH  36  61
ATOM     61  C   UNL A   1      44.651  34.961  29.779  1.00  0.00     0.058 A 
ATOM     62  C   UNL A   1      44.664  35.837  28.683  1.00  0.00     0.135 A 
ATOM     63  C   UNL A   1      45.153  35.429  31.005  1.00  0.00     0.135 A 
ATOM     64  F   UNL A   1      44.197  35.433  27.491  1.00  0.00    -0.206 F 
ATOM     65  C   UNL A   1      45.188  37.119  28.789  1.00  0.00     0.059 A 
ATOM     66  C   UNL A   1      45.654  36.719  31.140  1.00  0.00     0.059 A 
ATOM     67  F   UNL A   1      45.148  34.635  32.087  1.00  0.00    -0.206 F 
ATOM     68  C   UNL A   1      45.682  37.550  30.022  1.00  0.00     0.060 A 
BRANCH  68  69
ATOM     69  S   UNL A   1      46.346  39.223  30.149  1.00  0.00     0.124 S 
ATOM     70  O   UNL A   1      47.244  39.270  29.000  1.00  0.00    -0.237 OA
ATOM     71  O   UNL A   1      45.144  40.046  30.049  1.00  0.00    -0.237 OA
ATOM     72  O   UNL A   1      46.995  39.231  31.456  1.00  0.00    -0.744 OA
ENDBRANCH  68  69
ENDBRANCH  36  61
ENDBRANCH  10  11
ENDBRANCH   3   5
ENDBRANCH   2   3
ENDBRANCH   1   2
BRANCH   1  73
ATOM     73  C   UNL A   1      36.350  22.626  23.780  1.00  0.00     0.274 C 
BRANCH  73  74
ATOM     74  O   UNL A   1      35.141  23.000  24.460  1.00  0.00    -0.457 OA
BRANCH  74  75
ATOM     75  C   UNL A   1      33.983  22.431  24.004  1.00  0.00     0.373 C 
ATOM     76  O   UNL A   1      33.392  22.827  23.000  1.00  0.00    -0.244 OA
BRANCH  75  77
ATOM     77  C   UNL A   1      33.403  21.317  24.980  1.00  0.00     0.219 C 
ATOM     78  C   UNL A   1      34.111  21.414  26.368  1.00  0.00     0.087 C 
ATOM     79  N   UNL A   1      31.939  21.579  25.128  1.00  0.00    -0.328 N 
ATOM     80  C   UNL A   1      33.738  22.648  27.188  1.00  0.00     0.013 C 
ATOM     81  C   UNL A   1      31.631  22.809  25.851  1.00  0.00     0.261 C 
ATOM     82  H   UNL A   1      31.522  20.796  25.634  1.00  0.00     0.347 HD
ATOM     83  H   UNL A   1      31.558  21.681  24.188  1.00  0.00     0.347 HD
ATOM     84  C   UNL A   1      32.227  22.794  27.251  1.00  0.00     0.062 C 
BRANCH  77  85
ATOM     85  C   UNL A   1      33.530  19.880  24.401  1.00  0.00     0.024 A 
ATOM     86  C   UNL A   1      32.528  19.357  23.553  1.00  0.00     0.011 A 
ATOM     87  C   UNL A   1      34.631  19.043  24.655  1.00  0.00     0.011 A 
ATOM     88  C   UNL A   1      32.532  18.024  23.130  1.00  0.00     0.001 A 
ATOM     89  C   UNL A   1      34.637  17.702  24.233  1.00  0.00     0.001 A 
ATOM     90  C   UNL A   1      33.574  17.186  23.498  1.00  0.00     0.000 A 
ENDBRANCH  77  85
ENDBRANCH  75  77
ENDBRANCH  74  75
ENDBRANCH  73  74
ENDBRANCH   1  73
TORSDOF 15
ENDMDL
