MODEL 1
REMARK VINA RESULT:     -13.2      0.000      0.000
REMARK SMILES Cc1ccc(-c2cnnc(-n3nc(C)c4c3NC(=O)C[C@@H]4c3ccc(C(=O)OCCOC(=O)c4ccc(-c5c6nc(c(-c7c(F)cc(S(=O)(=O)[O-])cc7F)c7ccc([nH]7)c(-c7c(F)cc(S(=O)(=O)[O-])cc7F)c7nc(c(-c8c(F)cc(S(=O)(=O)[O-])cc8F)c8ccc5[nH]8)C=C7)C=C6)cc4)cc3)n2)cc1
REMARK SMILES IDX 29 1 28 2 26 3 27 4 25 5 22 6 23 7 101 8 24 9 100 10 21 11
REMARK SMILES IDX 11 12 12 13 16 14 13 15 15 16 17 17 14 18 18 19 20 21 19 22
REMARK SMILES IDX 10 23 6 24 7 25 102 26 8 27 9 28 5 29 1 30 2 31 3 32 104 33
REMARK SMILES IDX 4 34 103 35 30 36 31 37 32 38 33 39 34 40 35 41 99 42 36 43
REMARK SMILES IDX 98 44 37 45 38 46 39 47 92 48 40 49 97 50 91 51 93 52 41 53
REMARK SMILES IDX 96 54 90 55 89 56 42 58 76 59 55 60 75 61 56 62 59 63 74 64
REMARK SMILES IDX 94 65 57 66 58 67 73 69 95 70 60 71 43 72 44 73 53 74 45 75
REMARK SMILES IDX 46 76 52 77 54 78 47 79 48 80 49 81 50 82 51 83 77 84 78 85
REMARK SMILES IDX 87 86 79 87 80 88 86 89 88 90 81 91 82 92 83 93 84 94 85 95
REMARK SMILES IDX 61 96 62 97 71 98 63 99 64 100 70 101 72 102 65 103 66 104
REMARK SMILES IDX 67 105 68 106 69 107
REMARK H PARENT 17 20 93 57 59 68
REMARK Flexibility Score: inf
ROOT
ATOM      1  C   UNL A   1      39.266  20.970  26.013  1.00  0.00     0.275 C 
ENDROOT
BRANCH   1   2
ATOM      2  O   UNL A   1      37.902  21.328  25.740  1.00  0.00    -0.458 OA
BRANCH   2   3
ATOM      3  C   UNL A   1      37.189  20.317  25.197  1.00  0.00     0.338 C 
ATOM      4  O   UNL A   1      37.558  19.160  25.075  1.00  0.00    -0.246 OA
BRANCH   3   5
ATOM      5  C   UNL A   1      35.952  20.786  24.566  1.00  0.00     0.060 A 
ATOM      6  C   UNL A   1      33.431  21.930  24.380  1.00  0.00    -0.040 A 
ATOM      7  C   UNL A   1      34.547  22.681  24.028  1.00  0.00     0.005 A 
ATOM      8  C   UNL A   1      33.580  20.542  24.590  1.00  0.00     0.005 A 
ATOM      9  C   UNL A   1      35.800  22.107  24.143  1.00  0.00     0.016 A 
ATOM     10  C   UNL A   1      34.840  19.978  24.727  1.00  0.00     0.016 A 
BRANCH   6  11
ATOM     11  C   UNL A   1      32.169  22.704  24.680  1.00  0.00     0.064 C 
ATOM     12  N   UNL A   1      32.753  26.257  24.736  1.00  0.00    -0.180 N 
ATOM     13  N   UNL A   1      33.193  26.071  23.465  1.00  0.00    -0.168 NA
ATOM     14  C   UNL A   1      32.700  25.047  25.399  1.00  0.00     0.143 A 
ATOM     15  C   UNL A   1      32.897  24.794  23.206  1.00  0.00     0.066 A 
ATOM     16  C   UNL A   1      32.490  24.124  24.397  1.00  0.00     0.026 A 
ATOM     17  N   UNL A   1      32.806  24.648  26.719  1.00  0.00    -0.310 N 
ATOM     18  C   UNL A   1      33.172  24.259  21.848  1.00  0.00     0.069 C 
ATOM     19  C   UNL A   1      32.513  23.279  27.071  1.00  0.00     0.226 C 
ATOM     20  H   UNL A   1      33.079  25.293  27.412  1.00  0.00     0.171 HD
ATOM     21  C   UNL A   1      31.655  22.507  26.097  1.00  0.00     0.113 C 
ATOM     22  O   UNL A   1      32.851  22.908  28.166  1.00  0.00    -0.275 OA
BRANCH  12  23
ATOM     23  C   UNL A   1      32.028  27.425  25.080  1.00  0.00     0.272 A 
ATOM     24  C   UNL A   1      30.991  29.365  24.514  1.00  0.00     0.095 A 
ATOM     25  C   UNL A   1      31.230  29.850  25.788  1.00  0.00     0.164 A 
ATOM     26  N   UNL A   1      31.436  28.149  24.110  1.00  0.00    -0.208 NA
ATOM     27  N   UNL A   1      31.828  29.091  26.714  1.00  0.00    -0.153 NA
ATOM     28  N   UNL A   1      32.189  27.845  26.363  1.00  0.00    -0.109 NA
BRANCH  24  29
ATOM     29  C   UNL A   1      30.129  30.081  23.576  1.00  0.00     0.002 A 
ATOM     30  C   UNL A   1      27.747  32.411  20.827  1.00  0.00     0.044 C 
ATOM     31  C   UNL A   1      28.577  31.610  21.784  1.00  0.00    -0.051 A 
ATOM     32  C   UNL A   1      29.251  30.468  21.341  1.00  0.00     0.004 A 
ATOM     33  C   UNL A   1      28.677  31.987  23.125  1.00  0.00     0.004 A 
ATOM     34  C   UNL A   1      30.020  29.709  22.228  1.00  0.00     0.011 A 
ATOM     35  C   UNL A   1      29.441  31.227  24.009  1.00  0.00     0.011 A 
ENDBRANCH  24  29
ENDBRANCH  12  23
ENDBRANCH   6  11
ENDBRANCH   3   5
ENDBRANCH   2   3
ENDBRANCH   1   2
BRANCH   1  36
ATOM     36  C   UNL A   1      40.106  22.207  26.371  1.00  0.00     0.275 C 
BRANCH  36  37
ATOM     37  O   UNL A   1      41.052  22.083  27.454  1.00  0.00    -0.458 OA
BRANCH  37  38
ATOM     38  C   UNL A   1      42.224  22.752  27.300  1.00  0.00     0.338 C 
ATOM     39  O   UNL A   1      43.181  22.317  26.689  1.00  0.00    -0.246 OA
BRANCH  38  40
ATOM     40  C   UNL A   1      42.003  24.151  27.748  1.00  0.00     0.060 A 
ATOM     41  C   UNL A   1      42.139  24.457  29.104  1.00  0.00     0.016 A 
ATOM     42  C   UNL A   1      41.994  25.168  26.787  1.00  0.00     0.016 A 
ATOM     43  C   UNL A   1      42.385  25.769  29.489  1.00  0.00     0.010 A 
ATOM     44  C   UNL A   1      42.388  26.429  27.151  1.00  0.00     0.010 A 
ATOM     45  C   UNL A   1      42.581  26.723  28.506  1.00  0.00    -0.014 A 
BRANCH  45  46
ATOM     46  C   UNL A   1      42.586  28.142  28.789  1.00  0.00     0.031 A 
ATOM     47  C   UNL A   1      41.359  28.952  28.804  1.00  0.00     0.074 A 
ATOM     48  C   UNL A   1      43.769  28.428  29.373  1.00  0.00     0.049 A 
ATOM     49  N   UNL A   1      41.333  30.166  29.218  1.00  0.00    -0.248 NA
ATOM     50  C   UNL A   1      40.049  28.513  28.334  1.00  0.00     0.031 C 
ATOM     51  C   UNL A   1      44.163  29.425  30.343  1.00  0.00     0.029 A 
ATOM     52  N   UNL A   1      44.980  27.817  29.007  1.00  0.00    -0.354 N 
ATOM     53  C   UNL A   1      40.014  30.539  29.391  1.00  0.00     0.074 A 
ATOM     54  C   UNL A   1      39.250  29.517  28.726  1.00  0.00     0.031 C 
ATOM     55  C   UNL A   1      45.500  29.580  30.260  1.00  0.00     0.029 A 
ATOM     56  C   UNL A   1      45.951  28.814  29.099  1.00  0.00     0.049 A 
ATOM     57  H   UNL A   1      45.116  26.878  28.742  1.00  0.00     0.167 HD
ATOM     58  C   UNL A   1      39.777  31.605  30.209  1.00  0.00     0.037 A 
ATOM     59  C   UNL A   1      46.374  29.351  27.910  1.00  0.00     0.037 A 
ATOM     60  C   UNL A   1      41.059  32.231  30.535  1.00  0.00     0.049 A 
ATOM     61  C   UNL A   1      45.903  30.788  27.747  1.00  0.00     0.074 A 
ATOM     62  C   UNL A   1      41.962  32.088  31.573  1.00  0.00     0.029 A 
ATOM     63  N   UNL A   1      41.751  32.823  29.503  1.00  0.00    -0.354 N 
ATOM     64  N   UNL A   1      44.878  31.309  28.369  1.00  0.00    -0.248 NA
ATOM     65  C   UNL A   1      46.575  31.756  26.887  1.00  0.00     0.031 C 
ATOM     66  C   UNL A   1      43.231  32.556  31.110  1.00  0.00     0.029 A 
ATOM     67  C   UNL A   1      43.088  32.966  29.795  1.00  0.00     0.049 A 
ATOM     68  H   UNL A   1      41.339  33.111  28.656  1.00  0.00     0.167 HD
ATOM     69  C   UNL A   1      44.815  32.651  28.118  1.00  0.00     0.074 A 
ATOM     70  C   UNL A   1      45.852  32.866  27.120  1.00  0.00     0.031 C 
ATOM     71  C   UNL A   1      43.956  33.500  28.759  1.00  0.00     0.037 A 
BRANCH  58  72
ATOM     72  C   UNL A   1      38.485  31.996  30.892  1.00  0.00     0.058 A 
ATOM     73  C   UNL A   1      38.014  33.325  30.750  1.00  0.00     0.135 A 
ATOM     74  C   UNL A   1      37.688  31.182  31.723  1.00  0.00     0.135 A 
ATOM     75  F   UNL A   1      38.638  34.213  29.964  1.00  0.00    -0.206 F 
ATOM     76  C   UNL A   1      36.897  33.822  31.415  1.00  0.00     0.059 A 
ATOM     77  C   UNL A   1      36.563  31.664  32.413  1.00  0.00     0.059 A 
ATOM     78  F   UNL A   1      37.948  29.880  31.885  1.00  0.00    -0.206 F 
ATOM     79  C   UNL A   1      36.183  32.992  32.261  1.00  0.00     0.060 A 
BRANCH  79  80
ATOM     80  S   UNL A   1      34.765  33.686  33.130  1.00  0.00     0.124 S 
ATOM     81  O   UNL A   1      34.772  35.068  32.661  1.00  0.00    -0.237 OA
ATOM     82  O   UNL A   1      33.670  32.856  32.641  1.00  0.00    -0.237 OA
ATOM     83  O   UNL A   1      35.107  33.506  34.538  1.00  0.00    -0.744 OA
ENDBRANCH  79  80
ENDBRANCH  58  72
BRANCH  59  84
ATOM     84  C   UNL A   1      46.502  28.329  26.805  1.00  0.00     0.058 A 
ATOM     85  C   UNL A   1      47.622  27.460  26.808  1.00  0.00     0.135 A 
ATOM     86  C   UNL A   1      45.440  27.966  25.964  1.00  0.00     0.135 A 
ATOM     87  F   UNL A   1      48.686  27.742  27.579  1.00  0.00    -0.206 F 
ATOM     88  C   UNL A   1      47.634  26.242  26.125  1.00  0.00     0.059 A 
ATOM     89  C   UNL A   1      45.443  26.760  25.246  1.00  0.00     0.059 A 
ATOM     90  F   UNL A   1      44.334  28.720  25.902  1.00  0.00    -0.206 F 
ATOM     91  C   UNL A   1      46.524  25.884  25.367  1.00  0.00     0.060 A 
BRANCH  91  92
ATOM     92  S   UNL A   1      46.422  24.194  24.716  1.00  0.00     0.124 S 
ATOM     93  O   UNL A   1      46.773  23.396  25.882  1.00  0.00    -0.237 OA
ATOM     94  O   UNL A   1      45.029  24.115  24.287  1.00  0.00    -0.237 OA
ATOM     95  O   UNL A   1      47.404  24.206  23.633  1.00  0.00    -0.744 OA
ENDBRANCH  91  92
ENDBRANCH  59  84
BRANCH  71  96
ATOM     96  C   UNL A   1      43.851  34.963  28.447  1.00  0.00     0.058 A 
ATOM     97  C   UNL A   1      44.245  35.958  29.350  1.00  0.00     0.135 A 
ATOM     98  C   UNL A   1      43.249  35.412  27.247  1.00  0.00     0.135 A 
ATOM     99  F   UNL A   1      44.738  35.635  30.557  1.00  0.00    -0.206 F 
ATOM    100  C   UNL A   1      44.143  37.312  29.040  1.00  0.00     0.059 A 
ATOM    101  C   UNL A   1      43.063  36.752  26.952  1.00  0.00     0.059 A 
ATOM    102  F   UNL A   1      42.863  34.564  26.284  1.00  0.00    -0.206 F 
ATOM    103  C   UNL A   1      43.558  37.697  27.834  1.00  0.00     0.060 A 
BRANCH 103 104
ATOM    104  S   UNL A   1      43.470  39.439  27.404  1.00  0.00     0.124 S 
ATOM    105  O   UNL A   1      44.534  39.571  26.414  1.00  0.00    -0.237 OA
ATOM    106  O   UNL A   1      42.108  39.533  26.888  1.00  0.00    -0.237 OA
ATOM    107  O   UNL A   1      43.709  40.115  28.674  1.00  0.00    -0.744 OA
ENDBRANCH 103 104
ENDBRANCH  71  96
ENDBRANCH  45  46
ENDBRANCH  38  40
ENDBRANCH  37  38
ENDBRANCH  36  37
ENDBRANCH   1  36
TORSDOF 17
ENDMDL
MODEL 2
REMARK VINA RESULT:     -13.2      2.806      3.642
REMARK SMILES Cc1ccc(-c2cnnc(-n3nc(C)c4c3NC(=O)C[C@@H]4c3ccc(C(=O)OCCOC(=O)c4ccc(-c5c6nc(c(-c7c(F)cc(S(=O)(=O)[O-])cc7F)c7ccc([nH]7)c(-c7c(F)cc(S(=O)(=O)[O-])cc7F)c7nc(c(-c8c(F)cc(S(=O)(=O)[O-])cc8F)c8ccc5[nH]8)C=C7)C=C6)cc4)cc3)n2)cc1
REMARK SMILES IDX 29 1 28 2 26 3 27 4 25 5 22 6 23 7 101 8 24 9 100 10 21 11
REMARK SMILES IDX 11 12 12 13 16 14 13 15 15 16 17 17 14 18 18 19 20 21 19 22
REMARK SMILES IDX 10 23 6 24 7 25 102 26 8 27 9 28 5 29 1 30 2 31 3 32 104 33
REMARK SMILES IDX 4 34 103 35 30 36 31 37 32 38 33 39 34 40 35 41 99 42 36 43
REMARK SMILES IDX 98 44 37 45 38 46 39 47 92 48 40 49 97 50 91 51 93 52 41 53
REMARK SMILES IDX 96 54 90 55 89 56 42 58 76 59 55 60 75 61 56 62 59 63 74 64
REMARK SMILES IDX 94 65 57 66 58 67 73 69 95 70 60 71 43 72 44 73 53 74 45 75
REMARK SMILES IDX 46 76 52 77 54 78 47 79 48 80 49 81 50 82 51 83 77 84 78 85
REMARK SMILES IDX 87 86 79 87 80 88 86 89 88 90 81 91 82 92 83 93 84 94 85 95
REMARK SMILES IDX 61 96 62 97 71 98 63 99 64 100 70 101 72 102 65 103 66 104
REMARK SMILES IDX 67 105 68 106 69 107
REMARK H PARENT 17 20 93 57 59 68
REMARK Flexibility Score: inf
ROOT
ATOM      1  C   UNL A   1      39.454  21.261  26.166  1.00  0.00     0.275 C 
ENDROOT
BRANCH   1   2
ATOM      2  O   UNL A   1      38.065  21.482  25.870  1.00  0.00    -0.458 OA
BRANCH   2   3
ATOM      3  C   UNL A   1      37.491  20.442  25.227  1.00  0.00     0.338 C 
ATOM      4  O   UNL A   1      38.000  19.353  25.019  1.00  0.00    -0.246 OA
BRANCH   3   5
ATOM      5  C   UNL A   1      36.216  20.811  24.604  1.00  0.00     0.060 A 
ATOM      6  C   UNL A   1      33.650  21.849  24.414  1.00  0.00    -0.040 A 
ATOM      7  C   UNL A   1      34.725  22.601  23.953  1.00  0.00     0.005 A 
ATOM      8  C   UNL A   1      33.857  20.491  24.741  1.00  0.00     0.005 A 
ATOM      9  C   UNL A   1      36.001  22.082  24.071  1.00  0.00     0.016 A 
ATOM     10  C   UNL A   1      35.141  19.984  24.879  1.00  0.00     0.016 A 
BRANCH   6  11
ATOM     11  C   UNL A   1      32.372  22.605  24.691  1.00  0.00     0.064 C 
ATOM     12  N   UNL A   1      32.923  26.160  24.862  1.00  0.00    -0.180 N 
ATOM     13  N   UNL A   1      33.408  26.011  23.601  1.00  0.00    -0.168 NA
ATOM     14  C   UNL A   1      32.859  24.932  25.489  1.00  0.00     0.143 A 
ATOM     15  C   UNL A   1      33.131  24.739  23.299  1.00  0.00     0.066 A 
ATOM     16  C   UNL A   1      32.691  24.035  24.457  1.00  0.00     0.026 A 
ATOM     17  N   UNL A   1      32.924  24.498  26.801  1.00  0.00    -0.310 N 
ATOM     18  C   UNL A   1      33.456  24.243  21.937  1.00  0.00     0.069 C 
ATOM     19  C   UNL A   1      32.631  23.118  27.107  1.00  0.00     0.226 C 
ATOM     20  H   UNL A   1      33.167  25.126  27.520  1.00  0.00     0.171 HD
ATOM     21  C   UNL A   1      31.812  22.365  26.084  1.00  0.00     0.113 C 
ATOM     22  O   UNL A   1      32.935  22.720  28.203  1.00  0.00    -0.275 OA
BRANCH  12  23
ATOM     23  C   UNL A   1      32.177  27.312  25.212  1.00  0.00     0.272 A 
ATOM     24  C   UNL A   1      31.163  29.270  24.667  1.00  0.00     0.095 A 
ATOM     25  C   UNL A   1      31.335  29.707  25.969  1.00  0.00     0.164 A 
ATOM     26  N   UNL A   1      31.633  28.072  24.240  1.00  0.00    -0.208 NA
ATOM     27  N   UNL A   1      31.887  28.915  26.895  1.00  0.00    -0.153 NA
ATOM     28  N   UNL A   1      32.271  27.683  26.516  1.00  0.00    -0.109 NA
BRANCH  24  29
ATOM     29  C   UNL A   1      30.347  30.020  23.714  1.00  0.00     0.002 A 
ATOM     30  C   UNL A   1      27.782  32.016  20.870  1.00  0.00     0.044 C 
ATOM     31  C   UNL A   1      28.668  31.316  21.854  1.00  0.00    -0.051 A 
ATOM     32  C   UNL A   1      28.721  31.749  23.182  1.00  0.00     0.004 A 
ATOM     33  C   UNL A   1      29.458  30.236  21.455  1.00  0.00     0.004 A 
ATOM     34  C   UNL A   1      29.552  31.108  24.105  1.00  0.00     0.011 A 
ATOM     35  C   UNL A   1      30.290  29.600  22.375  1.00  0.00     0.011 A 
ENDBRANCH  24  29
ENDBRANCH  12  23
ENDBRANCH   6  11
ENDBRANCH   3   5
ENDBRANCH   2   3
ENDBRANCH   1   2
BRANCH   1  36
ATOM     36  C   UNL A   1      40.004  22.349  27.102  1.00  0.00     0.275 C 
BRANCH  36  37
ATOM     37  O   UNL A   1      40.149  23.682  26.566  1.00  0.00    -0.458 OA
BRANCH  37  38
ATOM     38  C   UNL A   1      39.101  24.522  26.771  1.00  0.00     0.338 C 
ATOM     39  O   UNL A   1      37.951  24.262  26.475  1.00  0.00    -0.246 OA
BRANCH  38  40
ATOM     40  C   UNL A   1      39.578  25.627  27.643  1.00  0.00     0.060 A 
ATOM     41  C   UNL A   1      40.261  26.699  27.065  1.00  0.00     0.016 A 
ATOM     42  C   UNL A   1      39.056  25.730  28.937  1.00  0.00     0.016 A 
ATOM     43  C   UNL A   1      40.318  27.915  27.733  1.00  0.00     0.010 A 
ATOM     44  C   UNL A   1      38.979  26.966  29.524  1.00  0.00     0.010 A 
ATOM     45  C   UNL A   1      39.615  28.056  28.917  1.00  0.00    -0.014 A 
BRANCH  45  46
ATOM     46  C   UNL A   1      39.812  29.176  29.811  1.00  0.00     0.031 A 
ATOM     47  C   UNL A   1      39.093  30.449  29.657  1.00  0.00     0.074 A 
ATOM     48  C   UNL A   1      40.414  28.699  30.921  1.00  0.00     0.049 A 
ATOM     49  N   UNL A   1      39.135  31.381  30.538  1.00  0.00    -0.248 NA
ATOM     50  C   UNL A   1      38.288  30.833  28.503  1.00  0.00     0.031 C 
ATOM     51  C   UNL A   1      40.373  29.109  32.307  1.00  0.00     0.029 A 
ATOM     52  N   UNL A   1      41.386  27.684  30.899  1.00  0.00    -0.354 N 
ATOM     53  C   UNL A   1      38.139  32.295  30.253  1.00  0.00     0.074 A 
ATOM     54  C   UNL A   1      37.710  31.970  28.919  1.00  0.00     0.031 C 
ATOM     55  C   UNL A   1      41.464  28.608  32.921  1.00  0.00     0.029 A 
ATOM     56  C   UNL A   1      42.313  28.026  31.882  1.00  0.00     0.049 A 
ATOM     57  H   UNL A   1      41.407  26.894  30.310  1.00  0.00     0.167 HD
ATOM     58  C   UNL A   1      37.737  33.107  31.273  1.00  0.00     0.037 A 
ATOM     59  C   UNL A   1      43.496  28.558  31.434  1.00  0.00     0.037 A 
ATOM     60  C   UNL A   1      38.658  32.929  32.395  1.00  0.00     0.049 A 
ATOM     61  C   UNL A   1      43.614  30.032  31.787  1.00  0.00     0.074 A 
ATOM     62  C   UNL A   1      38.662  32.118  33.517  1.00  0.00     0.029 A 
ATOM     63  N   UNL A   1      39.960  33.339  32.213  1.00  0.00    -0.354 N 
ATOM     64  N   UNL A   1      42.601  30.818  32.043  1.00  0.00    -0.248 NA
ATOM     65  C   UNL A   1      44.892  30.725  31.904  1.00  0.00     0.031 C 
ATOM     66  C   UNL A   1      40.016  32.005  33.963  1.00  0.00     0.029 A 
ATOM     67  C   UNL A   1      40.818  32.736  33.104  1.00  0.00     0.049 A 
ATOM     68  H   UNL A   1      40.243  33.985  31.527  1.00  0.00     0.167 HD
ATOM     69  C   UNL A   1      43.054  32.036  32.467  1.00  0.00     0.074 A 
ATOM     70  C   UNL A   1      44.495  31.953  32.285  1.00  0.00     0.031 C 
ATOM     71  C   UNL A   1      42.239  33.012  32.970  1.00  0.00     0.037 A 
BRANCH  58  72
ATOM     72  C   UNL A   1      36.453  33.900  31.393  1.00  0.00     0.058 A 
ATOM     73  C   UNL A   1      36.260  34.715  32.536  1.00  0.00     0.135 A 
ATOM     74  C   UNL A   1      35.366  33.888  30.496  1.00  0.00     0.135 A 
ATOM     75  F   UNL A   1      37.215  34.863  33.465  1.00  0.00    -0.206 F 
ATOM     76  C   UNL A   1      35.080  35.405  32.800  1.00  0.00     0.059 A 
ATOM     77  C   UNL A   1      34.162  34.566  30.746  1.00  0.00     0.059 A 
ATOM     78  F   UNL A   1      35.429  33.240  29.327  1.00  0.00    -0.206 F 
ATOM     79  C   UNL A   1      34.025  35.313  31.910  1.00  0.00     0.060 A 
BRANCH  79  80
ATOM     80  S   UNL A   1      32.503  36.192  32.308  1.00  0.00     0.124 S 
ATOM     81  O   UNL A   1      31.633  35.104  32.745  1.00  0.00    -0.237 OA
ATOM     82  O   UNL A   1      32.943  37.110  33.354  1.00  0.00    -0.237 OA
ATOM     83  O   UNL A   1      32.129  36.818  31.043  1.00  0.00    -0.744 OA
ENDBRANCH  79  80
ENDBRANCH  58  72
BRANCH  59  84
ATOM     84  C   UNL A   1      44.003  27.905  30.170  1.00  0.00     0.058 A 
ATOM     85  C   UNL A   1      44.534  26.593  30.247  1.00  0.00     0.135 A 
ATOM     86  C   UNL A   1      43.694  28.372  28.884  1.00  0.00     0.135 A 
ATOM     87  F   UNL A   1      44.866  26.074  31.442  1.00  0.00    -0.206 F 
ATOM     88  C   UNL A   1      44.629  25.750  29.138  1.00  0.00     0.059 A 
ATOM     89  C   UNL A   1      43.808  27.551  27.751  1.00  0.00     0.059 A 
ATOM     90  F   UNL A   1      43.176  29.596  28.711  1.00  0.00    -0.206 F 
ATOM     91  C   UNL A   1      44.235  26.229  27.893  1.00  0.00     0.060 A 
BRANCH  91  92
ATOM     92  S   UNL A   1      44.092  25.058  26.515  1.00  0.00     0.124 S 
ATOM     93  O   UNL A   1      43.108  24.110  27.021  1.00  0.00    -0.237 OA
ATOM     94  O   UNL A   1      43.643  25.920  25.426  1.00  0.00    -0.237 OA
ATOM     95  O   UNL A   1      45.456  24.549  26.381  1.00  0.00    -0.744 OA
ENDBRANCH  91  92
ENDBRANCH  59  84
BRANCH  71  96
ATOM     96  C   UNL A   1      42.729  34.367  33.387  1.00  0.00     0.058 A 
ATOM     97  C   UNL A   1      42.819  34.756  34.730  1.00  0.00     0.135 A 
ATOM     98  C   UNL A   1      43.034  35.361  32.427  1.00  0.00     0.135 A 
ATOM     99  F   UNL A   1      42.458  33.917  35.715  1.00  0.00    -0.206 F 
ATOM    100  C   UNL A   1      43.280  36.018  35.097  1.00  0.00     0.059 A 
ATOM    101  C   UNL A   1      43.416  36.647  32.768  1.00  0.00     0.059 A 
ATOM    102  F   UNL A   1      43.024  35.106  31.111  1.00  0.00    -0.206 F 
ATOM    103  C   UNL A   1      43.584  36.952  34.108  1.00  0.00     0.060 A 
BRANCH 103 104
ATOM    104  S   UNL A   1      44.229  38.563  34.572  1.00  0.00     0.124 S 
ATOM    105  O   UNL A   1      43.359  39.473  33.835  1.00  0.00    -0.237 OA
ATOM    106  O   UNL A   1      44.038  38.537  36.019  1.00  0.00    -0.237 OA
ATOM    107  O   UNL A   1      45.615  38.519  34.120  1.00  0.00    -0.744 OA
ENDBRANCH 103 104
ENDBRANCH  71  96
ENDBRANCH  45  46
ENDBRANCH  38  40
ENDBRANCH  37  38
ENDBRANCH  36  37
ENDBRANCH   1  36
TORSDOF 17
ENDMDL
MODEL 3
REMARK VINA RESULT:     -12.6      4.211      8.160
REMARK SMILES Cc1ccc(-c2cnnc(-n3nc(C)c4c3NC(=O)C[C@@H]4c3ccc(C(=O)OCCOC(=O)c4ccc(-c5c6nc(c(-c7c(F)cc(S(=O)(=O)[O-])cc7F)c7ccc([nH]7)c(-c7c(F)cc(S(=O)(=O)[O-])cc7F)c7nc(c(-c8c(F)cc(S(=O)(=O)[O-])cc8F)c8ccc5[nH]8)C=C7)C=C6)cc4)cc3)n2)cc1
REMARK SMILES IDX 29 1 28 2 26 3 27 4 25 5 22 6 23 7 101 8 24 9 100 10 21 11
REMARK SMILES IDX 11 12 12 13 16 14 13 15 15 16 17 17 14 18 18 19 20 21 19 22
REMARK SMILES IDX 10 23 6 24 7 25 102 26 8 27 9 28 5 29 1 30 2 31 3 32 104 33
REMARK SMILES IDX 4 34 103 35 30 36 31 37 32 38 33 39 34 40 35 41 99 42 36 43
REMARK SMILES IDX 98 44 37 45 38 46 39 47 92 48 40 49 97 50 91 51 93 52 41 53
REMARK SMILES IDX 96 54 90 55 89 56 42 58 76 59 55 60 75 61 56 62 59 63 74 64
REMARK SMILES IDX 94 65 57 66 58 67 73 69 95 70 60 71 43 72 44 73 53 74 45 75
REMARK SMILES IDX 46 76 52 77 54 78 47 79 48 80 49 81 50 82 51 83 77 84 78 85
REMARK SMILES IDX 87 86 79 87 80 88 86 89 88 90 81 91 82 92 83 93 84 94 85 95
REMARK SMILES IDX 61 96 62 97 71 98 63 99 64 100 70 101 72 102 65 103 66 104
REMARK SMILES IDX 67 105 68 106 69 107
REMARK H PARENT 17 20 93 57 59 68
REMARK Flexibility Score: inf
ROOT
ATOM      1  C   UNL A   1      46.720  24.696  25.258  1.00  0.00     0.275 C 
ENDROOT
BRANCH   1   2
ATOM      2  O   UNL A   1      46.864  23.729  26.311  1.00  0.00    -0.458 OA
BRANCH   2   3
ATOM      3  C   UNL A   1      45.862  22.823  26.336  1.00  0.00     0.338 C 
ATOM      4  O   UNL A   1      45.865  21.731  25.793  1.00  0.00    -0.246 OA
BRANCH   3   5
ATOM      5  C   UNL A   1      44.639  23.365  26.937  1.00  0.00     0.060 A 
ATOM      6  C   UNL A   1      41.998  23.428  27.783  1.00  0.00    -0.040 A 
ATOM      7  C   UNL A   1      43.004  23.181  28.711  1.00  0.00     0.005 A 
ATOM      8  C   UNL A   1      42.353  23.877  26.493  1.00  0.00     0.005 A 
ATOM      9  C   UNL A   1      44.315  23.132  28.275  1.00  0.00     0.016 A 
ATOM     10  C   UNL A   1      43.667  23.803  26.055  1.00  0.00     0.016 A 
BRANCH   6  11
ATOM     11  C   UNL A   1      40.599  23.025  28.188  1.00  0.00     0.064 C 
ATOM     12  N   UNL A   1      38.813  21.464  25.479  1.00  0.00    -0.180 N 
ATOM     13  N   UNL A   1      39.843  20.578  25.486  1.00  0.00    -0.168 NA
ATOM     14  C   UNL A   1      39.166  22.603  26.173  1.00  0.00     0.143 A 
ATOM     15  C   UNL A   1      40.552  20.919  26.566  1.00  0.00     0.066 A 
ATOM     16  C   UNL A   1      40.095  22.163  27.091  1.00  0.00     0.026 A 
ATOM     17  N   UNL A   1      38.801  23.936  26.119  1.00  0.00    -0.310 N 
ATOM     18  C   UNL A   1      41.731  20.094  26.935  1.00  0.00     0.069 C 
ATOM     19  C   UNL A   1      39.257  24.839  27.149  1.00  0.00     0.226 C 
ATOM     20  H   UNL A   1      38.234  24.265  25.384  1.00  0.00     0.171 HD
ATOM     21  C   UNL A   1      39.678  24.206  28.455  1.00  0.00     0.113 C 
ATOM     22  O   UNL A   1      39.133  26.019  26.942  1.00  0.00    -0.275 OA
BRANCH  12  23
ATOM     23  C   UNL A   1      37.491  21.024  25.221  1.00  0.00     0.272 A 
ATOM     24  C   UNL A   1      35.249  21.140  25.569  1.00  0.00     0.095 A 
ATOM     25  C   UNL A   1      35.135  19.812  25.195  1.00  0.00     0.164 A 
ATOM     26  N   UNL A   1      36.449  21.767  25.643  1.00  0.00    -0.208 NA
ATOM     27  N   UNL A   1      36.204  19.115  24.790  1.00  0.00    -0.153 NA
ATOM     28  N   UNL A   1      37.389  19.749  24.761  1.00  0.00    -0.109 NA
BRANCH  24  29
ATOM     29  C   UNL A   1      34.069  21.976  25.775  1.00  0.00     0.002 A 
ATOM     30  C   UNL A   1      30.652  24.590  26.166  1.00  0.00     0.044 C 
ATOM     31  C   UNL A   1      31.841  23.689  26.025  1.00  0.00    -0.051 A 
ATOM     32  C   UNL A   1      31.664  22.333  25.732  1.00  0.00     0.004 A 
ATOM     33  C   UNL A   1      33.134  24.188  26.196  1.00  0.00     0.004 A 
ATOM     34  C   UNL A   1      32.766  21.484  25.608  1.00  0.00     0.011 A 
ATOM     35  C   UNL A   1      34.233  23.338  26.076  1.00  0.00     0.011 A 
ENDBRANCH  24  29
ENDBRANCH  12  23
ENDBRANCH   6  11
ENDBRANCH   3   5
ENDBRANCH   2   3
ENDBRANCH   1   2
BRANCH   1  36
ATOM     36  C   UNL A   1      46.748  26.131  25.812  1.00  0.00     0.275 C 
BRANCH  36  37
ATOM     37  O   UNL A   1      45.500  26.698  26.262  1.00  0.00    -0.458 OA
BRANCH  37  38
ATOM     38  C   UNL A   1      45.385  26.897  27.601  1.00  0.00     0.338 C 
ATOM     39  O   UNL A   1      46.323  26.892  28.374  1.00  0.00    -0.246 OA
BRANCH  38  40
ATOM     40  C   UNL A   1      44.006  27.386  27.864  1.00  0.00     0.060 A 
ATOM     41  C   UNL A   1      43.113  26.557  28.545  1.00  0.00     0.016 A 
ATOM     42  C   UNL A   1      43.743  28.753  27.725  1.00  0.00     0.016 A 
ATOM     43  C   UNL A   1      42.016  27.114  29.190  1.00  0.00     0.010 A 
ATOM     44  C   UNL A   1      42.754  29.319  28.486  1.00  0.00     0.010 A 
ATOM     45  C   UNL A   1      41.891  28.492  29.216  1.00  0.00    -0.014 A 
BRANCH  45  46
ATOM     46  C   UNL A   1      40.674  29.156  29.628  1.00  0.00     0.031 A 
ATOM     47  C   UNL A   1      39.609  29.519  28.681  1.00  0.00     0.074 A 
ATOM     48  C   UNL A   1      40.571  29.005  30.965  1.00  0.00     0.049 A 
ATOM     49  N   UNL A   1      38.462  29.950  29.058  1.00  0.00    -0.248 NA
ATOM     50  C   UNL A   1      39.718  29.473  27.226  1.00  0.00     0.031 C 
ATOM     51  C   UNL A   1      39.433  28.914  31.852  1.00  0.00     0.029 A 
ATOM     52  N   UNL A   1      41.674  29.037  31.835  1.00  0.00    -0.354 N 
ATOM     53  C   UNL A   1      37.603  29.910  27.977  1.00  0.00     0.074 A 
ATOM     54  C   UNL A   1      38.456  29.710  26.835  1.00  0.00     0.031 C 
ATOM     55  C   UNL A   1      39.852  29.216  33.098  1.00  0.00     0.029 A 
ATOM     56  C   UNL A   1      41.231  29.688  32.986  1.00  0.00     0.049 A 
ATOM     57  H   UNL A   1      42.574  28.673  31.667  1.00  0.00     0.167 HD
ATOM     58  C   UNL A   1      36.267  29.914  28.250  1.00  0.00     0.037 A 
ATOM     59  C   UNL A   1      41.640  30.989  33.134  1.00  0.00     0.037 A 
ATOM     60  C   UNL A   1      36.087  30.185  29.676  1.00  0.00     0.049 A 
ATOM     61  C   UNL A   1      40.480  31.960  32.974  1.00  0.00     0.074 A 
ATOM     62  C   UNL A   1      35.953  29.385  30.797  1.00  0.00     0.029 A 
ATOM     63  N   UNL A   1      36.466  31.427  30.133  1.00  0.00    -0.354 N 
ATOM     64  N   UNL A   1      39.371  31.694  32.335  1.00  0.00    -0.248 NA
ATOM     65  C   UNL A   1      40.475  33.300  33.549  1.00  0.00     0.031 C 
ATOM     66  C   UNL A   1      36.322  30.170  31.934  1.00  0.00     0.029 A 
ATOM     67  C   UNL A   1      36.688  31.430  31.491  1.00  0.00     0.049 A 
ATOM     68  H   UNL A   1      36.567  32.220  29.557  1.00  0.00     0.167 HD
ATOM     69  C   UNL A   1      38.481  32.717  32.502  1.00  0.00     0.074 A 
ATOM     70  C   UNL A   1      39.250  33.734  33.203  1.00  0.00     0.031 C 
ATOM     71  C   UNL A   1      37.177  32.658  32.097  1.00  0.00     0.037 A 
BRANCH  58  72
ATOM     72  C   UNL A   1      35.123  29.491  27.352  1.00  0.00     0.058 A 
ATOM     73  C   UNL A   1      35.143  28.190  26.791  1.00  0.00     0.135 A 
ATOM     74  C   UNL A   1      34.025  30.281  26.956  1.00  0.00     0.135 A 
ATOM     75  F   UNL A   1      36.100  27.305  27.098  1.00  0.00    -0.206 F 
ATOM     76  C   UNL A   1      34.201  27.733  25.873  1.00  0.00     0.059 A 
ATOM     77  C   UNL A   1      33.068  29.845  26.023  1.00  0.00     0.059 A 
ATOM     78  F   UNL A   1      33.815  31.497  27.469  1.00  0.00    -0.206 F 
ATOM     79  C   UNL A   1      33.174  28.571  25.478  1.00  0.00     0.060 A 
BRANCH  79  80
ATOM     80  S   UNL A   1      31.997  27.952  24.261  1.00  0.00     0.124 S 
ATOM     81  O   UNL A   1      32.597  26.674  23.886  1.00  0.00    -0.237 OA
ATOM     82  O   UNL A   1      30.766  27.870  25.039  1.00  0.00    -0.237 OA
ATOM     83  O   UNL A   1      32.013  28.975  23.219  1.00  0.00    -0.744 OA
ENDBRANCH  79  80
ENDBRANCH  58  72
BRANCH  59  84
ATOM     84  C   UNL A   1      43.062  31.224  32.682  1.00  0.00     0.058 A 
ATOM     85  C   UNL A   1      44.122  30.788  33.517  1.00  0.00     0.135 A 
ATOM     86  C   UNL A   1      43.408  31.549  31.363  1.00  0.00     0.135 A 
ATOM     87  F   UNL A   1      43.876  30.466  34.799  1.00  0.00    -0.206 F 
ATOM     88  C   UNL A   1      45.414  30.561  33.039  1.00  0.00     0.059 A 
ATOM     89  C   UNL A   1      44.708  31.356  30.869  1.00  0.00     0.059 A 
ATOM     90  F   UNL A   1      42.472  31.961  30.496  1.00  0.00    -0.206 F 
ATOM     91  C   UNL A   1      45.693  30.821  31.702  1.00  0.00     0.060 A 
BRANCH  91  92
ATOM     92  S   UNL A   1      47.279  30.266  31.018  1.00  0.00     0.124 S 
ATOM     93  O   UNL A   1      48.227  30.761  32.007  1.00  0.00    -0.237 OA
ATOM     94  O   UNL A   1      47.103  28.818  30.975  1.00  0.00    -0.237 OA
ATOM     95  O   UNL A   1      47.316  30.925  29.714  1.00  0.00    -0.744 OA
ENDBRANCH  91  92
ENDBRANCH  59  84
BRANCH  71  96
ATOM     96  C   UNL A   1      36.213  33.799  32.234  1.00  0.00     0.058 A 
ATOM     97  C   UNL A   1      35.759  34.540  31.136  1.00  0.00     0.135 A 
ATOM     98  C   UNL A   1      35.789  34.246  33.508  1.00  0.00     0.135 A 
ATOM     99  F   UNL A   1      36.181  34.256  29.893  1.00  0.00    -0.206 F 
ATOM    100  C   UNL A   1      34.861  35.594  31.285  1.00  0.00     0.059 A 
ATOM    101  C   UNL A   1      34.961  35.342  33.685  1.00  0.00     0.059 A 
ATOM    102  F   UNL A   1      36.121  33.602  34.635  1.00  0.00    -0.206 F 
ATOM    103  C   UNL A   1      34.462  35.980  32.564  1.00  0.00     0.060 A 
BRANCH 103 104
ATOM    104  S   UNL A   1      33.264  37.304  32.761  1.00  0.00     0.124 S 
ATOM    105  O   UNL A   1      34.095  38.412  33.220  1.00  0.00    -0.237 OA
ATOM    106  O   UNL A   1      32.746  37.421  31.401  1.00  0.00    -0.237 OA
ATOM    107  O   UNL A   1      32.329  36.774  33.746  1.00  0.00    -0.744 OA
ENDBRANCH 103 104
ENDBRANCH  71  96
ENDBRANCH  45  46
ENDBRANCH  38  40
ENDBRANCH  37  38
ENDBRANCH  36  37
ENDBRANCH   1  36
TORSDOF 17
ENDMDL
