MODEL 1
REMARK VINA RESULT:     -12.6      0.000      0.000
REMARK SMILES Cc1oc(C)c(S(=O)(=O)Nn2c(C)ccc2C)c1C(=O)OCCOC(=O)c1ccc(-c2c3nc(c(-c4c(F)cc(S(=O)(=O)[O-])cc4F)c4ccc([nH]4)c(-c4c(F)cc(S(=O)(=O)[O-])cc4F)c4nc(c(-c5c(F)cc(S(=O)(=O)[O-])cc5F)c5ccc2[nH]5)C=C4)C=C3)cc1
REMARK SMILES IDX 22 1 21 2 19 3 20 4 18 5 1 6 2 7 3 8 4 9 6 10 5 11 7 12 8 13
REMARK SMILES IDX 9 14 10 15 11 17 12 18 16 19 13 20 14 21 15 22 17 23 23 24
REMARK SMILES IDX 24 25 25 26 26 27 27 28 28 29 92 30 29 31 91 32 30 33 31 34
REMARK SMILES IDX 32 35 85 36 33 37 90 38 84 39 86 40 34 41 89 42 83 43 82 44
REMARK SMILES IDX 35 46 69 47 48 48 68 49 49 50 52 51 67 52 87 53 50 54 51 55
REMARK SMILES IDX 66 57 88 58 53 59 36 60 37 61 46 62 38 63 39 64 45 65 47 66
REMARK SMILES IDX 40 67 41 68 42 69 43 70 44 71 70 72 71 73 80 74 72 75 73 76
REMARK SMILES IDX 79 77 81 78 74 79 75 80 76 81 77 82 78 83 54 84 55 85 64 86
REMARK SMILES IDX 56 87 57 88 63 89 65 90 58 91 59 92 60 93 61 94 62 95
REMARK H PARENT 10 16 86 45 52 56
REMARK Flexibility Score: inf
ROOT
ATOM      1  C   UNL A   1      31.655  30.146  25.568  1.00  0.00     0.275 C 
ENDROOT
BRANCH   1   2
ATOM      2  O   UNL A   1      31.369  28.645  25.631  1.00  0.00    -0.458 OA
BRANCH   2   3
ATOM      3  C   UNL A   1      32.345  27.694  26.022  1.00  0.00     0.343 C 
ATOM      4  O   UNL A   1      32.894  27.712  27.119  1.00  0.00    -0.246 OA
BRANCH   3   5
ATOM      5  C   UNL A   1      32.721  26.674  24.984  1.00  0.00     0.122 A 
ATOM      6  C   UNL A   1      34.062  28.226  23.268  1.00  0.00     0.088 C 
ATOM      7  C   UNL A   1      33.410  27.015  23.813  1.00  0.00     0.117 A 
ATOM      8  O   UNL A   1      33.541  25.952  22.980  1.00  0.00    -0.464 OA
ATOM      9  C   UNL A   1      33.044  24.866  23.603  1.00  0.00     0.122 A 
ATOM     10  C   UNL A   1      32.672  25.193  24.903  1.00  0.00     0.145 A 
ATOM     11  C   UNL A   1      33.034  23.624  22.782  1.00  0.00     0.089 C 
BRANCH  10  12
ATOM     12  S   UNL A   1      32.289  23.873  25.967  1.00  0.00     0.279 S 
ATOM     13  O   UNL A   1      31.653  24.495  27.136  1.00  0.00    -0.200 OA
ATOM     14  O   UNL A   1      31.521  22.992  25.151  1.00  0.00    -0.200 OA
BRANCH  12  15
ATOM     15  N   UNL A   1      33.495  22.981  26.646  1.00  0.00    -0.216 N 
ATOM     16  H   UNL A   1      33.661  23.020  27.615  1.00  0.00     0.202 HD
BRANCH  15  17
ATOM     17  N   UNL A   1      34.260  22.190  25.844  1.00  0.00    -0.256 N 
ATOM     18  C   UNL A   1      34.033  20.911  25.429  1.00  0.00     0.038 A 
ATOM     19  C   UNL A   1      35.491  22.654  25.444  1.00  0.00     0.038 A 
ATOM     20  C   UNL A   1      32.937  19.904  25.563  1.00  0.00     0.067 C 
ATOM     21  C   UNL A   1      35.212  20.560  24.850  1.00  0.00     0.025 A 
ATOM     22  C   UNL A   1      36.152  21.594  24.891  1.00  0.00     0.025 A 
ATOM     23  C   UNL A   1      36.018  24.019  25.682  1.00  0.00     0.067 C 
ENDBRANCH  15  17
ENDBRANCH  12  15
ENDBRANCH  10  12
ENDBRANCH   3   5
ENDBRANCH   2   3
ENDBRANCH   1   2
BRANCH   1  24
ATOM     24  C   UNL A   1      31.952  31.071  27.017  1.00  0.00     0.275 C 
BRANCH  24  25
ATOM     25  O   UNL A   1      32.865  32.421  27.191  1.00  0.00    -0.458 OA
BRANCH  25  26
ATOM     26  C   UNL A   1      33.975  32.520  28.105  1.00  0.00     0.338 C 
ATOM     27  O   UNL A   1      33.821  33.227  29.102  1.00  0.00    -0.246 OA
BRANCH  26  28
ATOM     28  C   UNL A   1      35.400  31.648  28.034  1.00  0.00     0.060 A 
ATOM     29  C   UNL A   1      35.373  30.268  27.806  1.00  0.00     0.016 A 
ATOM     30  C   UNL A   1      36.702  31.975  28.519  1.00  0.00     0.016 A 
ATOM     31  C   UNL A   1      36.554  29.339  27.987  1.00  0.00     0.010 A 
ATOM     32  C   UNL A   1      37.917  30.988  28.742  1.00  0.00     0.010 A 
ATOM     33  C   UNL A   1      37.907  29.597  28.494  1.00  0.00    -0.014 A 
BRANCH  33  34
ATOM     34  C   UNL A   1      39.075  28.269  28.741  1.00  0.00     0.031 A 
ATOM     35  C   UNL A   1      39.362  28.402  30.193  1.00  0.00     0.074 A 
ATOM     36  C   UNL A   1      39.951  27.222  28.218  1.00  0.00     0.049 A 
ATOM     37  N   UNL A   1      39.922  29.498  30.605  1.00  0.00    -0.248 NA
ATOM     38  C   UNL A   1      38.773  27.590  31.255  1.00  0.00     0.031 C 
ATOM     39  C   UNL A   1      40.210  26.818  26.811  1.00  0.00     0.029 A 
ATOM     40  N   UNL A   1      40.922  26.248  28.844  1.00  0.00    -0.354 N 
ATOM     41  C   UNL A   1      39.972  29.452  31.967  1.00  0.00     0.074 A 
ATOM     42  C   UNL A   1      39.144  28.306  32.328  1.00  0.00     0.031 C 
ATOM     43  C   UNL A   1      41.035  25.721  26.675  1.00  0.00     0.029 A 
ATOM     44  C   UNL A   1      41.570  25.221  27.956  1.00  0.00     0.049 A 
ATOM     45  H   UNL A   1      41.125  26.283  29.806  1.00  0.00     0.167 HD
ATOM     46  C   UNL A   1      41.122  29.938  32.506  1.00  0.00     0.037 A 
ATOM     47  C   UNL A   1      42.537  24.172  28.164  1.00  0.00     0.037 A 
ATOM     48  C   UNL A   1      42.038  28.870  32.794  1.00  0.00     0.049 A 
ATOM     49  C   UNL A   1      43.400  24.636  29.261  1.00  0.00     0.074 A 
ATOM     50  C   UNL A   1      41.860  27.610  33.330  1.00  0.00     0.029 A 
ATOM     51  N   UNL A   1      43.202  28.835  32.053  1.00  0.00    -0.354 N 
ATOM     52  N   UNL A   1      44.293  25.559  29.077  1.00  0.00    -0.248 NA
ATOM     53  C   UNL A   1      43.454  23.971  30.562  1.00  0.00     0.031 C 
ATOM     54  C   UNL A   1      42.576  26.766  32.459  1.00  0.00     0.029 A 
ATOM     55  C   UNL A   1      43.455  27.533  31.701  1.00  0.00     0.049 A 
ATOM     56  H   UNL A   1      43.759  29.613  31.816  1.00  0.00     0.167 HD
ATOM     57  C   UNL A   1      44.582  25.957  30.342  1.00  0.00     0.074 A 
ATOM     58  C   UNL A   1      44.289  24.808  31.184  1.00  0.00     0.031 C 
ATOM     59  C   UNL A   1      44.337  27.266  30.594  1.00  0.00     0.037 A 
BRANCH  46  60
ATOM     60  C   UNL A   1      41.559  31.255  31.905  1.00  0.00     0.058 A 
ATOM     61  C   UNL A   1      40.592  32.228  31.641  1.00  0.00     0.135 A 
ATOM     62  C   UNL A   1      42.889  31.540  31.509  1.00  0.00     0.135 A 
ATOM     63  F   UNL A   1      39.320  32.038  32.030  1.00  0.00    -0.206 F 
ATOM     64  C   UNL A   1      40.917  33.409  30.979  1.00  0.00     0.059 A 
ATOM     65  C   UNL A   1      43.222  32.678  30.788  1.00  0.00     0.059 A 
ATOM     66  F   UNL A   1      43.896  30.718  31.846  1.00  0.00    -0.206 F 
ATOM     67  C   UNL A   1      42.228  33.614  30.537  1.00  0.00     0.060 A 
BRANCH  67  68
ATOM     68  S   UNL A   1      42.606  35.130  29.636  1.00  0.00     0.124 S 
ATOM     69  O   UNL A   1      43.063  36.018  30.703  1.00  0.00    -0.237 OA
ATOM     70  O   UNL A   1      43.646  34.669  28.722  1.00  0.00    -0.237 OA
ATOM     71  O   UNL A   1      41.332  35.502  29.032  1.00  0.00    -0.744 OA
ENDBRANCH  67  68
ENDBRANCH  46  60
BRANCH  47  72
ATOM     72  C   UNL A   1      43.320  22.808  27.611  1.00  0.00     0.058 A 
ATOM     73  C   UNL A   1      42.674  21.499  27.544  1.00  0.00     0.135 A 
ATOM     74  C   UNL A   1      44.436  22.844  26.750  1.00  0.00     0.135 A 
ATOM     75  F   UNL A   1      41.607  21.215  28.303  1.00  0.00    -0.206 F 
ATOM     76  C   UNL A   1      43.021  20.428  26.662  1.00  0.00     0.059 A 
ATOM     77  C   UNL A   1      44.823  21.760  25.872  1.00  0.00     0.059 A 
ATOM     78  F   UNL A   1      45.159  23.968  26.657  1.00  0.00    -0.206 F 
ATOM     79  C   UNL A   1      44.087  20.573  25.798  1.00  0.00     0.060 A 
BRANCH  79  80
ATOM     80  S   UNL A   1      44.403  19.285  24.520  1.00  0.00     0.124 S 
ATOM     81  O   UNL A   1      45.594  18.606  25.021  1.00  0.00    -0.237 OA
ATOM     82  O   UNL A   1      43.174  18.494  24.551  1.00  0.00    -0.237 OA
ATOM     83  O   UNL A   1      44.599  20.059  23.297  1.00  0.00    -0.744 OA
ENDBRANCH  79  80
ENDBRANCH  47  72
BRANCH  59  84
ATOM     84  C   UNL A   1      44.787  28.265  29.537  1.00  0.00     0.058 A 
ATOM     85  C   UNL A   1      43.948  29.017  28.681  1.00  0.00     0.135 A 
ATOM     86  C   UNL A   1      46.165  28.403  29.311  1.00  0.00     0.135 A 
ATOM     87  F   UNL A   1      42.619  29.060  28.850  1.00  0.00    -0.206 F 
ATOM     88  C   UNL A   1      44.441  29.770  27.613  1.00  0.00     0.059 A 
ATOM     89  C   UNL A   1      46.684  29.192  28.281  1.00  0.00     0.059 A 
ATOM     90  F   UNL A   1      47.034  27.757  30.106  1.00  0.00    -0.206 F 
ATOM     91  C   UNL A   1      45.813  29.840  27.411  1.00  0.00     0.060 A 
BRANCH  91  92
ATOM     92  S   UNL A   1      46.434  30.799  26.010  1.00  0.00     0.124 S 
ATOM     93  O   UNL A   1      45.365  31.775  25.815  1.00  0.00    -0.237 OA
ATOM     94  O   UNL A   1      47.688  31.343  26.522  1.00  0.00    -0.237 OA
ATOM     95  O   UNL A   1      46.562  29.805  24.950  1.00  0.00    -0.744 OA
ENDBRANCH  91  92
ENDBRANCH  59  84
ENDBRANCH  33  34
ENDBRANCH  26  28
ENDBRANCH  25  26
ENDBRANCH  24  25
ENDBRANCH   1  24
TORSDOF 17
ENDMDL
MODEL 2
REMARK VINA RESULT:     -12.5      3.844      9.553
REMARK SMILES Cc1oc(C)c(S(=O)(=O)Nn2c(C)ccc2C)c1C(=O)OCCOC(=O)c1ccc(-c2c3nc(c(-c4c(F)cc(S(=O)(=O)[O-])cc4F)c4ccc([nH]4)c(-c4c(F)cc(S(=O)(=O)[O-])cc4F)c4nc(c(-c5c(F)cc(S(=O)(=O)[O-])cc5F)c5ccc2[nH]5)C=C4)C=C3)cc1
REMARK SMILES IDX 22 1 21 2 19 3 20 4 18 5 1 6 2 7 3 8 4 9 6 10 5 11 7 12 8 13
REMARK SMILES IDX 9 14 10 15 11 17 12 18 16 19 13 20 14 21 15 22 17 23 23 24
REMARK SMILES IDX 24 25 25 26 26 27 27 28 28 29 92 30 29 31 91 32 30 33 31 34
REMARK SMILES IDX 32 35 85 36 33 37 90 38 84 39 86 40 34 41 89 42 83 43 82 44
REMARK SMILES IDX 35 46 69 47 48 48 68 49 49 50 52 51 67 52 87 53 50 54 51 55
REMARK SMILES IDX 66 57 88 58 53 59 36 60 37 61 46 62 38 63 39 64 45 65 47 66
REMARK SMILES IDX 40 67 41 68 42 69 43 70 44 71 70 72 71 73 80 74 72 75 73 76
REMARK SMILES IDX 79 77 81 78 74 79 75 80 76 81 77 82 78 83 54 84 55 85 64 86
REMARK SMILES IDX 56 87 57 88 63 89 65 90 58 91 59 92 60 93 61 94 62 95
REMARK H PARENT 10 16 86 45 52 56
REMARK Flexibility Score: inf
ROOT
ATOM      1  C   UNL A   1      39.559  21.903  26.106  1.00  0.00     0.275 C 
ENDROOT
BRANCH   1   2
ATOM      2  O   UNL A   1      38.311  21.841  25.224  1.00  0.00    -0.458 OA
BRANCH   2   3
ATOM      3  C   UNL A   1      37.059  22.370  25.627  1.00  0.00     0.343 C 
ATOM      4  O   UNL A   1      36.946  23.436  26.226  1.00  0.00    -0.246 OA
BRANCH   3   5
ATOM      5  C   UNL A   1      35.858  21.517  25.329  1.00  0.00     0.122 A 
ATOM      6  C   UNL A   1      37.048  19.153  24.949  1.00  0.00     0.088 C 
ATOM      7  C   UNL A   1      35.967  20.161  24.995  1.00  0.00     0.117 A 
ATOM      8  O   UNL A   1      34.764  19.629  24.662  1.00  0.00    -0.464 OA
ATOM      9  C   UNL A   1      33.819  20.569  24.860  1.00  0.00     0.122 A 
ATOM     10  C   UNL A   1      34.390  21.704  25.425  1.00  0.00     0.145 A 
ATOM     11  C   UNL A   1      32.444  20.167  24.454  1.00  0.00     0.089 C 
BRANCH  10  12
ATOM     12  S   UNL A   1      33.298  22.914  26.033  1.00  0.00     0.279 S 
ATOM     13  O   UNL A   1      32.948  22.468  27.388  1.00  0.00    -0.200 OA
ATOM     14  O   UNL A   1      34.020  24.132  25.870  1.00  0.00    -0.200 OA
BRANCH  12  15
ATOM     15  N   UNL A   1      31.823  23.123  25.331  1.00  0.00    -0.216 N 
ATOM     16  H   UNL A   1      31.045  22.606  25.640  1.00  0.00     0.202 HD
BRANCH  15  17
ATOM     17  N   UNL A   1      31.699  24.022  24.316  1.00  0.00    -0.256 N 
ATOM     18  C   UNL A   1      32.204  23.965  23.050  1.00  0.00     0.038 A 
ATOM     19  C   UNL A   1      31.071  25.218  24.570  1.00  0.00     0.038 A 
ATOM     20  C   UNL A   1      32.973  22.979  22.231  1.00  0.00     0.067 C 
ATOM     21  C   UNL A   1      31.961  25.211  22.564  1.00  0.00     0.025 A 
ATOM     22  C   UNL A   1      31.312  26.027  23.495  1.00  0.00     0.025 A 
ATOM     23  C   UNL A   1      30.370  25.576  25.825  1.00  0.00     0.067 C 
ENDBRANCH  15  17
ENDBRANCH  12  15
ENDBRANCH  10  12
ENDBRANCH   3   5
ENDBRANCH   2   3
ENDBRANCH   1   2
BRANCH   1  24
ATOM     24  C   UNL A   1      40.571  20.502  26.340  1.00  0.00     0.275 C 
BRANCH  24  25
ATOM     25  O   UNL A   1      42.172  20.452  26.687  1.00  0.00    -0.458 OA
BRANCH  25  26
ATOM     26  C   UNL A   1      43.088  21.521  26.378  1.00  0.00     0.338 C 
ATOM     27  O   UNL A   1      44.065  21.239  25.684  1.00  0.00    -0.246 OA
BRANCH  26  28
ATOM     28  C   UNL A   1      42.879  23.141  26.734  1.00  0.00     0.060 A 
ATOM     29  C   UNL A   1      42.190  23.526  27.890  1.00  0.00     0.016 A 
ATOM     30  C   UNL A   1      42.968  24.286  25.888  1.00  0.00     0.016 A 
ATOM     31  C   UNL A   1      41.707  24.931  28.178  1.00  0.00     0.010 A 
ATOM     32  C   UNL A   1      42.424  25.741  26.184  1.00  0.00     0.010 A 
ATOM     33  C   UNL A   1      41.747  26.147  27.357  1.00  0.00    -0.014 A 
BRANCH  33  34
ATOM     34  C   UNL A   1      40.963  27.658  27.895  1.00  0.00     0.031 A 
ATOM     35  C   UNL A   1      42.088  28.624  27.780  1.00  0.00     0.074 A 
ATOM     36  C   UNL A   1      39.834  28.374  28.486  1.00  0.00     0.049 A 
ATOM     37  N   UNL A   1      43.131  28.435  28.528  1.00  0.00    -0.248 NA
ATOM     38  C   UNL A   1      42.298  29.558  26.676  1.00  0.00     0.031 C 
ATOM     39  C   UNL A   1      38.538  27.847  28.989  1.00  0.00     0.029 A 
ATOM     40  N   UNL A   1      39.574  29.815  28.856  1.00  0.00    -0.354 N 
ATOM     41  C   UNL A   1      44.073  29.353  28.166  1.00  0.00     0.074 A 
ATOM     42  C   UNL A   1      43.555  29.948  26.938  1.00  0.00     0.031 C 
ATOM     43  C   UNL A   1      37.651  28.819  29.406  1.00  0.00     0.029 A 
ATOM     44  C   UNL A   1      38.204  30.185  29.353  1.00  0.00     0.049 A 
ATOM     45  H   UNL A   1      40.282  30.495  28.773  1.00  0.00     0.167 HD
ATOM     46  C   UNL A   1      44.764  29.891  29.205  1.00  0.00     0.037 A 
ATOM     47  C   UNL A   1      37.593  31.408  29.815  1.00  0.00     0.037 A 
ATOM     48  C   UNL A   1      44.199  31.153  29.592  1.00  0.00     0.049 A 
ATOM     49  C   UNL A   1      38.677  32.189  30.429  1.00  0.00     0.074 A 
ATOM     50  C   UNL A   1      43.709  32.216  28.861  1.00  0.00     0.029 A 
ATOM     51  N   UNL A   1      43.612  31.213  30.840  1.00  0.00    -0.354 N 
ATOM     52  N   UNL A   1      39.165  31.876  31.590  1.00  0.00    -0.248 NA
ATOM     53  C   UNL A   1      39.143  33.463  29.883  1.00  0.00     0.031 C 
ATOM     54  C   UNL A   1      42.476  32.511  29.475  1.00  0.00     0.029 A 
ATOM     55  C   UNL A   1      42.444  31.927  30.737  1.00  0.00     0.049 A 
ATOM     56  H   UNL A   1      43.969  30.812  31.666  1.00  0.00     0.167 HD
ATOM     57  C   UNL A   1      40.339  32.556  31.618  1.00  0.00     0.074 A 
ATOM     58  C   UNL A   1      40.149  33.693  30.732  1.00  0.00     0.031 C 
ATOM     59  C   UNL A   1      41.440  31.777  31.759  1.00  0.00     0.037 A 
BRANCH  46  60
ATOM     60  C   UNL A   1      45.241  28.863  30.208  1.00  0.00     0.058 A 
ATOM     61  C   UNL A   1      44.292  28.168  30.961  1.00  0.00     0.135 A 
ATOM     62  C   UNL A   1      46.606  28.614  30.496  1.00  0.00     0.135 A 
ATOM     63  F   UNL A   1      42.982  28.326  30.708  1.00  0.00    -0.206 F 
ATOM     64  C   UNL A   1      44.674  27.301  31.981  1.00  0.00     0.059 A 
ATOM     65  C   UNL A   1      47.007  27.808  31.552  1.00  0.00     0.059 A 
ATOM     66  F   UNL A   1      47.575  29.139  29.730  1.00  0.00    -0.206 F 
ATOM     67  C   UNL A   1      46.030  27.145  32.283  1.00  0.00     0.060 A 
BRANCH  67  68
ATOM     68  S   UNL A   1      46.491  26.055  33.644  1.00  0.00     0.124 S 
ATOM     69  O   UNL A   1      46.640  26.994  34.754  1.00  0.00    -0.237 OA
ATOM     70  O   UNL A   1      45.324  25.182  33.720  1.00  0.00    -0.237 OA
ATOM     71  O   UNL A   1      47.732  25.439  33.191  1.00  0.00    -0.744 OA
ENDBRANCH  67  68
ENDBRANCH  46  60
BRANCH  47  72
ATOM     72  C   UNL A   1      36.224  32.264  30.225  1.00  0.00     0.058 A 
ATOM     73  C   UNL A   1      35.687  32.294  31.584  1.00  0.00     0.135 A 
ATOM     74  C   UNL A   1      35.743  33.367  29.490  1.00  0.00     0.135 A 
ATOM     75  F   UNL A   1      35.977  31.324  32.464  1.00  0.00    -0.206 F 
ATOM     76  C   UNL A   1      34.886  33.331  32.156  1.00  0.00     0.059 A 
ATOM     77  C   UNL A   1      34.906  34.412  30.040  1.00  0.00     0.059 A 
ATOM     78  F   UNL A   1      36.132  33.529  28.218  1.00  0.00    -0.206 F 
ATOM     79  C   UNL A   1      34.518  34.414  31.385  1.00  0.00     0.060 A 
BRANCH  79  80
ATOM     80  S   UNL A   1      33.671  35.846  32.173  1.00  0.00     0.124 S 
ATOM     81  O   UNL A   1      32.472  35.246  32.749  1.00  0.00    -0.237 OA
ATOM     82  O   UNL A   1      34.663  36.313  33.140  1.00  0.00    -0.237 OA
ATOM     83  O   UNL A   1      33.433  36.758  31.057  1.00  0.00    -0.744 OA
ENDBRANCH  79  80
ENDBRANCH  47  72
BRANCH  59  84
ATOM     84  C   UNL A   1      41.368  30.667  32.799  1.00  0.00     0.058 A 
ATOM     85  C   UNL A   1      41.681  30.785  34.174  1.00  0.00     0.135 A 
ATOM     86  C   UNL A   1      41.053  29.374  32.356  1.00  0.00     0.135 A 
ATOM     87  F   UNL A   1      41.901  31.974  34.752  1.00  0.00    -0.206 F 
ATOM     88  C   UNL A   1      41.772  29.680  35.023  1.00  0.00     0.059 A 
ATOM     89  C   UNL A   1      41.087  28.260  33.199  1.00  0.00     0.059 A 
ATOM     90  F   UNL A   1      40.703  29.181  31.074  1.00  0.00    -0.206 F 
ATOM     91  C   UNL A   1      41.488  28.416  34.523  1.00  0.00     0.060 A 
BRANCH  91  92
ATOM     92  S   UNL A   1      41.633  26.994  35.628  1.00  0.00     0.124 S 
ATOM     93  O   UNL A   1      43.061  26.697  35.551  1.00  0.00    -0.237 OA
ATOM     94  O   UNL A   1      41.177  27.530  36.907  1.00  0.00    -0.237 OA
ATOM     95  O   UNL A   1      40.762  25.997  35.013  1.00  0.00    -0.744 OA
ENDBRANCH  91  92
ENDBRANCH  59  84
ENDBRANCH  33  34
ENDBRANCH  26  28
ENDBRANCH  25  26
ENDBRANCH  24  25
ENDBRANCH   1  24
TORSDOF 17
ENDMDL
MODEL 3
REMARK VINA RESULT:     -11.9      5.339     12.846
REMARK SMILES Cc1oc(C)c(S(=O)(=O)Nn2c(C)ccc2C)c1C(=O)OCCOC(=O)c1ccc(-c2c3nc(c(-c4c(F)cc(S(=O)(=O)[O-])cc4F)c4ccc([nH]4)c(-c4c(F)cc(S(=O)(=O)[O-])cc4F)c4nc(c(-c5c(F)cc(S(=O)(=O)[O-])cc5F)c5ccc2[nH]5)C=C4)C=C3)cc1
REMARK SMILES IDX 22 1 21 2 19 3 20 4 18 5 1 6 2 7 3 8 4 9 6 10 5 11 7 12 8 13
REMARK SMILES IDX 9 14 10 15 11 17 12 18 16 19 13 20 14 21 15 22 17 23 23 24
REMARK SMILES IDX 24 25 25 26 26 27 27 28 28 29 92 30 29 31 91 32 30 33 31 34
REMARK SMILES IDX 32 35 85 36 33 37 90 38 84 39 86 40 34 41 89 42 83 43 82 44
REMARK SMILES IDX 35 46 69 47 48 48 68 49 49 50 52 51 67 52 87 53 50 54 51 55
REMARK SMILES IDX 66 57 88 58 53 59 36 60 37 61 46 62 38 63 39 64 45 65 47 66
REMARK SMILES IDX 40 67 41 68 42 69 43 70 44 71 70 72 71 73 80 74 72 75 73 76
REMARK SMILES IDX 79 77 81 78 74 79 75 80 76 81 77 82 78 83 54 84 55 85 64 86
REMARK SMILES IDX 56 87 57 88 63 89 65 90 58 91 59 92 60 93 61 94 62 95
REMARK H PARENT 10 16 86 45 52 56
REMARK Flexibility Score: inf
ROOT
ATOM      1  C   UNL A   1      49.255  20.507  35.760  1.00  0.00     0.275 C 
ENDROOT
BRANCH   1   2
ATOM      2  O   UNL A   1      47.805  20.534  35.274  1.00  0.00    -0.458 OA
BRANCH   2   3
ATOM      3  C   UNL A   1      46.729  20.021  36.042  1.00  0.00     0.343 C 
ATOM      4  O   UNL A   1      45.970  19.150  35.629  1.00  0.00    -0.246 OA
BRANCH   3   5
ATOM      5  C   UNL A   1      46.527  20.650  37.392  1.00  0.00     0.122 A 
ATOM      6  C   UNL A   1      47.934  18.957  38.910  1.00  0.00     0.088 C 
ATOM      7  C   UNL A   1      47.039  20.084  38.566  1.00  0.00     0.117 A 
ATOM      8  O   UNL A   1      46.638  20.766  39.669  1.00  0.00    -0.464 OA
ATOM      9  C   UNL A   1      45.944  21.848  39.264  1.00  0.00     0.122 A 
ATOM     10  C   UNL A   1      45.972  21.938  37.876  1.00  0.00     0.145 A 
ATOM     11  C   UNL A   1      45.355  22.659  40.364  1.00  0.00     0.089 C 
BRANCH  10  12
ATOM     12  S   UNL A   1      45.393  23.419  37.173  1.00  0.00     0.279 S 
ATOM     13  O   UNL A   1      46.508  24.366  37.303  1.00  0.00    -0.200 OA
ATOM     14  O   UNL A   1      44.967  23.029  35.870  1.00  0.00    -0.200 OA
BRANCH  12  15
ATOM     15  N   UNL A   1      44.144  24.233  37.872  1.00  0.00    -0.216 N 
ATOM     16  H   UNL A   1      43.842  24.001  38.779  1.00  0.00     0.202 HD
BRANCH  15  17
ATOM     17  N   UNL A   1      43.536  25.231  37.173  1.00  0.00    -0.256 N 
ATOM     18  C   UNL A   1      42.637  25.142  36.152  1.00  0.00     0.038 A 
ATOM     19  C   UNL A   1      43.913  26.530  37.420  1.00  0.00     0.038 A 
ATOM     20  C   UNL A   1      41.907  24.050  35.441  1.00  0.00     0.067 C 
ATOM     21  C   UNL A   1      42.552  26.423  35.702  1.00  0.00     0.025 A 
ATOM     22  C   UNL A   1      43.369  27.295  36.428  1.00  0.00     0.025 A 
ATOM     23  C   UNL A   1      44.828  26.973  38.498  1.00  0.00     0.067 C 
ENDBRANCH  15  17
ENDBRANCH  12  15
ENDBRANCH  10  12
ENDBRANCH   3   5
ENDBRANCH   2   3
ENDBRANCH   1   2
BRANCH   1  24
ATOM     24  C   UNL A   1      50.123  21.983  36.096  1.00  0.00     0.275 C 
BRANCH  24  25
ATOM     25  O   UNL A   1      51.199  22.769  35.141  1.00  0.00    -0.458 OA
BRANCH  25  26
ATOM     26  C   UNL A   1      50.848  23.382  33.885  1.00  0.00     0.338 C 
ATOM     27  O   UNL A   1      51.481  23.026  32.891  1.00  0.00    -0.246 OA
BRANCH  26  28
ATOM     28  C   UNL A   1      49.564  24.417  33.609  1.00  0.00     0.060 A 
ATOM     29  C   UNL A   1      48.298  24.125  34.131  1.00  0.00     0.016 A 
ATOM     30  C   UNL A   1      49.393  25.424  32.613  1.00  0.00     0.016 A 
ATOM     31  C   UNL A   1      47.018  24.825  33.731  1.00  0.00     0.010 A 
ATOM     32  C   UNL A   1      48.042  26.121  32.177  1.00  0.00     0.010 A 
ATOM     33  C   UNL A   1      46.762  25.850  32.712  1.00  0.00    -0.014 A 
BRANCH  33  34
ATOM     34  C   UNL A   1      45.105  26.406  32.347  1.00  0.00     0.031 A 
ATOM     35  C   UNL A   1      44.685  25.411  31.326  1.00  0.00     0.074 A 
ATOM     36  C   UNL A   1      44.031  27.391  32.464  1.00  0.00     0.049 A 
ATOM     37  N   UNL A   1      45.341  25.374  30.207  1.00  0.00    -0.248 NA
ATOM     38  C   UNL A   1      43.844  24.242  31.572  1.00  0.00     0.031 C 
ATOM     39  C   UNL A   1      44.010  28.687  33.192  1.00  0.00     0.029 A 
ATOM     40  N   UNL A   1      42.642  27.511  31.884  1.00  0.00    -0.354 N 
ATOM     41  C   UNL A   1      44.870  24.316  29.485  1.00  0.00     0.074 A 
ATOM     42  C   UNL A   1      44.028  23.577  30.421  1.00  0.00     0.031 C 
ATOM     43  C   UNL A   1      42.791  29.334  33.168  1.00  0.00     0.029 A 
ATOM     44  C   UNL A   1      41.775  28.650  32.345  1.00  0.00     0.049 A 
ATOM     45  H   UNL A   1      42.312  26.861  31.222  1.00  0.00     0.167 HD
ATOM     46  C   UNL A   1      44.742  24.555  28.153  1.00  0.00     0.037 A 
ATOM     47  C   UNL A   1      40.447  29.105  32.018  1.00  0.00     0.037 A 
ATOM     48  C   UNL A   1      43.391  24.916  27.830  1.00  0.00     0.049 A 
ATOM     49  C   UNL A   1      40.229  28.727  30.614  1.00  0.00     0.074 A 
ATOM     50  C   UNL A   1      42.170  24.432  28.257  1.00  0.00     0.029 A 
ATOM     51  N   UNL A   1      43.183  26.208  27.389  1.00  0.00    -0.354 N 
ATOM     52  N   UNL A   1      40.797  29.372  29.642  1.00  0.00    -0.248 NA
ATOM     53  C   UNL A   1      39.225  27.746  30.204  1.00  0.00     0.031 C 
ATOM     54  C   UNL A   1      41.437  25.591  28.577  1.00  0.00     0.029 A 
ATOM     55  C   UNL A   1      42.045  26.693  27.984  1.00  0.00     0.049 A 
ATOM     56  H   UNL A   1      43.753  26.700  26.754  1.00  0.00     0.167 HD
ATOM     57  C   UNL A   1      40.667  28.518  28.595  1.00  0.00     0.074 A 
ATOM     58  C   UNL A   1      39.493  27.715  28.896  1.00  0.00     0.031 C 
ATOM     59  C   UNL A   1      41.839  28.117  28.044  1.00  0.00     0.037 A 
BRANCH  46  60
ATOM     60  C   UNL A   1      45.944  25.245  27.547  1.00  0.00     0.058 A 
ATOM     61  C   UNL A   1      46.749  24.533  26.655  1.00  0.00     0.135 A 
ATOM     62  C   UNL A   1      46.360  26.555  27.890  1.00  0.00     0.135 A 
ATOM     63  F   UNL A   1      46.388  23.302  26.255  1.00  0.00    -0.206 F 
ATOM     64  C   UNL A   1      47.933  25.073  26.160  1.00  0.00     0.059 A 
ATOM     65  C   UNL A   1      47.569  27.087  27.464  1.00  0.00     0.059 A 
ATOM     66  F   UNL A   1      45.574  27.351  28.633  1.00  0.00    -0.206 F 
ATOM     67  C   UNL A   1      48.345  26.340  26.587  1.00  0.00     0.060 A 
BRANCH  67  68
ATOM     68  S   UNL A   1      49.908  26.991  25.969  1.00  0.00     0.124 S 
ATOM     69  O   UNL A   1      50.681  27.156  27.199  1.00  0.00    -0.237 OA
ATOM     70  O   UNL A   1      50.349  25.906  25.099  1.00  0.00    -0.237 OA
ATOM     71  O   UNL A   1      49.530  28.236  25.311  1.00  0.00    -0.744 OA
ENDBRANCH  67  68
ENDBRANCH  46  60
BRANCH  47  72
ATOM     72  C   UNL A   1      39.133  30.071  32.363  1.00  0.00     0.058 A 
ATOM     73  C   UNL A   1      39.099  31.499  32.056  1.00  0.00     0.135 A 
ATOM     74  C   UNL A   1      37.820  29.578  32.520  1.00  0.00     0.135 A 
ATOM     75  F   UNL A   1      40.231  32.199  31.896  1.00  0.00    -0.206 F 
ATOM     76  C   UNL A   1      37.929  32.289  31.826  1.00  0.00     0.059 A 
ATOM     77  C   UNL A   1      36.624  30.367  32.322  1.00  0.00     0.059 A 
ATOM     78  F   UNL A   1      37.636  28.279  32.793  1.00  0.00    -0.206 F 
ATOM     79  C   UNL A   1      36.682  31.709  31.931  1.00  0.00     0.060 A 
BRANCH  79  80
ATOM     80  S   UNL A   1      35.189  32.664  31.430  1.00  0.00     0.124 S 
ATOM     81  O   UNL A   1      34.828  32.066  30.149  1.00  0.00    -0.237 OA
ATOM     82  O   UNL A   1      34.259  32.404  32.526  1.00  0.00    -0.237 OA
ATOM     83  O   UNL A   1      35.675  34.040  31.356  1.00  0.00    -0.744 OA
ENDBRANCH  79  80
ENDBRANCH  47  72
BRANCH  59  84
ATOM     84  C   UNL A   1      42.892  29.192  27.809  1.00  0.00     0.058 A 
ATOM     85  C   UNL A   1      43.802  29.698  28.767  1.00  0.00     0.135 A 
ATOM     86  C   UNL A   1      42.918  29.820  26.555  1.00  0.00     0.135 A 
ATOM     87  F   UNL A   1      43.955  29.128  29.970  1.00  0.00    -0.206 F 
ATOM     88  C   UNL A   1      44.608  30.813  28.525  1.00  0.00     0.059 A 
ATOM     89  C   UNL A   1      43.753  30.905  26.272  1.00  0.00     0.059 A 
ATOM     90  F   UNL A   1      42.116  29.373  25.574  1.00  0.00    -0.206 F 
ATOM     91  C   UNL A   1      44.566  31.421  27.278  1.00  0.00     0.060 A 
BRANCH  91  92
ATOM     92  S   UNL A   1      45.597  32.877  26.989  1.00  0.00     0.124 S 
ATOM     93  O   UNL A   1      46.895  32.431  27.486  1.00  0.00    -0.237 OA
ATOM     94  O   UNL A   1      45.510  33.052  25.542  1.00  0.00    -0.237 OA
ATOM     95  O   UNL A   1      44.952  33.912  27.790  1.00  0.00    -0.744 OA
ENDBRANCH  91  92
ENDBRANCH  59  84
ENDBRANCH  33  34
ENDBRANCH  26  28
ENDBRANCH  25  26
ENDBRANCH  24  25
ENDBRANCH   1  24
TORSDOF 17
ENDMDL
