MODEL 1
REMARK VINA RESULT:     -11.1      0.000      0.000
REMARK SMILES CC[C@@H](C(=O)OCCOC(=O)c1ccc(-c2c3nc(c(-c4c(F)cc(S(=O)(=O)[O-])cc4F)c4ccc([nH]4)c(-c4c(F)cc(S(=O)(=O)[O-])cc4F)c4nc(c(-c5c(F)cc(S(=O)(=O)[O-])cc5F)c5ccc2[nH]5)C=C4)C=C3)cc1)n1c(SCc2cccc(C(F)(F)F)c2)nc2ccncc21
REMARK SMILES IDX 7 1 6 2 4 3 5 4 3 5 2 6 1 7 78 8 79 9 98 10 92 11 93 12
REMARK SMILES IDX 97 13 94 14 96 15 95 16 80 17 81 18 82 19 83 20 91 21 84 22
REMARK SMILES IDX 86 23 85 24 87 25 88 26 89 27 90 28 8 29 9 30 10 31 11 32
REMARK SMILES IDX 12 33 13 34 77 35 14 36 76 37 15 38 16 39 17 40 70 41 18 42
REMARK SMILES IDX 75 43 69 44 71 45 19 46 74 47 68 48 67 49 20 51 54 52 33 53
REMARK SMILES IDX 53 54 34 55 37 56 52 57 72 58 35 59 36 60 51 62 73 63 38 64
REMARK SMILES IDX 21 65 22 66 31 67 23 68 24 69 30 70 32 71 25 72 26 73 27 74
REMARK SMILES IDX 28 75 29 76 55 77 56 78 65 79 57 80 58 81 64 82 66 83 59 84
REMARK SMILES IDX 60 85 61 86 62 87 63 88 39 89 40 90 49 91 41 92 42 93 48 94
REMARK SMILES IDX 50 95 43 96 44 97 45 98 46 99 47 100
REMARK H PARENT 71 50 37 61
REMARK Flexibility Score: inf
ROOT
ATOM      1  C   UNL A   1      31.726  28.725  26.023  1.00  0.00     0.274 C 
ENDROOT
BRANCH   1   2
ATOM      2  O   UNL A   1      31.477  27.884  24.873  1.00  0.00    -0.461 OA
BRANCH   2   3
ATOM      3  C   UNL A   1      30.478  28.261  24.030  1.00  0.00     0.329 C 
ATOM      4  O   UNL A   1      30.196  29.441  23.863  1.00  0.00    -0.250 OA
BRANCH   3   5
ATOM      5  C   UNL A   1      29.681  27.063  23.442  1.00  0.00     0.199 C 
BRANCH   5   6
ATOM      6  C   UNL A   1      28.212  27.025  23.927  1.00  0.00     0.034 C 
ATOM      7  C   UNL A   1      27.239  28.064  23.389  1.00  0.00     0.007 C 
ENDBRANCH   5   6
BRANCH   5   8
ATOM      8  N   UNL A   1      30.428  25.782  23.617  1.00  0.00    -0.303 N 
ATOM      9  C   UNL A   1      31.206  25.059  22.721  1.00  0.00     0.170 A 
ATOM     10  C   UNL A   1      30.422  25.023  24.789  1.00  0.00     0.088 A 
ATOM     11  N   UNL A   1      31.348  23.809  23.106  1.00  0.00    -0.222 NA
ATOM     12  C   UNL A   1      30.901  23.774  24.406  1.00  0.00     0.093 A 
ATOM     13  C   UNL A   1      30.003  25.259  26.094  1.00  0.00     0.139 A 
ATOM     14  C   UNL A   1      30.884  22.715  25.319  1.00  0.00     0.051 A 
ATOM     15  N   UNL A   1      30.020  24.244  26.987  1.00  0.00    -0.262 NA
ATOM     16  C   UNL A   1      30.424  23.016  26.591  1.00  0.00     0.113 A 
BRANCH   9  17
ATOM     17  S   UNL A   1      32.230  25.773  21.511  1.00  0.00    -0.083 SA
BRANCH  17  18
ATOM     18  C   UNL A   1      33.806  26.138  22.297  1.00  0.00     0.113 C 
BRANCH  18  19
ATOM     19  C   UNL A   1      34.182  25.312  23.505  1.00  0.00    -0.037 A 
ATOM     20  C   UNL A   1      33.938  25.823  24.783  1.00  0.00     0.004 A 
ATOM     21  C   UNL A   1      34.876  24.093  23.395  1.00  0.00     0.017 A 
ATOM     22  C   UNL A   1      34.360  25.140  25.922  1.00  0.00     0.001 A 
ATOM     23  C   UNL A   1      35.340  23.412  24.540  1.00  0.00     0.056 A 
ATOM     24  C   UNL A   1      35.047  23.936  25.805  1.00  0.00     0.013 A 
BRANCH  23  25
ATOM     25  C   UNL A   1      36.157  22.148  24.431  1.00  0.00     0.416 C 
ATOM     26  F   UNL A   1      36.924  22.099  23.303  1.00  0.00    -0.166 F 
ATOM     27  F   UNL A   1      37.021  21.985  25.471  1.00  0.00    -0.166 F 
ATOM     28  F   UNL A   1      35.396  21.017  24.403  1.00  0.00    -0.166 F 
ENDBRANCH  23  25
ENDBRANCH  18  19
ENDBRANCH  17  18
ENDBRANCH   9  17
ENDBRANCH   5   8
ENDBRANCH   3   5
ENDBRANCH   2   3
ENDBRANCH   1   2
BRANCH   1  29
ATOM     29  C   UNL A   1      33.048  29.502  25.941  1.00  0.00     0.275 C 
BRANCH  29  30
ATOM     30  O   UNL A   1      33.987  29.117  26.965  1.00  0.00    -0.458 OA
BRANCH  30  31
ATOM     31  C   UNL A   1      34.528  30.170  27.621  1.00  0.00     0.338 C 
ATOM     32  O   UNL A   1      33.941  31.206  27.890  1.00  0.00    -0.246 OA
BRANCH  31  33
ATOM     33  C   UNL A   1      35.883  29.876  28.137  1.00  0.00     0.060 A 
ATOM     34  C   UNL A   1      36.911  29.937  27.198  1.00  0.00     0.016 A 
ATOM     35  C   UNL A   1      36.168  29.479  29.445  1.00  0.00     0.016 A 
ATOM     36  C   UNL A   1      38.214  29.603  27.535  1.00  0.00     0.010 A 
ATOM     37  C   UNL A   1      37.493  29.149  29.795  1.00  0.00     0.010 A 
ATOM     38  C   UNL A   1      38.521  29.216  28.840  1.00  0.00    -0.014 A 
BRANCH  38  39
ATOM     39  C   UNL A   1      39.949  28.955  29.145  1.00  0.00     0.031 A 
ATOM     40  C   UNL A   1      40.593  27.657  28.753  1.00  0.00     0.074 A 
ATOM     41  C   UNL A   1      40.704  29.975  29.597  1.00  0.00     0.049 A 
ATOM     42  N   UNL A   1      41.844  27.293  28.862  1.00  0.00    -0.248 NA
ATOM     43  C   UNL A   1      39.720  26.648  28.135  1.00  0.00     0.031 C 
ATOM     44  C   UNL A   1      40.208  31.324  29.876  1.00  0.00     0.029 A 
ATOM     45  N   UNL A   1      42.050  30.053  29.850  1.00  0.00    -0.354 N 
ATOM     46  C   UNL A   1      41.913  26.007  28.342  1.00  0.00     0.074 A 
ATOM     47  C   UNL A   1      40.576  25.661  27.903  1.00  0.00     0.031 C 
ATOM     48  C   UNL A   1      41.242  32.103  30.234  1.00  0.00     0.029 A 
ATOM     49  C   UNL A   1      42.463  31.302  30.249  1.00  0.00     0.049 A 
ATOM     50  H   UNL A   1      42.662  29.287  29.755  1.00  0.00     0.167 HD
ATOM     51  C   UNL A   1      42.989  25.187  28.259  1.00  0.00     0.037 A 
ATOM     52  C   UNL A   1      43.686  31.747  30.597  1.00  0.00     0.037 A 
ATOM     53  C   UNL A   1      44.312  25.534  28.713  1.00  0.00     0.049 A 
ATOM     54  C   UNL A   1      44.849  30.791  30.569  1.00  0.00     0.074 A 
ATOM     55  C   UNL A   1      45.447  24.742  28.752  1.00  0.00     0.029 A 
ATOM     56  N   UNL A   1      44.680  26.778  29.206  1.00  0.00    -0.354 N 
ATOM     57  N   UNL A   1      44.883  29.548  30.151  1.00  0.00    -0.248 NA
ATOM     58  C   UNL A   1      46.132  31.290  31.079  1.00  0.00     0.031 C 
ATOM     59  C   UNL A   1      46.489  25.493  29.307  1.00  0.00     0.029 A 
ATOM     60  C   UNL A   1      46.016  26.768  29.573  1.00  0.00     0.049 A 
ATOM     61  H   UNL A   1      44.078  27.554  29.285  1.00  0.00     0.167 HD
ATOM     62  C   UNL A   1      46.190  29.117  30.352  1.00  0.00     0.074 A 
ATOM     63  C   UNL A   1      46.923  30.242  30.896  1.00  0.00     0.031 C 
ATOM     64  C   UNL A   1      46.730  27.894  30.123  1.00  0.00     0.037 A 
BRANCH  51  65
ATOM     65  C   UNL A   1      42.757  23.798  27.734  1.00  0.00     0.058 A 
ATOM     66  C   UNL A   1      42.491  22.712  28.581  1.00  0.00     0.135 A 
ATOM     67  C   UNL A   1      42.792  23.559  26.351  1.00  0.00     0.135 A 
ATOM     68  F   UNL A   1      42.463  22.884  29.912  1.00  0.00    -0.206 F 
ATOM     69  C   UNL A   1      42.294  21.430  28.076  1.00  0.00     0.059 A 
ATOM     70  C   UNL A   1      42.579  22.290  25.823  1.00  0.00     0.059 A 
ATOM     71  F   UNL A   1      43.044  24.565  25.498  1.00  0.00    -0.206 F 
ATOM     72  C   UNL A   1      42.348  21.228  26.695  1.00  0.00     0.060 A 
BRANCH  72  73
ATOM     73  S   UNL A   1      42.120  19.556  26.049  1.00  0.00     0.124 S 
ATOM     74  O   UNL A   1      40.675  19.519  25.850  1.00  0.00    -0.237 OA
ATOM     75  O   UNL A   1      42.927  19.574  24.834  1.00  0.00    -0.237 OA
ATOM     76  O   UNL A   1      42.627  18.706  27.121  1.00  0.00    -0.744 OA
ENDBRANCH  72  73
ENDBRANCH  51  65
BRANCH  52  77
ATOM     77  C   UNL A   1      43.872  33.155  31.038  1.00  0.00     0.058 A 
ATOM     78  C   UNL A   1      43.678  33.530  32.374  1.00  0.00     0.135 A 
ATOM     79  C   UNL A   1      44.231  34.159  30.124  1.00  0.00     0.135 A 
ATOM     80  F   UNL A   1      43.323  32.610  33.285  1.00  0.00    -0.206 F 
ATOM     81  C   UNL A   1      43.816  34.852  32.789  1.00  0.00     0.059 A 
ATOM     82  C   UNL A   1      44.402  35.481  30.518  1.00  0.00     0.059 A 
ATOM     83  F   UNL A   1      44.435  33.852  28.833  1.00  0.00    -0.206 F 
ATOM     84  C   UNL A   1      44.177  35.821  31.851  1.00  0.00     0.060 A 
BRANCH  84  85
ATOM     85  S   UNL A   1      44.385  37.531  32.392  1.00  0.00     0.124 S 
ATOM     86  O   UNL A   1      43.548  37.562  33.586  1.00  0.00    -0.237 OA
ATOM     87  O   UNL A   1      45.824  37.615  32.619  1.00  0.00    -0.237 OA
ATOM     88  O   UNL A   1      43.892  38.302  31.255  1.00  0.00    -0.744 OA
ENDBRANCH  84  85
ENDBRANCH  52  77
BRANCH  64  89
ATOM     89  C   UNL A   1      48.181  27.706  30.469  1.00  0.00     0.058 A 
ATOM     90  C   UNL A   1      48.578  27.317  31.758  1.00  0.00     0.135 A 
ATOM     91  C   UNL A   1      49.179  27.869  29.496  1.00  0.00     0.135 A 
ATOM     92  F   UNL A   1      47.662  27.154  32.727  1.00  0.00    -0.206 F 
ATOM     93  C   UNL A   1      49.917  27.114  32.077  1.00  0.00     0.059 A 
ATOM     94  C   UNL A   1      50.523  27.650  29.786  1.00  0.00     0.059 A 
ATOM     95  F   UNL A   1      48.852  28.231  28.246  1.00  0.00    -0.206 F 
ATOM     96  C   UNL A   1      50.883  27.283  31.083  1.00  0.00     0.060 A 
BRANCH  96  97
ATOM     97  S   UNL A   1      52.615  26.980  31.497  1.00  0.00     0.124 S 
ATOM     98  O   UNL A   1      53.295  27.945  30.640  1.00  0.00    -0.237 OA
ATOM     99  O   UNL A   1      52.651  27.269  32.928  1.00  0.00    -0.237 OA
ATOM    100  O   UNL A   1      52.808  25.578  31.142  1.00  0.00    -0.744 OA
ENDBRANCH  96  97
ENDBRANCH  64  89
ENDBRANCH  38  39
ENDBRANCH  31  33
ENDBRANCH  30  31
ENDBRANCH  29  30
ENDBRANCH   1  29
TORSDOF 20
ENDMDL
MODEL 2
REMARK VINA RESULT:     -11.0      1.097      2.332
REMARK SMILES CC[C@@H](C(=O)OCCOC(=O)c1ccc(-c2c3nc(c(-c4c(F)cc(S(=O)(=O)[O-])cc4F)c4ccc([nH]4)c(-c4c(F)cc(S(=O)(=O)[O-])cc4F)c4nc(c(-c5c(F)cc(S(=O)(=O)[O-])cc5F)c5ccc2[nH]5)C=C4)C=C3)cc1)n1c(SCc2cccc(C(F)(F)F)c2)nc2ccncc21
REMARK SMILES IDX 7 1 6 2 4 3 5 4 3 5 2 6 1 7 78 8 79 9 98 10 92 11 93 12
REMARK SMILES IDX 97 13 94 14 96 15 95 16 80 17 81 18 82 19 83 20 91 21 84 22
REMARK SMILES IDX 86 23 85 24 87 25 88 26 89 27 90 28 8 29 9 30 10 31 11 32
REMARK SMILES IDX 12 33 13 34 77 35 14 36 76 37 15 38 16 39 17 40 70 41 18 42
REMARK SMILES IDX 75 43 69 44 71 45 19 46 74 47 68 48 67 49 20 51 54 52 33 53
REMARK SMILES IDX 53 54 34 55 37 56 52 57 72 58 35 59 36 60 51 62 73 63 38 64
REMARK SMILES IDX 21 65 22 66 31 67 23 68 24 69 30 70 32 71 25 72 26 73 27 74
REMARK SMILES IDX 28 75 29 76 55 77 56 78 65 79 57 80 58 81 64 82 66 83 59 84
REMARK SMILES IDX 60 85 61 86 62 87 63 88 39 89 40 90 49 91 41 92 42 93 48 94
REMARK SMILES IDX 50 95 43 96 44 97 45 98 46 99 47 100
REMARK H PARENT 71 50 37 61
REMARK Flexibility Score: inf
ROOT
ATOM      1  C   UNL A   1      31.621  28.163  26.562  1.00  0.00     0.274 C 
ENDROOT
BRANCH   1   2
ATOM      2  O   UNL A   1      31.393  26.833  27.083  1.00  0.00    -0.461 OA
BRANCH   2   3
ATOM      3  C   UNL A   1      30.689  25.970  26.301  1.00  0.00     0.329 C 
ATOM      4  O   UNL A   1      29.573  25.584  26.624  1.00  0.00    -0.250 OA
BRANCH   3   5
ATOM      5  C   UNL A   1      31.494  25.446  25.080  1.00  0.00     0.199 C 
BRANCH   5   6
ATOM      6  C   UNL A   1      32.942  25.041  25.445  1.00  0.00     0.034 C 
ATOM      7  C   UNL A   1      33.154  23.982  26.517  1.00  0.00     0.007 C 
ENDBRANCH   5   6
BRANCH   5   8
ATOM      8  N   UNL A   1      31.383  26.381  23.921  1.00  0.00    -0.303 N 
ATOM      9  C   UNL A   1      32.352  26.849  23.040  1.00  0.00     0.170 A 
ATOM     10  C   UNL A   1      30.204  27.024  23.539  1.00  0.00     0.088 A 
ATOM     11  N   UNL A   1      31.960  27.948  22.433  1.00  0.00    -0.222 NA
ATOM     12  C   UNL A   1      30.616  28.054  22.701  1.00  0.00     0.093 A 
ATOM     13  C   UNL A   1      28.863  26.866  23.873  1.00  0.00     0.139 A 
ATOM     14  C   UNL A   1      29.686  28.998  22.251  1.00  0.00     0.051 A 
ATOM     15  N   UNL A   1      27.958  27.758  23.411  1.00  0.00    -0.262 NA
ATOM     16  C   UNL A   1      28.374  28.795  22.650  1.00  0.00     0.113 A 
BRANCH   9  17
ATOM     17  S   UNL A   1      33.691  25.902  22.462  1.00  0.00    -0.083 SA
BRANCH  17  18
ATOM     18  C   UNL A   1      33.020  24.347  21.856  1.00  0.00     0.113 C 
BRANCH  18  19
ATOM     19  C   UNL A   1      33.309  23.107  22.669  1.00  0.00    -0.037 A 
ATOM     20  C   UNL A   1      32.258  22.245  22.995  1.00  0.00     0.004 A 
ATOM     21  C   UNL A   1      34.582  22.844  23.210  1.00  0.00     0.017 A 
ATOM     22  C   UNL A   1      32.464  21.146  23.826  1.00  0.00     0.001 A 
ATOM     23  C   UNL A   1      34.791  21.755  24.082  1.00  0.00     0.056 A 
ATOM     24  C   UNL A   1      33.723  20.893  24.359  1.00  0.00     0.013 A 
BRANCH  23  25
ATOM     25  C   UNL A   1      36.130  21.512  24.734  1.00  0.00     0.416 C 
ATOM     26  F   UNL A   1      36.281  22.175  25.917  1.00  0.00    -0.166 F 
ATOM     27  F   UNL A   1      36.350  20.198  25.019  1.00  0.00    -0.166 F 
ATOM     28  F   UNL A   1      37.184  21.902  23.961  1.00  0.00    -0.166 F 
ENDBRANCH  23  25
ENDBRANCH  18  19
ENDBRANCH  17  18
ENDBRANCH   9  17
ENDBRANCH   5   8
ENDBRANCH   3   5
ENDBRANCH   2   3
ENDBRANCH   1   2
BRANCH   1  29
ATOM     29  C   UNL A   1      32.348  29.091  27.546  1.00  0.00     0.275 C 
BRANCH  29  30
ATOM     30  O   UNL A   1      33.782  28.952  27.490  1.00  0.00    -0.458 OA
BRANCH  30  31
ATOM     31  C   UNL A   1      34.446  30.081  27.833  1.00  0.00     0.338 C 
ATOM     32  O   UNL A   1      33.950  31.194  27.897  1.00  0.00    -0.246 OA
BRANCH  31  33
ATOM     33  C   UNL A   1      35.825  29.805  28.291  1.00  0.00     0.060 A 
ATOM     34  C   UNL A   1      36.806  29.835  27.301  1.00  0.00     0.016 A 
ATOM     35  C   UNL A   1      36.176  29.454  29.596  1.00  0.00     0.016 A 
ATOM     36  C   UNL A   1      38.124  29.513  27.585  1.00  0.00     0.010 A 
ATOM     37  C   UNL A   1      37.517  29.137  29.891  1.00  0.00     0.010 A 
ATOM     38  C   UNL A   1      38.497  29.171  28.885  1.00  0.00    -0.014 A 
BRANCH  38  39
ATOM     39  C   UNL A   1      39.938  28.922  29.128  1.00  0.00     0.031 A 
ATOM     40  C   UNL A   1      40.572  27.625  28.720  1.00  0.00     0.074 A 
ATOM     41  C   UNL A   1      40.707  29.951  29.536  1.00  0.00     0.049 A 
ATOM     42  N   UNL A   1      41.829  27.269  28.776  1.00  0.00    -0.248 NA
ATOM     43  C   UNL A   1      39.679  26.604  28.151  1.00  0.00     0.031 C 
ATOM     44  C   UNL A   1      40.215  31.300  29.825  1.00  0.00     0.029 A 
ATOM     45  N   UNL A   1      42.061  30.039  29.728  1.00  0.00    -0.354 N 
ATOM     46  C   UNL A   1      41.883  25.978  28.265  1.00  0.00     0.074 A 
ATOM     47  C   UNL A   1      40.530  25.620  27.890  1.00  0.00     0.031 C 
ATOM     48  C   UNL A   1      41.259  32.089  30.128  1.00  0.00     0.029 A 
ATOM     49  C   UNL A   1      42.484  31.295  30.096  1.00  0.00     0.049 A 
ATOM     50  H   UNL A   1      42.674  29.277  29.612  1.00  0.00     0.167 HD
ATOM     51  C   UNL A   1      42.960  25.164  28.142  1.00  0.00     0.037 A 
ATOM     52  C   UNL A   1      43.719  31.751  30.384  1.00  0.00     0.037 A 
ATOM     53  C   UNL A   1      44.299  25.524  28.532  1.00  0.00     0.049 A 
ATOM     54  C   UNL A   1      44.885  30.801  30.313  1.00  0.00     0.074 A 
ATOM     55  C   UNL A   1      45.440  24.738  28.527  1.00  0.00     0.029 A 
ATOM     56  N   UNL A   1      44.681  26.774  28.997  1.00  0.00    -0.354 N 
ATOM     57  N   UNL A   1      44.909  29.555  29.905  1.00  0.00    -0.248 NA
ATOM     58  C   UNL A   1      46.187  31.313  30.760  1.00  0.00     0.031 C 
ATOM     59  C   UNL A   1      46.501  25.501  29.028  1.00  0.00     0.029 A 
ATOM     60  C   UNL A   1      46.033  26.776  29.304  1.00  0.00     0.049 A 
ATOM     61  H   UNL A   1      44.079  27.547  29.095  1.00  0.00     0.167 HD
ATOM     62  C   UNL A   1      46.226  29.133  30.051  1.00  0.00     0.074 A 
ATOM     63  C   UNL A   1      46.975  30.267  30.551  1.00  0.00     0.031 C 
ATOM     64  C   UNL A   1      46.763  27.911  29.809  1.00  0.00     0.037 A 
BRANCH  51  65
ATOM     65  C   UNL A   1      42.713  23.769  27.641  1.00  0.00     0.058 A 
ATOM     66  C   UNL A   1      42.439  22.700  28.507  1.00  0.00     0.135 A 
ATOM     67  C   UNL A   1      42.742  23.505  26.262  1.00  0.00     0.135 A 
ATOM     68  F   UNL A   1      42.416  22.895  29.835  1.00  0.00    -0.206 F 
ATOM     69  C   UNL A   1      42.228  21.411  28.024  1.00  0.00     0.059 A 
ATOM     70  C   UNL A   1      42.516  22.230  25.756  1.00  0.00     0.059 A 
ATOM     71  F   UNL A   1      43.002  24.495  25.391  1.00  0.00    -0.206 F 
ATOM     72  C   UNL A   1      42.278  21.185  26.646  1.00  0.00     0.060 A 
BRANCH  72  73
ATOM     73  S   UNL A   1      42.032  19.505  26.029  1.00  0.00     0.124 S 
ATOM     74  O   UNL A   1      42.486  18.711  27.166  1.00  0.00    -0.237 OA
ATOM     75  O   UNL A   1      40.597  19.472  25.766  1.00  0.00    -0.237 OA
ATOM     76  O   UNL A   1      42.884  19.450  24.846  1.00  0.00    -0.744 OA
ENDBRANCH  72  73
ENDBRANCH  51  65
BRANCH  52  77
ATOM     77  C   UNL A   1      43.915  33.164  30.803  1.00  0.00     0.058 A 
ATOM     78  C   UNL A   1      43.848  33.538  32.152  1.00  0.00     0.135 A 
ATOM     79  C   UNL A   1      44.157  34.173  29.856  1.00  0.00     0.135 A 
ATOM     80  F   UNL A   1      43.609  32.613  33.094  1.00  0.00    -0.206 F 
ATOM     81  C   UNL A   1      43.997  34.864  32.549  1.00  0.00     0.059 A 
ATOM     82  C   UNL A   1      44.336  35.499  30.231  1.00  0.00     0.059 A 
ATOM     83  F   UNL A   1      44.236  33.866  28.552  1.00  0.00    -0.206 F 
ATOM     84  C   UNL A   1      44.238  35.838  31.579  1.00  0.00     0.060 A 
BRANCH  84  85
ATOM     85  S   UNL A   1      44.460  37.554  32.095  1.00  0.00     0.124 S 
ATOM     86  O   UNL A   1      43.740  37.572  33.363  1.00  0.00    -0.237 OA
ATOM     87  O   UNL A   1      45.912  37.670  32.184  1.00  0.00    -0.237 OA
ATOM     88  O   UNL A   1      43.845  38.311  31.008  1.00  0.00    -0.744 OA
ENDBRANCH  84  85
ENDBRANCH  52  77
BRANCH  64  89
ATOM     89  C   UNL A   1      48.230  27.735  30.092  1.00  0.00     0.058 A 
ATOM     90  C   UNL A   1      49.194  27.941  29.092  1.00  0.00     0.135 A 
ATOM     91  C   UNL A   1      48.679  27.404  31.379  1.00  0.00     0.135 A 
ATOM     92  F   UNL A   1      48.815  28.253  27.842  1.00  0.00    -0.206 F 
ATOM     93  C   UNL A   1      50.553  27.806  29.354  1.00  0.00     0.059 A 
ATOM     94  C   UNL A   1      50.035  27.285  31.669  1.00  0.00     0.059 A 
ATOM     95  F   UNL A   1      47.799  27.204  32.372  1.00  0.00    -0.206 F 
ATOM     96  C   UNL A   1      50.965  27.479  30.647  1.00  0.00     0.060 A 
BRANCH  96  97
ATOM     97  S   UNL A   1      52.734  27.343  30.986  1.00  0.00     0.124 S 
ATOM     98  O   UNL A   1      53.046  26.043  30.402  1.00  0.00    -0.237 OA
ATOM     99  O   UNL A   1      53.278  28.500  30.283  1.00  0.00    -0.237 OA
ATOM    100  O   UNL A   1      52.806  27.411  32.442  1.00  0.00    -0.744 OA
ENDBRANCH  96  97
ENDBRANCH  64  89
ENDBRANCH  38  39
ENDBRANCH  31  33
ENDBRANCH  30  31
ENDBRANCH  29  30
ENDBRANCH   1  29
TORSDOF 20
ENDMDL
MODEL 3
REMARK VINA RESULT:     -10.7      5.837     13.128
REMARK SMILES CC[C@@H](C(=O)OCCOC(=O)c1ccc(-c2c3nc(c(-c4c(F)cc(S(=O)(=O)[O-])cc4F)c4ccc([nH]4)c(-c4c(F)cc(S(=O)(=O)[O-])cc4F)c4nc(c(-c5c(F)cc(S(=O)(=O)[O-])cc5F)c5ccc2[nH]5)C=C4)C=C3)cc1)n1c(SCc2cccc(C(F)(F)F)c2)nc2ccncc21
REMARK SMILES IDX 7 1 6 2 4 3 5 4 3 5 2 6 1 7 78 8 79 9 98 10 92 11 93 12
REMARK SMILES IDX 97 13 94 14 96 15 95 16 80 17 81 18 82 19 83 20 91 21 84 22
REMARK SMILES IDX 86 23 85 24 87 25 88 26 89 27 90 28 8 29 9 30 10 31 11 32
REMARK SMILES IDX 12 33 13 34 77 35 14 36 76 37 15 38 16 39 17 40 70 41 18 42
REMARK SMILES IDX 75 43 69 44 71 45 19 46 74 47 68 48 67 49 20 51 54 52 33 53
REMARK SMILES IDX 53 54 34 55 37 56 52 57 72 58 35 59 36 60 51 62 73 63 38 64
REMARK SMILES IDX 21 65 22 66 31 67 23 68 24 69 30 70 32 71 25 72 26 73 27 74
REMARK SMILES IDX 28 75 29 76 55 77 56 78 65 79 57 80 58 81 64 82 66 83 59 84
REMARK SMILES IDX 60 85 61 86 62 87 63 88 39 89 40 90 49 91 41 92 42 93 48 94
REMARK SMILES IDX 50 95 43 96 44 97 45 98 46 99 47 100
REMARK H PARENT 71 50 37 61
REMARK Flexibility Score: inf
ROOT
ATOM      1  C   UNL A   1      46.700  38.933  27.450  1.00  0.00     0.274 C 
ENDROOT
BRANCH   1   2
ATOM      2  O   UNL A   1      47.052  40.155  26.760  1.00  0.00    -0.461 OA
BRANCH   2   3
ATOM      3  C   UNL A   1      46.326  40.478  25.655  1.00  0.00     0.329 C 
ATOM      4  O   UNL A   1      46.311  39.753  24.668  1.00  0.00    -0.250 OA
BRANCH   3   5
ATOM      5  C   UNL A   1      45.665  41.881  25.739  1.00  0.00     0.199 C 
BRANCH   5   6
ATOM      6  C   UNL A   1      46.006  42.627  27.052  1.00  0.00     0.034 C 
ATOM      7  C   UNL A   1      45.069  43.728  27.529  1.00  0.00     0.007 C 
ENDBRANCH   5   6
BRANCH   5   8
ATOM      8  N   UNL A   1      44.207  41.810  25.425  1.00  0.00    -0.303 N 
ATOM      9  C   UNL A   1      43.218  40.962  25.911  1.00  0.00     0.170 A 
ATOM     10  C   UNL A   1      43.565  42.616  24.483  1.00  0.00     0.088 A 
ATOM     11  N   UNL A   1      42.174  40.932  25.111  1.00  0.00    -0.222 NA
ATOM     12  C   UNL A   1      42.353  41.978  24.237  1.00  0.00     0.093 A 
ATOM     13  C   UNL A   1      43.923  43.764  23.786  1.00  0.00     0.139 A 
ATOM     14  C   UNL A   1      41.516  42.447  23.219  1.00  0.00     0.051 A 
ATOM     15  N   UNL A   1      43.098  44.239  22.825  1.00  0.00    -0.262 NA
ATOM     16  C   UNL A   1      41.953  43.578  22.547  1.00  0.00     0.113 A 
BRANCH   9  17
ATOM     17  S   UNL A   1      43.144  40.376  27.546  1.00  0.00    -0.083 SA
BRANCH  17  18
ATOM     18  C   UNL A   1      42.000  38.988  27.561  1.00  0.00     0.113 C 
BRANCH  18  19
ATOM     19  C   UNL A   1      42.592  37.607  27.719  1.00  0.00    -0.037 A 
ATOM     20  C   UNL A   1      43.139  37.236  28.950  1.00  0.00     0.004 A 
ATOM     21  C   UNL A   1      42.718  36.716  26.636  1.00  0.00     0.017 A 
ATOM     22  C   UNL A   1      43.784  36.011  29.110  1.00  0.00     0.001 A 
ATOM     23  C   UNL A   1      43.402  35.490  26.778  1.00  0.00     0.056 A 
ATOM     24  C   UNL A   1      43.907  35.137  28.035  1.00  0.00     0.013 A 
BRANCH  23  25
ATOM     25  C   UNL A   1      43.616  34.565  25.605  1.00  0.00     0.416 C 
ATOM     26  F   UNL A   1      44.771  34.817  24.924  1.00  0.00    -0.166 F 
ATOM     27  F   UNL A   1      43.683  33.254  25.969  1.00  0.00    -0.166 F 
ATOM     28  F   UNL A   1      42.622  34.639  24.674  1.00  0.00    -0.166 F 
ENDBRANCH  23  25
ENDBRANCH  18  19
ENDBRANCH  17  18
ENDBRANCH   9  17
ENDBRANCH   5   8
ENDBRANCH   3   5
ENDBRANCH   2   3
ENDBRANCH   1   2
BRANCH   1  29
ATOM     29  C   UNL A   1      47.217  38.874  28.895  1.00  0.00     0.275 C 
BRANCH  29  30
ATOM     30  O   UNL A   1      47.075  37.566  29.486  1.00  0.00    -0.458 OA
BRANCH  30  31
ATOM     31  C   UNL A   1      48.085  36.721  29.170  1.00  0.00     0.338 C 
ATOM     32  O   UNL A   1      49.270  36.945  29.354  1.00  0.00    -0.246 OA
BRANCH  31  33
ATOM     33  C   UNL A   1      47.593  35.402  28.718  1.00  0.00     0.060 A 
ATOM     34  C   UNL A   1      47.350  34.472  29.727  1.00  0.00     0.016 A 
ATOM     35  C   UNL A   1      47.439  35.024  27.383  1.00  0.00     0.016 A 
ATOM     36  C   UNL A   1      46.964  33.173  29.431  1.00  0.00     0.010 A 
ATOM     37  C   UNL A   1      47.037  33.708  27.077  1.00  0.00     0.010 A 
ATOM     38  C   UNL A   1      46.793  32.780  28.103  1.00  0.00    -0.014 A 
BRANCH  38  39
ATOM     39  C   UNL A   1      46.300  31.401  27.868  1.00  0.00     0.031 A 
ATOM     40  C   UNL A   1      47.247  30.301  27.488  1.00  0.00     0.074 A 
ATOM     41  C   UNL A   1      45.025  31.113  28.196  1.00  0.00     0.049 A 
ATOM     42  N   UNL A   1      47.007  29.026  27.329  1.00  0.00    -0.248 NA
ATOM     43  C   UNL A   1      48.653  30.681  27.287  1.00  0.00     0.031 C 
ATOM     44  C   UNL A   1      44.055  32.079  28.713  1.00  0.00     0.029 A 
ATOM     45  N   UNL A   1      44.345  29.922  28.194  1.00  0.00    -0.354 N 
ATOM     46  C   UNL A   1      48.224  28.447  26.993  1.00  0.00     0.074 A 
ATOM     47  C   UNL A   1      49.206  29.513  26.987  1.00  0.00     0.031 C 
ATOM     48  C   UNL A   1      42.912  31.436  29.006  1.00  0.00     0.029 A 
ATOM     49  C   UNL A   1      43.055  30.025  28.660  1.00  0.00     0.049 A 
ATOM     50  H   UNL A   1      44.741  29.074  27.888  1.00  0.00     0.167 HD
ATOM     51  C   UNL A   1      48.489  27.151  26.698  1.00  0.00     0.037 A 
ATOM     52  C   UNL A   1      42.095  29.087  28.785  1.00  0.00     0.037 A 
ATOM     53  C   UNL A   1      47.503  26.101  26.692  1.00  0.00     0.049 A 
ATOM     54  C   UNL A   1      42.397  27.671  28.375  1.00  0.00     0.074 A 
ATOM     55  C   UNL A   1      47.656  24.775  26.322  1.00  0.00     0.029 A 
ATOM     56  N   UNL A   1      46.178  26.256  27.074  1.00  0.00    -0.354 N 
ATOM     57  N   UNL A   1      43.535  27.152  27.979  1.00  0.00    -0.248 NA
ATOM     58  C   UNL A   1      41.280  26.717  28.409  1.00  0.00     0.031 C 
ATOM     59  C   UNL A   1      46.414  24.139  26.442  1.00  0.00     0.029 A 
ATOM     60  C   UNL A   1      45.497  25.057  26.928  1.00  0.00     0.049 A 
ATOM     61  H   UNL A   1      45.780  27.095  27.401  1.00  0.00     0.167 HD
ATOM     62  C   UNL A   1      43.269  25.813  27.713  1.00  0.00     0.074 A 
ATOM     63  C   UNL A   1      41.872  25.594  28.027  1.00  0.00     0.031 C 
ATOM     64  C   UNL A   1      44.103  24.856  27.236  1.00  0.00     0.037 A 
BRANCH  51  65
ATOM     65  C   UNL A   1      49.890  26.816  26.270  1.00  0.00     0.058 A 
ATOM     66  C   UNL A   1      50.268  26.757  24.921  1.00  0.00     0.135 A 
ATOM     67  C   UNL A   1      50.875  26.561  27.239  1.00  0.00     0.135 A 
ATOM     68  F   UNL A   1      49.360  26.975  23.955  1.00  0.00    -0.206 F 
ATOM     69  C   UNL A   1      51.568  26.429  24.544  1.00  0.00     0.059 A 
ATOM     70  C   UNL A   1      52.184  26.251  26.887  1.00  0.00     0.059 A 
ATOM     71  F   UNL A   1      50.564  26.604  28.545  1.00  0.00    -0.206 F 
ATOM     72  C   UNL A   1      52.517  26.170  25.536  1.00  0.00     0.060 A 
BRANCH  72  73
ATOM     73  S   UNL A   1      54.194  25.717  25.040  1.00  0.00     0.124 S 
ATOM     74  O   UNL A   1      54.976  26.244  26.154  1.00  0.00    -0.237 OA
ATOM     75  O   UNL A   1      54.116  24.263  24.952  1.00  0.00    -0.237 OA
ATOM     76  O   UNL A   1      54.370  26.411  23.768  1.00  0.00    -0.744 OA
ENDBRANCH  72  73
ENDBRANCH  51  65
BRANCH  52  77
ATOM     77  C   UNL A   1      40.746  29.462  29.285  1.00  0.00     0.058 A 
ATOM     78  C   UNL A   1      39.679  29.684  28.404  1.00  0.00     0.135 A 
ATOM     79  C   UNL A   1      40.502  29.623  30.659  1.00  0.00     0.135 A 
ATOM     80  F   UNL A   1      39.864  29.554  27.081  1.00  0.00    -0.206 F 
ATOM     81  C   UNL A   1      38.422  30.068  28.862  1.00  0.00     0.059 A 
ATOM     82  C   UNL A   1      39.248  29.979  31.143  1.00  0.00     0.059 A 
ATOM     83  F   UNL A   1      41.488  29.417  31.546  1.00  0.00    -0.206 F 
ATOM     84  C   UNL A   1      38.218  30.215  30.235  1.00  0.00     0.060 A 
BRANCH  84  85
ATOM     85  S   UNL A   1      36.580  30.685  30.833  1.00  0.00     0.124 S 
ATOM     86  O   UNL A   1      36.773  32.101  31.124  1.00  0.00    -0.237 OA
ATOM     87  O   UNL A   1      35.728  30.379  29.689  1.00  0.00    -0.237 OA
ATOM     88  O   UNL A   1      36.390  29.821  31.995  1.00  0.00    -0.744 OA
ENDBRANCH  84  85
ENDBRANCH  52  77
BRANCH  64  89
ATOM     89  C   UNL A   1      43.524  23.486  27.014  1.00  0.00     0.058 A 
ATOM     90  C   UNL A   1      43.137  23.057  25.734  1.00  0.00     0.135 A 
ATOM     91  C   UNL A   1      43.398  22.579  28.076  1.00  0.00     0.135 A 
ATOM     92  F   UNL A   1      43.233  23.890  24.685  1.00  0.00    -0.206 F 
ATOM     93  C   UNL A   1      42.627  21.781  25.518  1.00  0.00     0.059 A 
ATOM     94  C   UNL A   1      42.911  21.290  27.880  1.00  0.00     0.059 A 
ATOM     95  F   UNL A   1      43.761  22.936  29.318  1.00  0.00    -0.206 F 
ATOM     96  C   UNL A   1      42.518  20.904  26.598  1.00  0.00     0.060 A 
BRANCH  96  97
ATOM     97  S   UNL A   1      41.890  19.236  26.300  1.00  0.00     0.124 S 
ATOM     98  O   UNL A   1      42.812  18.752  25.279  1.00  0.00    -0.237 OA
ATOM     99  O   UNL A   1      42.016  18.613  27.614  1.00  0.00    -0.237 OA
ATOM    100  O   UNL A   1      40.520  19.466  25.852  1.00  0.00    -0.744 OA
ENDBRANCH  96  97
ENDBRANCH  64  89
ENDBRANCH  38  39
ENDBRANCH  31  33
ENDBRANCH  30  31
ENDBRANCH  29  30
ENDBRANCH   1  29
TORSDOF 20
ENDMDL
