MODEL 1
REMARK VINA RESULT:     -11.3      0.000      0.000
REMARK SMILES CCc1c(C(=O)OCCOC(=O)c2ccc(-c3c4nc(c(-c5c(F)cc(S(=O)(=O)[O-])cc5F)c5ccc([nH]5)c(-c5c(F)cc(S(=O)(=O)[O-])cc5F)c5nc(c(-c6c(F)cc(S(=O)(=O)[O-])cc6F)c6ccc3[nH]6)C=C5)C=C4)cc2)nnn1-c1ccc(OC)cc1
REMARK SMILES IDX 9 1 8 2 7 3 5 4 6 5 4 6 3 7 81 8 79 9 80 10 2 11 1 12 82 13
REMARK SMILES IDX 83 14 89 15 84 16 88 17 85 18 86 19 87 20 10 21 11 22 12 23
REMARK SMILES IDX 13 24 14 25 78 26 15 27 77 28 16 29 17 30 18 31 71 32 19 33
REMARK SMILES IDX 76 34 70 35 72 36 20 37 75 38 69 39 68 40 21 42 55 43 34 44
REMARK SMILES IDX 54 45 35 46 38 47 53 48 73 49 36 50 37 51 52 53 74 54 39 55
REMARK SMILES IDX 22 56 23 57 32 58 24 59 25 60 31 61 33 62 26 63 27 64 28 65
REMARK SMILES IDX 29 66 30 67 56 68 57 69 66 70 58 71 59 72 65 73 67 74 60 75
REMARK SMILES IDX 61 76 62 77 63 78 64 79 40 80 41 81 50 82 42 83 43 84 49 85
REMARK SMILES IDX 51 86 44 87 45 88 46 89 47 90 48 91
REMARK H PARENT 72 41 38 52
REMARK Flexibility Score: inf
ROOT
ATOM      1  C   UNL A   1      33.454  33.500  28.039  1.00  0.00     0.275 C 
ENDROOT
BRANCH   1   2
ATOM      2  C   UNL A   1      33.606  34.848  28.726  1.00  0.00     0.275 C 
BRANCH   2   3
ATOM      3  O   UNL A   1      32.981  34.834  30.019  1.00  0.00    -0.457 OA
BRANCH   3   4
ATOM      4  C   UNL A   1      33.181  35.929  30.815  1.00  0.00     0.360 C 
ATOM      5  O   UNL A   1      32.686  37.032  30.591  1.00  0.00    -0.244 OA
BRANCH   4   6
ATOM      6  C   UNL A   1      34.007  35.642  31.980  1.00  0.00     0.194 A 
ATOM      7  C   UNL A   1      34.967  34.652  32.164  1.00  0.00     0.079 A 
ATOM      8  N   UNL A   1      35.424  34.876  33.454  1.00  0.00    -0.217 N 
ATOM      9  N   UNL A   1      33.854  36.335  33.157  1.00  0.00    -0.122 NA
ATOM     10  N   UNL A   1      34.642  35.790  34.070  1.00  0.00    -0.061 NA
BRANCH   7  11
ATOM     11  C   UNL A   1      35.367  33.491  31.313  1.00  0.00     0.055 C 
ATOM     12  C   UNL A   1      34.936  32.147  31.881  1.00  0.00     0.011 C 
ENDBRANCH   7  11
BRANCH   8  13
ATOM     13  C   UNL A   1      36.605  34.424  34.083  1.00  0.00     0.067 A 
ATOM     14  C   UNL A   1      36.546  33.838  35.350  1.00  0.00     0.032 A 
ATOM     15  C   UNL A   1      37.845  34.653  33.478  1.00  0.00     0.032 A 
ATOM     16  C   UNL A   1      37.729  33.443  35.982  1.00  0.00     0.048 A 
ATOM     17  C   UNL A   1      39.024  34.293  34.135  1.00  0.00     0.048 A 
ATOM     18  C   UNL A   1      38.972  33.678  35.386  1.00  0.00     0.119 A 
BRANCH  18  19
ATOM     19  O   UNL A   1      40.054  33.273  36.119  1.00  0.00    -0.497 OA
ATOM     20  C   UNL A   1      40.423  34.096  37.219  1.00  0.00     0.278 C 
ENDBRANCH  18  19
ENDBRANCH   8  13
ENDBRANCH   4   6
ENDBRANCH   3   4
ENDBRANCH   2   3
ENDBRANCH   1   2
BRANCH   1  21
ATOM     21  O   UNL A   1      34.728  32.964  27.693  1.00  0.00    -0.458 OA
BRANCH  21  22
ATOM     22  C   UNL A   1      34.781  31.613  27.643  1.00  0.00     0.338 C 
ATOM     23  O   UNL A   1      33.919  30.864  27.212  1.00  0.00    -0.246 OA
BRANCH  22  24
ATOM     24  C   UNL A   1      35.924  31.156  28.439  1.00  0.00     0.060 A 
ATOM     25  C   UNL A   1      36.928  32.094  28.693  1.00  0.00     0.016 A 
ATOM     26  C   UNL A   1      36.127  29.779  28.610  1.00  0.00     0.016 A 
ATOM     27  C   UNL A   1      38.204  31.632  28.932  1.00  0.00     0.010 A 
ATOM     28  C   UNL A   1      37.404  29.321  28.819  1.00  0.00     0.010 A 
ATOM     29  C   UNL A   1      38.435  30.253  28.906  1.00  0.00    -0.014 A 
BRANCH  29  30
ATOM     30  C   UNL A   1      39.793  29.790  29.083  1.00  0.00     0.031 A 
ATOM     31  C   UNL A   1      40.207  29.740  30.504  1.00  0.00     0.074 A 
ATOM     32  C   UNL A   1      40.523  29.310  28.060  1.00  0.00     0.049 A 
ATOM     33  N   UNL A   1      41.134  30.418  31.091  1.00  0.00    -0.248 NA
ATOM     34  C   UNL A   1      39.364  28.952  31.420  1.00  0.00     0.031 C 
ATOM     35  C   UNL A   1      40.083  29.006  26.696  1.00  0.00     0.029 A 
ATOM     36  N   UNL A   1      41.808  28.872  28.071  1.00  0.00    -0.354 N 
ATOM     37  C   UNL A   1      41.131  29.979  32.412  1.00  0.00     0.074 A 
ATOM     38  C   UNL A   1      39.907  29.250  32.598  1.00  0.00     0.031 C 
ATOM     39  C   UNL A   1      41.011  28.219  26.101  1.00  0.00     0.029 A 
ATOM     40  C   UNL A   1      42.147  28.062  26.996  1.00  0.00     0.049 A 
ATOM     41  H   UNL A   1      42.446  29.110  28.781  1.00  0.00     0.167 HD
ATOM     42  C   UNL A   1      42.254  30.027  33.178  1.00  0.00     0.037 A 
ATOM     43  C   UNL A   1      43.234  27.250  26.928  1.00  0.00     0.037 A 
ATOM     44  C   UNL A   1      43.211  30.961  32.644  1.00  0.00     0.049 A 
ATOM     45  C   UNL A   1      44.189  27.707  27.980  1.00  0.00     0.074 A 
ATOM     46  C   UNL A   1      43.172  32.310  32.341  1.00  0.00     0.029 A 
ATOM     47  N   UNL A   1      44.304  30.464  31.973  1.00  0.00    -0.354 N 
ATOM     48  N   UNL A   1      44.831  28.842  27.946  1.00  0.00    -0.248 NA
ATOM     49  C   UNL A   1      44.082  27.095  29.298  1.00  0.00     0.031 C 
ATOM     50  C   UNL A   1      43.921  32.442  31.135  1.00  0.00     0.029 A 
ATOM     51  C   UNL A   1      44.422  31.182  30.808  1.00  0.00     0.049 A 
ATOM     52  H   UNL A   1      44.889  29.731  32.270  1.00  0.00     0.167 HD
ATOM     53  C   UNL A   1      44.838  29.289  29.262  1.00  0.00     0.074 A 
ATOM     54  C   UNL A   1      44.437  28.133  30.059  1.00  0.00     0.031 C 
ATOM     55  C   UNL A   1      44.891  30.621  29.561  1.00  0.00     0.037 A 
BRANCH  42  56
ATOM     56  C   UNL A   1      42.614  28.962  34.189  1.00  0.00     0.058 A 
ATOM     57  C   UNL A   1      42.712  27.621  33.769  1.00  0.00     0.135 A 
ATOM     58  C   UNL A   1      42.598  29.159  35.590  1.00  0.00     0.135 A 
ATOM     59  F   UNL A   1      42.727  27.313  32.463  1.00  0.00    -0.206 F 
ATOM     60  C   UNL A   1      42.713  26.555  34.670  1.00  0.00     0.059 A 
ATOM     61  C   UNL A   1      42.661  28.116  36.504  1.00  0.00     0.059 A 
ATOM     62  F   UNL A   1      42.419  30.361  36.151  1.00  0.00    -0.206 F 
ATOM     63  C   UNL A   1      42.669  26.815  36.036  1.00  0.00     0.060 A 
BRANCH  63  64
ATOM     64  S   UNL A   1      42.545  25.448  37.199  1.00  0.00     0.124 S 
ATOM     65  O   UNL A   1      43.395  24.450  36.560  1.00  0.00    -0.237 OA
ATOM     66  O   UNL A   1      43.065  26.045  38.425  1.00  0.00    -0.237 OA
ATOM     67  O   UNL A   1      41.116  25.148  37.213  1.00  0.00    -0.744 OA
ENDBRANCH  63  64
ENDBRANCH  42  56
BRANCH  43  68
ATOM     68  C   UNL A   1      43.348  25.908  26.291  1.00  0.00     0.058 A 
ATOM     69  C   UNL A   1      44.359  25.649  25.346  1.00  0.00     0.135 A 
ATOM     70  C   UNL A   1      42.673  24.778  26.796  1.00  0.00     0.135 A 
ATOM     71  F   UNL A   1      45.062  26.661  24.815  1.00  0.00    -0.206 F 
ATOM     72  C   UNL A   1      44.728  24.349  24.982  1.00  0.00     0.059 A 
ATOM     73  C   UNL A   1      43.012  23.475  26.435  1.00  0.00     0.059 A 
ATOM     74  F   UNL A   1      41.724  24.893  27.736  1.00  0.00    -0.206 F 
ATOM     75  C   UNL A   1      44.064  23.266  25.554  1.00  0.00     0.060 A 
BRANCH  75  76
ATOM     76  S   UNL A   1      44.673  21.590  25.258  1.00  0.00     0.124 S 
ATOM     77  O   UNL A   1      43.697  20.781  25.980  1.00  0.00    -0.237 OA
ATOM     78  O   UNL A   1      44.628  21.498  23.803  1.00  0.00    -0.237 OA
ATOM     79  O   UNL A   1      46.015  21.610  25.835  1.00  0.00    -0.744 OA
ENDBRANCH  75  76
ENDBRANCH  43  68
BRANCH  55  80
ATOM     80  C   UNL A   1      45.236  31.591  28.460  1.00  0.00     0.058 A 
ATOM     81  C   UNL A   1      44.355  31.984  27.436  1.00  0.00     0.135 A 
ATOM     82  C   UNL A   1      46.473  32.252  28.523  1.00  0.00     0.135 A 
ATOM     83  F   UNL A   1      43.108  31.495  27.372  1.00  0.00    -0.206 F 
ATOM     84  C   UNL A   1      44.712  32.940  26.483  1.00  0.00     0.059 A 
ATOM     85  C   UNL A   1      46.836  33.234  27.606  1.00  0.00     0.059 A 
ATOM     86  F   UNL A   1      47.335  31.974  29.516  1.00  0.00    -0.206 F 
ATOM     87  C   UNL A   1      45.959  33.558  26.574  1.00  0.00     0.060 A 
BRANCH  87  88
ATOM     88  S   UNL A   1      46.403  34.828  25.370  1.00  0.00     0.124 S 
ATOM     89  O   UNL A   1      47.826  34.573  25.168  1.00  0.00    -0.237 OA
ATOM     90  O   UNL A   1      45.537  34.511  24.239  1.00  0.00    -0.237 OA
ATOM     91  O   UNL A   1      46.084  36.077  26.057  1.00  0.00    -0.744 OA
ENDBRANCH  87  88
ENDBRANCH  55  80
ENDBRANCH  29  30
ENDBRANCH  22  24
ENDBRANCH  21  22
ENDBRANCH   1  21
TORSDOF 17
ENDMDL
MODEL 2
REMARK VINA RESULT:     -11.1      4.229      6.768
REMARK SMILES CCc1c(C(=O)OCCOC(=O)c2ccc(-c3c4nc(c(-c5c(F)cc(S(=O)(=O)[O-])cc5F)c5ccc([nH]5)c(-c5c(F)cc(S(=O)(=O)[O-])cc5F)c5nc(c(-c6c(F)cc(S(=O)(=O)[O-])cc6F)c6ccc3[nH]6)C=C5)C=C4)cc2)nnn1-c1ccc(OC)cc1
REMARK SMILES IDX 9 1 8 2 7 3 5 4 6 5 4 6 3 7 81 8 79 9 80 10 2 11 1 12 82 13
REMARK SMILES IDX 83 14 89 15 84 16 88 17 85 18 86 19 87 20 10 21 11 22 12 23
REMARK SMILES IDX 13 24 14 25 78 26 15 27 77 28 16 29 17 30 18 31 71 32 19 33
REMARK SMILES IDX 76 34 70 35 72 36 20 37 75 38 69 39 68 40 21 42 55 43 34 44
REMARK SMILES IDX 54 45 35 46 38 47 53 48 73 49 36 50 37 51 52 53 74 54 39 55
REMARK SMILES IDX 22 56 23 57 32 58 24 59 25 60 31 61 33 62 26 63 27 64 28 65
REMARK SMILES IDX 29 66 30 67 56 68 57 69 66 70 58 71 59 72 65 73 67 74 60 75
REMARK SMILES IDX 61 76 62 77 63 78 64 79 40 80 41 81 50 82 42 83 43 84 49 85
REMARK SMILES IDX 51 86 44 87 45 88 46 89 47 90 48 91
REMARK H PARENT 72 41 38 52
REMARK Flexibility Score: inf
ROOT
ATOM      1  C   UNL A   1      32.860  30.613  27.031  1.00  0.00     0.275 C 
ENDROOT
BRANCH   1   2
ATOM      2  C   UNL A   1      32.544  30.140  25.621  1.00  0.00     0.275 C 
BRANCH   2   3
ATOM      3  O   UNL A   1      31.530  29.123  25.640  1.00  0.00    -0.457 OA
BRANCH   3   4
ATOM      4  C   UNL A   1      30.941  28.813  24.445  1.00  0.00     0.360 C 
ATOM      5  O   UNL A   1      30.653  29.649  23.591  1.00  0.00    -0.244 OA
BRANCH   4   6
ATOM      6  C   UNL A   1      30.729  27.382  24.270  1.00  0.00     0.194 A 
ATOM      7  C   UNL A   1      31.653  26.343  24.267  1.00  0.00     0.079 A 
ATOM      8  N   UNL A   1      30.873  25.213  24.071  1.00  0.00    -0.217 N 
ATOM      9  N   UNL A   1      29.485  26.871  23.985  1.00  0.00    -0.122 NA
ATOM     10  N   UNL A   1      29.607  25.572  23.762  1.00  0.00    -0.061 NA
BRANCH   7  11
ATOM     11  C   UNL A   1      33.147  26.346  24.297  1.00  0.00     0.055 C 
ATOM     12  C   UNL A   1      33.723  26.313  25.703  1.00  0.00     0.011 C 
ENDBRANCH   7  11
BRANCH   8  13
ATOM     13  C   UNL A   1      31.181  23.854  24.303  1.00  0.00     0.067 A 
ATOM     14  C   UNL A   1      30.912  23.275  25.546  1.00  0.00     0.032 A 
ATOM     15  C   UNL A   1      31.847  23.116  23.319  1.00  0.00     0.032 A 
ATOM     16  C   UNL A   1      31.271  21.943  25.778  1.00  0.00     0.048 A 
ATOM     17  C   UNL A   1      32.239  21.799  23.575  1.00  0.00     0.048 A 
ATOM     18  C   UNL A   1      31.945  21.203  24.801  1.00  0.00     0.119 A 
BRANCH  18  19
ATOM     19  O   UNL A   1      32.267  19.923  25.162  1.00  0.00    -0.497 OA
ATOM     20  C   UNL A   1      32.611  19.032  24.108  1.00  0.00     0.278 C 
ENDBRANCH  18  19
ENDBRANCH   8  13
ENDBRANCH   4   6
ENDBRANCH   3   4
ENDBRANCH   2   3
ENDBRANCH   1   2
BRANCH   1  21
ATOM     21  O   UNL A   1      34.227  30.370  27.349  1.00  0.00    -0.458 OA
BRANCH  21  22
ATOM     22  C   UNL A   1      34.879  31.422  27.897  1.00  0.00     0.338 C 
ATOM     23  O   UNL A   1      34.714  32.602  27.629  1.00  0.00    -0.246 OA
BRANCH  22  24
ATOM     24  C   UNL A   1      36.017  30.921  28.671  1.00  0.00     0.060 A 
ATOM     25  C   UNL A   1      37.000  31.850  29.019  1.00  0.00     0.016 A 
ATOM     26  C   UNL A   1      36.242  29.538  28.732  1.00  0.00     0.016 A 
ATOM     27  C   UNL A   1      38.280  31.392  29.241  1.00  0.00     0.010 A 
ATOM     28  C   UNL A   1      37.523  29.085  28.924  1.00  0.00     0.010 A 
ATOM     29  C   UNL A   1      38.536  30.024  29.105  1.00  0.00    -0.014 A 
BRANCH  29  30
ATOM     30  C   UNL A   1      39.899  29.570  29.266  1.00  0.00     0.031 A 
ATOM     31  C   UNL A   1      40.287  29.395  30.685  1.00  0.00     0.074 A 
ATOM     32  C   UNL A   1      40.658  29.201  28.220  1.00  0.00     0.049 A 
ATOM     33  N   UNL A   1      41.189  30.031  31.352  1.00  0.00    -0.248 NA
ATOM     34  C   UNL A   1      39.442  28.510  31.507  1.00  0.00     0.031 C 
ATOM     35  C   UNL A   1      40.250  29.017  26.824  1.00  0.00     0.029 A 
ATOM     36  N   UNL A   1      41.950  28.786  28.216  1.00  0.00    -0.354 N 
ATOM     37  C   UNL A   1      41.170  29.471  32.626  1.00  0.00     0.074 A 
ATOM     38  C   UNL A   1      39.956  28.706  32.718  1.00  0.00     0.031 C 
ATOM     39  C   UNL A   1      41.204  28.306  26.178  1.00  0.00     0.029 A 
ATOM     40  C   UNL A   1      42.325  28.086  27.078  1.00  0.00     0.049 A 
ATOM     41  H   UNL A   1      42.570  28.968  28.959  1.00  0.00     0.167 HD
ATOM     42  C   UNL A   1      42.276  29.467  33.417  1.00  0.00     0.037 A 
ATOM     43  C   UNL A   1      43.429  27.303  26.957  1.00  0.00     0.037 A 
ATOM     44  C   UNL A   1      43.225  30.463  32.992  1.00  0.00     0.049 A 
ATOM     45  C   UNL A   1      44.355  27.676  28.067  1.00  0.00     0.074 A 
ATOM     46  C   UNL A   1      43.165  31.834  32.815  1.00  0.00     0.029 A 
ATOM     47  N   UNL A   1      44.340  30.050  32.300  1.00  0.00    -0.354 N 
ATOM     48  N   UNL A   1      44.975  28.821  28.152  1.00  0.00    -0.248 NA
ATOM     49  C   UNL A   1      44.235  26.942  29.320  1.00  0.00     0.031 C 
ATOM     50  C   UNL A   1      43.934  32.091  31.642  1.00  0.00     0.029 A 
ATOM     51  C   UNL A   1      44.467  30.876  31.210  1.00  0.00     0.049 A 
ATOM     52  H   UNL A   1      44.934  29.303  32.540  1.00  0.00     0.167 HD
ATOM     53  C   UNL A   1      44.949  29.143  29.503  1.00  0.00     0.074 A 
ATOM     54  C   UNL A   1      44.555  27.911  30.181  1.00  0.00     0.031 C 
ATOM     55  C   UNL A   1      44.970  30.443  29.927  1.00  0.00     0.037 A 
BRANCH  42  56
ATOM     56  C   UNL A   1      42.638  28.319  34.332  1.00  0.00     0.058 A 
ATOM     57  C   UNL A   1      42.778  28.559  35.712  1.00  0.00     0.135 A 
ATOM     58  C   UNL A   1      43.115  27.065  33.883  1.00  0.00     0.135 A 
ATOM     59  F   UNL A   1      42.367  29.718  36.250  1.00  0.00    -0.206 F 
ATOM     60  C   UNL A   1      43.416  27.658  36.566  1.00  0.00     0.059 A 
ATOM     61  C   UNL A   1      43.697  26.128  34.726  1.00  0.00     0.059 A 
ATOM     62  F   UNL A   1      43.139  26.719  32.590  1.00  0.00    -0.206 F 
ATOM     63  C   UNL A   1      43.888  26.452  36.056  1.00  0.00     0.060 A 
BRANCH  63  64
ATOM     64  S   UNL A   1      44.818  25.340  37.121  1.00  0.00     0.124 S 
ATOM     65  O   UNL A   1      46.176  25.842  36.946  1.00  0.00    -0.237 OA
ATOM     66  O   UNL A   1      44.206  25.584  38.423  1.00  0.00    -0.237 OA
ATOM     67  O   UNL A   1      44.551  24.024  36.547  1.00  0.00    -0.744 OA
ENDBRANCH  63  64
ENDBRANCH  42  56
BRANCH  43  68
ATOM     68  C   UNL A   1      43.582  26.028  26.201  1.00  0.00     0.058 A 
ATOM     69  C   UNL A   1      44.731  25.792  25.424  1.00  0.00     0.135 A 
ATOM     70  C   UNL A   1      42.763  24.907  26.448  1.00  0.00     0.135 A 
ATOM     71  F   UNL A   1      45.576  26.797  25.143  1.00  0.00    -0.206 F 
ATOM     72  C   UNL A   1      45.087  24.512  24.983  1.00  0.00     0.059 A 
ATOM     73  C   UNL A   1      43.089  23.627  26.004  1.00  0.00     0.059 A 
ATOM     74  F   UNL A   1      41.668  24.997  27.214  1.00  0.00    -0.206 F 
ATOM     75  C   UNL A   1      44.271  23.430  25.303  1.00  0.00     0.060 A 
BRANCH  75  76
ATOM     76  S   UNL A   1      44.828  21.752  24.928  1.00  0.00     0.124 S 
ATOM     77  O   UNL A   1      43.901  20.942  25.712  1.00  0.00    -0.237 OA
ATOM     78  O   UNL A   1      44.664  21.689  23.480  1.00  0.00    -0.237 OA
ATOM     79  O   UNL A   1      46.212  21.742  25.394  1.00  0.00    -0.744 OA
ENDBRANCH  75  76
ENDBRANCH  43  68
BRANCH  55  80
ATOM     80  C   UNL A   1      45.317  31.517  28.928  1.00  0.00     0.058 A 
ATOM     81  C   UNL A   1      46.626  31.924  28.614  1.00  0.00     0.135 A 
ATOM     82  C   UNL A   1      44.278  32.067  28.161  1.00  0.00     0.135 A 
ATOM     83  F   UNL A   1      47.687  31.363  29.212  1.00  0.00    -0.206 F 
ATOM     84  C   UNL A   1      46.884  32.879  27.628  1.00  0.00     0.059 A 
ATOM     85  C   UNL A   1      44.515  32.993  27.148  1.00  0.00     0.059 A 
ATOM     86  F   UNL A   1      43.009  31.672  28.362  1.00  0.00    -0.206 F 
ATOM     87  C   UNL A   1      45.819  33.411  26.902  1.00  0.00     0.060 A 
BRANCH  87  88
ATOM     88  S   UNL A   1      46.156  34.612  25.596  1.00  0.00     0.124 S 
ATOM     89  O   UNL A   1      45.257  34.169  24.535  1.00  0.00    -0.237 OA
ATOM     90  O   UNL A   1      45.811  35.880  26.231  1.00  0.00    -0.237 OA
ATOM     91  O   UNL A   1      47.580  34.430  25.323  1.00  0.00    -0.744 OA
ENDBRANCH  87  88
ENDBRANCH  55  80
ENDBRANCH  29  30
ENDBRANCH  22  24
ENDBRANCH  21  22
ENDBRANCH   1  21
TORSDOF 17
ENDMDL
MODEL 3
REMARK VINA RESULT:     -11.0      3.871     11.273
REMARK SMILES CCc1c(C(=O)OCCOC(=O)c2ccc(-c3c4nc(c(-c5c(F)cc(S(=O)(=O)[O-])cc5F)c5ccc([nH]5)c(-c5c(F)cc(S(=O)(=O)[O-])cc5F)c5nc(c(-c6c(F)cc(S(=O)(=O)[O-])cc6F)c6ccc3[nH]6)C=C5)C=C4)cc2)nnn1-c1ccc(OC)cc1
REMARK SMILES IDX 9 1 8 2 7 3 5 4 6 5 4 6 3 7 81 8 79 9 80 10 2 11 1 12 82 13
REMARK SMILES IDX 83 14 89 15 84 16 88 17 85 18 86 19 87 20 10 21 11 22 12 23
REMARK SMILES IDX 13 24 14 25 78 26 15 27 77 28 16 29 17 30 18 31 71 32 19 33
REMARK SMILES IDX 76 34 70 35 72 36 20 37 75 38 69 39 68 40 21 42 55 43 34 44
REMARK SMILES IDX 54 45 35 46 38 47 53 48 73 49 36 50 37 51 52 53 74 54 39 55
REMARK SMILES IDX 22 56 23 57 32 58 24 59 25 60 31 61 33 62 26 63 27 64 28 65
REMARK SMILES IDX 29 66 30 67 56 68 57 69 66 70 58 71 59 72 65 73 67 74 60 75
REMARK SMILES IDX 61 76 62 77 63 78 64 79 40 80 41 81 50 82 42 83 43 84 49 85
REMARK SMILES IDX 51 86 44 87 45 88 46 89 47 90 48 91
REMARK H PARENT 72 41 38 52
REMARK Flexibility Score: inf
ROOT
ATOM      1  C   UNL A   1      41.647  19.671  26.058  1.00  0.00     0.275 C 
ENDROOT
BRANCH   1   2
ATOM      2  C   UNL A   1      40.689  20.497  26.902  1.00  0.00     0.275 C 
BRANCH   2   3
ATOM      3  O   UNL A   1      40.041  21.499  26.103  1.00  0.00    -0.457 OA
BRANCH   3   4
ATOM      4  C   UNL A   1      38.807  21.188  25.600  1.00  0.00     0.360 C 
ATOM      5  O   UNL A   1      38.527  20.094  25.116  1.00  0.00    -0.244 OA
BRANCH   4   6
ATOM      6  C   UNL A   1      37.847  22.275  25.737  1.00  0.00     0.194 A 
ATOM      7  C   UNL A   1      36.546  22.375  25.254  1.00  0.00     0.079 A 
ATOM      8  N   UNL A   1      36.127  23.619  25.702  1.00  0.00    -0.217 N 
ATOM      9  N   UNL A   1      38.187  23.460  26.346  1.00  0.00    -0.122 NA
ATOM     10  N   UNL A   1      37.172  24.301  26.223  1.00  0.00    -0.061 NA
BRANCH   7  11
ATOM     11  C   UNL A   1      35.759  21.494  24.340  1.00  0.00     0.055 C 
ATOM     12  C   UNL A   1      35.028  20.374  25.062  1.00  0.00     0.011 C 
ENDBRANCH   7  11
BRANCH   8  13
ATOM     13  C   UNL A   1      34.819  24.141  25.818  1.00  0.00     0.067 A 
ATOM     14  C   UNL A   1      33.872  23.490  26.613  1.00  0.00     0.032 A 
ATOM     15  C   UNL A   1      34.446  25.255  25.059  1.00  0.00     0.032 A 
ATOM     16  C   UNL A   1      32.567  23.989  26.677  1.00  0.00     0.048 A 
ATOM     17  C   UNL A   1      33.130  25.721  25.097  1.00  0.00     0.048 A 
ATOM     18  C   UNL A   1      32.186  25.097  25.912  1.00  0.00     0.119 A 
BRANCH  18  19
ATOM     19  O   UNL A   1      30.875  25.467  26.040  1.00  0.00    -0.497 OA
ATOM     20  C   UNL A   1      30.420  26.507  25.184  1.00  0.00     0.278 C 
ENDBRANCH  18  19
ENDBRANCH   8  13
ENDBRANCH   4   6
ENDBRANCH   3   4
ENDBRANCH   2   3
ENDBRANCH   1   2
BRANCH   1  21
ATOM     21  O   UNL A   1      42.999  20.021  26.342  1.00  0.00    -0.458 OA
BRANCH  21  22
ATOM     22  C   UNL A   1      43.682  20.542  25.297  1.00  0.00     0.338 C 
ATOM     23  O   UNL A   1      44.221  19.921  24.395  1.00  0.00    -0.246 OA
BRANCH  22  24
ATOM     24  C   UNL A   1      43.918  21.966  25.551  1.00  0.00     0.060 A 
ATOM     25  C   UNL A   1      44.746  22.284  26.631  1.00  0.00     0.016 A 
ATOM     26  C   UNL A   1      43.072  22.913  24.956  1.00  0.00     0.016 A 
ATOM     27  C   UNL A   1      44.581  23.508  27.241  1.00  0.00     0.010 A 
ATOM     28  C   UNL A   1      42.886  24.120  25.583  1.00  0.00     0.010 A 
ATOM     29  C   UNL A   1      43.592  24.371  26.757  1.00  0.00    -0.014 A 
BRANCH  29  30
ATOM     30  C   UNL A   1      43.380  25.618  27.456  1.00  0.00     0.031 A 
ATOM     31  C   UNL A   1      44.437  26.619  27.187  1.00  0.00     0.074 A 
ATOM     32  C   UNL A   1      42.251  25.870  28.142  1.00  0.00     0.049 A 
ATOM     33  N   UNL A   1      45.278  27.137  28.018  1.00  0.00    -0.248 NA
ATOM     34  C   UNL A   1      44.696  26.959  25.777  1.00  0.00     0.031 C 
ATOM     35  C   UNL A   1      41.017  25.080  28.179  1.00  0.00     0.029 A 
ATOM     36  N   UNL A   1      41.928  26.972  28.865  1.00  0.00    -0.354 N 
ATOM     37  C   UNL A   1      46.032  28.034  27.267  1.00  0.00     0.074 A 
ATOM     38  C   UNL A   1      45.776  27.729  25.886  1.00  0.00     0.031 C 
ATOM     39  C   UNL A   1      40.020  25.846  28.682  1.00  0.00     0.029 A 
ATOM     40  C   UNL A   1      40.569  27.126  29.100  1.00  0.00     0.049 A 
ATOM     41  H   UNL A   1      42.601  27.609  29.194  1.00  0.00     0.167 HD
ATOM     42  C   UNL A   1      46.609  29.127  27.836  1.00  0.00     0.037 A 
ATOM     43  C   UNL A   1      39.960  28.271  29.504  1.00  0.00     0.037 A 
ATOM     44  C   UNL A   1      46.734  28.968  29.262  1.00  0.00     0.049 A 
ATOM     45  C   UNL A   1      41.022  29.162  30.056  1.00  0.00     0.074 A 
ATOM     46  C   UNL A   1      47.344  28.029  30.075  1.00  0.00     0.029 A 
ATOM     47  N   UNL A   1      45.852  29.642  30.073  1.00  0.00    -0.354 N 
ATOM     48  N   UNL A   1      41.677  28.928  31.160  1.00  0.00    -0.248 NA
ATOM     49  C   UNL A   1      41.672  30.087  29.136  1.00  0.00     0.031 C 
ATOM     50  C   UNL A   1      46.453  27.856  31.175  1.00  0.00     0.029 A 
ATOM     51  C   UNL A   1      45.388  28.741  31.000  1.00  0.00     0.049 A 
ATOM     52  H   UNL A   1      45.599  30.590  30.002  1.00  0.00     0.167 HD
ATOM     53  C   UNL A   1      42.981  29.326  30.895  1.00  0.00     0.074 A 
ATOM     54  C   UNL A   1      42.898  30.108  29.664  1.00  0.00     0.031 C 
ATOM     55  C   UNL A   1      44.045  28.755  31.534  1.00  0.00     0.037 A 
BRANCH  42  56
ATOM     56  C   UNL A   1      46.715  30.465  27.141  1.00  0.00     0.058 A 
ATOM     57  C   UNL A   1      47.957  31.129  27.116  1.00  0.00     0.135 A 
ATOM     58  C   UNL A   1      45.603  31.243  26.741  1.00  0.00     0.135 A 
ATOM     59  F   UNL A   1      49.081  30.493  27.482  1.00  0.00    -0.206 F 
ATOM     60  C   UNL A   1      48.073  32.483  26.796  1.00  0.00     0.059 A 
ATOM     61  C   UNL A   1      45.706  32.574  26.360  1.00  0.00     0.059 A 
ATOM     62  F   UNL A   1      44.345  30.790  26.795  1.00  0.00    -0.206 F 
ATOM     63  C   UNL A   1      46.936  33.199  26.436  1.00  0.00     0.060 A 
BRANCH  63  64
ATOM     64  S   UNL A   1      47.057  34.970  26.143  1.00  0.00     0.124 S 
ATOM     65  O   UNL A   1      45.658  35.324  25.935  1.00  0.00    -0.237 OA
ATOM     66  O   UNL A   1      47.661  35.443  27.384  1.00  0.00    -0.237 OA
ATOM     67  O   UNL A   1      47.913  35.057  24.964  1.00  0.00    -0.744 OA
ENDBRANCH  63  64
ENDBRANCH  42  56
BRANCH  43  68
ATOM     68  C   UNL A   1      38.619  28.793  29.116  1.00  0.00     0.058 A 
ATOM     69  C   UNL A   1      37.622  28.996  30.089  1.00  0.00     0.135 A 
ATOM     70  C   UNL A   1      38.378  29.376  27.855  1.00  0.00     0.135 A 
ATOM     71  F   UNL A   1      37.767  28.486  31.322  1.00  0.00    -0.206 F 
ATOM     72  C   UNL A   1      36.494  29.789  29.850  1.00  0.00     0.059 A 
ATOM     73  C   UNL A   1      37.253  30.155  27.590  1.00  0.00     0.059 A 
ATOM     74  F   UNL A   1      39.275  29.293  26.863  1.00  0.00    -0.206 F 
ATOM     75  C   UNL A   1      36.333  30.388  28.603  1.00  0.00     0.060 A 
BRANCH  75  76
ATOM     76  S   UNL A   1      34.999  31.582  28.354  1.00  0.00     0.124 S 
ATOM     77  O   UNL A   1      35.660  32.613  27.561  1.00  0.00    -0.237 OA
ATOM     78  O   UNL A   1      33.997  30.785  27.657  1.00  0.00    -0.237 OA
ATOM     79  O   UNL A   1      34.639  31.977  29.713  1.00  0.00    -0.744 OA
ENDBRANCH  75  76
ENDBRANCH  43  68
BRANCH  55  80
ATOM     80  C   UNL A   1      43.778  27.892  32.741  1.00  0.00     0.058 A 
ATOM     81  C   UNL A   1      43.696  26.488  32.717  1.00  0.00     0.135 A 
ATOM     82  C   UNL A   1      43.734  28.510  34.000  1.00  0.00     0.135 A 
ATOM     83  F   UNL A   1      43.851  25.806  31.573  1.00  0.00    -0.206 F 
ATOM     84  C   UNL A   1      43.514  25.740  33.882  1.00  0.00     0.059 A 
ATOM     85  C   UNL A   1      43.590  27.783  35.178  1.00  0.00     0.059 A 
ATOM     86  F   UNL A   1      43.874  29.843  34.101  1.00  0.00    -0.206 F 
ATOM     87  C   UNL A   1      43.458  26.398  35.110  1.00  0.00     0.060 A 
BRANCH  87  88
ATOM     88  S   UNL A   1      43.270  25.429  36.622  1.00  0.00     0.124 S 
ATOM     89  O   UNL A   1      41.955  25.851  37.094  1.00  0.00    -0.237 OA
ATOM     90  O   UNL A   1      43.357  24.056  36.133  1.00  0.00    -0.237 OA
ATOM     91  O   UNL A   1      44.396  25.859  37.447  1.00  0.00    -0.744 OA
ENDBRANCH  87  88
ENDBRANCH  55  80
ENDBRANCH  29  30
ENDBRANCH  22  24
ENDBRANCH  21  22
ENDBRANCH   1  21
TORSDOF 17
ENDMDL
