MODEL 1
REMARK VINA RESULT:     -11.3      0.000      0.000
REMARK SMILES O=C(OCCOC(=O)c1cc(S(=O)(=O)C/C(Cl)=C/Cl)ccc1Cl)c1ccc(-c2c3nc(c(-c4c(F)cc(S(=O)(=O)[O-])cc4F)c4ccc([nH]4)c(-c4c(F)cc(S(=O)(=O)[O-])cc4F)c4nc(c(-c5c(F)cc(S(=O)(=O)[O-])cc5F)c5ccc2[nH]5)C=C4)C=C3)cc1
REMARK SMILES IDX 4 1 3 2 2 3 1 4 24 5 25 6 89 7 26 8 88 9 27 10 28 11 29 12
REMARK SMILES IDX 82 13 30 14 87 15 81 16 83 17 31 18 86 19 80 20 79 21 32 23
REMARK SMILES IDX 66 24 45 25 65 26 46 27 49 28 64 29 84 30 47 31 48 32 63 34
REMARK SMILES IDX 85 35 50 36 33 37 34 38 43 39 35 40 36 41 42 42 44 43 37 44
REMARK SMILES IDX 38 45 39 46 40 47 41 48 67 49 68 50 77 51 69 52 70 53 76 54
REMARK SMILES IDX 78 55 71 56 72 57 73 58 74 59 75 60 51 61 52 62 61 63 53 64
REMARK SMILES IDX 54 65 60 66 62 67 55 68 56 69 57 70 58 71 59 72 5 73 6 74
REMARK SMILES IDX 7 75 8 76 9 77 10 78 22 79 11 80 21 81 23 82 20 83 12 84
REMARK SMILES IDX 13 85 14 86 15 87 16 88 17 89 18 90 19 91
REMARK H PARENT 83 22 49 33
REMARK Flexibility Score: inf
ROOT
ATOM      1  C   UNL A   1      39.324  22.666  26.796  1.00  0.00     0.275 C 
ENDROOT
BRANCH   1   2
ATOM      2  O   UNL A   1      39.857  23.950  26.433  1.00  0.00    -0.458 OA
BRANCH   2   3
ATOM      3  C   UNL A   1      40.974  24.581  26.863  1.00  0.00     0.338 C 
ATOM      4  O   UNL A   1      42.065  24.123  26.529  1.00  0.00    -0.246 OA
BRANCH   3   5
ATOM      5  C   UNL A   1      40.967  25.728  27.827  1.00  0.00     0.060 A 
ATOM      6  C   UNL A   1      41.984  26.667  28.019  1.00  0.00     0.016 A 
ATOM      7  C   UNL A   1      39.822  25.839  28.631  1.00  0.00     0.016 A 
ATOM      8  C   UNL A   1      41.834  27.729  28.921  1.00  0.00     0.010 A 
ATOM      9  C   UNL A   1      39.662  26.899  29.525  1.00  0.00     0.010 A 
ATOM     10  C   UNL A   1      40.671  27.854  29.680  1.00  0.00    -0.014 A 
BRANCH  10  11
ATOM     11  C   UNL A   1      40.563  28.867  30.754  1.00  0.00     0.031 A 
ATOM     12  C   UNL A   1      41.355  28.657  32.011  1.00  0.00     0.074 A 
ATOM     13  C   UNL A   1      39.754  29.935  30.627  1.00  0.00     0.049 A 
ATOM     14  N   UNL A   1      41.391  29.382  33.095  1.00  0.00    -0.248 NA
ATOM     15  C   UNL A   1      42.230  27.472  32.043  1.00  0.00     0.031 C 
ATOM     16  C   UNL A   1      38.980  30.269  29.435  1.00  0.00     0.029 A 
ATOM     17  N   UNL A   1      39.423  30.920  31.522  1.00  0.00    -0.354 N 
ATOM     18  C   UNL A   1      42.305  28.753  33.931  1.00  0.00     0.074 A 
ATOM     19  C   UNL A   1      42.743  27.550  33.259  1.00  0.00     0.031 C 
ATOM     20  C   UNL A   1      38.197  31.329  29.698  1.00  0.00     0.029 A 
ATOM     21  C   UNL A   1      38.427  31.756  31.075  1.00  0.00     0.049 A 
ATOM     22  H   UNL A   1      39.856  31.018  32.401  1.00  0.00     0.167 HD
ATOM     23  C   UNL A   1      42.767  29.162  35.135  1.00  0.00     0.037 A 
ATOM     24  C   UNL A   1      37.766  32.743  31.711  1.00  0.00     0.037 A 
ATOM     25  C   UNL A   1      42.304  30.347  35.801  1.00  0.00     0.049 A 
ATOM     26  C   UNL A   1      38.212  33.132  33.095  1.00  0.00     0.074 A 
ATOM     27  C   UNL A   1      42.725  30.884  37.002  1.00  0.00     0.029 A 
ATOM     28  N   UNL A   1      41.291  31.166  35.323  1.00  0.00    -0.354 N 
ATOM     29  N   UNL A   1      39.148  32.585  33.836  1.00  0.00    -0.248 NA
ATOM     30  C   UNL A   1      37.553  34.287  33.716  1.00  0.00     0.031 C 
ATOM     31  C   UNL A   1      41.936  32.008  37.270  1.00  0.00     0.029 A 
ATOM     32  C   UNL A   1      41.054  32.195  36.215  1.00  0.00     0.049 A 
ATOM     33  H   UNL A   1      40.812  31.035  34.472  1.00  0.00     0.167 HD
ATOM     34  C   UNL A   1      39.227  33.360  34.987  1.00  0.00     0.074 A 
ATOM     35  C   UNL A   1      38.229  34.403  34.852  1.00  0.00     0.031 C 
ATOM     36  C   UNL A   1      40.063  33.233  36.047  1.00  0.00     0.037 A 
BRANCH  23  37
ATOM     37  C   UNL A   1      43.814  28.299  35.779  1.00  0.00     0.058 A 
ATOM     38  C   UNL A   1      43.467  27.305  36.712  1.00  0.00     0.135 A 
ATOM     39  C   UNL A   1      45.176  28.512  35.525  1.00  0.00     0.135 A 
ATOM     40  F   UNL A   1      42.177  27.075  37.007  1.00  0.00    -0.206 F 
ATOM     41  C   UNL A   1      44.435  26.599  37.416  1.00  0.00     0.059 A 
ATOM     42  C   UNL A   1      46.163  27.797  36.199  1.00  0.00     0.059 A 
ATOM     43  F   UNL A   1      45.562  29.448  34.644  1.00  0.00    -0.206 F 
ATOM     44  C   UNL A   1      45.782  26.865  37.164  1.00  0.00     0.060 A 
BRANCH  44  45
ATOM     45  S   UNL A   1      47.029  25.993  38.135  1.00  0.00     0.124 S 
ATOM     46  O   UNL A   1      46.407  25.975  39.455  1.00  0.00    -0.237 OA
ATOM     47  O   UNL A   1      47.111  24.703  37.457  1.00  0.00    -0.237 OA
ATOM     48  O   UNL A   1      48.211  26.840  38.008  1.00  0.00    -0.744 OA
ENDBRANCH  44  45
ENDBRANCH  23  37
BRANCH  24  49
ATOM     49  C   UNL A   1      36.631  33.427  31.036  1.00  0.00     0.058 A 
ATOM     50  C   UNL A   1      36.829  34.279  29.940  1.00  0.00     0.135 A 
ATOM     51  C   UNL A   1      35.308  33.205  31.457  1.00  0.00     0.135 A 
ATOM     52  F   UNL A   1      38.072  34.525  29.500  1.00  0.00    -0.206 F 
ATOM     53  C   UNL A   1      35.761  34.893  29.291  1.00  0.00     0.059 A 
ATOM     54  C   UNL A   1      34.224  33.796  30.816  1.00  0.00     0.059 A 
ATOM     55  F   UNL A   1      35.060  32.379  32.487  1.00  0.00    -0.206 F 
ATOM     56  C   UNL A   1      34.461  34.641  29.733  1.00  0.00     0.060 A 
BRANCH  56  57
ATOM     57  S   UNL A   1      33.080  35.393  28.842  1.00  0.00     0.124 S 
ATOM     58  O   UNL A   1      32.264  35.903  29.938  1.00  0.00    -0.237 OA
ATOM     59  O   UNL A   1      33.757  36.396  28.027  1.00  0.00    -0.237 OA
ATOM     60  O   UNL A   1      32.509  34.272  28.099  1.00  0.00    -0.744 OA
ENDBRANCH  56  57
ENDBRANCH  24  49
BRANCH  36  61
ATOM     61  C   UNL A   1      39.980  34.271  37.127  1.00  0.00     0.058 A 
ATOM     62  C   UNL A   1      40.623  35.511  37.009  1.00  0.00     0.135 A 
ATOM     63  C   UNL A   1      39.153  34.058  38.243  1.00  0.00     0.135 A 
ATOM     64  F   UNL A   1      41.432  35.756  35.967  1.00  0.00    -0.206 F 
ATOM     65  C   UNL A   1      40.446  36.509  37.961  1.00  0.00     0.059 A 
ATOM     66  C   UNL A   1      38.943  35.049  39.194  1.00  0.00     0.059 A 
ATOM     67  F   UNL A   1      38.510  32.889  38.395  1.00  0.00    -0.206 F 
ATOM     68  C   UNL A   1      39.597  36.272  39.045  1.00  0.00     0.060 A 
BRANCH  68  69
ATOM     69  S   UNL A   1      39.308  37.605  40.227  1.00  0.00     0.124 S 
ATOM     70  O   UNL A   1      38.885  36.862  41.410  1.00  0.00    -0.237 OA
ATOM     71  O   UNL A   1      40.620  38.239  40.312  1.00  0.00    -0.237 OA
ATOM     72  O   UNL A   1      38.272  38.409  39.586  1.00  0.00    -0.744 OA
ENDBRANCH  68  69
ENDBRANCH  36  61
ENDBRANCH  10  11
ENDBRANCH   3   5
ENDBRANCH   2   3
ENDBRANCH   1   2
BRANCH   1  73
ATOM     73  C   UNL A   1      38.435  22.028  25.732  1.00  0.00     0.275 C 
BRANCH  73  74
ATOM     74  O   UNL A   1      37.057  22.417  25.834  1.00  0.00    -0.458 OA
BRANCH  74  75
ATOM     75  C   UNL A   1      36.443  22.730  24.665  1.00  0.00     0.339 C 
ATOM     76  O   UNL A   1      36.969  23.158  23.651  1.00  0.00    -0.246 OA
BRANCH  75  77
ATOM     77  C   UNL A   1      35.013  22.378  24.740  1.00  0.00     0.080 A 
ATOM     78  C   UNL A   1      34.657  21.035  24.545  1.00  0.00     0.037 A 
ATOM     79  C   UNL A   1      34.020  23.336  24.958  1.00  0.00     0.055 A 
ATOM     80  C   UNL A   1      33.311  20.640  24.633  1.00  0.00     0.068 A 
ATOM     81  C   UNL A   1      32.680  22.938  25.004  1.00  0.00     0.023 A 
ATOM     82  Cl  UNL A   1      34.366  25.018  25.133  1.00  0.00    -0.083 Cl
ATOM     83  C   UNL A   1      32.322  21.593  24.852  1.00  0.00     0.022 A 
BRANCH  80  84
ATOM     84  S   UNL A   1      32.950  18.910  24.422  1.00  0.00     0.183 S 
ATOM     85  O   UNL A   1      32.272  18.523  25.648  1.00  0.00    -0.223 OA
ATOM     86  O   UNL A   1      32.257  18.782  23.152  1.00  0.00    -0.223 OA
BRANCH  84  87
ATOM     87  C   UNL A   1      34.444  17.953  24.340  1.00  0.00     0.191 C 
BRANCH  87  88
ATOM     88  C   UNL A   1      34.273  16.537  24.810  1.00  0.00     0.045 C 
ATOM     89  Cl  UNL A   1      35.698  15.828  25.508  1.00  0.00    -0.087 Cl
ATOM     90  C   UNL A   1      33.092  15.904  24.862  1.00  0.00     0.097 C 
ATOM     91  Cl  UNL A   1      32.822  14.337  25.500  1.00  0.00    -0.092 Cl
ENDBRANCH  87  88
ENDBRANCH  84  87
ENDBRANCH  80  84
ENDBRANCH  75  77
ENDBRANCH  74  75
ENDBRANCH  73  74
ENDBRANCH   1  73
TORSDOF 17
ENDMDL
MODEL 2
REMARK VINA RESULT:     -11.3      5.930     12.725
REMARK SMILES O=C(OCCOC(=O)c1cc(S(=O)(=O)C/C(Cl)=C/Cl)ccc1Cl)c1ccc(-c2c3nc(c(-c4c(F)cc(S(=O)(=O)[O-])cc4F)c4ccc([nH]4)c(-c4c(F)cc(S(=O)(=O)[O-])cc4F)c4nc(c(-c5c(F)cc(S(=O)(=O)[O-])cc5F)c5ccc2[nH]5)C=C4)C=C3)cc1
REMARK SMILES IDX 4 1 3 2 2 3 1 4 24 5 25 6 89 7 26 8 88 9 27 10 28 11 29 12
REMARK SMILES IDX 82 13 30 14 87 15 81 16 83 17 31 18 86 19 80 20 79 21 32 23
REMARK SMILES IDX 66 24 45 25 65 26 46 27 49 28 64 29 84 30 47 31 48 32 63 34
REMARK SMILES IDX 85 35 50 36 33 37 34 38 43 39 35 40 36 41 42 42 44 43 37 44
REMARK SMILES IDX 38 45 39 46 40 47 41 48 67 49 68 50 77 51 69 52 70 53 76 54
REMARK SMILES IDX 78 55 71 56 72 57 73 58 74 59 75 60 51 61 52 62 61 63 53 64
REMARK SMILES IDX 54 65 60 66 62 67 55 68 56 69 57 70 58 71 59 72 5 73 6 74
REMARK SMILES IDX 7 75 8 76 9 77 10 78 22 79 11 80 21 81 23 82 20 83 12 84
REMARK SMILES IDX 13 85 14 86 15 87 16 88 17 89 18 90 19 91
REMARK H PARENT 83 22 49 33
REMARK Flexibility Score: inf
ROOT
ATOM      1  C   UNL A   1      34.091  32.651  29.107  1.00  0.00     0.275 C 
ENDROOT
BRANCH   1   2
ATOM      2  O   UNL A   1      34.024  31.767  27.976  1.00  0.00    -0.458 OA
BRANCH   2   3
ATOM      3  C   UNL A   1      34.466  30.495  27.840  1.00  0.00     0.338 C 
ATOM      4  O   UNL A   1      33.676  29.646  27.430  1.00  0.00    -0.246 OA
BRANCH   3   5
ATOM      5  C   UNL A   1      35.820  30.029  28.280  1.00  0.00     0.060 A 
ATOM      6  C   UNL A   1      36.189  29.619  29.564  1.00  0.00     0.016 A 
ATOM      7  C   UNL A   1      36.816  30.035  27.290  1.00  0.00     0.016 A 
ATOM      8  C   UNL A   1      37.483  29.154  29.837  1.00  0.00     0.010 A 
ATOM      9  C   UNL A   1      38.104  29.564  27.553  1.00  0.00     0.010 A 
ATOM     10  C   UNL A   1      38.449  29.122  28.833  1.00  0.00    -0.014 A 
BRANCH  10  11
ATOM     11  C   UNL A   1      39.861  28.794  29.140  1.00  0.00     0.031 A 
ATOM     12  C   UNL A   1      40.743  29.884  29.674  1.00  0.00     0.074 A 
ATOM     13  C   UNL A   1      40.354  27.562  28.917  1.00  0.00     0.049 A 
ATOM     14  N   UNL A   1      42.012  29.845  29.977  1.00  0.00    -0.248 NA
ATOM     15  C   UNL A   1      40.102  31.189  29.907  1.00  0.00     0.031 C 
ATOM     16  C   UNL A   1      39.581  26.416  28.451  1.00  0.00     0.029 A 
ATOM     17  N   UNL A   1      41.633  27.077  29.023  1.00  0.00    -0.354 N 
ATOM     18  C   UNL A   1      42.318  31.113  30.452  1.00  0.00     0.074 A 
ATOM     19  C   UNL A   1      41.122  31.917  30.329  1.00  0.00     0.031 C 
ATOM     20  C   UNL A   1      40.411  25.383  28.225  1.00  0.00     0.029 A 
ATOM     21  C   UNL A   1      41.774  25.795  28.547  1.00  0.00     0.049 A 
ATOM     22  H   UNL A   1      42.378  27.597  29.402  1.00  0.00     0.167 HD
ATOM     23  C   UNL A   1      43.481  31.558  30.981  1.00  0.00     0.037 A 
ATOM     24  C   UNL A   1      42.881  25.046  28.375  1.00  0.00     0.037 A 
ATOM     25  C   UNL A   1      44.667  30.754  31.073  1.00  0.00     0.049 A 
ATOM     26  C   UNL A   1      44.197  25.583  28.870  1.00  0.00     0.074 A 
ATOM     27  C   UNL A   1      45.891  31.081  31.624  1.00  0.00     0.029 A 
ATOM     28  N   UNL A   1      44.777  29.463  30.576  1.00  0.00    -0.354 N 
ATOM     29  N   UNL A   1      44.452  26.753  29.408  1.00  0.00    -0.248 NA
ATOM     30  C   UNL A   1      45.364  24.697  28.777  1.00  0.00     0.031 C 
ATOM     31  C   UNL A   1      46.756  29.998  31.423  1.00  0.00     0.029 A 
ATOM     32  C   UNL A   1      46.056  28.983  30.786  1.00  0.00     0.049 A 
ATOM     33  H   UNL A   1      44.050  28.962  30.139  1.00  0.00     0.167 HD
ATOM     34  C   UNL A   1      45.795  26.725  29.767  1.00  0.00     0.074 A 
ATOM     35  C   UNL A   1      46.303  25.428  29.366  1.00  0.00     0.031 C 
ATOM     36  C   UNL A   1      46.532  27.678  30.390  1.00  0.00     0.037 A 
BRANCH  23  37
ATOM     37  C   UNL A   1      43.492  32.975  31.478  1.00  0.00     0.058 A 
ATOM     38  C   UNL A   1      43.842  34.042  30.632  1.00  0.00     0.135 A 
ATOM     39  C   UNL A   1      43.229  33.265  32.824  1.00  0.00     0.135 A 
ATOM     40  F   UNL A   1      44.125  33.816  29.339  1.00  0.00    -0.206 F 
ATOM     41  C   UNL A   1      43.992  35.336  31.117  1.00  0.00     0.059 A 
ATOM     42  C   UNL A   1      43.345  34.559  33.326  1.00  0.00     0.059 A 
ATOM     43  F   UNL A   1      42.890  32.284  33.675  1.00  0.00    -0.206 F 
ATOM     44  C   UNL A   1      43.757  35.581  32.471  1.00  0.00     0.060 A 
BRANCH  44  45
ATOM     45  S   UNL A   1      44.024  37.251  33.104  1.00  0.00     0.124 S 
ATOM     46  O   UNL A   1      45.389  37.153  33.612  1.00  0.00    -0.237 OA
ATOM     47  O   UNL A   1      43.852  38.071  31.910  1.00  0.00    -0.237 OA
ATOM     48  O   UNL A   1      42.985  37.399  34.118  1.00  0.00    -0.744 OA
ENDBRANCH  44  45
ENDBRANCH  23  37
BRANCH  24  49
ATOM     49  C   UNL A   1      42.779  23.715  27.719  1.00  0.00     0.058 A 
ATOM     50  C   UNL A   1      42.966  23.556  26.338  1.00  0.00     0.135 A 
ATOM     51  C   UNL A   1      42.527  22.559  28.479  1.00  0.00     0.135 A 
ATOM     52  F   UNL A   1      43.207  24.628  25.568  1.00  0.00    -0.206 F 
ATOM     53  C   UNL A   1      42.900  22.304  25.732  1.00  0.00     0.059 A 
ATOM     54  C   UNL A   1      42.470  21.296  27.898  1.00  0.00     0.059 A 
ATOM     55  F   UNL A   1      42.364  22.651  29.809  1.00  0.00    -0.206 F 
ATOM     56  C   UNL A   1      42.657  21.179  26.521  1.00  0.00     0.060 A 
BRANCH  56  57
ATOM     57  S   UNL A   1      42.637  19.553  25.732  1.00  0.00     0.124 S 
ATOM     58  O   UNL A   1      43.551  19.755  24.614  1.00  0.00    -0.237 OA
ATOM     59  O   UNL A   1      43.119  18.691  26.806  1.00  0.00    -0.237 OA
ATOM     60  O   UNL A   1      41.233  19.371  25.374  1.00  0.00    -0.744 OA
ENDBRANCH  56  57
ENDBRANCH  24  49
BRANCH  36  61
ATOM     61  C   UNL A   1      47.955  27.344  30.729  1.00  0.00     0.058 A 
ATOM     62  C   UNL A   1      48.287  26.612  31.878  1.00  0.00     0.135 A 
ATOM     63  C   UNL A   1      48.985  27.669  29.831  1.00  0.00     0.135 A 
ATOM     64  F   UNL A   1      47.339  26.288  32.771  1.00  0.00    -0.206 F 
ATOM     65  C   UNL A   1      49.595  26.209  32.124  1.00  0.00     0.059 A 
ATOM     66  C   UNL A   1      50.295  27.256  30.045  1.00  0.00     0.059 A 
ATOM     67  F   UNL A   1      48.714  28.363  28.713  1.00  0.00    -0.206 F 
ATOM     68  C   UNL A   1      50.591  26.527  31.196  1.00  0.00     0.060 A 
BRANCH  68  69
ATOM     69  S   UNL A   1      52.268  25.924  31.483  1.00  0.00     0.124 S 
ATOM     70  O   UNL A   1      52.855  26.049  30.153  1.00  0.00    -0.237 OA
ATOM     71  O   UNL A   1      52.768  26.857  32.488  1.00  0.00    -0.237 OA
ATOM     72  O   UNL A   1      52.061  24.559  31.954  1.00  0.00    -0.744 OA
ENDBRANCH  68  69
ENDBRANCH  36  61
ENDBRANCH  10  11
ENDBRANCH   3   5
ENDBRANCH   2   3
ENDBRANCH   1   2
BRANCH   1  73
ATOM     73  C   UNL A   1      35.379  33.464  29.196  1.00  0.00     0.275 C 
BRANCH  73  74
ATOM     74  O   UNL A   1      36.169  33.154  30.354  1.00  0.00    -0.458 OA
BRANCH  74  75
ATOM     75  C   UNL A   1      36.097  34.044  31.375  1.00  0.00     0.339 C 
ATOM     76  O   UNL A   1      35.146  34.751  31.668  1.00  0.00    -0.246 OA
BRANCH  75  77
ATOM     77  C   UNL A   1      37.328  33.980  32.185  1.00  0.00     0.080 A 
ATOM     78  C   UNL A   1      37.218  33.534  33.511  1.00  0.00     0.037 A 
ATOM     79  C   UNL A   1      38.570  34.380  31.687  1.00  0.00     0.055 A 
ATOM     80  C   UNL A   1      38.363  33.426  34.319  1.00  0.00     0.068 A 
ATOM     81  C   UNL A   1      39.697  34.307  32.512  1.00  0.00     0.023 A 
ATOM     82  Cl  UNL A   1      38.780  35.011  30.094  1.00  0.00    -0.083 Cl
ATOM     83  C   UNL A   1      39.600  33.823  33.822  1.00  0.00     0.022 A 
BRANCH  80  84
ATOM     84  S   UNL A   1      38.143  32.805  35.972  1.00  0.00     0.183 S 
ATOM     85  O   UNL A   1      39.334  33.231  36.687  1.00  0.00    -0.223 OA
ATOM     86  O   UNL A   1      36.840  33.264  36.418  1.00  0.00    -0.223 OA
BRANCH  84  87
ATOM     87  C   UNL A   1      38.144  31.028  35.990  1.00  0.00     0.191 C 
BRANCH  87  88
ATOM     88  C   UNL A   1      38.868  30.420  34.824  1.00  0.00     0.045 C 
ATOM     89  Cl  UNL A   1      37.873  30.104  33.435  1.00  0.00    -0.087 Cl
ATOM     90  C   UNL A   1      40.201  30.280  34.763  1.00  0.00     0.097 C 
ATOM     91  Cl  UNL A   1      41.088  29.705  33.414  1.00  0.00    -0.092 Cl
ENDBRANCH  87  88
ENDBRANCH  84  87
ENDBRANCH  80  84
ENDBRANCH  75  77
ENDBRANCH  74  75
ENDBRANCH  73  74
ENDBRANCH   1  73
TORSDOF 17
ENDMDL
MODEL 3
REMARK VINA RESULT:     -11.1      4.907     10.513
REMARK SMILES O=C(OCCOC(=O)c1cc(S(=O)(=O)C/C(Cl)=C/Cl)ccc1Cl)c1ccc(-c2c3nc(c(-c4c(F)cc(S(=O)(=O)[O-])cc4F)c4ccc([nH]4)c(-c4c(F)cc(S(=O)(=O)[O-])cc4F)c4nc(c(-c5c(F)cc(S(=O)(=O)[O-])cc5F)c5ccc2[nH]5)C=C4)C=C3)cc1
REMARK SMILES IDX 4 1 3 2 2 3 1 4 24 5 25 6 89 7 26 8 88 9 27 10 28 11 29 12
REMARK SMILES IDX 82 13 30 14 87 15 81 16 83 17 31 18 86 19 80 20 79 21 32 23
REMARK SMILES IDX 66 24 45 25 65 26 46 27 49 28 64 29 84 30 47 31 48 32 63 34
REMARK SMILES IDX 85 35 50 36 33 37 34 38 43 39 35 40 36 41 42 42 44 43 37 44
REMARK SMILES IDX 38 45 39 46 40 47 41 48 67 49 68 50 77 51 69 52 70 53 76 54
REMARK SMILES IDX 78 55 71 56 72 57 73 58 74 59 75 60 51 61 52 62 61 63 53 64
REMARK SMILES IDX 54 65 60 66 62 67 55 68 56 69 57 70 58 71 59 72 5 73 6 74
REMARK SMILES IDX 7 75 8 76 9 77 10 78 22 79 11 80 21 81 23 82 20 83 12 84
REMARK SMILES IDX 13 85 14 86 15 87 16 88 17 89 18 90 19 91
REMARK H PARENT 83 22 49 33
REMARK Flexibility Score: inf
ROOT
ATOM      1  C   UNL A   1      33.273  28.356  27.273  1.00  0.00     0.275 C 
ENDROOT
BRANCH   1   2
ATOM      2  O   UNL A   1      33.310  29.789  27.364  1.00  0.00    -0.458 OA
BRANCH   2   3
ATOM      3  C   UNL A   1      34.267  30.605  27.862  1.00  0.00     0.338 C 
ATOM      4  O   UNL A   1      34.059  31.817  27.858  1.00  0.00    -0.246 OA
BRANCH   3   5
ATOM      5  C   UNL A   1      35.620  30.134  28.301  1.00  0.00     0.060 A 
ATOM      6  C   UNL A   1      35.980  29.690  29.577  1.00  0.00     0.016 A 
ATOM      7  C   UNL A   1      36.625  30.173  27.321  1.00  0.00     0.016 A 
ATOM      8  C   UNL A   1      37.274  29.224  29.848  1.00  0.00     0.010 A 
ATOM      9  C   UNL A   1      37.913  29.701  27.583  1.00  0.00     0.010 A 
ATOM     10  C   UNL A   1      38.250  29.225  28.853  1.00  0.00    -0.014 A 
BRANCH  10  11
ATOM     11  C   UNL A   1      39.660  28.896  29.162  1.00  0.00     0.031 A 
ATOM     12  C   UNL A   1      40.544  29.987  29.690  1.00  0.00     0.074 A 
ATOM     13  C   UNL A   1      40.151  27.662  28.949  1.00  0.00     0.049 A 
ATOM     14  N   UNL A   1      41.813  29.948  29.993  1.00  0.00    -0.248 NA
ATOM     15  C   UNL A   1      39.907  31.296  29.913  1.00  0.00     0.031 C 
ATOM     16  C   UNL A   1      39.375  26.514  28.491  1.00  0.00     0.029 A 
ATOM     17  N   UNL A   1      41.428  27.174  29.059  1.00  0.00    -0.354 N 
ATOM     18  C   UNL A   1      42.122  31.219  30.460  1.00  0.00     0.074 A 
ATOM     19  C   UNL A   1      40.928  32.025  30.330  1.00  0.00     0.031 C 
ATOM     20  C   UNL A   1      40.203  25.477  28.273  1.00  0.00     0.029 A 
ATOM     21  C   UNL A   1      41.567  25.888  28.593  1.00  0.00     0.049 A 
ATOM     22  H   UNL A   1      42.174  27.695  29.435  1.00  0.00     0.167 HD
ATOM     23  C   UNL A   1      43.285  31.665  30.986  1.00  0.00     0.037 A 
ATOM     24  C   UNL A   1      42.672  25.135  28.427  1.00  0.00     0.037 A 
ATOM     25  C   UNL A   1      44.470  30.859  31.085  1.00  0.00     0.049 A 
ATOM     26  C   UNL A   1      43.989  25.673  28.919  1.00  0.00     0.074 A 
ATOM     27  C   UNL A   1      45.694  31.186  31.635  1.00  0.00     0.029 A 
ATOM     28  N   UNL A   1      44.577  29.564  30.598  1.00  0.00    -0.354 N 
ATOM     29  N   UNL A   1      44.246  26.846  29.449  1.00  0.00    -0.248 NA
ATOM     30  C   UNL A   1      45.154  24.783  28.834  1.00  0.00     0.031 C 
ATOM     31  C   UNL A   1      46.556  30.100  31.442  1.00  0.00     0.029 A 
ATOM     32  C   UNL A   1      45.855  29.082  30.812  1.00  0.00     0.049 A 
ATOM     33  H   UNL A   1      43.849  29.061  30.164  1.00  0.00     0.167 HD
ATOM     34  C   UNL A   1      45.589  26.818  29.809  1.00  0.00     0.074 A 
ATOM     35  C   UNL A   1      46.094  25.516  29.418  1.00  0.00     0.031 C 
ATOM     36  C   UNL A   1      46.327  27.773  30.426  1.00  0.00     0.037 A 
BRANCH  23  37
ATOM     37  C   UNL A   1      43.300  33.085  31.473  1.00  0.00     0.058 A 
ATOM     38  C   UNL A   1      43.689  34.141  30.630  1.00  0.00     0.135 A 
ATOM     39  C   UNL A   1      42.999  33.389  32.808  1.00  0.00     0.135 A 
ATOM     40  F   UNL A   1      44.008  33.901  29.348  1.00  0.00    -0.206 F 
ATOM     41  C   UNL A   1      43.841  35.437  31.110  1.00  0.00     0.059 A 
ATOM     42  C   UNL A   1      43.117  34.685  33.304  1.00  0.00     0.059 A 
ATOM     43  F   UNL A   1      42.622  32.419  33.655  1.00  0.00    -0.206 F 
ATOM     44  C   UNL A   1      43.568  35.695  32.455  1.00  0.00     0.060 A 
BRANCH  44  45
ATOM     45  S   UNL A   1      43.837  37.366  33.083  1.00  0.00     0.124 S 
ATOM     46  O   UNL A   1      45.154  37.235  33.698  1.00  0.00    -0.237 OA
ATOM     47  O   UNL A   1      43.785  38.172  31.867  1.00  0.00    -0.237 OA
ATOM     48  O   UNL A   1      42.727  37.562  34.010  1.00  0.00    -0.744 OA
ENDBRANCH  44  45
ENDBRANCH  23  37
BRANCH  24  49
ATOM     49  C   UNL A   1      42.567  23.799  27.781  1.00  0.00     0.058 A 
ATOM     50  C   UNL A   1      42.608  23.649  26.387  1.00  0.00     0.135 A 
ATOM     51  C   UNL A   1      42.461  22.634  28.559  1.00  0.00     0.135 A 
ATOM     52  F   UNL A   1      42.706  24.731  25.600  1.00  0.00    -0.206 F 
ATOM     53  C   UNL A   1      42.540  22.394  25.787  1.00  0.00     0.059 A 
ATOM     54  C   UNL A   1      42.406  21.368  27.982  1.00  0.00     0.059 A 
ATOM     55  F   UNL A   1      42.442  22.718  29.899  1.00  0.00    -0.206 F 
ATOM     56  C   UNL A   1      42.445  21.259  26.593  1.00  0.00     0.060 A 
BRANCH  56  57
ATOM     57  S   UNL A   1      42.422  19.633  25.804  1.00  0.00     0.124 S 
ATOM     58  O   UNL A   1      41.026  19.521  25.397  1.00  0.00    -0.237 OA
ATOM     59  O   UNL A   1      43.391  19.807  24.728  1.00  0.00    -0.237 OA
ATOM     60  O   UNL A   1      42.841  18.734  26.876  1.00  0.00    -0.744 OA
ENDBRANCH  56  57
ENDBRANCH  24  49
BRANCH  36  61
ATOM     61  C   UNL A   1      47.750  27.438  30.769  1.00  0.00     0.058 A 
ATOM     62  C   UNL A   1      48.073  26.634  31.870  1.00  0.00     0.135 A 
ATOM     63  C   UNL A   1      48.791  27.840  29.914  1.00  0.00     0.135 A 
ATOM     64  F   UNL A   1      47.114  26.235  32.721  1.00  0.00    -0.206 F 
ATOM     65  C   UNL A   1      49.383  26.235  32.113  1.00  0.00     0.059 A 
ATOM     66  C   UNL A   1      50.103  27.433  30.124  1.00  0.00     0.059 A 
ATOM     67  F   UNL A   1      48.528  28.604  28.842  1.00  0.00    -0.206 F 
ATOM     68  C   UNL A   1      50.389  26.631  31.229  1.00  0.00     0.060 A 
BRANCH  68  69
ATOM     69  S   UNL A   1      52.071  26.036  31.506  1.00  0.00     0.124 S 
ATOM     70  O   UNL A   1      52.646  26.149  30.169  1.00  0.00    -0.237 OA
ATOM     71  O   UNL A   1      52.578  26.979  32.497  1.00  0.00    -0.237 OA
ATOM     72  O   UNL A   1      51.872  24.674  31.992  1.00  0.00    -0.744 OA
ENDBRANCH  68  69
ENDBRANCH  36  61
ENDBRANCH  10  11
ENDBRANCH   3   5
ENDBRANCH   2   3
ENDBRANCH   1   2
BRANCH   1  73
ATOM     73  C   UNL A   1      33.654  27.800  25.903  1.00  0.00     0.275 C 
BRANCH  73  74
ATOM     74  O   UNL A   1      33.666  28.795  24.869  1.00  0.00    -0.458 OA
BRANCH  74  75
ATOM     75  C   UNL A   1      33.721  28.325  23.598  1.00  0.00     0.339 C 
ATOM     76  O   UNL A   1      34.414  28.749  22.687  1.00  0.00    -0.246 OA
BRANCH  75  77
ATOM     77  C   UNL A   1      32.878  27.121  23.470  1.00  0.00     0.080 A 
ATOM     78  C   UNL A   1      33.522  25.880  23.345  1.00  0.00     0.037 A 
ATOM     79  C   UNL A   1      31.484  27.188  23.434  1.00  0.00     0.055 A 
ATOM     80  C   UNL A   1      32.768  24.699  23.249  1.00  0.00     0.068 A 
ATOM     81  C   UNL A   1      30.743  26.009  23.297  1.00  0.00     0.023 A 
ATOM     82  Cl  UNL A   1      30.616  28.678  23.506  1.00  0.00    -0.083 Cl
ATOM     83  C   UNL A   1      31.379  24.764  23.215  1.00  0.00     0.022 A 
BRANCH  80  84
ATOM     84  S   UNL A   1      33.662  23.163  23.143  1.00  0.00     0.183 S 
ATOM     85  O   UNL A   1      32.702  22.215  22.603  1.00  0.00    -0.223 OA
ATOM     86  O   UNL A   1      34.882  23.443  22.408  1.00  0.00    -0.223 OA
BRANCH  84  87
ATOM     87  C   UNL A   1      34.108  22.574  24.759  1.00  0.00     0.191 C 
BRANCH  87  88
ATOM     88  C   UNL A   1      35.587  22.387  24.939  1.00  0.00     0.045 C 
ATOM     89  Cl  UNL A   1      36.429  23.788  25.529  1.00  0.00    -0.087 Cl
ATOM     90  C   UNL A   1      36.209  21.204  24.830  1.00  0.00     0.097 C 
ATOM     91  Cl  UNL A   1      37.869  20.911  25.142  1.00  0.00    -0.092 Cl
ENDBRANCH  87  88
ENDBRANCH  84  87
ENDBRANCH  80  84
ENDBRANCH  75  77
ENDBRANCH  74  75
ENDBRANCH  73  74
ENDBRANCH   1  73
TORSDOF 17
ENDMDL
