MODEL 1
REMARK VINA RESULT:     -12.4      0.000      0.000
REMARK SMILES Cc1ccccc1/[NH+]=C1\S[C@@H](CC(=O)Nc2ccc(C(=O)OCCOC(=O)c3ccc(-c4c5nc(c(-c6c(F)cc(S(=O)(=O)[O-])cc6F)c6ccc([nH]6)c(-c6c(F)cc(S(=O)(=O)[O-])cc6F)c6nc(c(-c7c(F)cc(S(=O)(=O)[O-])cc7F)c7ccc4[nH]7)C=C6)C=C5)cc3)cc2)C(=O)N1C
REMARK SMILES IDX 23 1 22 2 20 3 21 4 19 5 16 6 17 7 95 8 18 9 94 10 15 11
REMARK SMILES IDX 13 12 14 13 12 15 11 16 8 17 9 18 10 20 98 21 96 22 99 23
REMARK SMILES IDX 97 24 7 25 1 26 2 27 3 28 4 29 6 30 5 31 24 32 25 33 26 34
REMARK SMILES IDX 27 35 28 36 29 37 93 38 30 39 92 40 31 41 32 42 33 43 86 44
REMARK SMILES IDX 34 45 91 46 85 47 87 48 35 49 90 50 84 51 83 52 36 54 70 55
REMARK SMILES IDX 49 56 69 57 50 58 53 59 68 60 88 61 51 62 52 63 67 65 89 66
REMARK SMILES IDX 54 67 37 68 38 69 47 70 39 71 40 72 46 73 48 74 41 75 42 76
REMARK SMILES IDX 43 77 44 78 45 79 71 80 72 81 81 82 73 83 74 84 80 85 82 86
REMARK SMILES IDX 75 87 76 88 77 89 78 90 79 91 55 92 56 93 65 94 57 95 58 96
REMARK SMILES IDX 64 97 66 98 59 99 60 100 61 101 62 102 63 103
REMARK H PARENT 15 14 8 19 87 53 53 64
REMARK Flexibility Score: inf
ROOT
ATOM      1  C   UNL A   1      34.838  32.758  28.470  1.00  0.00     0.275 C 
ENDROOT
BRANCH   1   2
ATOM      2  O   UNL A   1      34.106  31.550  28.243  1.00  0.00    -0.458 OA
BRANCH   2   3
ATOM      3  C   UNL A   1      34.828  30.575  27.636  1.00  0.00     0.338 C 
ATOM      4  O   UNL A   1      36.038  30.461  27.647  1.00  0.00    -0.246 OA
BRANCH   3   5
ATOM      5  C   UNL A   1      33.964  29.669  26.852  1.00  0.00     0.060 A 
ATOM      6  C   UNL A   1      32.112  27.696  26.398  1.00  0.00     0.041 A 
ATOM      7  C   UNL A   1      33.469  27.380  26.326  1.00  0.00     0.027 A 
ATOM      8  C   UNL A   1      31.686  29.017  26.389  1.00  0.00     0.027 A 
ATOM      9  C   UNL A   1      34.409  28.380  26.573  1.00  0.00     0.018 A 
ATOM     10  C   UNL A   1      32.615  30.004  26.678  1.00  0.00     0.018 A 
BRANCH   6  11
ATOM     11  N   UNL A   1      31.241  26.701  26.858  1.00  0.00    -0.326 N 
ATOM     12  C   UNL A   1      30.490  25.900  26.021  1.00  0.00     0.226 C 
ATOM     13  O   UNL A   1      29.569  25.232  26.502  1.00  0.00    -0.275 OA
ATOM     14  H   UNL A   1      31.159  26.566  27.829  1.00  0.00     0.169 HD
BRANCH  12  15
ATOM     15  C   UNL A   1      30.763  25.854  24.519  1.00  0.00     0.128 C 
BRANCH  15  16
ATOM     16  C   UNL A   1      31.742  24.780  24.078  1.00  0.00     0.183 C 
ATOM     17  N   UNL A   1      33.820  21.828  24.317  1.00  0.00    -0.234 N 
ATOM     18  C   UNL A   1      33.296  22.930  24.709  1.00  0.00     0.319 C 
ATOM     19  H   UNL A   1      34.788  21.880  24.149  1.00  0.00     0.313 HD
ATOM     20  S   UNL A   1      31.709  23.359  25.239  1.00  0.00    -0.022 SA
ATOM     21  N   UNL A   1      33.999  24.088  24.557  1.00  0.00    -0.193 N 
ATOM     22  C   UNL A   1      33.239  25.083  23.974  1.00  0.00     0.324 C 
ATOM     23  C   UNL A   1      35.448  24.125  24.613  1.00  0.00     0.301 C 
ATOM     24  O   UNL A   1      33.701  25.966  23.256  1.00  0.00    -0.245 OA
BRANCH  17  25
ATOM     25  C   UNL A   1      33.265  20.563  24.084  1.00  0.00     0.128 A 
ATOM     26  C   UNL A   1      31.781  21.038  22.011  1.00  0.00     0.049 C 
ATOM     27  C   UNL A   1      32.426  20.146  23.029  1.00  0.00    -0.004 A 
ATOM     28  C   UNL A   1      32.155  18.770  22.859  1.00  0.00     0.008 A 
ATOM     29  C   UNL A   1      32.776  17.804  23.640  1.00  0.00     0.001 A 
ATOM     30  C   UNL A   1      33.867  19.557  24.866  1.00  0.00     0.052 A 
ATOM     31  C   UNL A   1      33.647  18.197  24.641  1.00  0.00     0.004 A 
ENDBRANCH  17  25
ENDBRANCH  15  16
ENDBRANCH  12  15
ENDBRANCH   6  11
ENDBRANCH   3   5
ENDBRANCH   2   3
ENDBRANCH   1   2
BRANCH   1  32
ATOM     32  C   UNL A   1      35.150  32.963  29.963  1.00  0.00     0.275 C 
BRANCH  32  33
ATOM     33  O   UNL A   1      35.965  32.004  30.692  1.00  0.00    -0.458 OA
BRANCH  33  34
ATOM     34  C   UNL A   1      37.226  32.329  31.081  1.00  0.00     0.338 C 
ATOM     35  O   UNL A   1      37.449  33.207  31.907  1.00  0.00    -0.246 OA
BRANCH  34  36
ATOM     36  C   UNL A   1      38.211  31.338  30.580  1.00  0.00     0.060 A 
ATOM     37  C   UNL A   1      39.262  31.782  29.772  1.00  0.00     0.016 A 
ATOM     38  C   UNL A   1      38.271  30.094  31.209  1.00  0.00     0.016 A 
ATOM     39  C   UNL A   1      40.468  31.089  29.772  1.00  0.00     0.010 A 
ATOM     40  C   UNL A   1      39.493  29.486  31.329  1.00  0.00     0.010 A 
ATOM     41  C   UNL A   1      40.592  29.995  30.625  1.00  0.00    -0.014 A 
BRANCH  41  42
ATOM     42  C   UNL A   1      41.733  29.103  30.599  1.00  0.00     0.031 A 
ATOM     43  C   UNL A   1      41.691  27.823  29.864  1.00  0.00     0.074 A 
ATOM     44  C   UNL A   1      42.762  29.651  31.281  1.00  0.00     0.049 A 
ATOM     45  N   UNL A   1      42.205  26.725  30.300  1.00  0.00    -0.248 NA
ATOM     46  C   UNL A   1      41.010  27.642  28.575  1.00  0.00     0.031 C 
ATOM     47  C   UNL A   1      44.152  29.292  31.430  1.00  0.00     0.029 A 
ATOM     48  N   UNL A   1      42.598  30.703  32.195  1.00  0.00    -0.354 N 
ATOM     49  C   UNL A   1      42.279  25.867  29.214  1.00  0.00     0.074 A 
ATOM     50  C   UNL A   1      41.353  26.387  28.242  1.00  0.00     0.031 C 
ATOM     51  C   UNL A   1      44.611  29.852  32.571  1.00  0.00     0.029 A 
ATOM     52  C   UNL A   1      43.485  30.503  33.237  1.00  0.00     0.049 A 
ATOM     53  H   UNL A   1      41.964  31.452  32.110  1.00  0.00     0.167 HD
ATOM     54  C   UNL A   1      43.328  24.997  29.126  1.00  0.00     0.037 A 
ATOM     55  C   UNL A   1      42.946  30.177  34.449  1.00  0.00     0.037 A 
ATOM     56  C   UNL A   1      44.239  25.258  30.233  1.00  0.00     0.049 A 
ATOM     57  C   UNL A   1      43.333  28.761  34.789  1.00  0.00     0.074 A 
ATOM     58  C   UNL A   1      45.323  26.119  30.300  1.00  0.00     0.029 A 
ATOM     59  N   UNL A   1      43.853  24.996  31.540  1.00  0.00    -0.354 N 
ATOM     60  N   UNL A   1      43.407  27.781  33.926  1.00  0.00    -0.248 NA
ATOM     61  C   UNL A   1      43.845  28.411  36.107  1.00  0.00     0.031 C 
ATOM     62  C   UNL A   1      45.579  26.395  31.660  1.00  0.00     0.029 A 
ATOM     63  C   UNL A   1      44.622  25.739  32.416  1.00  0.00     0.049 A 
ATOM     64  H   UNL A   1      43.138  24.374  31.804  1.00  0.00     0.167 HD
ATOM     65  C   UNL A   1      44.066  26.727  34.517  1.00  0.00     0.074 A 
ATOM     66  C   UNL A   1      44.301  27.169  35.882  1.00  0.00     0.031 C 
ATOM     67  C   UNL A   1      44.467  25.602  33.849  1.00  0.00     0.037 A 
BRANCH  54  68
ATOM     68  C   UNL A   1      43.744  24.233  27.885  1.00  0.00     0.058 A 
ATOM     69  C   UNL A   1      43.201  22.955  27.610  1.00  0.00     0.135 A 
ATOM     70  C   UNL A   1      44.646  24.712  26.916  1.00  0.00     0.135 A 
ATOM     71  F   UNL A   1      42.306  22.376  28.418  1.00  0.00    -0.206 F 
ATOM     72  C   UNL A   1      43.553  22.192  26.498  1.00  0.00     0.059 A 
ATOM     73  C   UNL A   1      45.027  23.956  25.791  1.00  0.00     0.059 A 
ATOM     74  F   UNL A   1      45.167  25.945  27.020  1.00  0.00    -0.206 F 
ATOM     75  C   UNL A   1      44.475  22.692  25.595  1.00  0.00     0.060 A 
BRANCH  75  76
ATOM     76  S   UNL A   1      44.905  21.654  24.181  1.00  0.00     0.124 S 
ATOM     77  O   UNL A   1      46.363  21.629  24.253  1.00  0.00    -0.237 OA
ATOM     78  O   UNL A   1      44.236  20.399  24.505  1.00  0.00    -0.237 OA
ATOM     79  O   UNL A   1      44.354  22.381  23.040  1.00  0.00    -0.744 OA
ENDBRANCH  75  76
ENDBRANCH  54  68
BRANCH  55  80
ATOM     80  C   UNL A   1      41.646  30.867  34.779  1.00  0.00     0.058 A 
ATOM     81  C   UNL A   1      40.465  30.082  34.810  1.00  0.00     0.135 A 
ATOM     82  C   UNL A   1      41.528  32.169  35.285  1.00  0.00     0.135 A 
ATOM     83  F   UNL A   1      40.479  28.830  34.321  1.00  0.00    -0.206 F 
ATOM     84  C   UNL A   1      39.285  30.507  35.416  1.00  0.00     0.059 A 
ATOM     85  C   UNL A   1      40.338  32.632  35.877  1.00  0.00     0.059 A 
ATOM     86  F   UNL A   1      42.584  32.995  35.284  1.00  0.00    -0.206 F 
ATOM     87  C   UNL A   1      39.236  31.779  35.973  1.00  0.00     0.060 A 
BRANCH  87  88
ATOM     88  S   UNL A   1      37.785  32.211  36.974  1.00  0.00     0.124 S 
ATOM     89  O   UNL A   1      36.879  32.759  35.970  1.00  0.00    -0.237 OA
ATOM     90  O   UNL A   1      37.403  30.911  37.522  1.00  0.00    -0.237 OA
ATOM     91  O   UNL A   1      38.325  33.171  37.930  1.00  0.00    -0.744 OA
ENDBRANCH  87  88
ENDBRANCH  55  80
BRANCH  67  92
ATOM     92  C   UNL A   1      44.928  24.302  34.472  1.00  0.00     0.058 A 
ATOM     93  C   UNL A   1      44.058  23.265  34.838  1.00  0.00     0.135 A 
ATOM     94  C   UNL A   1      46.312  23.998  34.582  1.00  0.00     0.135 A 
ATOM     95  F   UNL A   1      42.736  23.353  34.650  1.00  0.00    -0.206 F 
ATOM     96  C   UNL A   1      44.517  22.062  35.368  1.00  0.00     0.059 A 
ATOM     97  C   UNL A   1      46.791  22.774  35.026  1.00  0.00     0.059 A 
ATOM     98  F   UNL A   1      47.269  24.873  34.240  1.00  0.00    -0.206 F 
ATOM     99  C   UNL A   1      45.883  21.823  35.455  1.00  0.00     0.060 A 
BRANCH  99 100
ATOM    100  S   UNL A   1      46.461  20.247  36.090  1.00  0.00     0.124 S 
ATOM    101  O   UNL A   1      45.976  19.330  35.062  1.00  0.00    -0.237 OA
ATOM    102  O   UNL A   1      47.908  20.437  36.135  1.00  0.00    -0.237 OA
ATOM    103  O   UNL A   1      45.808  20.143  37.390  1.00  0.00    -0.744 OA
ENDBRANCH  99 100
ENDBRANCH  67  92
ENDBRANCH  41  42
ENDBRANCH  34  36
ENDBRANCH  33  34
ENDBRANCH  32  33
ENDBRANCH   1  32
TORSDOF 18
ENDMDL
MODEL 2
REMARK VINA RESULT:     -12.3      1.457      2.379
REMARK SMILES Cc1ccccc1/[NH+]=C1\S[C@@H](CC(=O)Nc2ccc(C(=O)OCCOC(=O)c3ccc(-c4c5nc(c(-c6c(F)cc(S(=O)(=O)[O-])cc6F)c6ccc([nH]6)c(-c6c(F)cc(S(=O)(=O)[O-])cc6F)c6nc(c(-c7c(F)cc(S(=O)(=O)[O-])cc7F)c7ccc4[nH]7)C=C6)C=C5)cc3)cc2)C(=O)N1C
REMARK SMILES IDX 23 1 22 2 20 3 21 4 19 5 16 6 17 7 95 8 18 9 94 10 15 11
REMARK SMILES IDX 13 12 14 13 12 15 11 16 8 17 9 18 10 20 98 21 96 22 99 23
REMARK SMILES IDX 97 24 7 25 1 26 2 27 3 28 4 29 6 30 5 31 24 32 25 33 26 34
REMARK SMILES IDX 27 35 28 36 29 37 93 38 30 39 92 40 31 41 32 42 33 43 86 44
REMARK SMILES IDX 34 45 91 46 85 47 87 48 35 49 90 50 84 51 83 52 36 54 70 55
REMARK SMILES IDX 49 56 69 57 50 58 53 59 68 60 88 61 51 62 52 63 67 65 89 66
REMARK SMILES IDX 54 67 37 68 38 69 47 70 39 71 40 72 46 73 48 74 41 75 42 76
REMARK SMILES IDX 43 77 44 78 45 79 71 80 72 81 81 82 73 83 74 84 80 85 82 86
REMARK SMILES IDX 75 87 76 88 77 89 78 90 79 91 55 92 56 93 65 94 57 95 58 96
REMARK SMILES IDX 64 97 66 98 59 99 60 100 61 101 62 102 63 103
REMARK H PARENT 15 14 8 19 87 53 53 64
REMARK Flexibility Score: inf
ROOT
ATOM      1  C   UNL A   1      34.169  32.211  28.310  1.00  0.00     0.275 C 
ENDROOT
BRANCH   1   2
ATOM      2  O   UNL A   1      33.962  31.349  27.186  1.00  0.00    -0.458 OA
BRANCH   2   3
ATOM      3  C   UNL A   1      34.347  30.066  27.399  1.00  0.00     0.338 C 
ATOM      4  O   UNL A   1      35.317  29.700  28.035  1.00  0.00    -0.246 OA
BRANCH   3   5
ATOM      5  C   UNL A   1      33.478  29.113  26.679  1.00  0.00     0.060 A 
ATOM      6  C   UNL A   1      32.445  27.747  24.536  1.00  0.00     0.041 A 
ATOM      7  C   UNL A   1      31.773  28.876  25.006  1.00  0.00     0.027 A 
ATOM      8  C   UNL A   1      33.430  27.134  25.297  1.00  0.00     0.027 A 
ATOM      9  C   UNL A   1      32.308  29.579  26.085  1.00  0.00     0.018 A 
ATOM     10  C   UNL A   1      33.989  27.854  26.342  1.00  0.00     0.018 A 
BRANCH   6  11
ATOM     11  N   UNL A   1      32.383  27.485  23.162  1.00  0.00    -0.326 N 
ATOM     12  C   UNL A   1      31.628  26.468  22.614  1.00  0.00     0.226 C 
ATOM     13  O   UNL A   1      31.824  26.145  21.438  1.00  0.00    -0.275 OA
ATOM     14  H   UNL A   1      32.906  28.056  22.554  1.00  0.00     0.169 HD
BRANCH  12  15
ATOM     15  C   UNL A   1      30.583  25.725  23.445  1.00  0.00     0.128 C 
BRANCH  15  16
ATOM     16  C   UNL A   1      31.149  24.827  24.532  1.00  0.00     0.183 C 
ATOM     17  N   UNL A   1      32.083  21.757  26.204  1.00  0.00    -0.234 N 
ATOM     18  C   UNL A   1      31.333  22.542  25.521  1.00  0.00     0.319 C 
ATOM     19  H   UNL A   1      31.736  21.548  27.100  1.00  0.00     0.313 HD
ATOM     20  S   UNL A   1      31.404  23.124  23.897  1.00  0.00    -0.022 SA
ATOM     21  N   UNL A   1      30.352  23.240  26.160  1.00  0.00    -0.193 N 
ATOM     22  C   UNL A   1      30.370  24.581  25.826  1.00  0.00     0.324 C 
ATOM     23  C   UNL A   1      29.673  22.723  27.333  1.00  0.00     0.301 C 
ATOM     24  O   UNL A   1      30.020  25.481  26.586  1.00  0.00    -0.245 OA
BRANCH  17  25
ATOM     25  C   UNL A   1      33.307  21.144  25.904  1.00  0.00     0.128 A 
ATOM     26  C   UNL A   1      32.523  19.122  24.484  1.00  0.00     0.049 C 
ATOM     27  C   UNL A   1      33.558  20.028  25.079  1.00  0.00    -0.004 A 
ATOM     28  C   UNL A   1      34.889  19.704  24.734  1.00  0.00     0.008 A 
ATOM     29  C   UNL A   1      35.954  20.517  25.101  1.00  0.00     0.001 A 
ATOM     30  C   UNL A   1      34.412  21.940  26.269  1.00  0.00     0.052 A 
ATOM     31  C   UNL A   1      35.714  21.648  25.861  1.00  0.00     0.004 A 
ENDBRANCH  17  25
ENDBRANCH  15  16
ENDBRANCH  12  15
ENDBRANCH   6  11
ENDBRANCH   3   5
ENDBRANCH   2   3
ENDBRANCH   1   2
BRANCH   1  32
ATOM     32  C   UNL A   1      35.434  33.070  28.143  1.00  0.00     0.275 C 
BRANCH  32  33
ATOM     33  O   UNL A   1      36.654  32.749  28.868  1.00  0.00    -0.458 OA
BRANCH  33  34
ATOM     34  C   UNL A   1      36.696  32.855  30.222  1.00  0.00     0.338 C 
ATOM     35  O   UNL A   1      35.776  33.343  30.868  1.00  0.00    -0.246 OA
BRANCH  34  36
ATOM     36  C   UNL A   1      37.842  32.094  30.782  1.00  0.00     0.060 A 
ATOM     37  C   UNL A   1      37.684  30.728  31.034  1.00  0.00     0.016 A 
ATOM     38  C   UNL A   1      39.113  32.662  30.697  1.00  0.00     0.016 A 
ATOM     39  C   UNL A   1      38.790  29.888  30.976  1.00  0.00     0.010 A 
ATOM     40  C   UNL A   1      40.183  31.830  30.496  1.00  0.00     0.010 A 
ATOM     41  C   UNL A   1      40.016  30.445  30.619  1.00  0.00    -0.014 A 
BRANCH  41  42
ATOM     42  C   UNL A   1      41.262  29.709  30.680  1.00  0.00     0.031 A 
ATOM     43  C   UNL A   1      41.468  28.479  29.888  1.00  0.00     0.074 A 
ATOM     44  C   UNL A   1      42.132  30.343  31.495  1.00  0.00     0.049 A 
ATOM     45  N   UNL A   1      42.074  27.432  30.330  1.00  0.00    -0.248 NA
ATOM     46  C   UNL A   1      40.954  28.288  28.525  1.00  0.00     0.031 C 
ATOM     47  C   UNL A   1      43.534  30.156  31.781  1.00  0.00     0.029 A 
ATOM     48  N   UNL A   1      41.735  31.311  32.431  1.00  0.00    -0.354 N 
ATOM     49  C   UNL A   1      42.375  26.656  29.222  1.00  0.00     0.074 A 
ATOM     50  C   UNL A   1      41.495  27.109  28.177  1.00  0.00     0.031 C 
ATOM     51  C   UNL A   1      43.793  30.702  32.990  1.00  0.00     0.029 A 
ATOM     52  C   UNL A   1      42.527  31.164  33.555  1.00  0.00     0.049 A 
ATOM     53  H   UNL A   1      41.019  31.975  32.310  1.00  0.00     0.167 HD
ATOM     54  C   UNL A   1      43.534  25.933  29.212  1.00  0.00     0.037 A 
ATOM     55  C   UNL A   1      41.914  30.702  34.685  1.00  0.00     0.037 A 
ATOM     56  C   UNL A   1      44.282  26.243  30.424  1.00  0.00     0.049 A 
ATOM     57  C   UNL A   1      42.448  29.330  35.002  1.00  0.00     0.074 A 
ATOM     58  C   UNL A   1      45.229  27.230  30.649  1.00  0.00     0.029 A 
ATOM     59  N   UNL A   1      43.800  25.859  31.666  1.00  0.00    -0.354 N 
ATOM     60  N   UNL A   1      42.741  28.419  34.110  1.00  0.00    -0.248 NA
ATOM     61  C   UNL A   1      42.861  28.971  36.352  1.00  0.00     0.031 C 
ATOM     62  C   UNL A   1      45.302  27.456  32.039  1.00  0.00     0.029 A 
ATOM     63  C   UNL A   1      44.368  26.641  32.655  1.00  0.00     0.049 A 
ATOM     64  H   UNL A   1      43.150  25.135  31.822  1.00  0.00     0.167 HD
ATOM     65  C   UNL A   1      43.469  27.425  34.723  1.00  0.00     0.074 A 
ATOM     66  C   UNL A   1      43.500  27.813  36.124  1.00  0.00     0.031 C 
ATOM     67  C   UNL A   1      44.084  26.401  34.054  1.00  0.00     0.037 A 
BRANCH  54  68
ATOM     68  C   UNL A   1      44.175  25.302  27.993  1.00  0.00     0.058 A 
ATOM     69  C   UNL A   1      43.800  24.004  27.572  1.00  0.00     0.135 A 
ATOM     70  C   UNL A   1      45.139  25.931  27.180  1.00  0.00     0.135 A 
ATOM     71  F   UNL A   1      42.873  23.289  28.219  1.00  0.00    -0.206 F 
ATOM     72  C   UNL A   1      44.361  23.359  26.471  1.00  0.00     0.059 A 
ATOM     73  C   UNL A   1      45.729  25.296  26.071  1.00  0.00     0.059 A 
ATOM     74  F   UNL A   1      45.517  27.195  27.426  1.00  0.00    -0.206 F 
ATOM     75  C   UNL A   1      45.334  24.005  25.728  1.00  0.00     0.060 A 
BRANCH  75  76
ATOM     76  S   UNL A   1      46.038  23.116  24.323  1.00  0.00     0.124 S 
ATOM     77  O   UNL A   1      44.873  22.938  23.460  1.00  0.00    -0.237 OA
ATOM     78  O   UNL A   1      47.044  24.054  23.836  1.00  0.00    -0.237 OA
ATOM     79  O   UNL A   1      46.561  21.890  24.918  1.00  0.00    -0.744 OA
ENDBRANCH  75  76
ENDBRANCH  54  68
BRANCH  55  80
ATOM     80  C   UNL A   1      40.506  31.200  34.898  1.00  0.00     0.058 A 
ATOM     81  C   UNL A   1      40.332  32.521  35.381  1.00  0.00     0.135 A 
ATOM     82  C   UNL A   1      39.344  30.556  34.446  1.00  0.00     0.135 A 
ATOM     83  F   UNL A   1      41.387  33.205  35.860  1.00  0.00    -0.206 F 
ATOM     84  C   UNL A   1      39.122  33.208  35.302  1.00  0.00     0.059 A 
ATOM     85  C   UNL A   1      38.104  31.219  34.383  1.00  0.00     0.059 A 
ATOM     86  F   UNL A   1      39.402  29.298  33.986  1.00  0.00    -0.206 F 
ATOM     87  C   UNL A   1      38.014  32.556  34.776  1.00  0.00     0.060 A 
BRANCH  87  88
ATOM     88  S   UNL A   1      36.526  33.544  34.448  1.00  0.00     0.124 S 
ATOM     89  O   UNL A   1      36.075  33.863  35.798  1.00  0.00    -0.237 OA
ATOM     90  O   UNL A   1      37.074  34.664  33.687  1.00  0.00    -0.237 OA
ATOM     91  O   UNL A   1      35.682  32.619  33.701  1.00  0.00    -0.744 OA
ENDBRANCH  87  88
ENDBRANCH  55  80
BRANCH  67  92
ATOM     92  C   UNL A   1      44.646  25.137  34.667  1.00  0.00     0.058 A 
ATOM     93  C   UNL A   1      43.884  23.984  34.907  1.00  0.00     0.135 A 
ATOM     94  C   UNL A   1      46.042  24.997  34.896  1.00  0.00     0.135 A 
ATOM     95  F   UNL A   1      42.583  23.921  34.597  1.00  0.00    -0.206 F 
ATOM     96  C   UNL A   1      44.440  22.821  35.429  1.00  0.00     0.059 A 
ATOM     97  C   UNL A   1      46.628  23.818  35.334  1.00  0.00     0.059 A 
ATOM     98  F   UNL A   1      46.908  25.998  34.681  1.00  0.00    -0.206 F 
ATOM     99  C   UNL A   1      45.812  22.745  35.637  1.00  0.00     0.060 A 
BRANCH  99 100
ATOM    100  S   UNL A   1      46.524  21.219  36.260  1.00  0.00     0.124 S 
ATOM    101  O   UNL A   1      46.523  20.391  35.059  1.00  0.00    -0.237 OA
ATOM    102  O   UNL A   1      47.837  21.653  36.728  1.00  0.00    -0.237 OA
ATOM    103  O   UNL A   1      45.595  20.814  37.309  1.00  0.00    -0.744 OA
ENDBRANCH  99 100
ENDBRANCH  67  92
ENDBRANCH  41  42
ENDBRANCH  34  36
ENDBRANCH  33  34
ENDBRANCH  32  33
ENDBRANCH   1  32
TORSDOF 18
ENDMDL
MODEL 3
REMARK VINA RESULT:     -11.1      5.081     11.200
REMARK SMILES Cc1ccccc1/[NH+]=C1\S[C@@H](CC(=O)Nc2ccc(C(=O)OCCOC(=O)c3ccc(-c4c5nc(c(-c6c(F)cc(S(=O)(=O)[O-])cc6F)c6ccc([nH]6)c(-c6c(F)cc(S(=O)(=O)[O-])cc6F)c6nc(c(-c7c(F)cc(S(=O)(=O)[O-])cc7F)c7ccc4[nH]7)C=C6)C=C5)cc3)cc2)C(=O)N1C
REMARK SMILES IDX 23 1 22 2 20 3 21 4 19 5 16 6 17 7 95 8 18 9 94 10 15 11
REMARK SMILES IDX 13 12 14 13 12 15 11 16 8 17 9 18 10 20 98 21 96 22 99 23
REMARK SMILES IDX 97 24 7 25 1 26 2 27 3 28 4 29 6 30 5 31 24 32 25 33 26 34
REMARK SMILES IDX 27 35 28 36 29 37 93 38 30 39 92 40 31 41 32 42 33 43 86 44
REMARK SMILES IDX 34 45 91 46 85 47 87 48 35 49 90 50 84 51 83 52 36 54 70 55
REMARK SMILES IDX 49 56 69 57 50 58 53 59 68 60 88 61 51 62 52 63 67 65 89 66
REMARK SMILES IDX 54 67 37 68 38 69 47 70 39 71 40 72 46 73 48 74 41 75 42 76
REMARK SMILES IDX 43 77 44 78 45 79 71 80 72 81 81 82 73 83 74 84 80 85 82 86
REMARK SMILES IDX 75 87 76 88 77 89 78 90 79 91 55 92 56 93 65 94 57 95 58 96
REMARK SMILES IDX 64 97 66 98 59 99 60 100 61 101 62 102 63 103
REMARK H PARENT 15 14 8 19 87 53 53 64
REMARK Flexibility Score: inf
ROOT
ATOM      1  C   UNL A   1      39.757  34.989  34.995  1.00  0.00     0.275 C 
ENDROOT
BRANCH   1   2
ATOM      2  O   UNL A   1      40.689  34.625  33.971  1.00  0.00    -0.458 OA
BRANCH   2   3
ATOM      3  C   UNL A   1      41.918  35.179  34.124  1.00  0.00     0.338 C 
ATOM      4  O   UNL A   1      42.164  36.362  34.261  1.00  0.00    -0.246 OA
BRANCH   3   5
ATOM      5  C   UNL A   1      42.985  34.165  34.018  1.00  0.00     0.060 A 
ATOM      6  C   UNL A   1      44.507  32.198  32.859  1.00  0.00     0.041 A 
ATOM      7  C   UNL A   1      43.467  31.832  33.715  1.00  0.00     0.027 A 
ATOM      8  C   UNL A   1      44.975  33.503  32.821  1.00  0.00     0.027 A 
ATOM      9  C   UNL A   1      42.684  32.832  34.291  1.00  0.00     0.018 A 
ATOM     10  C   UNL A   1      44.173  34.499  33.357  1.00  0.00     0.018 A 
BRANCH   6  11
ATOM     11  N   UNL A   1      44.796  31.338  31.792  1.00  0.00    -0.326 N 
ATOM     12  C   UNL A   1      44.007  31.232  30.664  1.00  0.00     0.226 C 
ATOM     13  O   UNL A   1      44.187  30.282  29.896  1.00  0.00    -0.275 OA
ATOM     14  H   UNL A   1      45.605  30.780  31.848  1.00  0.00     0.169 HD
BRANCH  12  15
ATOM     15  C   UNL A   1      42.905  32.249  30.374  1.00  0.00     0.128 C 
BRANCH  15  16
ATOM     16  C   UNL A   1      43.370  33.518  29.682  1.00  0.00     0.183 C 
ATOM     17  N   UNL A   1      43.118  36.674  27.929  1.00  0.00    -0.234 N 
ATOM     18  C   UNL A   1      42.828  35.455  28.201  1.00  0.00     0.319 C 
ATOM     19  H   UNL A   1      43.551  36.799  27.054  1.00  0.00     0.313 HD
ATOM     20  S   UNL A   1      41.982  34.707  29.509  1.00  0.00    -0.022 SA
ATOM     21  N   UNL A   1      43.397  34.460  27.464  1.00  0.00    -0.193 N 
ATOM     22  C   UNL A   1      43.938  33.470  28.261  1.00  0.00     0.324 C 
ATOM     23  C   UNL A   1      43.749  34.636  26.068  1.00  0.00     0.301 C 
ATOM     24  O   UNL A   1      44.918  32.798  27.949  1.00  0.00    -0.245 OA
BRANCH  17  25
ATOM     25  C   UNL A   1      42.929  37.860  28.651  1.00  0.00     0.128 A 
ATOM     26  C   UNL A   1      44.820  37.680  30.417  1.00  0.00     0.049 C 
ATOM     27  C   UNL A   1      43.707  38.387  29.703  1.00  0.00    -0.004 A 
ATOM     28  C   UNL A   1      43.471  39.707  30.147  1.00  0.00     0.008 A 
ATOM     29  C   UNL A   1      42.561  40.540  29.507  1.00  0.00     0.001 A 
ATOM     30  C   UNL A   1      42.006  38.727  28.032  1.00  0.00     0.052 A 
ATOM     31  C   UNL A   1      41.834  40.052  28.435  1.00  0.00     0.004 A 
ENDBRANCH  17  25
ENDBRANCH  15  16
ENDBRANCH  12  15
ENDBRANCH   6  11
ENDBRANCH   3   5
ENDBRANCH   2   3
ENDBRANCH   1   2
BRANCH   1  32
ATOM     32  C   UNL A   1      38.308  34.677  34.583  1.00  0.00     0.275 C 
BRANCH  32  33
ATOM     33  O   UNL A   1      38.017  33.634  33.612  1.00  0.00    -0.458 OA
BRANCH  33  34
ATOM     34  C   UNL A   1      37.291  32.543  33.971  1.00  0.00     0.338 C 
ATOM     35  O   UNL A   1      36.084  32.601  34.177  1.00  0.00    -0.246 OA
BRANCH  34  36
ATOM     36  C   UNL A   1      38.088  31.299  33.824  1.00  0.00     0.060 A 
ATOM     37  C   UNL A   1      37.433  30.119  33.456  1.00  0.00     0.016 A 
ATOM     38  C   UNL A   1      39.473  31.415  33.701  1.00  0.00     0.016 A 
ATOM     39  C   UNL A   1      38.127  29.140  32.754  1.00  0.00     0.010 A 
ATOM     40  C   UNL A   1      40.128  30.527  32.890  1.00  0.00     0.010 A 
ATOM     41  C   UNL A   1      39.450  29.401  32.404  1.00  0.00    -0.014 A 
BRANCH  41  42
ATOM     42  C   UNL A   1      40.320  28.402  31.817  1.00  0.00     0.031 A 
ATOM     43  C   UNL A   1      41.667  28.140  32.363  1.00  0.00     0.074 A 
ATOM     44  C   UNL A   1      39.689  27.786  30.794  1.00  0.00     0.049 A 
ATOM     45  N   UNL A   1      42.707  27.917  31.637  1.00  0.00    -0.248 NA
ATOM     46  C   UNL A   1      41.985  28.158  33.797  1.00  0.00     0.031 C 
ATOM     47  C   UNL A   1      40.008  26.631  29.989  1.00  0.00     0.029 A 
ATOM     48  N   UNL A   1      38.556  28.320  30.162  1.00  0.00    -0.354 N 
ATOM     49  C   UNL A   1      43.666  27.378  32.480  1.00  0.00     0.074 A 
ATOM     50  C   UNL A   1      43.261  27.737  33.814  1.00  0.00     0.031 C 
ATOM     51  C   UNL A   1      39.331  26.732  28.824  1.00  0.00     0.029 A 
ATOM     52  C   UNL A   1      38.637  28.018  28.816  1.00  0.00     0.049 A 
ATOM     53  H   UNL A   1      37.831  28.822  30.601  1.00  0.00     0.167 HD
ATOM     54  C   UNL A   1      44.522  26.432  31.992  1.00  0.00     0.037 A 
ATOM     55  C   UNL A   1      38.852  29.063  27.962  1.00  0.00     0.037 A 
ATOM     56  C   UNL A   1      44.137  26.124  30.621  1.00  0.00     0.049 A 
ATOM     57  C   UNL A   1      40.220  28.918  27.349  1.00  0.00     0.074 A 
ATOM     58  C   UNL A   1      43.255  25.167  30.145  1.00  0.00     0.029 A 
ATOM     59  N   UNL A   1      44.276  27.074  29.620  1.00  0.00    -0.354 N 
ATOM     60  N   UNL A   1      41.279  28.485  27.984  1.00  0.00    -0.248 NA
ATOM     61  C   UNL A   1      40.431  29.079  25.918  1.00  0.00     0.031 C 
ATOM     62  C   UNL A   1      42.842  25.556  28.854  1.00  0.00     0.029 A 
ATOM     63  C   UNL A   1      43.438  26.772  28.564  1.00  0.00     0.049 A 
ATOM     64  H   UNL A   1      44.882  27.849  29.656  1.00  0.00     0.167 HD
ATOM     65  C   UNL A   1      42.258  28.202  27.059  1.00  0.00     0.074 A 
ATOM     66  C   UNL A   1      41.680  28.608  25.788  1.00  0.00     0.031 C 
ATOM     67  C   UNL A   1      43.436  27.572  27.357  1.00  0.00     0.037 A 
BRANCH  54  68
ATOM     68  C   UNL A   1      45.397  25.515  32.823  1.00  0.00     0.058 A 
ATOM     69  C   UNL A   1      46.754  25.836  33.063  1.00  0.00     0.135 A 
ATOM     70  C   UNL A   1      44.955  24.326  33.435  1.00  0.00     0.135 A 
ATOM     71  F   UNL A   1      47.316  26.950  32.579  1.00  0.00    -0.206 F 
ATOM     72  C   UNL A   1      47.617  25.030  33.803  1.00  0.00     0.059 A 
ATOM     73  C   UNL A   1      45.810  23.488  34.176  1.00  0.00     0.059 A 
ATOM     74  F   UNL A   1      43.668  23.954  33.350  1.00  0.00    -0.206 F 
ATOM     75  C   UNL A   1      47.144  23.850  34.350  1.00  0.00     0.060 A 
BRANCH  75  76
ATOM     76  S   UNL A   1      48.311  22.838  35.285  1.00  0.00     0.124 S 
ATOM     77  O   UNL A   1      47.426  21.873  35.932  1.00  0.00    -0.237 OA
ATOM     78  O   UNL A   1      49.167  22.301  34.233  1.00  0.00    -0.237 OA
ATOM     79  O   UNL A   1      48.950  23.793  36.186  1.00  0.00    -0.744 OA
ENDBRANCH  75  76
ENDBRANCH  54  68
BRANCH  55  80
ATOM     80  C   UNL A   1      38.156  30.348  28.335  1.00  0.00     0.058 A 
ATOM     81  C   UNL A   1      36.814  30.526  27.914  1.00  0.00     0.135 A 
ATOM     82  C   UNL A   1      38.638  31.289  29.257  1.00  0.00     0.135 A 
ATOM     83  F   UNL A   1      36.277  29.686  27.011  1.00  0.00    -0.206 F 
ATOM     84  C   UNL A   1      35.965  31.485  28.463  1.00  0.00     0.059 A 
ATOM     85  C   UNL A   1      37.808  32.285  29.804  1.00  0.00     0.059 A 
ATOM     86  F   UNL A   1      39.900  31.217  29.703  1.00  0.00    -0.206 F 
ATOM     87  C   UNL A   1      36.464  32.349  29.430  1.00  0.00     0.060 A 
BRANCH  87  88
ATOM     88  S   UNL A   1      35.282  33.412  30.307  1.00  0.00     0.124 S 
ATOM     89  O   UNL A   1      34.474  32.434  31.025  1.00  0.00    -0.237 OA
ATOM     90  O   UNL A   1      36.171  34.224  31.136  1.00  0.00    -0.237 OA
ATOM     91  O   UNL A   1      34.609  34.114  29.220  1.00  0.00    -0.744 OA
ENDBRANCH  87  88
ENDBRANCH  55  80
BRANCH  67  92
ATOM     92  C   UNL A   1      44.660  27.488  26.471  1.00  0.00     0.058 A 
ATOM     93  C   UNL A   1      44.987  26.363  25.701  1.00  0.00     0.135 A 
ATOM     94  C   UNL A   1      45.479  28.630  26.251  1.00  0.00     0.135 A 
ATOM     95  F   UNL A   1      44.218  25.266  25.693  1.00  0.00    -0.206 F 
ATOM     96  C   UNL A   1      46.095  26.333  24.860  1.00  0.00     0.059 A 
ATOM     97  C   UNL A   1      46.536  28.647  25.352  1.00  0.00     0.059 A 
ATOM     98  F   UNL A   1      45.275  29.793  26.886  1.00  0.00    -0.206 F 
ATOM     99  C   UNL A   1      46.862  27.479  24.689  1.00  0.00     0.060 A 
BRANCH  99 100
ATOM    100  S   UNL A   1      48.257  27.442  23.559  1.00  0.00     0.124 S 
ATOM    101  O   UNL A   1      49.314  28.004  24.393  1.00  0.00    -0.237 OA
ATOM    102  O   UNL A   1      48.378  26.019  23.256  1.00  0.00    -0.237 OA
ATOM    103  O   UNL A   1      47.817  28.278  22.447  1.00  0.00    -0.744 OA
ENDBRANCH  99 100
ENDBRANCH  67  92
ENDBRANCH  41  42
ENDBRANCH  34  36
ENDBRANCH  33  34
ENDBRANCH  32  33
ENDBRANCH   1  32
TORSDOF 18
ENDMDL
