MODEL 1
REMARK VINA RESULT:     -12.1      0.000      0.000
REMARK SMILES COC(=O)c1ccc(C)c2c1[C@H]1C=CC[C@H]1[C@@H](c1ccc(C(=O)OCCOC(=O)c3ccc(-c4c5nc(c(-c6c(F)cc(S(=O)(=O)[O-])cc6F)c6ccc([nH]6)c(-c6c(F)cc(S(=O)(=O)[O-])cc6F)c6nc(c(-c7c(F)cc(S(=O)(=O)[O-])cc7F)c7ccc4[nH]7)C=C6)C=C5)cc3)cc1)N2
REMARK SMILES IDX 25 1 24 2 22 3 23 4 21 5 18 6 19 7 97 8 20 9 96 10 17 11
REMARK SMILES IDX 5 12 6 13 11 14 7 15 10 16 12 17 8 18 98 19 13 20 16 21 9 22
REMARK SMILES IDX 14 24 15 25 3 26 4 27 2 28 1 29 26 30 27 31 28 32 29 33
REMARK SMILES IDX 30 34 31 35 95 36 32 37 94 38 33 39 34 40 35 41 88 42 36 43
REMARK SMILES IDX 93 44 87 45 89 46 37 47 92 48 86 49 85 50 38 52 72 53 51 54
REMARK SMILES IDX 71 55 52 56 55 57 70 58 90 59 53 60 54 61 69 63 91 64 56 65
REMARK SMILES IDX 39 66 40 67 49 68 41 69 42 70 48 71 50 72 43 73 44 74 45 75
REMARK SMILES IDX 46 76 47 77 73 78 74 79 83 80 75 81 76 82 82 83 84 84 77 85
REMARK SMILES IDX 78 86 79 87 80 88 81 89 57 90 58 91 67 92 59 93 60 94 66 95
REMARK SMILES IDX 68 96 61 97 62 98 63 99 64 100 65 101
REMARK H PARENT 98 23 89 51 55 62
REMARK Flexibility Score: inf
ROOT
ATOM      1  C   UNL A   1      34.010  31.187  27.702  1.00  0.00     0.275 C 
ENDROOT
BRANCH   1   2
ATOM      2  O   UNL A   1      32.931  30.244  27.580  1.00  0.00    -0.458 OA
BRANCH   2   3
ATOM      3  C   UNL A   1      32.354  30.153  26.356  1.00  0.00     0.338 C 
ATOM      4  O   UNL A   1      31.497  30.895  25.902  1.00  0.00    -0.246 OA
BRANCH   3   5
ATOM      5  C   UNL A   1      33.020  29.096  25.560  1.00  0.00     0.060 A 
ATOM      6  C   UNL A   1      33.812  26.810  24.092  1.00  0.00    -0.025 A 
ATOM      7  C   UNL A   1      33.802  26.815  25.501  1.00  0.00     0.007 A 
ATOM      8  C   UNL A   1      33.627  28.051  23.460  1.00  0.00     0.007 A 
ATOM      9  C   UNL A   1      33.415  27.941  26.228  1.00  0.00     0.016 A 
ATOM     10  C   UNL A   1      33.191  29.174  24.177  1.00  0.00     0.016 A 
BRANCH   6  11
ATOM     11  C   UNL A   1      33.955  25.508  23.273  1.00  0.00     0.114 C 
ATOM     12  C   UNL A   1      32.459  22.935  26.318  1.00  0.00     0.065 A 
ATOM     13  C   UNL A   1      33.327  22.427  27.281  1.00  0.00     0.016 A 
ATOM     14  C   UNL A   1      32.952  23.639  25.197  1.00  0.00    -0.003 A 
ATOM     15  C   UNL A   1      34.699  22.631  27.143  1.00  0.00     0.006 A 
ATOM     16  C   UNL A   1      34.349  23.812  25.036  1.00  0.00     0.042 A 
ATOM     17  C   UNL A   1      32.004  24.098  24.116  1.00  0.00     0.050 C 
ATOM     18  C   UNL A   1      35.225  23.305  26.024  1.00  0.00    -0.028 A 
ATOM     19  N   UNL A   1      34.833  24.559  23.961  1.00  0.00    -0.377 N 
ATOM     20  C   UNL A   1      31.034  25.203  24.432  1.00  0.00    -0.023 C 
ATOM     21  C   UNL A   1      32.687  24.689  22.871  1.00  0.00     0.031 C 
ATOM     22  C   UNL A   1      36.718  23.514  26.000  1.00  0.00     0.046 C 
ATOM     23  H   UNL A   1      35.765  24.449  23.666  1.00  0.00     0.161 HD
ATOM     24  C   UNL A   1      30.725  25.904  23.333  1.00  0.00    -0.030 C 
ATOM     25  C   UNL A   1      31.547  25.444  22.173  1.00  0.00     0.034 C 
BRANCH  12  26
ATOM     26  C   UNL A   1      31.014  22.653  26.441  1.00  0.00     0.338 C 
ATOM     27  O   UNL A   1      30.431  21.808  25.789  1.00  0.00    -0.246 OA
BRANCH  26  28
ATOM     28  O   UNL A   1      30.466  23.566  27.278  1.00  0.00    -0.465 OA
ATOM     29  C   UNL A   1      29.042  23.708  27.213  1.00  0.00     0.282 C 
ENDBRANCH  26  28
ENDBRANCH  12  26
ENDBRANCH   6  11
ENDBRANCH   3   5
ENDBRANCH   2   3
ENDBRANCH   1   2
BRANCH   1  30
ATOM     30  C   UNL A   1      35.317  30.474  28.060  1.00  0.00     0.275 C 
BRANCH  30  31
ATOM     31  O   UNL A   1      36.014  31.133  29.137  1.00  0.00    -0.458 OA
BRANCH  31  32
ATOM     32  C   UNL A   1      36.640  30.306  30.008  1.00  0.00     0.338 C 
ATOM     33  O   UNL A   1      36.128  29.686  30.926  1.00  0.00    -0.246 OA
BRANCH  32  34
ATOM     34  C   UNL A   1      38.074  30.203  29.682  1.00  0.00     0.060 A 
ATOM     35  C   UNL A   1      38.427  29.903  28.368  1.00  0.00     0.016 A 
ATOM     36  C   UNL A   1      39.053  30.249  30.679  1.00  0.00     0.016 A 
ATOM     37  C   UNL A   1      39.755  29.616  28.049  1.00  0.00     0.010 A 
ATOM     38  C   UNL A   1      40.387  29.945  30.358  1.00  0.00     0.010 A 
ATOM     39  C   UNL A   1      40.741  29.589  29.047  1.00  0.00    -0.014 A 
BRANCH  39  40
ATOM     40  C   UNL A   1      42.126  29.176  28.686  1.00  0.00     0.031 A 
ATOM     41  C   UNL A   1      42.467  27.738  28.396  1.00  0.00     0.074 A 
ATOM     42  C   UNL A   1      43.071  30.118  28.519  1.00  0.00     0.049 A 
ATOM     43  N   UNL A   1      43.525  27.240  27.808  1.00  0.00    -0.248 NA
ATOM     44  C   UNL A   1      41.467  26.730  28.757  1.00  0.00     0.031 C 
ATOM     45  C   UNL A   1      42.879  31.551  28.732  1.00  0.00     0.029 A 
ATOM     46  N   UNL A   1      44.385  30.003  28.145  1.00  0.00    -0.354 N 
ATOM     47  C   UNL A   1      43.264  25.884  27.637  1.00  0.00     0.074 A 
ATOM     48  C   UNL A   1      41.963  25.629  28.210  1.00  0.00     0.031 C 
ATOM     49  C   UNL A   1      44.045  32.181  28.518  1.00  0.00     0.029 A 
ATOM     50  C   UNL A   1      45.067  31.193  28.175  1.00  0.00     0.049 A 
ATOM     51  H   UNL A   1      44.798  29.150  27.881  1.00  0.00     0.167 HD
ATOM     52  C   UNL A   1      44.044  24.934  27.068  1.00  0.00     0.037 A 
ATOM     53  C   UNL A   1      46.375  31.451  27.985  1.00  0.00     0.037 A 
ATOM     54  C   UNL A   1      45.415  25.144  26.688  1.00  0.00     0.049 A 
ATOM     55  C   UNL A   1      47.298  30.331  27.592  1.00  0.00     0.074 A 
ATOM     56  C   UNL A   1      46.320  24.227  26.183  1.00  0.00     0.029 A 
ATOM     57  N   UNL A   1      46.102  26.337  26.852  1.00  0.00    -0.354 N 
ATOM     58  N   UNL A   1      47.008  29.080  27.324  1.00  0.00    -0.248 NA
ATOM     59  C   UNL A   1      48.727  30.655  27.475  1.00  0.00     0.031 C 
ATOM     60  C   UNL A   1      47.575  24.845  26.121  1.00  0.00     0.029 A 
ATOM     61  C   UNL A   1      47.436  26.163  26.527  1.00  0.00     0.049 A 
ATOM     62  H   UNL A   1      45.699  27.183  27.154  1.00  0.00     0.167 HD
ATOM     63  C   UNL A   1      48.213  28.472  26.989  1.00  0.00     0.074 A 
ATOM     64  C   UNL A   1      49.235  29.494  27.081  1.00  0.00     0.031 C 
ATOM     65  C   UNL A   1      48.448  27.184  26.634  1.00  0.00     0.037 A 
BRANCH  52  66
ATOM     66  C   UNL A   1      43.459  23.563  26.877  1.00  0.00     0.058 A 
ATOM     67  C   UNL A   1      43.062  23.115  25.607  1.00  0.00     0.135 A 
ATOM     68  C   UNL A   1      43.371  22.659  27.948  1.00  0.00     0.135 A 
ATOM     69  F   UNL A   1      43.133  23.941  24.551  1.00  0.00    -0.206 F 
ATOM     70  C   UNL A   1      42.597  21.819  25.404  1.00  0.00     0.059 A 
ATOM     71  C   UNL A   1      42.921  21.354  27.766  1.00  0.00     0.059 A 
ATOM     72  F   UNL A   1      43.734  23.039  29.182  1.00  0.00    -0.206 F 
ATOM     73  C   UNL A   1      42.534  20.942  26.490  1.00  0.00     0.060 A 
BRANCH  73  74
ATOM     74  S   UNL A   1      41.968  19.249  26.207  1.00  0.00     0.124 S 
ATOM     75  O   UNL A   1      40.538  19.444  25.987  1.00  0.00    -0.237 OA
ATOM     76  O   UNL A   1      42.743  18.852  25.035  1.00  0.00    -0.237 OA
ATOM     77  O   UNL A   1      42.318  18.559  27.446  1.00  0.00    -0.744 OA
ENDBRANCH  73  74
ENDBRANCH  52  66
BRANCH  53  78
ATOM     78  C   UNL A   1      46.883  32.825  28.224  1.00  0.00     0.058 A 
ATOM     79  C   UNL A   1      47.395  33.212  29.469  1.00  0.00     0.135 A 
ATOM     80  C   UNL A   1      46.887  33.773  27.186  1.00  0.00     0.135 A 
ATOM     81  F   UNL A   1      47.403  32.345  30.492  1.00  0.00    -0.206 F 
ATOM     82  C   UNL A   1      47.894  34.494  29.678  1.00  0.00     0.059 A 
ATOM     83  C   UNL A   1      47.402  35.050  27.365  1.00  0.00     0.059 A 
ATOM     84  F   UNL A   1      46.413  33.445  25.974  1.00  0.00    -0.206 F 
ATOM     85  C   UNL A   1      47.898  35.404  28.618  1.00  0.00     0.060 A 
BRANCH  85  86
ATOM     86  S   UNL A   1      48.597  37.047  28.885  1.00  0.00     0.124 S 
ATOM     87  O   UNL A   1      49.229  37.309  27.596  1.00  0.00    -0.237 OA
ATOM     88  O   UNL A   1      47.409  37.839  29.188  1.00  0.00    -0.237 OA
ATOM     89  O   UNL A   1      49.511  36.846  30.006  1.00  0.00    -0.744 OA
ENDBRANCH  85  86
ENDBRANCH  53  78
BRANCH  65  90
ATOM     90  C   UNL A   1      49.864  26.792  26.317  1.00  0.00     0.058 A 
ATOM     91  C   UNL A   1      50.694  26.206  27.284  1.00  0.00     0.135 A 
ATOM     92  C   UNL A   1      50.365  26.924  25.012  1.00  0.00     0.135 A 
ATOM     93  F   UNL A   1      50.266  26.064  28.548  1.00  0.00    -0.206 F 
ATOM     94  C   UNL A   1      51.977  25.770  26.970  1.00  0.00     0.059 A 
ATOM     95  C   UNL A   1      51.636  26.473  24.670  1.00  0.00     0.059 A 
ATOM     96  F   UNL A   1      49.606  27.470  24.049  1.00  0.00    -0.206 F 
ATOM     97  C   UNL A   1      52.437  25.902  25.658  1.00  0.00     0.060 A 
BRANCH  97  98
ATOM     98  S   UNL A   1      54.082  25.279  25.251  1.00  0.00     0.124 S 
ATOM     99  O   UNL A   1      54.466  26.157  24.151  1.00  0.00    -0.237 OA
ATOM    100  O   UNL A   1      54.809  25.475  26.502  1.00  0.00    -0.237 OA
ATOM    101  O   UNL A   1      53.838  23.887  24.886  1.00  0.00    -0.744 OA
ENDBRANCH  97  98
ENDBRANCH  65  90
ENDBRANCH  39  40
ENDBRANCH  32  34
ENDBRANCH  31  32
ENDBRANCH  30  31
ENDBRANCH   1  30
TORSDOF 17
ENDMDL
MODEL 2
REMARK VINA RESULT:     -12.1      0.575      8.025
REMARK SMILES COC(=O)c1ccc(C)c2c1[C@H]1C=CC[C@H]1[C@@H](c1ccc(C(=O)OCCOC(=O)c3ccc(-c4c5nc(c(-c6c(F)cc(S(=O)(=O)[O-])cc6F)c6ccc([nH]6)c(-c6c(F)cc(S(=O)(=O)[O-])cc6F)c6nc(c(-c7c(F)cc(S(=O)(=O)[O-])cc7F)c7ccc4[nH]7)C=C6)C=C5)cc3)cc1)N2
REMARK SMILES IDX 25 1 24 2 22 3 23 4 21 5 18 6 19 7 97 8 20 9 96 10 17 11
REMARK SMILES IDX 5 12 6 13 11 14 7 15 10 16 12 17 8 18 98 19 13 20 16 21 9 22
REMARK SMILES IDX 14 24 15 25 3 26 4 27 2 28 1 29 26 30 27 31 28 32 29 33
REMARK SMILES IDX 30 34 31 35 95 36 32 37 94 38 33 39 34 40 35 41 88 42 36 43
REMARK SMILES IDX 93 44 87 45 89 46 37 47 92 48 86 49 85 50 38 52 72 53 51 54
REMARK SMILES IDX 71 55 52 56 55 57 70 58 90 59 53 60 54 61 69 63 91 64 56 65
REMARK SMILES IDX 39 66 40 67 49 68 41 69 42 70 48 71 50 72 43 73 44 74 45 75
REMARK SMILES IDX 46 76 47 77 73 78 74 79 83 80 75 81 76 82 82 83 84 84 77 85
REMARK SMILES IDX 78 86 79 87 80 88 81 89 57 90 58 91 67 92 59 93 60 94 66 95
REMARK SMILES IDX 68 96 61 97 62 98 63 99 64 100 65 101
REMARK H PARENT 98 23 89 51 55 62
REMARK Flexibility Score: inf
ROOT
ATOM      1  C   UNL A   1      33.968  31.717  27.572  1.00  0.00     0.275 C 
ENDROOT
BRANCH   1   2
ATOM      2  O   UNL A   1      33.257  30.466  27.581  1.00  0.00    -0.458 OA
BRANCH   2   3
ATOM      3  C   UNL A   1      32.485  30.210  26.496  1.00  0.00     0.338 C 
ATOM      4  O   UNL A   1      31.493  30.833  26.151  1.00  0.00    -0.246 OA
BRANCH   3   5
ATOM      5  C   UNL A   1      33.101  29.140  25.678  1.00  0.00     0.060 A 
ATOM      6  C   UNL A   1      33.798  26.833  24.196  1.00  0.00    -0.025 A 
ATOM      7  C   UNL A   1      33.863  26.854  25.603  1.00  0.00     0.007 A 
ATOM      8  C   UNL A   1      33.589  28.069  23.560  1.00  0.00     0.007 A 
ATOM      9  C   UNL A   1      33.523  27.990  26.337  1.00  0.00     0.016 A 
ATOM     10  C   UNL A   1      33.199  29.203  24.287  1.00  0.00     0.016 A 
BRANCH   6  11
ATOM     11  C   UNL A   1      33.889  25.522  23.384  1.00  0.00     0.114 C 
ATOM     12  C   UNL A   1      32.276  23.032  26.438  1.00  0.00     0.065 A 
ATOM     13  C   UNL A   1      33.119  22.493  27.408  1.00  0.00     0.016 A 
ATOM     14  C   UNL A   1      32.802  23.708  25.315  1.00  0.00    -0.003 A 
ATOM     15  C   UNL A   1      34.498  22.639  27.273  1.00  0.00     0.006 A 
ATOM     16  C   UNL A   1      34.205  23.821  25.158  1.00  0.00     0.042 A 
ATOM     17  C   UNL A   1      31.878  24.200  24.228  1.00  0.00     0.050 C 
ATOM     18  C   UNL A   1      35.056  23.284  26.152  1.00  0.00    -0.028 A 
ATOM     19  N   UNL A   1      34.724  24.541  24.081  1.00  0.00    -0.377 N 
ATOM     20  C   UNL A   1      30.954  25.347  24.534  1.00  0.00    -0.023 C 
ATOM     21  C   UNL A   1      32.589  24.755  22.982  1.00  0.00     0.031 C 
ATOM     22  C   UNL A   1      36.556  23.429  26.132  1.00  0.00     0.046 C 
ATOM     23  H   UNL A   1      35.652  24.390  23.789  1.00  0.00     0.161 HD
ATOM     24  C   UNL A   1      30.678  26.054  23.431  1.00  0.00    -0.030 C 
ATOM     25  C   UNL A   1      31.484  25.553  22.277  1.00  0.00     0.034 C 
BRANCH  12  26
ATOM     26  C   UNL A   1      30.820  22.812  26.558  1.00  0.00     0.338 C 
ATOM     27  O   UNL A   1      30.216  21.941  25.962  1.00  0.00    -0.246 OA
BRANCH  26  28
ATOM     28  O   UNL A   1      30.295  23.804  27.315  1.00  0.00    -0.465 OA
ATOM     29  C   UNL A   1      28.954  24.198  26.998  1.00  0.00     0.282 C 
ENDBRANCH  26  28
ENDBRANCH  12  26
ENDBRANCH   6  11
ENDBRANCH   3   5
ENDBRANCH   2   3
ENDBRANCH   1   2
BRANCH   1  30
ATOM     30  C   UNL A   1      34.681  31.946  28.908  1.00  0.00     0.275 C 
BRANCH  30  31
ATOM     31  O   UNL A   1      35.589  30.872  29.225  1.00  0.00    -0.458 OA
BRANCH  31  32
ATOM     32  C   UNL A   1      36.614  31.208  30.043  1.00  0.00     0.338 C 
ATOM     33  O   UNL A   1      36.568  31.957  31.005  1.00  0.00    -0.246 OA
BRANCH  32  34
ATOM     34  C   UNL A   1      37.846  30.501  29.646  1.00  0.00     0.060 A 
ATOM     35  C   UNL A   1      38.858  30.367  30.593  1.00  0.00     0.016 A 
ATOM     36  C   UNL A   1      38.066  30.108  28.322  1.00  0.00     0.016 A 
ATOM     37  C   UNL A   1      40.107  29.871  30.216  1.00  0.00     0.010 A 
ATOM     38  C   UNL A   1      39.328  29.623  27.942  1.00  0.00     0.010 A 
ATOM     39  C   UNL A   1      40.371  29.536  28.879  1.00  0.00    -0.014 A 
BRANCH  39  40
ATOM     40  C   UNL A   1      41.745  29.109  28.497  1.00  0.00     0.031 A 
ATOM     41  C   UNL A   1      42.886  30.090  28.443  1.00  0.00     0.074 A 
ATOM     42  C   UNL A   1      41.996  27.805  28.290  1.00  0.00     0.049 A 
ATOM     43  N   UNL A   1      44.175  29.861  28.405  1.00  0.00    -0.248 NA
ATOM     44  C   UNL A   1      42.544  31.514  28.500  1.00  0.00     0.031 C 
ATOM     45  C   UNL A   1      40.999  26.737  28.339  1.00  0.00     0.029 A 
ATOM     46  N   UNL A   1      43.166  27.162  27.982  1.00  0.00    -0.354 N 
ATOM     47  C   UNL A   1      44.788  31.104  28.541  1.00  0.00     0.074 A 
ATOM     48  C   UNL A   1      43.733  32.087  28.632  1.00  0.00     0.031 C 
ATOM     49  C   UNL A   1      41.595  25.572  28.037  1.00  0.00     0.029 A 
ATOM     50  C   UNL A   1      43.007  25.818  27.753  1.00  0.00     0.049 A 
ATOM     51  H   UNL A   1      44.036  27.619  27.931  1.00  0.00     0.167 HD
ATOM     52  C   UNL A   1      46.109  31.400  28.573  1.00  0.00     0.037 A 
ATOM     53  C   UNL A   1      43.893  24.898  27.325  1.00  0.00     0.037 A 
ATOM     54  C   UNL A   1      47.150  30.454  28.276  1.00  0.00     0.049 A 
ATOM     55  C   UNL A   1      45.328  25.296  27.118  1.00  0.00     0.074 A 
ATOM     56  C   UNL A   1      48.515  30.670  28.197  1.00  0.00     0.029 A 
ATOM     57  N   UNL A   1      46.933  29.130  27.928  1.00  0.00    -0.354 N 
ATOM     58  N   UNL A   1      45.907  26.446  27.363  1.00  0.00    -0.248 NA
ATOM     59  C   UNL A   1      46.232  24.271  26.575  1.00  0.00     0.031 C 
ATOM     60  C   UNL A   1      49.113  29.498  27.719  1.00  0.00     0.029 A 
ATOM     61  C   UNL A   1      48.127  28.535  27.562  1.00  0.00     0.049 A 
ATOM     62  H   UNL A   1      46.057  28.679  27.941  1.00  0.00     0.167 HD
ATOM     63  C   UNL A   1      47.246  26.281  27.023  1.00  0.00     0.074 A 
ATOM     64  C   UNL A   1      47.392  24.915  26.562  1.00  0.00     0.031 C 
ATOM     65  C   UNL A   1      48.260  27.178  27.092  1.00  0.00     0.037 A 
BRANCH  52  66
ATOM     66  C   UNL A   1      46.506  32.817  28.879  1.00  0.00     0.058 A 
ATOM     67  C   UNL A   1      46.800  33.219  30.191  1.00  0.00     0.135 A 
ATOM     68  C   UNL A   1      46.676  33.758  27.851  1.00  0.00     0.135 A 
ATOM     69  F   UNL A   1      46.657  32.354  31.208  1.00  0.00    -0.206 F 
ATOM     70  C   UNL A   1      47.249  34.506  30.475  1.00  0.00     0.059 A 
ATOM     71  C   UNL A   1      47.137  35.046  28.110  1.00  0.00     0.059 A 
ATOM     72  F   UNL A   1      46.405  33.424  26.580  1.00  0.00    -0.206 F 
ATOM     73  C   UNL A   1      47.420  35.413  29.427  1.00  0.00     0.060 A 
BRANCH  73  74
ATOM     74  S   UNL A   1      48.044  37.068  29.802  1.00  0.00     0.124 S 
ATOM     75  O   UNL A   1      48.741  36.846  31.065  1.00  0.00    -0.237 OA
ATOM     76  O   UNL A   1      48.893  37.350  28.649  1.00  0.00    -0.237 OA
ATOM     77  O   UNL A   1      46.832  37.877  29.895  1.00  0.00    -0.744 OA
ENDBRANCH  73  74
ENDBRANCH  52  66
BRANCH  53  78
ATOM     78  C   UNL A   1      43.417  23.527  27.013  1.00  0.00     0.058 A 
ATOM     79  C   UNL A   1      43.208  23.104  25.695  1.00  0.00     0.135 A 
ATOM     80  C   UNL A   1      43.189  22.601  28.046  1.00  0.00     0.135 A 
ATOM     81  F   UNL A   1      43.404  23.955  24.677  1.00  0.00    -0.206 F 
ATOM     82  C   UNL A   1      42.787  21.809  25.409  1.00  0.00     0.059 A 
ATOM     83  C   UNL A   1      42.792  21.297  27.784  1.00  0.00     0.059 A 
ATOM     84  F   UNL A   1      43.383  22.960  29.326  1.00  0.00    -0.206 F 
ATOM     85  C   UNL A   1      42.587  20.911  26.461  1.00  0.00     0.060 A 
BRANCH  85  86
ATOM     86  S   UNL A   1      42.093  19.217  26.076  1.00  0.00     0.124 S 
ATOM     87  O   UNL A   1      42.451  18.522  27.308  1.00  0.00    -0.237 OA
ATOM     88  O   UNL A   1      40.664  19.367  25.819  1.00  0.00    -0.237 OA
ATOM     89  O   UNL A   1      42.903  18.889  24.907  1.00  0.00    -0.744 OA
ENDBRANCH  85  86
ENDBRANCH  53  78
BRANCH  65  90
ATOM     90  C   UNL A   1      49.626  26.726  26.658  1.00  0.00     0.058 A 
ATOM     91  C   UNL A   1      50.462  25.996  27.517  1.00  0.00     0.135 A 
ATOM     92  C   UNL A   1      50.067  26.949  25.343  1.00  0.00     0.135 A 
ATOM     93  F   UNL A   1      50.091  25.763  28.785  1.00  0.00    -0.206 F 
ATOM     94  C   UNL A   1      51.693  25.509  27.089  1.00  0.00     0.059 A 
ATOM     95  C   UNL A   1      51.283  26.449  24.887  1.00  0.00     0.059 A 
ATOM     96  F   UNL A   1      49.299  27.634  24.480  1.00  0.00    -0.206 F 
ATOM     97  C   UNL A   1      52.092  25.735  25.770  1.00  0.00     0.060 A 
BRANCH  97  98
ATOM     98  S   UNL A   1      53.664  25.047  25.212  1.00  0.00     0.124 S 
ATOM     99  O   UNL A   1      53.427  23.615  25.357  1.00  0.00    -0.237 OA
ATOM    100  O   UNL A   1      53.752  25.539  23.840  1.00  0.00    -0.237 OA
ATOM    101  O   UNL A   1      54.635  25.619  26.140  1.00  0.00    -0.744 OA
ENDBRANCH  97  98
ENDBRANCH  65  90
ENDBRANCH  39  40
ENDBRANCH  32  34
ENDBRANCH  31  32
ENDBRANCH  30  31
ENDBRANCH   1  30
TORSDOF 17
ENDMDL
MODEL 3
REMARK VINA RESULT:     -12.0      6.646     11.624
REMARK SMILES COC(=O)c1ccc(C)c2c1[C@H]1C=CC[C@H]1[C@@H](c1ccc(C(=O)OCCOC(=O)c3ccc(-c4c5nc(c(-c6c(F)cc(S(=O)(=O)[O-])cc6F)c6ccc([nH]6)c(-c6c(F)cc(S(=O)(=O)[O-])cc6F)c6nc(c(-c7c(F)cc(S(=O)(=O)[O-])cc7F)c7ccc4[nH]7)C=C6)C=C5)cc3)cc1)N2
REMARK SMILES IDX 25 1 24 2 22 3 23 4 21 5 18 6 19 7 97 8 20 9 96 10 17 11
REMARK SMILES IDX 5 12 6 13 11 14 7 15 10 16 12 17 8 18 98 19 13 20 16 21 9 22
REMARK SMILES IDX 14 24 15 25 3 26 4 27 2 28 1 29 26 30 27 31 28 32 29 33
REMARK SMILES IDX 30 34 31 35 95 36 32 37 94 38 33 39 34 40 35 41 88 42 36 43
REMARK SMILES IDX 93 44 87 45 89 46 37 47 92 48 86 49 85 50 38 52 72 53 51 54
REMARK SMILES IDX 71 55 52 56 55 57 70 58 90 59 53 60 54 61 69 63 91 64 56 65
REMARK SMILES IDX 39 66 40 67 49 68 41 69 42 70 48 71 50 72 43 73 44 74 45 75
REMARK SMILES IDX 46 76 47 77 73 78 74 79 83 80 75 81 76 82 82 83 84 84 77 85
REMARK SMILES IDX 78 86 79 87 80 88 81 89 57 90 58 91 67 92 59 93 60 94 66 95
REMARK SMILES IDX 68 96 61 97 62 98 63 99 64 100 65 101
REMARK H PARENT 98 23 89 51 55 62
REMARK Flexibility Score: inf
ROOT
ATOM      1  C   UNL A   1      39.271  21.787  26.006  1.00  0.00     0.275 C 
ENDROOT
BRANCH   1   2
ATOM      2  O   UNL A   1      37.910  21.327  25.918  1.00  0.00    -0.458 OA
BRANCH   2   3
ATOM      3  C   UNL A   1      37.136  21.930  24.982  1.00  0.00     0.338 C 
ATOM      4  O   UNL A   1      37.243  21.814  23.770  1.00  0.00    -0.246 OA
BRANCH   3   5
ATOM      5  C   UNL A   1      36.020  22.650  25.635  1.00  0.00     0.060 A 
ATOM      6  C   UNL A   1      33.668  24.038  26.377  1.00  0.00    -0.025 A 
ATOM      7  C   UNL A   1      34.754  24.699  25.771  1.00  0.00     0.007 A 
ATOM      8  C   UNL A   1      33.893  22.716  26.796  1.00  0.00     0.007 A 
ATOM      9  C   UNL A   1      35.917  24.019  25.407  1.00  0.00     0.016 A 
ATOM     10  C   UNL A   1      35.037  22.011  26.392  1.00  0.00     0.016 A 
BRANCH   6  11
ATOM     11  C   UNL A   1      32.279  24.698  26.526  1.00  0.00     0.114 C 
ATOM     12  C   UNL A   1      32.576  27.082  23.009  1.00  0.00     0.065 A 
ATOM     13  C   UNL A   1      33.181  28.335  23.073  1.00  0.00     0.016 A 
ATOM     14  C   UNL A   1      32.301  26.349  24.185  1.00  0.00    -0.003 A 
ATOM     15  C   UNL A   1      33.532  28.863  24.314  1.00  0.00     0.006 A 
ATOM     16  C   UNL A   1      32.622  26.904  25.448  1.00  0.00     0.042 A 
ATOM     17  C   UNL A   1      31.558  25.037  24.102  1.00  0.00     0.050 C 
ATOM     18  C   UNL A   1      33.248  28.171  25.506  1.00  0.00    -0.028 A 
ATOM     19  N   UNL A   1      32.406  26.155  26.606  1.00  0.00    -0.377 N 
ATOM     20  C   UNL A   1      32.254  23.856  23.482  1.00  0.00    -0.023 C 
ATOM     21  C   UNL A   1      31.166  24.434  25.461  1.00  0.00     0.031 C 
ATOM     22  C   UNL A   1      33.715  28.810  26.789  1.00  0.00     0.046 C 
ATOM     23  H   UNL A   1      32.339  26.606  27.478  1.00  0.00     0.161 HD
ATOM     24  C   UNL A   1      31.803  22.704  23.997  1.00  0.00    -0.030 C 
ATOM     25  C   UNL A   1      30.849  22.972  25.116  1.00  0.00     0.034 C 
BRANCH  12  26
ATOM     26  C   UNL A   1      32.147  26.563  21.694  1.00  0.00     0.338 C 
ATOM     27  O   UNL A   1      30.993  26.562  21.310  1.00  0.00    -0.246 OA
BRANCH  26  28
ATOM     28  O   UNL A   1      33.214  25.993  21.086  1.00  0.00    -0.465 OA
ATOM     29  C   UNL A   1      32.921  25.025  20.072  1.00  0.00     0.282 C 
ENDBRANCH  26  28
ENDBRANCH  12  26
ENDBRANCH   6  11
ENDBRANCH   3   5
ENDBRANCH   2   3
ENDBRANCH   1   2
BRANCH   1  30
ATOM     30  C   UNL A   1      39.329  23.207  26.574  1.00  0.00     0.275 C 
BRANCH  30  31
ATOM     31  O   UNL A   1      40.527  23.431  27.345  1.00  0.00    -0.458 OA
BRANCH  31  32
ATOM     32  C   UNL A   1      41.231  24.537  27.005  1.00  0.00     0.338 C 
ATOM     33  O   UNL A   1      42.023  24.646  26.083  1.00  0.00    -0.246 OA
BRANCH  32  34
ATOM     34  C   UNL A   1      40.886  25.662  27.893  1.00  0.00     0.060 A 
ATOM     35  C   UNL A   1      41.884  26.586  28.197  1.00  0.00     0.016 A 
ATOM     36  C   UNL A   1      39.647  25.727  28.539  1.00  0.00     0.016 A 
ATOM     37  C   UNL A   1      41.660  27.560  29.172  1.00  0.00     0.010 A 
ATOM     38  C   UNL A   1      39.431  26.699  29.530  1.00  0.00     0.010 A 
ATOM     39  C   UNL A   1      40.451  27.600  29.881  1.00  0.00    -0.014 A 
BRANCH  39  40
ATOM     40  C   UNL A   1      40.290  28.587  30.984  1.00  0.00     0.031 A 
ATOM     41  C   UNL A   1      41.090  28.481  32.256  1.00  0.00     0.074 A 
ATOM     42  C   UNL A   1      39.487  29.650  30.805  1.00  0.00     0.049 A 
ATOM     43  N   UNL A   1      41.286  29.379  33.188  1.00  0.00    -0.248 NA
ATOM     44  C   UNL A   1      41.813  27.228  32.486  1.00  0.00     0.031 C 
ATOM     45  C   UNL A   1      38.676  29.902  29.615  1.00  0.00     0.029 A 
ATOM     46  N   UNL A   1      39.213  30.707  31.633  1.00  0.00    -0.354 N 
ATOM     47  C   UNL A   1      42.235  28.834  34.049  1.00  0.00     0.074 A 
ATOM     48  C   UNL A   1      42.553  27.517  33.548  1.00  0.00     0.031 C 
ATOM     49  C   UNL A   1      37.967  31.027  29.804  1.00  0.00     0.029 A 
ATOM     50  C   UNL A   1      38.259  31.559  31.134  1.00  0.00     0.049 A 
ATOM     51  H   UNL A   1      39.658  30.843  32.500  1.00  0.00     0.167 HD
ATOM     52  C   UNL A   1      42.781  29.376  35.164  1.00  0.00     0.037 A 
ATOM     53  C   UNL A   1      37.662  32.624  31.700  1.00  0.00     0.037 A 
ATOM     54  C   UNL A   1      42.316  30.592  35.774  1.00  0.00     0.049 A 
ATOM     55  C   UNL A   1      38.104  33.079  33.064  1.00  0.00     0.074 A 
ATOM     56  C   UNL A   1      42.742  31.185  36.950  1.00  0.00     0.029 A 
ATOM     57  N   UNL A   1      41.263  31.358  35.298  1.00  0.00    -0.354 N 
ATOM     58  N   UNL A   1      39.080  32.619  33.809  1.00  0.00    -0.248 NA
ATOM     59  C   UNL A   1      37.364  34.197  33.666  1.00  0.00     0.031 C 
ATOM     60  C   UNL A   1      41.889  32.260  37.228  1.00  0.00     0.029 A 
ATOM     61  C   UNL A   1      40.975  32.374  36.192  1.00  0.00     0.049 A 
ATOM     62  H   UNL A   1      40.790  31.201  34.449  1.00  0.00     0.167 HD
ATOM     63  C   UNL A   1      39.085  33.401  34.959  1.00  0.00     0.074 A 
ATOM     64  C   UNL A   1      38.018  34.370  34.808  1.00  0.00     0.031 C 
ATOM     65  C   UNL A   1      39.902  33.325  36.039  1.00  0.00     0.037 A 
BRANCH  52  66
ATOM     66  C   UNL A   1      43.900  28.630  35.835  1.00  0.00     0.058 A 
ATOM     67  C   UNL A   1      45.241  28.965  35.591  1.00  0.00     0.135 A 
ATOM     68  C   UNL A   1      43.635  27.634  36.787  1.00  0.00     0.135 A 
ATOM     69  F   UNL A   1      45.545  29.915  34.693  1.00  0.00    -0.206 F 
ATOM     70  C   UNL A   1      46.283  28.338  36.270  1.00  0.00     0.059 A 
ATOM     71  C   UNL A   1      44.661  27.003  37.487  1.00  0.00     0.059 A 
ATOM     72  F   UNL A   1      42.370  27.274  37.053  1.00  0.00    -0.206 F 
ATOM     73  C   UNL A   1      45.983  27.360  37.221  1.00  0.00     0.060 A 
BRANCH  73  74
ATOM     74  S   UNL A   1      47.341  26.582  38.125  1.00  0.00     0.124 S 
ATOM     75  O   UNL A   1      48.281  26.276  37.050  1.00  0.00    -0.237 OA
ATOM     76  O   UNL A   1      47.750  27.638  39.044  1.00  0.00    -0.237 OA
ATOM     77  O   UNL A   1      46.714  25.420  38.751  1.00  0.00    -0.744 OA
ENDBRANCH  73  74
ENDBRANCH  52  66
BRANCH  53  78
ATOM     78  C   UNL A   1      36.542  33.289  30.989  1.00  0.00     0.058 A 
ATOM     79  C   UNL A   1      35.209  33.088  31.367  1.00  0.00     0.135 A 
ATOM     80  C   UNL A   1      36.798  34.168  29.923  1.00  0.00     0.135 A 
ATOM     81  F   UNL A   1      34.915  32.251  32.373  1.00  0.00    -0.206 F 
ATOM     82  C   UNL A   1      34.166  33.735  30.712  1.00  0.00     0.059 A 
ATOM     83  C   UNL A   1      35.776  34.843  29.269  1.00  0.00     0.059 A 
ATOM     84  F   UNL A   1      38.061  34.397  29.529  1.00  0.00    -0.206 F 
ATOM     85  C   UNL A   1      34.460  34.614  29.667  1.00  0.00     0.060 A 
BRANCH  85  86
ATOM     86  S   UNL A   1      33.103  35.490  28.860  1.00  0.00     0.124 S 
ATOM     87  O   UNL A   1      33.827  36.433  28.013  1.00  0.00    -0.237 OA
ATOM     88  O   UNL A   1      32.412  34.408  28.166  1.00  0.00    -0.237 OA
ATOM     89  O   UNL A   1      32.371  36.079  29.977  1.00  0.00    -0.744 OA
ENDBRANCH  85  86
ENDBRANCH  53  78
BRANCH  65  90
ATOM     90  C   UNL A   1      39.685  34.310  37.152  1.00  0.00     0.058 A 
ATOM     91  C   UNL A   1      38.993  33.953  38.320  1.00  0.00     0.135 A 
ATOM     92  C   UNL A   1      40.249  35.595  37.089  1.00  0.00     0.135 A 
ATOM     93  F   UNL A   1      38.428  32.740  38.427  1.00  0.00    -0.206 F 
ATOM     94  C   UNL A   1      38.860  34.839  39.384  1.00  0.00     0.059 A 
ATOM     95  C   UNL A   1      40.150  36.487  38.152  1.00  0.00     0.059 A 
ATOM     96  F   UNL A   1      40.929  35.981  35.998  1.00  0.00    -0.206 F 
ATOM     97  C   UNL A   1      39.448  36.102  39.293  1.00  0.00     0.060 A 
BRANCH  97  98
ATOM     98  S   UNL A   1      39.319  37.220  40.705  1.00  0.00     0.124 S 
ATOM     99  O   UNL A   1      38.739  36.347  41.720  1.00  0.00    -0.237 OA
ATOM    100  O   UNL A   1      40.709  37.611  40.923  1.00  0.00    -0.237 OA
ATOM    101  O   UNL A   1      38.444  38.283  40.218  1.00  0.00    -0.744 OA
ENDBRANCH  97  98
ENDBRANCH  65  90
ENDBRANCH  39  40
ENDBRANCH  32  34
ENDBRANCH  31  32
ENDBRANCH  30  31
ENDBRANCH   1  30
TORSDOF 17
ENDMDL
