MODEL 1
REMARK VINA RESULT:     -12.2      0.000      0.000
REMARK SMILES C[C@H]1N=N[C@H](S/C(=C/c2ccc(-c3cccc(Cl)c3)o2)C(=O)OCCOC(=O)c2ccc(-c3c4nc(c(-c5c(F)cc(S(=O)(=O)[O-])cc5F)c5ccc([nH]5)c(-c5c(F)cc(S(=O)(=O)[O-])cc5F)c5nc(c(-c6c(F)cc(S(=O)(=O)[O-])cc6F)c6ccc3[nH]6)C=C5)C=C4)cc2)[NH2+]1
REMARK SMILES IDX 25 1 24 2 23 3 21 4 22 5 7 6 8 7 6 8 5 9 1 10 2 11 3 12
REMARK SMILES IDX 95 13 4 14 9 17 10 18 20 19 11 20 12 21 13 22 14 23 19 24
REMARK SMILES IDX 15 25 17 26 16 27 18 28 26 29 27 30 28 31 29 32 30 33 94 34
REMARK SMILES IDX 31 35 93 36 32 37 33 38 34 39 87 40 35 41 92 42 86 43 88 44
REMARK SMILES IDX 36 45 91 46 85 47 84 48 37 50 71 51 50 52 70 53 51 54 54 55
REMARK SMILES IDX 69 56 89 57 52 58 53 59 68 61 90 62 55 63 38 64 39 65 48 66
REMARK SMILES IDX 40 67 41 68 47 69 49 70 42 71 43 72 44 73 45 74 46 75 72 76
REMARK SMILES IDX 73 77 82 78 74 79 75 80 81 81 83 82 76 83 77 84 78 85 79 86
REMARK SMILES IDX 80 87 56 88 57 89 66 90 58 91 59 92 65 93 67 94 60 95 61 96
REMARK SMILES IDX 62 97 63 98 64 99
REMARK H PARENT 95 15 95 16 88 49 54 60
REMARK Flexibility Score: inf
ROOT
ATOM      1  C   UNL A   1      34.119  29.670  27.299  1.00  0.00     0.275 C 
ENDROOT
BRANCH   1   2
ATOM      2  C   UNL A   1      33.028  28.618  27.453  1.00  0.00     0.275 C 
BRANCH   2   3
ATOM      3  O   UNL A   1      32.900  27.891  26.217  1.00  0.00    -0.458 OA
BRANCH   3   4
ATOM      4  C   UNL A   1      31.696  27.317  25.953  1.00  0.00     0.345 C 
ATOM      5  O   UNL A   1      30.953  26.779  26.758  1.00  0.00    -0.246 OA
BRANCH   4   6
ATOM      6  C   UNL A   1      31.418  27.414  24.492  1.00  0.00     0.104 C 
ATOM      7  C   UNL A   1      31.497  26.331  23.701  1.00  0.00     0.070 C 
BRANCH   6   8
ATOM      8  S   UNL A   1      31.264  29.031  23.892  1.00  0.00    -0.028 SA
BRANCH   8   9
ATOM      9  C   UNL A   1      30.185  28.903  22.437  1.00  0.00     0.393 C 
ATOM     10  C   UNL A   1      28.406  31.633  21.001  1.00  0.00     0.106 C 
ATOM     11  C   UNL A   1      28.992  30.765  22.104  1.00  0.00     0.324 C 
ATOM     12  N   UNL A   1      28.077  29.656  22.428  1.00  0.00    -0.126 NA
ATOM     13  N   UNL A   1      30.266  30.168  21.703  1.00  0.00    -0.293 N 
ATOM     14  N   UNL A   1      28.754  28.621  22.665  1.00  0.00    -0.115 NA
ATOM     15  H   UNL A   1      31.061  30.731  22.004  1.00  0.00     0.350 HD
ATOM     16  H   UNL A   1      30.403  30.076  20.696  1.00  0.00     0.350 HD
ENDBRANCH   8   9
ENDBRANCH   6   8
BRANCH   7  17
ATOM     17  C   UNL A   1      31.824  25.030  24.173  1.00  0.00     0.128 A 
ATOM     18  C   UNL A   1      31.034  23.981  24.632  1.00  0.00     0.051 A 
ATOM     19  O   UNL A   1      33.134  24.629  24.269  1.00  0.00    -0.457 OA
ATOM     20  C   UNL A   1      31.898  22.942  25.059  1.00  0.00     0.051 A 
ATOM     21  C   UNL A   1      33.177  23.391  24.828  1.00  0.00     0.134 A 
BRANCH  21  22
ATOM     22  C   UNL A   1      34.507  22.842  25.025  1.00  0.00     0.019 A 
ATOM     23  C   UNL A   1      34.776  21.505  24.708  1.00  0.00     0.012 A 
ATOM     24  C   UNL A   1      35.541  23.644  25.530  1.00  0.00     0.032 A 
ATOM     25  C   UNL A   1      36.058  20.979  24.877  1.00  0.00     0.002 A 
ATOM     26  C   UNL A   1      36.816  23.111  25.708  1.00  0.00     0.041 A 
ATOM     27  C   UNL A   1      37.080  21.784  25.378  1.00  0.00     0.020 A 
ATOM     28  Cl  UNL A   1      38.077  24.097  26.340  1.00  0.00    -0.084 Cl
ENDBRANCH  21  22
ENDBRANCH   7  17
ENDBRANCH   4   6
ENDBRANCH   3   4
ENDBRANCH   2   3
ENDBRANCH   1   2
BRANCH   1  29
ATOM     29  O   UNL A   1      35.268  29.217  28.032  1.00  0.00    -0.458 OA
BRANCH  29  30
ATOM     30  C   UNL A   1      35.892  30.146  28.786  1.00  0.00     0.338 C 
ATOM     31  O   UNL A   1      35.384  31.018  29.475  1.00  0.00    -0.246 OA
BRANCH  30  32
ATOM     32  C   UNL A   1      37.340  29.926  28.682  1.00  0.00     0.060 A 
ATOM     33  C   UNL A   1      37.936  29.923  27.421  1.00  0.00     0.016 A 
ATOM     34  C   UNL A   1      38.087  29.628  29.818  1.00  0.00     0.016 A 
ATOM     35  C   UNL A   1      39.258  29.514  27.278  1.00  0.00     0.010 A 
ATOM     36  C   UNL A   1      39.444  29.325  29.682  1.00  0.00     0.010 A 
ATOM     37  C   UNL A   1      40.035  29.221  28.408  1.00  0.00    -0.014 A 
BRANCH  37  38
ATOM     38  C   UNL A   1      41.444  28.760  28.266  1.00  0.00     0.031 A 
ATOM     39  C   UNL A   1      42.574  29.741  28.446  1.00  0.00     0.074 A 
ATOM     40  C   UNL A   1      41.722  27.474  27.974  1.00  0.00     0.049 A 
ATOM     41  N   UNL A   1      43.843  29.606  28.155  1.00  0.00    -0.248 NA
ATOM     42  C   UNL A   1      42.225  31.055  29.010  1.00  0.00     0.031 C 
ATOM     43  C   UNL A   1      40.736  26.402  27.821  1.00  0.00     0.029 A 
ATOM     44  N   UNL A   1      42.925  26.846  27.759  1.00  0.00    -0.354 N 
ATOM     45  C   UNL A   1      44.427  30.839  28.424  1.00  0.00     0.074 A 
ATOM     46  C   UNL A   1      43.376  31.705  28.914  1.00  0.00     0.031 C 
ATOM     47  C   UNL A   1      41.373  25.247  27.580  1.00  0.00     0.029 A 
ATOM     48  C   UNL A   1      42.805  25.507  27.473  1.00  0.00     0.049 A 
ATOM     49  H   UNL A   1      43.791  27.312  27.804  1.00  0.00     0.167 HD
ATOM     50  C   UNL A   1      45.718  31.215  28.266  1.00  0.00     0.037 A 
ATOM     51  C   UNL A   1      43.733  24.596  27.125  1.00  0.00     0.037 A 
ATOM     52  C   UNL A   1      46.774  30.326  27.854  1.00  0.00     0.049 A 
ATOM     53  C   UNL A   1      45.162  25.030  26.965  1.00  0.00     0.074 A 
ATOM     54  C   UNL A   1      48.120  30.601  27.694  1.00  0.00     0.029 A 
ATOM     55  N   UNL A   1      46.603  28.980  27.561  1.00  0.00    -0.354 N 
ATOM     56  N   UNL A   1      45.688  26.217  27.149  1.00  0.00    -0.248 NA
ATOM     57  C   UNL A   1      46.119  24.007  26.521  1.00  0.00     0.031 C 
ATOM     58  C   UNL A   1      48.762  29.424  27.284  1.00  0.00     0.029 A 
ATOM     59  C   UNL A   1      47.817  28.412  27.217  1.00  0.00     0.049 A 
ATOM     60  H   UNL A   1      45.744  28.500  27.594  1.00  0.00     0.167 HD
ATOM     61  C   UNL A   1      47.037  26.085  26.847  1.00  0.00     0.074 A 
ATOM     62  C   UNL A   1      47.251  24.698  26.485  1.00  0.00     0.031 C 
ATOM     63  C   UNL A   1      48.009  27.030  26.861  1.00  0.00     0.037 A 
BRANCH  50  64
ATOM     64  C   UNL A   1      46.052  32.661  28.499  1.00  0.00     0.058 A 
ATOM     65  C   UNL A   1      46.449  33.145  29.755  1.00  0.00     0.135 A 
ATOM     66  C   UNL A   1      45.974  33.579  27.438  1.00  0.00     0.135 A 
ATOM     67  F   UNL A   1      46.523  32.313  30.807  1.00  0.00    -0.206 F 
ATOM     68  C   UNL A   1      46.724  34.493  29.961  1.00  0.00     0.059 A 
ATOM     69  C   UNL A   1      46.266  34.927  27.615  1.00  0.00     0.059 A 
ATOM     70  F   UNL A   1      45.600  33.168  26.216  1.00  0.00    -0.206 F 
ATOM     71  C   UNL A   1      46.622  35.379  28.885  1.00  0.00     0.060 A 
BRANCH  71  72
ATOM     72  S   UNL A   1      46.965  37.130  29.160  1.00  0.00     0.124 S 
ATOM     73  O   UNL A   1      45.630  37.708  29.045  1.00  0.00    -0.237 OA
ATOM     74  O   UNL A   1      47.542  37.134  30.501  1.00  0.00    -0.237 OA
ATOM     75  O   UNL A   1      47.892  37.467  28.084  1.00  0.00    -0.744 OA
ENDBRANCH  71  72
ENDBRANCH  50  64
BRANCH  51  76
ATOM     76  C   UNL A   1      43.327  23.189  26.878  1.00  0.00     0.058 A 
ATOM     77  C   UNL A   1      43.291  22.673  25.575  1.00  0.00     0.135 A 
ATOM     78  C   UNL A   1      43.012  22.322  27.936  1.00  0.00     0.135 A 
ATOM     79  F   UNL A   1      43.572  23.467  24.530  1.00  0.00    -0.206 F 
ATOM     80  C   UNL A   1      42.961  21.343  25.328  1.00  0.00     0.059 A 
ATOM     81  C   UNL A   1      42.702  20.985  27.716  1.00  0.00     0.059 A 
ATOM     82  F   UNL A   1      43.044  22.768  29.202  1.00  0.00    -0.206 F 
ATOM     83  C   UNL A   1      42.675  20.505  26.407  1.00  0.00     0.060 A 
BRANCH  83  84
ATOM     84  S   UNL A   1      42.331  18.760  26.089  1.00  0.00     0.124 S 
ATOM     85  O   UNL A   1      40.922  18.803  25.715  1.00  0.00    -0.237 OA
ATOM     86  O   UNL A   1      43.267  18.448  25.014  1.00  0.00    -0.237 OA
ATOM     87  O   UNL A   1      42.627  18.125  27.369  1.00  0.00    -0.744 OA
ENDBRANCH  83  84
ENDBRANCH  51  76
BRANCH  63  88
ATOM     88  C   UNL A   1      49.395  26.586  26.493  1.00  0.00     0.058 A 
ATOM     89  C   UNL A   1      50.236  25.966  27.429  1.00  0.00     0.135 A 
ATOM     90  C   UNL A   1      49.870  26.749  25.183  1.00  0.00     0.135 A 
ATOM     91  F   UNL A   1      49.827  25.796  28.696  1.00  0.00    -0.206 F 
ATOM     92  C   UNL A   1      51.512  25.537  27.082  1.00  0.00     0.059 A 
ATOM     93  C   UNL A   1      51.137  26.312  24.810  1.00  0.00     0.059 A 
ATOM     94  F   UNL A   1      49.098  27.331  24.252  1.00  0.00    -0.206 F 
ATOM     95  C   UNL A   1      51.954  25.716  25.770  1.00  0.00     0.060 A 
BRANCH  95  96
ATOM     96  S   UNL A   1      53.602  25.131  25.318  1.00  0.00     0.124 S 
ATOM     97  O   UNL A   1      53.438  23.685  25.424  1.00  0.00    -0.237 OA
ATOM     98  O   UNL A   1      53.764  25.653  23.964  1.00  0.00    -0.237 OA
ATOM     99  O   UNL A   1      54.464  25.742  26.325  1.00  0.00    -0.744 OA
ENDBRANCH  95  96
ENDBRANCH  63  88
ENDBRANCH  37  38
ENDBRANCH  30  32
ENDBRANCH  29  30
ENDBRANCH   1  29
TORSDOF 18
ENDMDL
MODEL 2
REMARK VINA RESULT:     -12.0      1.964      2.677
REMARK SMILES C[C@H]1N=N[C@H](S/C(=C/c2ccc(-c3cccc(Cl)c3)o2)C(=O)OCCOC(=O)c2ccc(-c3c4nc(c(-c5c(F)cc(S(=O)(=O)[O-])cc5F)c5ccc([nH]5)c(-c5c(F)cc(S(=O)(=O)[O-])cc5F)c5nc(c(-c6c(F)cc(S(=O)(=O)[O-])cc6F)c6ccc3[nH]6)C=C5)C=C4)cc2)[NH2+]1
REMARK SMILES IDX 25 1 24 2 23 3 21 4 22 5 7 6 8 7 6 8 5 9 1 10 2 11 3 12
REMARK SMILES IDX 95 13 4 14 9 17 10 18 20 19 11 20 12 21 13 22 14 23 19 24
REMARK SMILES IDX 15 25 17 26 16 27 18 28 26 29 27 30 28 31 29 32 30 33 94 34
REMARK SMILES IDX 31 35 93 36 32 37 33 38 34 39 87 40 35 41 92 42 86 43 88 44
REMARK SMILES IDX 36 45 91 46 85 47 84 48 37 50 71 51 50 52 70 53 51 54 54 55
REMARK SMILES IDX 69 56 89 57 52 58 53 59 68 61 90 62 55 63 38 64 39 65 48 66
REMARK SMILES IDX 40 67 41 68 47 69 49 70 42 71 43 72 44 73 45 74 46 75 72 76
REMARK SMILES IDX 73 77 82 78 74 79 75 80 81 81 83 82 76 83 77 84 78 85 79 86
REMARK SMILES IDX 80 87 56 88 57 89 66 90 58 91 59 92 65 93 67 94 60 95 61 96
REMARK SMILES IDX 62 97 63 98 64 99
REMARK H PARENT 95 15 95 16 88 49 54 60
REMARK Flexibility Score: inf
ROOT
ATOM      1  C   UNL A   1      33.838  28.463  26.230  1.00  0.00     0.275 C 
ENDROOT
BRANCH   1   2
ATOM      2  C   UNL A   1      33.030  27.178  26.108  1.00  0.00     0.275 C 
BRANCH   2   3
ATOM      3  O   UNL A   1      31.631  27.489  26.250  1.00  0.00    -0.458 OA
BRANCH   3   4
ATOM      4  C   UNL A   1      30.757  26.794  25.475  1.00  0.00     0.345 C 
ATOM      5  O   UNL A   1      29.969  25.940  25.849  1.00  0.00    -0.246 OA
BRANCH   4   6
ATOM      6  C   UNL A   1      30.923  27.213  24.053  1.00  0.00     0.104 C 
ATOM      7  C   UNL A   1      31.333  26.339  23.119  1.00  0.00     0.070 C 
BRANCH   6   8
ATOM      8  S   UNL A   1      30.812  28.920  23.786  1.00  0.00    -0.028 SA
BRANCH   8   9
ATOM      9  C   UNL A   1      29.656  29.116  22.399  1.00  0.00     0.393 C 
ATOM     10  C   UNL A   1      28.286  32.227  21.340  1.00  0.00     0.106 C 
ATOM     11  C   UNL A   1      28.773  31.169  22.318  1.00  0.00     0.324 C 
ATOM     12  N   UNL A   1      27.704  30.193  22.597  1.00  0.00    -0.126 NA
ATOM     13  N   UNL A   1      29.910  30.419  21.782  1.00  0.00    -0.293 N 
ATOM     14  N   UNL A   1      28.211  29.045  22.693  1.00  0.00    -0.115 NA
ATOM     15  H   UNL A   1      30.801  30.814  22.081  1.00  0.00     0.350 HD
ATOM     16  H   UNL A   1      29.980  30.410  20.764  1.00  0.00     0.350 HD
ENDBRANCH   8   9
ENDBRANCH   6   8
BRANCH   7  17
ATOM     17  C   UNL A   1      31.619  24.972  23.389  1.00  0.00     0.128 A 
ATOM     18  C   UNL A   1      30.828  23.828  23.334  1.00  0.00     0.051 A 
ATOM     19  O   UNL A   1      32.866  24.588  23.819  1.00  0.00    -0.457 OA
ATOM     20  C   UNL A   1      31.611  22.738  23.791  1.00  0.00     0.051 A 
ATOM     21  C   UNL A   1      32.849  23.257  24.088  1.00  0.00     0.134 A 
BRANCH  21  22
ATOM     22  C   UNL A   1      34.098  22.707  24.587  1.00  0.00     0.019 A 
ATOM     23  C   UNL A   1      34.295  21.321  24.628  1.00  0.00     0.012 A 
ATOM     24  C   UNL A   1      35.123  23.555  25.030  1.00  0.00     0.032 A 
ATOM     25  C   UNL A   1      35.501  20.789  25.088  1.00  0.00     0.002 A 
ATOM     26  C   UNL A   1      36.321  23.018  25.499  1.00  0.00     0.041 A 
ATOM     27  C   UNL A   1      36.516  21.639  25.524  1.00  0.00     0.020 A 
ATOM     28  Cl  UNL A   1      37.570  24.064  26.052  1.00  0.00    -0.084 Cl
ENDBRANCH  21  22
ENDBRANCH   7  17
ENDBRANCH   4   6
ENDBRANCH   3   4
ENDBRANCH   2   3
ENDBRANCH   1   2
BRANCH   1  29
ATOM     29  O   UNL A   1      33.979  28.759  27.628  1.00  0.00    -0.458 OA
BRANCH  29  30
ATOM     30  C   UNL A   1      34.449  29.988  27.928  1.00  0.00     0.338 C 
ATOM     31  O   UNL A   1      33.827  31.039  27.971  1.00  0.00    -0.246 OA
BRANCH  30  32
ATOM     32  C   UNL A   1      35.877  29.869  28.245  1.00  0.00     0.060 A 
ATOM     33  C   UNL A   1      36.818  30.211  27.274  1.00  0.00     0.016 A 
ATOM     34  C   UNL A   1      36.282  29.330  29.464  1.00  0.00     0.016 A 
ATOM     35  C   UNL A   1      38.163  29.913  27.474  1.00  0.00     0.010 A 
ATOM     36  C   UNL A   1      37.644  29.134  29.704  1.00  0.00     0.010 A 
ATOM     37  C   UNL A   1      38.597  29.382  28.697  1.00  0.00    -0.014 A 
BRANCH  37  38
ATOM     38  C   UNL A   1      40.029  29.038  28.914  1.00  0.00     0.031 A 
ATOM     39  C   UNL A   1      40.965  30.063  29.501  1.00  0.00     0.074 A 
ATOM     40  C   UNL A   1      40.502  27.818  28.586  1.00  0.00     0.049 A 
ATOM     41  N   UNL A   1      42.272  30.050  29.568  1.00  0.00    -0.248 NA
ATOM     42  C   UNL A   1      40.348  31.272  30.071  1.00  0.00     0.031 C 
ATOM     43  C   UNL A   1      39.706  26.710  28.056  1.00  0.00     0.029 A 
ATOM     44  N   UNL A   1      41.774  27.304  28.658  1.00  0.00    -0.354 N 
ATOM     45  C   UNL A   1      42.636  31.278  30.111  1.00  0.00     0.074 A 
ATOM     46  C   UNL A   1      41.411  32.005  30.368  1.00  0.00     0.031 C 
ATOM     47  C   UNL A   1      40.495  25.638  27.891  1.00  0.00     0.029 A 
ATOM     48  C   UNL A   1      41.869  26.005  28.219  1.00  0.00     0.049 A 
ATOM     49  H   UNL A   1      42.544  27.818  28.991  1.00  0.00     0.167 HD
ATOM     50  C   UNL A   1      43.878  31.756  30.362  1.00  0.00     0.037 A 
ATOM     51  C   UNL A   1      42.942  25.208  28.058  1.00  0.00     0.037 A 
ATOM     52  C   UNL A   1      45.088  30.997  30.179  1.00  0.00     0.049 A 
ATOM     53  C   UNL A   1      44.311  25.754  28.352  1.00  0.00     0.074 A 
ATOM     54  C   UNL A   1      46.393  31.379  30.433  1.00  0.00     0.029 A 
ATOM     55  N   UNL A   1      45.137  29.689  29.717  1.00  0.00    -0.354 N 
ATOM     56  N   UNL A   1      44.646  26.942  28.793  1.00  0.00    -0.248 NA
ATOM     57  C   UNL A   1      45.449  24.860  28.097  1.00  0.00     0.031 C 
ATOM     58  C   UNL A   1      47.235  30.308  30.106  1.00  0.00     0.029 A 
ATOM     59  C   UNL A   1      46.449  29.250  29.676  1.00  0.00     0.049 A 
ATOM     60  H   UNL A   1      44.353  29.152  29.459  1.00  0.00     0.167 HD
ATOM     61  C   UNL A   1      46.033  26.939  28.872  1.00  0.00     0.074 A 
ATOM     62  C   UNL A   1      46.474  25.624  28.450  1.00  0.00     0.031 C 
ATOM     63  C   UNL A   1      46.866  27.938  29.253  1.00  0.00     0.037 A 
BRANCH  50  64
ATOM     64  C   UNL A   1      43.991  33.182  30.822  1.00  0.00     0.058 A 
ATOM     65  C   UNL A   1      44.062  33.527  32.180  1.00  0.00     0.135 A 
ATOM     66  C   UNL A   1      44.031  34.222  29.878  1.00  0.00     0.135 A 
ATOM     67  F   UNL A   1      44.010  32.572  33.123  1.00  0.00    -0.206 F 
ATOM     68  C   UNL A   1      44.135  34.855  32.589  1.00  0.00     0.059 A 
ATOM     69  C   UNL A   1      44.126  35.555  30.263  1.00  0.00     0.059 A 
ATOM     70  F   UNL A   1      43.967  33.946  28.566  1.00  0.00    -0.206 F 
ATOM     71  C   UNL A   1      44.159  35.864  31.622  1.00  0.00     0.060 A 
BRANCH  71  72
ATOM     72  S   UNL A   1      44.237  37.586  32.158  1.00  0.00     0.124 S 
ATOM     73  O   UNL A   1      45.643  37.710  32.530  1.00  0.00    -0.237 OA
ATOM     74  O   UNL A   1      43.834  38.312  30.958  1.00  0.00    -0.237 OA
ATOM     75  O   UNL A   1      43.287  37.638  33.265  1.00  0.00    -0.744 OA
ENDBRANCH  71  72
ENDBRANCH  50  64
BRANCH  51  76
ATOM     76  C   UNL A   1      42.760  23.818  27.569  1.00  0.00     0.058 A 
ATOM     77  C   UNL A   1      42.620  22.754  28.472  1.00  0.00     0.135 A 
ATOM     78  C   UNL A   1      42.678  23.530  26.198  1.00  0.00     0.135 A 
ATOM     79  F   UNL A   1      42.703  22.980  29.793  1.00  0.00    -0.206 F 
ATOM     80  C   UNL A   1      42.399  21.452  28.034  1.00  0.00     0.059 A 
ATOM     81  C   UNL A   1      42.436  22.240  25.737  1.00  0.00     0.059 A 
ATOM     82  F   UNL A   1      42.795  24.517  25.296  1.00  0.00    -0.206 F 
ATOM     83  C   UNL A   1      42.301  21.207  26.663  1.00  0.00     0.060 A 
BRANCH  83  84
ATOM     84  S   UNL A   1      41.931  19.530  26.101  1.00  0.00     0.124 S 
ATOM     85  O   UNL A   1      40.501  19.621  25.830  1.00  0.00    -0.237 OA
ATOM     86  O   UNL A   1      42.794  19.394  24.933  1.00  0.00    -0.237 OA
ATOM     87  O   UNL A   1      42.308  18.706  27.246  1.00  0.00    -0.744 OA
ENDBRANCH  83  84
ENDBRANCH  51  76
BRANCH  63  88
ATOM     88  C   UNL A   1      48.337  27.637  29.249  1.00  0.00     0.058 A 
ATOM     89  C   UNL A   1      49.142  27.943  28.141  1.00  0.00     0.135 A 
ATOM     90  C   UNL A   1      48.951  27.074  30.377  1.00  0.00     0.135 A 
ATOM     91  F   UNL A   1      48.596  28.476  27.037  1.00  0.00    -0.206 F 
ATOM     92  C   UNL A   1      50.507  27.683  28.146  1.00  0.00     0.059 A 
ATOM     93  C   UNL A   1      50.318  26.821  30.410  1.00  0.00     0.059 A 
ATOM     94  F   UNL A   1      48.223  26.771  31.463  1.00  0.00    -0.206 F 
ATOM     95  C   UNL A   1      51.086  27.119  29.285  1.00  0.00     0.060 A 
BRANCH  95  96
ATOM     96  S   UNL A   1      52.865  26.810  29.296  1.00  0.00     0.124 S 
ATOM     97  O   UNL A   1      53.030  26.008  28.087  1.00  0.00    -0.237 OA
ATOM     98  O   UNL A   1      53.423  28.158  29.243  1.00  0.00    -0.237 OA
ATOM     99  O   UNL A   1      53.077  26.102  30.555  1.00  0.00    -0.744 OA
ENDBRANCH  95  96
ENDBRANCH  63  88
ENDBRANCH  37  38
ENDBRANCH  30  32
ENDBRANCH  29  30
ENDBRANCH   1  29
TORSDOF 18
ENDMDL
MODEL 3
REMARK VINA RESULT:     -11.8      2.013      2.742
REMARK SMILES C[C@H]1N=N[C@H](S/C(=C/c2ccc(-c3cccc(Cl)c3)o2)C(=O)OCCOC(=O)c2ccc(-c3c4nc(c(-c5c(F)cc(S(=O)(=O)[O-])cc5F)c5ccc([nH]5)c(-c5c(F)cc(S(=O)(=O)[O-])cc5F)c5nc(c(-c6c(F)cc(S(=O)(=O)[O-])cc6F)c6ccc3[nH]6)C=C5)C=C4)cc2)[NH2+]1
REMARK SMILES IDX 25 1 24 2 23 3 21 4 22 5 7 6 8 7 6 8 5 9 1 10 2 11 3 12
REMARK SMILES IDX 95 13 4 14 9 17 10 18 20 19 11 20 12 21 13 22 14 23 19 24
REMARK SMILES IDX 15 25 17 26 16 27 18 28 26 29 27 30 28 31 29 32 30 33 94 34
REMARK SMILES IDX 31 35 93 36 32 37 33 38 34 39 87 40 35 41 92 42 86 43 88 44
REMARK SMILES IDX 36 45 91 46 85 47 84 48 37 50 71 51 50 52 70 53 51 54 54 55
REMARK SMILES IDX 69 56 89 57 52 58 53 59 68 61 90 62 55 63 38 64 39 65 48 66
REMARK SMILES IDX 40 67 41 68 47 69 49 70 42 71 43 72 44 73 45 74 46 75 72 76
REMARK SMILES IDX 73 77 82 78 74 79 75 80 81 81 83 82 76 83 77 84 78 85 79 86
REMARK SMILES IDX 80 87 56 88 57 89 66 90 58 91 59 92 65 93 67 94 60 95 61 96
REMARK SMILES IDX 62 97 63 98 64 99
REMARK H PARENT 95 15 95 16 88 49 54 60
REMARK Flexibility Score: inf
ROOT
ATOM      1  C   UNL A   1      32.646  30.135  26.617  1.00  0.00     0.275 C 
ENDROOT
BRANCH   1   2
ATOM      2  C   UNL A   1      32.870  29.329  25.344  1.00  0.00     0.275 C 
BRANCH   2   3
ATOM      3  O   UNL A   1      31.613  29.174  24.660  1.00  0.00    -0.458 OA
BRANCH   3   4
ATOM      4  C   UNL A   1      31.641  28.597  23.429  1.00  0.00     0.345 C 
ATOM      5  O   UNL A   1      32.512  28.723  22.584  1.00  0.00    -0.246 OA
BRANCH   4   6
ATOM      6  C   UNL A   1      30.402  27.790  23.240  1.00  0.00     0.104 C 
ATOM      7  C   UNL A   1      30.468  26.468  23.009  1.00  0.00     0.070 C 
BRANCH   6   8
ATOM      8  S   UNL A   1      28.952  28.721  23.075  1.00  0.00    -0.028 SA
BRANCH   8   9
ATOM      9  C   UNL A   1      29.419  30.168  22.083  1.00  0.00     0.393 C 
ATOM     10  C   UNL A   1      28.677  33.538  22.960  1.00  0.00     0.106 C 
ATOM     11  C   UNL A   1      28.442  32.043  22.811  1.00  0.00     0.324 C 
ATOM     12  N   UNL A   1      27.944  31.732  21.460  1.00  0.00    -0.126 NA
ATOM     13  N   UNL A   1      29.676  31.280  23.000  1.00  0.00    -0.293 N 
ATOM     14  N   UNL A   1      28.456  30.649  21.073  1.00  0.00    -0.115 NA
ATOM     15  H   UNL A   1      29.782  30.962  23.963  1.00  0.00     0.350 HD
ATOM     16  H   UNL A   1      30.536  31.798  22.822  1.00  0.00     0.350 HD
ENDBRANCH   8   9
ENDBRANCH   6   8
BRANCH   7  17
ATOM     17  C   UNL A   1      31.686  25.738  22.945  1.00  0.00     0.128 A 
ATOM     18  C   UNL A   1      32.467  25.322  21.871  1.00  0.00     0.051 A 
ATOM     19  O   UNL A   1      32.286  25.276  24.091  1.00  0.00    -0.457 OA
ATOM     20  C   UNL A   1      33.538  24.549  22.387  1.00  0.00     0.051 A 
ATOM     21  C   UNL A   1      33.377  24.540  23.752  1.00  0.00     0.134 A 
BRANCH  21  22
ATOM     22  C   UNL A   1      34.103  23.953  24.865  1.00  0.00     0.019 A 
ATOM     23  C   UNL A   1      33.413  23.294  25.891  1.00  0.00     0.012 A 
ATOM     24  C   UNL A   1      35.501  24.032  24.925  1.00  0.00     0.032 A 
ATOM     25  C   UNL A   1      34.109  22.711  26.952  1.00  0.00     0.002 A 
ATOM     26  C   UNL A   1      36.190  23.459  25.992  1.00  0.00     0.041 A 
ATOM     27  C   UNL A   1      35.499  22.793  27.003  1.00  0.00     0.020 A 
ATOM     28  Cl  UNL A   1      37.905  23.571  26.066  1.00  0.00    -0.084 Cl
ENDBRANCH  21  22
ENDBRANCH   7  17
ENDBRANCH   4   6
ENDBRANCH   3   4
ENDBRANCH   2   3
ENDBRANCH   1   2
BRANCH   1  29
ATOM     29  O   UNL A   1      33.576  29.659  27.603  1.00  0.00    -0.458 OA
BRANCH  29  30
ATOM     30  C   UNL A   1      34.368  30.595  28.169  1.00  0.00     0.338 C 
ATOM     31  O   UNL A   1      34.051  31.707  28.563  1.00  0.00    -0.246 OA
BRANCH  30  32
ATOM     32  C   UNL A   1      35.724  30.043  28.279  1.00  0.00     0.060 A 
ATOM     33  C   UNL A   1      36.175  29.597  29.521  1.00  0.00     0.016 A 
ATOM     34  C   UNL A   1      36.578  30.058  27.179  1.00  0.00     0.016 A 
ATOM     35  C   UNL A   1      37.516  29.265  29.695  1.00  0.00     0.010 A 
ATOM     36  C   UNL A   1      37.896  29.620  27.333  1.00  0.00     0.010 A 
ATOM     37  C   UNL A   1      38.392  29.260  28.601  1.00  0.00    -0.014 A 
BRANCH  37  38
ATOM     38  C   UNL A   1      39.833  28.930  28.780  1.00  0.00     0.031 A 
ATOM     39  C   UNL A   1      40.778  29.972  29.323  1.00  0.00     0.074 A 
ATOM     40  C   UNL A   1      40.306  27.709  28.458  1.00  0.00     0.049 A 
ATOM     41  N   UNL A   1      42.086  29.969  29.350  1.00  0.00    -0.248 NA
ATOM     42  C   UNL A   1      40.168  31.184  29.891  1.00  0.00     0.031 C 
ATOM     43  C   UNL A   1      39.503  26.585  27.970  1.00  0.00     0.029 A 
ATOM     44  N   UNL A   1      41.584  27.206  28.500  1.00  0.00    -0.354 N 
ATOM     45  C   UNL A   1      42.456  31.209  29.862  1.00  0.00     0.074 A 
ATOM     46  C   UNL A   1      41.233  31.930  30.145  1.00  0.00     0.031 C 
ATOM     47  C   UNL A   1      40.297  25.518  27.799  1.00  0.00     0.029 A 
ATOM     48  C   UNL A   1      41.676  25.900  28.079  1.00  0.00     0.049 A 
ATOM     49  H   UNL A   1      42.359  27.731  28.802  1.00  0.00     0.167 HD
ATOM     50  C   UNL A   1      43.701  31.700  30.069  1.00  0.00     0.037 A 
ATOM     51  C   UNL A   1      42.751  25.109  27.899  1.00  0.00     0.037 A 
ATOM     52  C   UNL A   1      44.911  30.948  29.861  1.00  0.00     0.049 A 
ATOM     53  C   UNL A   1      44.123  25.670  28.142  1.00  0.00     0.074 A 
ATOM     54  C   UNL A   1      46.220  31.345  30.070  1.00  0.00     0.029 A 
ATOM     55  N   UNL A   1      44.957  29.633  29.419  1.00  0.00    -0.354 N 
ATOM     56  N   UNL A   1      44.461  26.868  28.554  1.00  0.00    -0.248 NA
ATOM     57  C   UNL A   1      45.260  24.781  27.868  1.00  0.00     0.031 C 
ATOM     58  C   UNL A   1      47.060  30.274  29.735  1.00  0.00     0.029 A 
ATOM     59  C   UNL A   1      46.271  29.204  29.345  1.00  0.00     0.049 A 
ATOM     60  H   UNL A   1      44.170  29.086  29.193  1.00  0.00     0.167 HD
ATOM     61  C   UNL A   1      45.850  26.877  28.592  1.00  0.00     0.074 A 
ATOM     62  C   UNL A   1      46.289  25.559  28.178  1.00  0.00     0.031 C 
ATOM     63  C   UNL A   1      46.686  27.888  28.932  1.00  0.00     0.037 A 
BRANCH  50  64
ATOM     64  C   UNL A   1      43.816  33.135  30.501  1.00  0.00     0.058 A 
ATOM     65  C   UNL A   1      43.911  34.189  29.580  1.00  0.00     0.135 A 
ATOM     66  C   UNL A   1      43.827  33.456  31.869  1.00  0.00     0.135 A 
ATOM     67  F   UNL A   1      43.923  33.935  28.262  1.00  0.00    -0.206 F 
ATOM     68  C   UNL A   1      44.048  35.509  29.999  1.00  0.00     0.059 A 
ATOM     69  C   UNL A   1      43.941  34.770  32.310  1.00  0.00     0.059 A 
ATOM     70  F   UNL A   1      43.738  32.485  32.792  1.00  0.00    -0.206 F 
ATOM     71  C   UNL A   1      44.070  35.789  31.368  1.00  0.00     0.060 A 
BRANCH  71  72
ATOM     72  S   UNL A   1      44.264  37.501  31.905  1.00  0.00     0.124 S 
ATOM     73  O   UNL A   1      45.698  37.562  32.166  1.00  0.00    -0.237 OA
ATOM     74  O   UNL A   1      43.800  38.254  30.744  1.00  0.00    -0.237 OA
ATOM     75  O   UNL A   1      43.405  37.585  33.083  1.00  0.00    -0.744 OA
ENDBRANCH  71  72
ENDBRANCH  50  64
BRANCH  51  76
ATOM     76  C   UNL A   1      42.565  23.709  27.438  1.00  0.00     0.058 A 
ATOM     77  C   UNL A   1      42.568  23.400  26.071  1.00  0.00     0.135 A 
ATOM     78  C   UNL A   1      42.427  22.652  28.350  1.00  0.00     0.135 A 
ATOM     79  F   UNL A   1      42.685  24.381  25.161  1.00  0.00    -0.206 F 
ATOM     80  C   UNL A   1      42.446  22.089  25.621  1.00  0.00     0.059 A 
ATOM     81  C   UNL A   1      42.326  21.331  27.925  1.00  0.00     0.059 A 
ATOM     82  F   UNL A   1      42.430  22.897  29.670  1.00  0.00    -0.206 F 
ATOM     83  C   UNL A   1      42.332  21.060  26.558  1.00  0.00     0.060 A 
BRANCH  83  84
ATOM     84  S   UNL A   1      42.258  19.352  25.973  1.00  0.00     0.124 S 
ATOM     85  O   UNL A   1      42.801  18.628  27.116  1.00  0.00    -0.237 OA
ATOM     86  O   UNL A   1      40.833  19.170  25.720  1.00  0.00    -0.237 OA
ATOM     87  O   UNL A   1      43.099  19.374  24.779  1.00  0.00    -0.744 OA
ENDBRANCH  83  84
ENDBRANCH  51  76
BRANCH  63  88
ATOM     88  C   UNL A   1      48.158  27.599  28.888  1.00  0.00     0.058 A 
ATOM     89  C   UNL A   1      48.811  26.971  29.960  1.00  0.00     0.135 A 
ATOM     90  C   UNL A   1      48.913  27.917  27.750  1.00  0.00     0.135 A 
ATOM     91  F   UNL A   1      48.131  26.655  31.073  1.00  0.00    -0.206 F 
ATOM     92  C   UNL A   1      50.171  26.684  29.911  1.00  0.00     0.059 A 
ATOM     93  C   UNL A   1      50.270  27.625  27.672  1.00  0.00     0.059 A 
ATOM     94  F   UNL A   1      48.330  28.513  26.697  1.00  0.00    -0.206 F 
ATOM     95  C   UNL A   1      50.892  27.017  28.763  1.00  0.00     0.060 A 
BRANCH  95  96
ATOM     96  S   UNL A   1      52.652  26.617  28.693  1.00  0.00     0.124 S 
ATOM     97  O   UNL A   1      52.892  26.115  30.042  1.00  0.00    -0.237 OA
ATOM     98  O   UNL A   1      52.710  25.621  27.627  1.00  0.00    -0.237 OA
ATOM     99  O   UNL A   1      53.277  27.898  28.378  1.00  0.00    -0.744 OA
ENDBRANCH  95  96
ENDBRANCH  63  88
ENDBRANCH  37  38
ENDBRANCH  30  32
ENDBRANCH  29  30
ENDBRANCH   1  29
TORSDOF 18
ENDMDL
