MODEL 1
REMARK VINA RESULT:     -10.4      0.000      0.000
REMARK SMILES CCCOc1cccc([C@H]2CC[NH2+][C@@H]2C(=O)OCCOC(=O)c2ccc(-c3c4nc(c(-c5c(F)cc(S(=O)(=O)[O-])cc5F)c5ccc([nH]5)c(-c5c(F)cc(S(=O)(=O)[O-])cc5F)c5nc(c(-c6c(F)cc(S(=O)(=O)[O-])cc6F)c6ccc3[nH]6)C=C5)C=C4)cc2)c1
REMARK SMILES IDX 18 1 17 2 15 3 16 4 14 5 10 6 11 7 12 8 13 9 9 12 5 13 6 14
REMARK SMILES IDX 89 15 7 16 8 17 4 18 3 19 2 20 1 21 19 22 20 23 21 24 22 25
REMARK SMILES IDX 23 26 24 27 88 28 25 29 87 30 26 31 27 32 28 33 81 34 29 35
REMARK SMILES IDX 86 36 80 37 82 38 30 39 85 40 79 41 78 42 31 44 65 45 44 46
REMARK SMILES IDX 64 47 45 48 48 49 63 50 83 51 46 52 47 53 62 55 84 56 49 57
REMARK SMILES IDX 32 58 33 59 42 60 34 61 35 62 41 63 43 64 36 65 37 66 38 67
REMARK SMILES IDX 39 68 40 69 66 70 67 71 76 72 68 73 69 74 75 75 77 76 70 77
REMARK SMILES IDX 71 78 72 79 73 80 74 81 50 82 51 83 60 84 52 85 53 86 59 87
REMARK SMILES IDX 61 88 54 89 55 90 56 91 57 92 58 93
REMARK H PARENT 13 10 13 11 82 43 48 54
REMARK Flexibility Score: inf
ROOT
ATOM      1  C   UNL A   1      33.338  33.804  28.000  1.00  0.00     0.274 C 
ENDROOT
BRANCH   1   2
ATOM      2  O   UNL A   1      32.975  34.253  29.322  1.00  0.00    -0.458 OA
BRANCH   2   3
ATOM      3  C   UNL A   1      32.925  35.609  29.509  1.00  0.00     0.365 C 
ATOM      4  O   UNL A   1      32.152  36.359  28.928  1.00  0.00    -0.245 OA
BRANCH   3   5
ATOM      5  C   UNL A   1      33.954  36.036  30.576  1.00  0.00     0.301 C 
ATOM      6  C   UNL A   1      33.903  35.107  31.816  1.00  0.00     0.095 C 
ATOM      7  C   UNL A   1      33.759  36.092  32.978  1.00  0.00     0.076 C 
ATOM      8  C   UNL A   1      32.991  37.239  32.358  1.00  0.00     0.262 C 
ATOM      9  N   UNL A   1      33.648  37.419  31.059  1.00  0.00    -0.334 N 
ATOM     10  H   UNL A   1      34.506  37.959  31.164  1.00  0.00     0.347 HD
ATOM     11  H   UNL A   1      33.055  37.928  30.402  1.00  0.00     0.347 HD
BRANCH   6  12
ATOM     12  C   UNL A   1      35.003  34.079  31.985  1.00  0.00    -0.034 A 
ATOM     13  C   UNL A   1      37.370  33.526  32.115  1.00  0.00     0.119 A 
ATOM     14  C   UNL A   1      37.077  32.178  32.271  1.00  0.00     0.046 A 
ATOM     15  C   UNL A   1      36.349  34.448  31.898  1.00  0.00     0.050 A 
ATOM     16  C   UNL A   1      35.745  31.770  32.271  1.00  0.00     0.004 A 
ATOM     17  C   UNL A   1      34.717  32.713  32.140  1.00  0.00     0.004 A 
BRANCH  13  18
ATOM     18  O   UNL A   1      38.671  33.949  32.122  1.00  0.00    -0.494 OA
BRANCH  18  19
ATOM     19  C   UNL A   1      39.452  33.212  33.080  1.00  0.00     0.229 C 
BRANCH  19  20
ATOM     20  C   UNL A   1      40.902  33.710  33.152  1.00  0.00     0.038 C 
ATOM     21  C   UNL A   1      41.046  34.944  34.036  1.00  0.00     0.007 C 
ENDBRANCH  19  20
ENDBRANCH  18  19
ENDBRANCH  13  18
ENDBRANCH   6  12
ENDBRANCH   3   5
ENDBRANCH   2   3
ENDBRANCH   1   2
BRANCH   1  22
ATOM     22  C   UNL A   1      34.620  32.976  28.051  1.00  0.00     0.275 C 
BRANCH  22  23
ATOM     23  O   UNL A   1      34.389  31.821  28.870  1.00  0.00    -0.458 OA
BRANCH  23  24
ATOM     24  C   UNL A   1      34.461  30.626  28.239  1.00  0.00     0.338 C 
ATOM     25  O   UNL A   1      33.562  30.078  27.623  1.00  0.00    -0.246 OA
BRANCH  24  26
ATOM     26  C   UNL A   1      35.828  30.066  28.371  1.00  0.00     0.060 A 
ATOM     27  C   UNL A   1      36.295  29.579  29.592  1.00  0.00     0.016 A 
ATOM     28  C   UNL A   1      36.696  30.118  27.282  1.00  0.00     0.016 A 
ATOM     29  C   UNL A   1      37.648  29.293  29.767  1.00  0.00     0.010 A 
ATOM     30  C   UNL A   1      38.022  29.687  27.424  1.00  0.00     0.010 A 
ATOM     31  C   UNL A   1      38.532  29.313  28.680  1.00  0.00    -0.014 A 
BRANCH  31  32
ATOM     32  C   UNL A   1      39.977  28.968  28.846  1.00  0.00     0.031 A 
ATOM     33  C   UNL A   1      40.951  30.010  29.346  1.00  0.00     0.074 A 
ATOM     34  C   UNL A   1      40.438  27.736  28.540  1.00  0.00     0.049 A 
ATOM     35  N   UNL A   1      42.260  30.007  29.302  1.00  0.00    -0.248 NA
ATOM     36  C   UNL A   1      40.380  31.225  29.951  1.00  0.00     0.031 C 
ATOM     37  C   UNL A   1      39.624  26.607  28.081  1.00  0.00     0.029 A 
ATOM     38  N   UNL A   1      41.713  27.223  28.568  1.00  0.00    -0.354 N 
ATOM     39  C   UNL A   1      42.662  31.252  29.778  1.00  0.00     0.074 A 
ATOM     40  C   UNL A   1      41.460  31.974  30.134  1.00  0.00     0.031 C 
ATOM     41  C   UNL A   1      40.404  25.528  27.925  1.00  0.00     0.029 A 
ATOM     42  C   UNL A   1      41.790  25.911  28.159  1.00  0.00     0.049 A 
ATOM     43  H   UNL A   1      42.498  27.745  28.854  1.00  0.00     0.167 HD
ATOM     44  C   UNL A   1      43.917  31.746  29.896  1.00  0.00     0.037 A 
ATOM     45  C   UNL A   1      42.853  25.115  27.937  1.00  0.00     0.037 A 
ATOM     46  C   UNL A   1      45.114  30.986  29.637  1.00  0.00     0.049 A 
ATOM     47  C   UNL A   1      44.237  25.676  28.099  1.00  0.00     0.074 A 
ATOM     48  C   UNL A   1      46.434  31.386  29.765  1.00  0.00     0.029 A 
ATOM     49  N   UNL A   1      45.138  29.661  29.228  1.00  0.00    -0.354 N 
ATOM     50  N   UNL A   1      44.597  26.882  28.469  1.00  0.00    -0.248 NA
ATOM     51  C   UNL A   1      45.357  24.780  27.783  1.00  0.00     0.031 C 
ATOM     52  C   UNL A   1      47.256  30.309  29.414  1.00  0.00     0.029 A 
ATOM     53  C   UNL A   1      46.448  29.230  29.098  1.00  0.00     0.049 A 
ATOM     54  H   UNL A   1      44.341  29.110  29.054  1.00  0.00     0.167 HD
ATOM     55  C   UNL A   1      45.986  26.887  28.434  1.00  0.00     0.074 A 
ATOM     56  C   UNL A   1      46.401  25.560  28.029  1.00  0.00     0.031 C 
ATOM     57  C   UNL A   1      46.841  27.903  28.705  1.00  0.00     0.037 A 
BRANCH  44  58
ATOM     58  C   UNL A   1      44.078  33.188  30.291  1.00  0.00     0.058 A 
ATOM     59  C   UNL A   1      44.223  33.588  31.626  1.00  0.00     0.135 A 
ATOM     60  C   UNL A   1      44.154  34.180  29.297  1.00  0.00     0.135 A 
ATOM     61  F   UNL A   1      44.141  32.685  32.616  1.00  0.00    -0.206 F 
ATOM     62  C   UNL A   1      44.431  34.923  31.966  1.00  0.00     0.059 A 
ATOM     63  C   UNL A   1      44.382  35.515  29.612  1.00  0.00     0.059 A 
ATOM     64  F   UNL A   1      44.020  33.849  28.003  1.00  0.00    -0.206 F 
ATOM     65  C   UNL A   1      44.510  35.880  30.951  1.00  0.00     0.060 A 
BRANCH  65  66
ATOM     66  S   UNL A   1      44.810  37.603  31.401  1.00  0.00     0.124 S 
ATOM     67  O   UNL A   1      46.159  37.808  30.880  1.00  0.00    -0.237 OA
ATOM     68  O   UNL A   1      43.745  38.304  30.690  1.00  0.00    -0.237 OA
ATOM     69  O   UNL A   1      44.692  37.599  32.856  1.00  0.00    -0.744 OA
ENDBRANCH  65  66
ENDBRANCH  44  58
BRANCH  45  70
ATOM     70  C   UNL A   1      42.653  23.714  27.478  1.00  0.00     0.058 A 
ATOM     71  C   UNL A   1      42.701  23.390  26.115  1.00  0.00     0.135 A 
ATOM     72  C   UNL A   1      42.420  22.673  28.391  1.00  0.00     0.135 A 
ATOM     73  F   UNL A   1      42.909  24.353  25.204  1.00  0.00    -0.206 F 
ATOM     74  C   UNL A   1      42.516  22.085  25.670  1.00  0.00     0.059 A 
ATOM     75  C   UNL A   1      42.260  21.357  27.973  1.00  0.00     0.059 A 
ATOM     76  F   UNL A   1      42.377  22.931  29.708  1.00  0.00    -0.206 F 
ATOM     77  C   UNL A   1      42.297  21.075  26.608  1.00  0.00     0.060 A 
BRANCH  77  78
ATOM     78  S   UNL A   1      42.111  19.373  26.035  1.00  0.00     0.124 S 
ATOM     79  O   UNL A   1      42.532  18.621  27.211  1.00  0.00    -0.237 OA
ATOM     80  O   UNL A   1      40.689  19.305  25.708  1.00  0.00    -0.237 OA
ATOM     81  O   UNL A   1      43.012  19.310  24.887  1.00  0.00    -0.744 OA
ENDBRANCH  77  78
ENDBRANCH  45  70
BRANCH  57  82
ATOM     82  C   UNL A   1      48.307  27.602  28.608  1.00  0.00     0.058 A 
ATOM     83  C   UNL A   1      49.015  27.779  27.409  1.00  0.00     0.135 A 
ATOM     84  C   UNL A   1      49.014  27.148  29.732  1.00  0.00     0.135 A 
ATOM     85  F   UNL A   1      48.378  28.202  26.305  1.00  0.00    -0.206 F 
ATOM     86  C   UNL A   1      50.373  27.492  27.321  1.00  0.00     0.059 A 
ATOM     87  C   UNL A   1      50.376  26.874  29.672  1.00  0.00     0.059 A 
ATOM     88  F   UNL A   1      48.381  26.970  30.902  1.00  0.00    -0.206 F 
ATOM     89  C   UNL A   1      51.044  27.035  28.457  1.00  0.00     0.060 A 
BRANCH  89  90
ATOM     90  S   UNL A   1      52.809  26.677  28.341  1.00  0.00     0.124 S 
ATOM     91  O   UNL A   1      53.350  27.984  27.985  1.00  0.00    -0.237 OA
ATOM     92  O   UNL A   1      53.126  26.203  29.685  1.00  0.00    -0.237 OA
ATOM     93  O   UNL A   1      52.878  25.661  27.294  1.00  0.00    -0.744 OA
ENDBRANCH  89  90
ENDBRANCH  57  82
ENDBRANCH  31  32
ENDBRANCH  24  26
ENDBRANCH  23  24
ENDBRANCH  22  23
ENDBRANCH   1  22
TORSDOF 18
ENDMDL
MODEL 2
REMARK VINA RESULT:      -9.7      3.201      5.971
REMARK SMILES CCCOc1cccc([C@H]2CC[NH2+][C@@H]2C(=O)OCCOC(=O)c2ccc(-c3c4nc(c(-c5c(F)cc(S(=O)(=O)[O-])cc5F)c5ccc([nH]5)c(-c5c(F)cc(S(=O)(=O)[O-])cc5F)c5nc(c(-c6c(F)cc(S(=O)(=O)[O-])cc6F)c6ccc3[nH]6)C=C5)C=C4)cc2)c1
REMARK SMILES IDX 18 1 17 2 15 3 16 4 14 5 10 6 11 7 12 8 13 9 9 12 5 13 6 14
REMARK SMILES IDX 89 15 7 16 8 17 4 18 3 19 2 20 1 21 19 22 20 23 21 24 22 25
REMARK SMILES IDX 23 26 24 27 88 28 25 29 87 30 26 31 27 32 28 33 81 34 29 35
REMARK SMILES IDX 86 36 80 37 82 38 30 39 85 40 79 41 78 42 31 44 65 45 44 46
REMARK SMILES IDX 64 47 45 48 48 49 63 50 83 51 46 52 47 53 62 55 84 56 49 57
REMARK SMILES IDX 32 58 33 59 42 60 34 61 35 62 41 63 43 64 36 65 37 66 38 67
REMARK SMILES IDX 39 68 40 69 66 70 67 71 76 72 68 73 69 74 75 75 77 76 70 77
REMARK SMILES IDX 71 78 72 79 73 80 74 81 50 82 51 83 60 84 52 85 53 86 59 87
REMARK SMILES IDX 61 88 54 89 55 90 56 91 57 92 58 93
REMARK H PARENT 13 10 13 11 82 43 48 54
REMARK Flexibility Score: inf
ROOT
ATOM      1  C   UNL A   1      33.704  27.827  26.376  1.00  0.00     0.274 C 
ENDROOT
BRANCH   1   2
ATOM      2  O   UNL A   1      32.462  27.523  25.708  1.00  0.00    -0.458 OA
BRANCH   2   3
ATOM      3  C   UNL A   1      31.502  26.906  26.465  1.00  0.00     0.365 C 
ATOM      4  O   UNL A   1      31.092  27.326  27.539  1.00  0.00    -0.245 OA
BRANCH   3   5
ATOM      5  C   UNL A   1      30.997  25.636  25.749  1.00  0.00     0.301 C 
ATOM      6  C   UNL A   1      31.531  25.555  24.296  1.00  0.00     0.095 C 
ATOM      7  C   UNL A   1      30.259  25.332  23.475  1.00  0.00     0.076 C 
ATOM      8  C   UNL A   1      29.202  26.054  24.282  1.00  0.00     0.262 C 
ATOM      9  N   UNL A   1      29.504  25.656  25.662  1.00  0.00    -0.334 N 
ATOM     10  H   UNL A   1      29.121  24.732  25.858  1.00  0.00     0.347 HD
ATOM     11  H   UNL A   1      29.092  26.298  26.340  1.00  0.00     0.347 HD
BRANCH   6  12
ATOM     12  C   UNL A   1      32.657  24.586  24.000  1.00  0.00    -0.034 A 
ATOM     13  C   UNL A   1      34.666  23.410  24.709  1.00  0.00     0.119 A 
ATOM     14  C   UNL A   1      34.785  22.801  23.467  1.00  0.00     0.046 A 
ATOM     15  C   UNL A   1      33.661  24.346  24.943  1.00  0.00     0.050 A 
ATOM     16  C   UNL A   1      33.847  23.093  22.478  1.00  0.00     0.004 A 
ATOM     17  C   UNL A   1      32.787  23.968  22.746  1.00  0.00     0.004 A 
BRANCH  13  18
ATOM     18  O   UNL A   1      35.571  23.130  25.697  1.00  0.00    -0.494 OA
BRANCH  18  19
ATOM     19  C   UNL A   1      36.642  24.091  25.709  1.00  0.00     0.229 C 
BRANCH  19  20
ATOM     20  C   UNL A   1      37.983  23.459  26.109  1.00  0.00     0.038 C 
ATOM     21  C   UNL A   1      38.119  22.025  25.609  1.00  0.00     0.007 C 
ENDBRANCH  19  20
ENDBRANCH  18  19
ENDBRANCH  13  18
ENDBRANCH   6  12
ENDBRANCH   3   5
ENDBRANCH   2   3
ENDBRANCH   1   2
BRANCH   1  22
ATOM     22  C   UNL A   1      33.890  29.339  26.494  1.00  0.00     0.275 C 
BRANCH  22  23
ATOM     23  O   UNL A   1      33.719  29.716  27.868  1.00  0.00    -0.458 OA
BRANCH  23  24
ATOM     24  C   UNL A   1      34.570  30.661  28.331  1.00  0.00     0.338 C 
ATOM     25  O   UNL A   1      34.280  31.803  28.646  1.00  0.00    -0.246 OA
BRANCH  24  26
ATOM     26  C   UNL A   1      35.939  30.099  28.439  1.00  0.00     0.060 A 
ATOM     27  C   UNL A   1      36.402  29.548  29.634  1.00  0.00     0.016 A 
ATOM     28  C   UNL A   1      36.811  30.211  27.358  1.00  0.00     0.016 A 
ATOM     29  C   UNL A   1      37.755  29.256  29.799  1.00  0.00     0.010 A 
ATOM     30  C   UNL A   1      38.137  29.777  27.482  1.00  0.00     0.010 A 
ATOM     31  C   UNL A   1      38.643  29.337  28.719  1.00  0.00    -0.014 A 
BRANCH  31  32
ATOM     32  C   UNL A   1      40.088  28.988  28.872  1.00  0.00     0.031 A 
ATOM     33  C   UNL A   1      41.070  30.026  29.363  1.00  0.00     0.074 A 
ATOM     34  C   UNL A   1      40.543  27.754  28.561  1.00  0.00     0.049 A 
ATOM     35  N   UNL A   1      42.378  30.019  29.308  1.00  0.00    -0.248 NA
ATOM     36  C   UNL A   1      40.509  31.243  29.974  1.00  0.00     0.031 C 
ATOM     37  C   UNL A   1      39.721  26.628  28.108  1.00  0.00     0.029 A 
ATOM     38  N   UNL A   1      41.816  27.238  28.578  1.00  0.00    -0.354 N 
ATOM     39  C   UNL A   1      42.789  31.262  29.782  1.00  0.00     0.074 A 
ATOM     40  C   UNL A   1      41.592  31.988  30.148  1.00  0.00     0.031 C 
ATOM     41  C   UNL A   1      40.497  25.546  27.945  1.00  0.00     0.029 A 
ATOM     42  C   UNL A   1      41.886  25.926  28.167  1.00  0.00     0.049 A 
ATOM     43  H   UNL A   1      42.605  27.757  28.857  1.00  0.00     0.167 HD
ATOM     44  C   UNL A   1      44.047  31.752  29.889  1.00  0.00     0.037 A 
ATOM     45  C   UNL A   1      42.945  25.126  27.936  1.00  0.00     0.037 A 
ATOM     46  C   UNL A   1      45.238  30.989  29.619  1.00  0.00     0.049 A 
ATOM     47  C   UNL A   1      44.331  25.682  28.086  1.00  0.00     0.074 A 
ATOM     48  C   UNL A   1      46.561  31.385  29.736  1.00  0.00     0.029 A 
ATOM     49  N   UNL A   1      45.255  29.664  29.209  1.00  0.00    -0.354 N 
ATOM     50  N   UNL A   1      44.699  26.887  28.453  1.00  0.00    -0.248 NA
ATOM     51  C   UNL A   1      45.446  24.783  27.760  1.00  0.00     0.031 C 
ATOM     52  C   UNL A   1      47.376  30.305  29.377  1.00  0.00     0.029 A 
ATOM     53  C   UNL A   1      46.562  29.229  29.068  1.00  0.00     0.049 A 
ATOM     54  H   UNL A   1      44.455  29.116  29.042  1.00  0.00     0.167 HD
ATOM     55  C   UNL A   1      46.087  26.888  28.406  1.00  0.00     0.074 A 
ATOM     56  C   UNL A   1      46.494  25.559  27.997  1.00  0.00     0.031 C 
ATOM     57  C   UNL A   1      46.947  27.901  28.671  1.00  0.00     0.037 A 
BRANCH  44  58
ATOM     58  C   UNL A   1      44.215  33.194  30.284  1.00  0.00     0.058 A 
ATOM     59  C   UNL A   1      44.324  34.222  29.339  1.00  0.00     0.135 A 
ATOM     60  C   UNL A   1      44.197  33.552  31.644  1.00  0.00     0.135 A 
ATOM     61  F   UNL A   1      44.363  33.935  28.028  1.00  0.00    -0.206 F 
ATOM     62  C   UNL A   1      44.418  35.557  29.725  1.00  0.00     0.059 A 
ATOM     63  C   UNL A   1      44.269  34.879  32.052  1.00  0.00     0.059 A 
ATOM     64  F   UNL A   1      44.096  32.605  32.589  1.00  0.00    -0.206 F 
ATOM     65  C   UNL A   1      44.389  35.876  31.085  1.00  0.00     0.060 A 
BRANCH  65  66
ATOM     66  S   UNL A   1      44.481  37.613  31.574  1.00  0.00     0.124 S 
ATOM     67  O   UNL A   1      43.688  38.251  30.527  1.00  0.00    -0.237 OA
ATOM     68  O   UNL A   1      43.878  37.597  32.903  1.00  0.00    -0.237 OA
ATOM     69  O   UNL A   1      45.912  37.898  31.541  1.00  0.00    -0.744 OA
ENDBRANCH  65  66
ENDBRANCH  44  58
BRANCH  45  70
ATOM     70  C   UNL A   1      42.736  23.726  27.478  1.00  0.00     0.058 A 
ATOM     71  C   UNL A   1      42.622  22.677  28.402  1.00  0.00     0.135 A 
ATOM     72  C   UNL A   1      42.634  23.412  26.114  1.00  0.00     0.135 A 
ATOM     73  F   UNL A   1      42.724  22.927  29.716  1.00  0.00    -0.206 F 
ATOM     74  C   UNL A   1      42.426  21.362  27.990  1.00  0.00     0.059 A 
ATOM     75  C   UNL A   1      42.410  22.110  25.679  1.00  0.00     0.059 A 
ATOM     76  F   UNL A   1      42.724  24.382  25.192  1.00  0.00    -0.206 F 
ATOM     77  C   UNL A   1      42.320  21.090  26.625  1.00  0.00     0.060 A 
BRANCH  77  78
ATOM     78  S   UNL A   1      42.011  19.392  26.093  1.00  0.00     0.124 S 
ATOM     79  O   UNL A   1      42.844  19.305  24.899  1.00  0.00    -0.237 OA
ATOM     80  O   UNL A   1      42.462  18.615  27.244  1.00  0.00    -0.237 OA
ATOM     81  O   UNL A   1      40.569  19.375  25.862  1.00  0.00    -0.744 OA
ENDBRANCH  77  78
ENDBRANCH  45  70
BRANCH  57  82
ATOM     82  C   UNL A   1      48.411  27.595  28.560  1.00  0.00     0.058 A 
ATOM     83  C   UNL A   1      49.153  27.143  29.662  1.00  0.00     0.135 A 
ATOM     84  C   UNL A   1      49.076  27.739  27.332  1.00  0.00     0.135 A 
ATOM     85  F   UNL A   1      48.562  26.998  30.860  1.00  0.00    -0.206 F 
ATOM     86  C   UNL A   1      50.511  26.867  29.558  1.00  0.00     0.059 A 
ATOM     87  C   UNL A   1      50.429  27.450  27.199  1.00  0.00     0.059 A 
ATOM     88  F   UNL A   1      48.407  28.162  26.248  1.00  0.00    -0.206 F 
ATOM     89  C   UNL A   1      51.143  27.028  28.322  1.00  0.00     0.060 A 
BRANCH  89  90
ATOM     90  S   UNL A   1      52.904  26.657  28.189  1.00  0.00     0.124 S 
ATOM     91  O   UNL A   1      53.221  26.248  29.553  1.00  0.00    -0.237 OA
ATOM     92  O   UNL A   1      52.929  25.597  27.186  1.00  0.00    -0.237 OA
ATOM     93  O   UNL A   1      53.484  27.927  27.762  1.00  0.00    -0.744 OA
ENDBRANCH  89  90
ENDBRANCH  57  82
ENDBRANCH  31  32
ENDBRANCH  24  26
ENDBRANCH  23  24
ENDBRANCH  22  23
ENDBRANCH   1  22
TORSDOF 18
ENDMDL
MODEL 3
REMARK VINA RESULT:      -9.6      2.386      8.862
REMARK SMILES CCCOc1cccc([C@H]2CC[NH2+][C@@H]2C(=O)OCCOC(=O)c2ccc(-c3c4nc(c(-c5c(F)cc(S(=O)(=O)[O-])cc5F)c5ccc([nH]5)c(-c5c(F)cc(S(=O)(=O)[O-])cc5F)c5nc(c(-c6c(F)cc(S(=O)(=O)[O-])cc6F)c6ccc3[nH]6)C=C5)C=C4)cc2)c1
REMARK SMILES IDX 18 1 17 2 15 3 16 4 14 5 10 6 11 7 12 8 13 9 9 12 5 13 6 14
REMARK SMILES IDX 89 15 7 16 8 17 4 18 3 19 2 20 1 21 19 22 20 23 21 24 22 25
REMARK SMILES IDX 23 26 24 27 88 28 25 29 87 30 26 31 27 32 28 33 81 34 29 35
REMARK SMILES IDX 86 36 80 37 82 38 30 39 85 40 79 41 78 42 31 44 65 45 44 46
REMARK SMILES IDX 64 47 45 48 48 49 63 50 83 51 46 52 47 53 62 55 84 56 49 57
REMARK SMILES IDX 32 58 33 59 42 60 34 61 35 62 41 63 43 64 36 65 37 66 38 67
REMARK SMILES IDX 39 68 40 69 66 70 67 71 76 72 68 73 69 74 75 75 77 76 70 77
REMARK SMILES IDX 71 78 72 79 73 80 74 81 50 82 51 83 60 84 52 85 53 86 59 87
REMARK SMILES IDX 61 88 54 89 55 90 56 91 57 92 58 93
REMARK H PARENT 13 10 13 11 82 43 48 54
REMARK Flexibility Score: inf
ROOT
ATOM      1  C   UNL A   1      36.817  33.552  33.607  1.00  0.00     0.274 C 
ENDROOT
BRANCH   1   2
ATOM      2  O   UNL A   1      36.234  34.728  33.008  1.00  0.00    -0.458 OA
BRANCH   2   3
ATOM      3  C   UNL A   1      34.969  35.055  33.418  1.00  0.00     0.365 C 
ATOM      4  O   UNL A   1      34.714  35.700  34.427  1.00  0.00    -0.245 OA
BRANCH   3   5
ATOM      5  C   UNL A   1      33.930  34.522  32.411  1.00  0.00     0.301 C 
ATOM      6  C   UNL A   1      34.165  35.104  30.993  1.00  0.00     0.095 C 
ATOM      7  C   UNL A   1      32.790  35.660  30.617  1.00  0.00     0.076 C 
ATOM      8  C   UNL A   1      32.210  36.067  31.955  1.00  0.00     0.262 C 
ATOM      9  N   UNL A   1      32.553  34.938  32.826  1.00  0.00    -0.334 N 
ATOM     10  H   UNL A   1      31.893  34.172  32.695  1.00  0.00     0.347 HD
ATOM     11  H   UNL A   1      32.516  35.195  33.813  1.00  0.00     0.347 HD
BRANCH   6  12
ATOM     12  C   UNL A   1      34.797  34.208  29.948  1.00  0.00    -0.034 A 
ATOM     13  C   UNL A   1      36.773  33.402  28.779  1.00  0.00     0.119 A 
ATOM     14  C   UNL A   1      36.000  32.563  27.987  1.00  0.00     0.046 A 
ATOM     15  C   UNL A   1      36.170  34.265  29.691  1.00  0.00     0.050 A 
ATOM     16  C   UNL A   1      34.618  32.553  28.161  1.00  0.00     0.004 A 
ATOM     17  C   UNL A   1      34.023  33.360  29.141  1.00  0.00     0.004 A 
BRANCH  13  18
ATOM     18  O   UNL A   1      38.133  33.420  28.631  1.00  0.00    -0.494 OA
BRANCH  18  19
ATOM     19  C   UNL A   1      38.755  34.243  29.634  1.00  0.00     0.229 C 
BRANCH  19  20
ATOM     20  C   UNL A   1      39.993  33.574  30.248  1.00  0.00     0.038 C 
ATOM     21  C   UNL A   1      40.124  33.857  31.740  1.00  0.00     0.007 C 
ENDBRANCH  19  20
ENDBRANCH  18  19
ENDBRANCH  13  18
ENDBRANCH   6  12
ENDBRANCH   3   5
ENDBRANCH   2   3
ENDBRANCH   1   2
BRANCH   1  22
ATOM     22  C   UNL A   1      36.307  32.291  32.912  1.00  0.00     0.275 C 
BRANCH  22  23
ATOM     23  O   UNL A   1      37.359  31.315  32.905  1.00  0.00    -0.458 OA
BRANCH  23  24
ATOM     24  C   UNL A   1      37.272  30.359  31.951  1.00  0.00     0.338 C 
ATOM     25  O   UNL A   1      36.294  29.676  31.699  1.00  0.00    -0.246 OA
BRANCH  24  26
ATOM     26  C   UNL A   1      38.553  30.271  31.207  1.00  0.00     0.060 A 
ATOM     27  C   UNL A   1      38.585  30.326  29.813  1.00  0.00     0.016 A 
ATOM     28  C   UNL A   1      39.734  30.032  31.906  1.00  0.00     0.016 A 
ATOM     29  C   UNL A   1      39.747  29.993  29.120  1.00  0.00     0.010 A 
ATOM     30  C   UNL A   1      40.934  29.844  31.207  1.00  0.00     0.010 A 
ATOM     31  C   UNL A   1      40.951  29.774  29.802  1.00  0.00    -0.014 A 
BRANCH  31  32
ATOM     32  C   UNL A   1      42.214  29.456  29.069  1.00  0.00     0.031 A 
ATOM     33  C   UNL A   1      42.398  28.099  28.430  1.00  0.00     0.074 A 
ATOM     34  C   UNL A   1      43.213  30.361  28.978  1.00  0.00     0.049 A 
ATOM     35  N   UNL A   1      43.495  27.531  27.995  1.00  0.00    -0.248 NA
ATOM     36  C   UNL A   1      41.197  27.259  28.284  1.00  0.00     0.031 C 
ATOM     37  C   UNL A   1      43.180  31.728  29.507  1.00  0.00     0.029 A 
ATOM     38  N   UNL A   1      44.458  30.268  28.404  1.00  0.00    -0.354 N 
ATOM     39  C   UNL A   1      43.134  26.240  27.619  1.00  0.00     0.074 A 
ATOM     40  C   UNL A   1      41.711  26.117  27.849  1.00  0.00     0.031 C 
ATOM     41  C   UNL A   1      44.320  32.358  29.188  1.00  0.00     0.029 A 
ATOM     42  C   UNL A   1      45.214  31.411  28.534  1.00  0.00     0.049 A 
ATOM     43  H   UNL A   1      44.780  29.459  27.944  1.00  0.00     0.167 HD
ATOM     44  C   UNL A   1      43.922  25.249  27.138  1.00  0.00     0.037 A 
ATOM     45  C   UNL A   1      46.499  31.662  28.220  1.00  0.00     0.037 A 
ATOM     46  C   UNL A   1      45.318  25.409  26.815  1.00  0.00     0.049 A 
ATOM     47  C   UNL A   1      47.348  30.556  27.662  1.00  0.00     0.074 A 
ATOM     48  C   UNL A   1      46.193  24.475  26.286  1.00  0.00     0.029 A 
ATOM     49  N   UNL A   1      46.034  26.587  26.962  1.00  0.00    -0.354 N 
ATOM     50  N   UNL A   1      47.012  29.317  27.393  1.00  0.00    -0.248 NA
ATOM     51  C   UNL A   1      48.758  30.871  27.398  1.00  0.00     0.031 C 
ATOM     52  C   UNL A   1      47.444  25.083  26.131  1.00  0.00     0.029 A 
ATOM     53  C   UNL A   1      47.339  26.404  26.534  1.00  0.00     0.049 A 
ATOM     54  H   UNL A   1      45.669  27.429  27.319  1.00  0.00     0.167 HD
ATOM     55  C   UNL A   1      48.167  28.707  26.922  1.00  0.00     0.074 A 
ATOM     56  C   UNL A   1      49.205  29.717  26.923  1.00  0.00     0.031 C 
ATOM     57  C   UNL A   1      48.354  27.423  26.532  1.00  0.00     0.037 A 
BRANCH  44  58
ATOM     58  C   UNL A   1      43.315  23.885  26.957  1.00  0.00     0.058 A 
ATOM     59  C   UNL A   1      42.964  23.381  25.697  1.00  0.00     0.135 A 
ATOM     60  C   UNL A   1      43.148  23.042  28.071  1.00  0.00     0.135 A 
ATOM     61  F   UNL A   1      43.087  24.150  24.604  1.00  0.00    -0.206 F 
ATOM     62  C   UNL A   1      42.459  22.093  25.545  1.00  0.00     0.059 A 
ATOM     63  C   UNL A   1      42.666  21.744  27.939  1.00  0.00     0.059 A 
ATOM     64  F   UNL A   1      43.468  23.476  29.299  1.00  0.00    -0.206 F 
ATOM     65  C   UNL A   1      42.315  21.280  26.673  1.00  0.00     0.060 A 
BRANCH  65  66
ATOM     66  S   UNL A   1      41.688  19.599  26.460  1.00  0.00     0.124 S 
ATOM     67  O   UNL A   1      42.103  18.975  27.714  1.00  0.00    -0.237 OA
ATOM     68  O   UNL A   1      40.254  19.816  26.305  1.00  0.00    -0.237 OA
ATOM     69  O   UNL A   1      42.381  19.129  25.265  1.00  0.00    -0.744 OA
ENDBRANCH  65  66
ENDBRANCH  44  58
BRANCH  45  70
ATOM     70  C   UNL A   1      47.081  33.006  28.481  1.00  0.00     0.058 A 
ATOM     71  C   UNL A   1      47.761  33.276  29.677  1.00  0.00     0.135 A 
ATOM     72  C   UNL A   1      46.980  34.041  27.538  1.00  0.00     0.135 A 
ATOM     73  F   UNL A   1      47.873  32.321  30.614  1.00  0.00    -0.206 F 
ATOM     74  C   UNL A   1      48.312  34.526  29.936  1.00  0.00     0.059 A 
ATOM     75  C   UNL A   1      47.546  35.291  27.762  1.00  0.00     0.059 A 
ATOM     76  F   UNL A   1      46.349  33.830  26.372  1.00  0.00    -0.206 F 
ATOM     77  C   UNL A   1      48.199  35.528  28.970  1.00  0.00     0.060 A 
BRANCH  77  78
ATOM     78  S   UNL A   1      48.960  37.135  29.283  1.00  0.00     0.124 S 
ATOM     79  O   UNL A   1      47.900  38.046  28.868  1.00  0.00    -0.237 OA
ATOM     80  O   UNL A   1      49.231  37.081  30.717  1.00  0.00    -0.237 OA
ATOM     81  O   UNL A   1      50.146  37.111  28.431  1.00  0.00    -0.744 OA
ENDBRANCH  77  78
ENDBRANCH  45  70
BRANCH  57  82
ATOM     82  C   UNL A   1      49.722  27.054  26.040  1.00  0.00     0.058 A 
ATOM     83  C   UNL A   1      50.080  27.197  24.691  1.00  0.00     0.135 A 
ATOM     84  C   UNL A   1      50.691  26.571  26.933  1.00  0.00     0.135 A 
ATOM     85  F   UNL A   1      49.184  27.647  23.798  1.00  0.00    -0.206 F 
ATOM     86  C   UNL A   1      51.347  26.847  24.237  1.00  0.00     0.059 A 
ATOM     87  C   UNL A   1      51.970  26.234  26.505  1.00  0.00     0.059 A 
ATOM     88  F   UNL A   1      50.397  26.424  28.235  1.00  0.00    -0.206 F 
ATOM     89  C   UNL A   1      52.285  26.362  25.152  1.00  0.00     0.060 A 
BRANCH  89  90
ATOM     90  S   UNL A   1      53.932  25.922  24.560  1.00  0.00     0.124 S 
ATOM     91  O   UNL A   1      53.876  26.375  23.174  1.00  0.00    -0.237 OA
ATOM     92  O   UNL A   1      54.802  26.690  25.444  1.00  0.00    -0.237 OA
ATOM     93  O   UNL A   1      53.981  24.474  24.746  1.00  0.00    -0.744 OA
ENDBRANCH  89  90
ENDBRANCH  57  82
ENDBRANCH  31  32
ENDBRANCH  24  26
ENDBRANCH  23  24
ENDBRANCH  22  23
ENDBRANCH   1  22
TORSDOF 18
ENDMDL
