MODEL 1
REMARK VINA RESULT:     -11.0      0.000      0.000
REMARK SMILES CCc1cc(OCCC(=O)OCCOC(=O)c2ccc(-c3c4nc(c(-c5c(F)cc(S(=O)(=O)[O-])cc5F)c5ccc([nH]5)c(-c5c(F)cc(S(=O)(=O)[O-])cc5F)c5nc(c(-c6c(F)cc(S(=O)(=O)[O-])cc6F)c6ccc3[nH]6)C=C5)C=C4)cc2)nc(-c2cnccn2)n1
REMARK SMILES IDX 12 1 11 2 9 3 10 4 8 5 7 6 6 7 5 8 3 9 4 10 91 11 84 12
REMARK SMILES IDX 83 13 2 14 1 15 85 16 86 17 90 18 87 19 89 20 88 21 13 22
REMARK SMILES IDX 14 23 15 24 16 25 17 26 18 27 82 28 19 29 81 30 20 31 21 32
REMARK SMILES IDX 22 33 75 34 23 35 80 36 74 37 76 38 24 39 79 40 73 41 72 42
REMARK SMILES IDX 25 44 59 45 38 46 58 47 39 48 42 49 57 50 77 51 40 52 41 53
REMARK SMILES IDX 56 55 78 56 43 57 26 58 27 59 36 60 28 61 29 62 35 63 37 64
REMARK SMILES IDX 30 65 31 66 32 67 33 68 34 69 60 70 61 71 70 72 62 73 63 74
REMARK SMILES IDX 69 75 71 76 64 77 65 78 66 79 67 80 68 81 44 82 45 83 54 84
REMARK SMILES IDX 46 85 47 86 53 87 55 88 48 89 49 90 50 91 51 92 52 93
REMARK H PARENT 76 43 42 54
REMARK Flexibility Score: inf
ROOT
ATOM      1  C   UNL A   1      42.104  21.813  26.484  1.00  0.00     0.274 C 
ENDROOT
BRANCH   1   2
ATOM      2  O   UNL A   1      40.829  21.460  27.057  1.00  0.00    -0.462 OA
BRANCH   2   3
ATOM      3  C   UNL A   1      39.923  20.881  26.235  1.00  0.00     0.309 C 
ATOM      4  O   UNL A   1      40.011  19.743  25.792  1.00  0.00    -0.252 OA
BRANCH   3   5
ATOM      5  C   UNL A   1      38.799  21.817  25.865  1.00  0.00     0.164 C 
BRANCH   5   6
ATOM      6  C   UNL A   1      37.561  21.145  25.276  1.00  0.00     0.243 C 
BRANCH   6   7
ATOM      7  O   UNL A   1      36.490  22.065  25.049  1.00  0.00    -0.477 OA
BRANCH   7   8
ATOM      8  C   UNL A   1      35.191  21.649  25.037  1.00  0.00     0.217 A 
ATOM      9  C   UNL A   1      32.836  21.882  25.025  1.00  0.00     0.048 A 
ATOM     10  C   UNL A   1      34.083  22.440  25.243  1.00  0.00     0.092 A 
ATOM     11  N   UNL A   1      32.704  20.591  24.711  1.00  0.00    -0.231 NA
ATOM     12  C   UNL A   1      33.830  19.856  24.658  1.00  0.00     0.183 A 
ATOM     13  N   UNL A   1      35.079  20.332  24.803  1.00  0.00    -0.192 NA
BRANCH   9  14
ATOM     14  C   UNL A   1      31.592  22.729  24.973  1.00  0.00     0.053 C 
ATOM     15  C   UNL A   1      30.621  22.563  26.129  1.00  0.00     0.011 C 
ENDBRANCH   9  14
BRANCH  12  16
ATOM     16  C   UNL A   1      33.617  18.414  24.720  1.00  0.00     0.126 A 
ATOM     17  C   UNL A   1      34.620  17.555  24.275  1.00  0.00     0.143 A 
ATOM     18  N   UNL A   1      32.541  17.943  25.414  1.00  0.00    -0.250 NA
ATOM     19  N   UNL A   1      34.617  16.222  24.525  1.00  0.00    -0.261 NA
ATOM     20  C   UNL A   1      32.540  16.617  25.662  1.00  0.00     0.132 A 
ATOM     21  C   UNL A   1      33.561  15.781  25.243  1.00  0.00     0.131 A 
ENDBRANCH  12  16
ENDBRANCH   7   8
ENDBRANCH   6   7
ENDBRANCH   5   6
ENDBRANCH   3   5
ENDBRANCH   2   3
ENDBRANCH   1   2
BRANCH   1  22
ATOM     22  C   UNL A   1      42.391  23.301  26.651  1.00  0.00     0.275 C 
BRANCH  22  23
ATOM     23  O   UNL A   1      41.190  24.058  26.755  1.00  0.00    -0.458 OA
BRANCH  23  24
ATOM     24  C   UNL A   1      41.277  25.339  26.337  1.00  0.00     0.338 C 
ATOM     25  O   UNL A   1      41.410  25.789  25.219  1.00  0.00    -0.246 OA
BRANCH  24  26
ATOM     26  C   UNL A   1      41.184  26.157  27.522  1.00  0.00     0.060 A 
ATOM     27  C   UNL A   1      42.083  27.208  27.689  1.00  0.00     0.016 A 
ATOM     28  C   UNL A   1      40.147  25.878  28.411  1.00  0.00     0.016 A 
ATOM     29  C   UNL A   1      41.919  28.030  28.782  1.00  0.00     0.010 A 
ATOM     30  C   UNL A   1      39.964  26.721  29.483  1.00  0.00     0.010 A 
ATOM     31  C   UNL A   1      40.850  27.793  29.659  1.00  0.00    -0.014 A 
BRANCH  31  32
ATOM     32  C   UNL A   1      40.650  28.702  30.785  1.00  0.00     0.031 A 
ATOM     33  C   UNL A   1      41.548  28.570  31.966  1.00  0.00     0.074 A 
ATOM     34  C   UNL A   1      39.670  29.612  30.669  1.00  0.00     0.049 A 
ATOM     35  N   UNL A   1      41.579  29.286  33.052  1.00  0.00    -0.248 NA
ATOM     36  C   UNL A   1      42.538  27.478  31.930  1.00  0.00     0.031 C 
ATOM     37  C   UNL A   1      38.769  29.734  29.515  1.00  0.00     0.029 A 
ATOM     38  N   UNL A   1      39.277  30.613  31.504  1.00  0.00    -0.354 N 
ATOM     39  C   UNL A   1      42.585  28.733  33.832  1.00  0.00     0.074 A 
ATOM     40  C   UNL A   1      43.116  27.597  33.116  1.00  0.00     0.031 C 
ATOM     41  C   UNL A   1      37.954  30.782  29.703  1.00  0.00     0.029 A 
ATOM     42  C   UNL A   1      38.254  31.376  30.998  1.00  0.00     0.049 A 
ATOM     43  H   UNL A   1      39.687  30.774  32.386  1.00  0.00     0.167 HD
ATOM     44  C   UNL A   1      43.017  29.164  35.037  1.00  0.00     0.037 A 
ATOM     45  C   UNL A   1      37.642  32.443  31.539  1.00  0.00     0.037 A 
ATOM     46  C   UNL A   1      42.430  30.301  35.697  1.00  0.00     0.049 A 
ATOM     47  C   UNL A   1      38.157  32.909  32.871  1.00  0.00     0.074 A 
ATOM     48  C   UNL A   1      42.745  30.853  36.923  1.00  0.00     0.029 A 
ATOM     49  N   UNL A   1      41.391  31.062  35.165  1.00  0.00    -0.354 N 
ATOM     50  N   UNL A   1      39.121  32.392  33.604  1.00  0.00    -0.248 NA
ATOM     51  C   UNL A   1      37.524  34.094  33.449  1.00  0.00     0.031 C 
ATOM     52  C   UNL A   1      41.868  31.923  37.147  1.00  0.00     0.029 A 
ATOM     53  C   UNL A   1      41.043  32.072  36.040  1.00  0.00     0.049 A 
ATOM     54  H   UNL A   1      40.967  30.903  34.291  1.00  0.00     0.167 HD
ATOM     55  C   UNL A   1      39.219  33.195  34.729  1.00  0.00     0.074 A 
ATOM     56  C   UNL A   1      38.232  34.250  34.559  1.00  0.00     0.031 C 
ATOM     57  C   UNL A   1      40.034  33.079  35.809  1.00  0.00     0.037 A 
BRANCH  44  58
ATOM     58  C   UNL A   1      44.122  28.387  35.698  1.00  0.00     0.058 A 
ATOM     59  C   UNL A   1      45.478  28.677  35.466  1.00  0.00     0.135 A 
ATOM     60  C   UNL A   1      43.826  27.316  36.556  1.00  0.00     0.135 A 
ATOM     61  F   UNL A   1      45.823  29.667  34.627  1.00  0.00    -0.206 F 
ATOM     62  C   UNL A   1      46.497  27.921  36.040  1.00  0.00     0.059 A 
ATOM     63  C   UNL A   1      44.828  26.563  37.163  1.00  0.00     0.059 A 
ATOM     64  F   UNL A   1      42.550  26.979  36.800  1.00  0.00    -0.206 F 
ATOM     65  C   UNL A   1      46.161  26.865  36.887  1.00  0.00     0.060 A 
BRANCH  65  66
ATOM     66  S   UNL A   1      47.493  25.894  37.627  1.00  0.00     0.124 S 
ATOM     67  O   UNL A   1      48.675  26.559  37.087  1.00  0.00    -0.237 OA
ATOM     68  O   UNL A   1      47.258  26.082  39.055  1.00  0.00    -0.237 OA
ATOM     69  O   UNL A   1      47.249  24.545  37.126  1.00  0.00    -0.744 OA
ENDBRANCH  65  66
ENDBRANCH  44  58
BRANCH  45  70
ATOM     70  C   UNL A   1      36.535  33.120  30.812  1.00  0.00     0.058 A 
ATOM     71  C   UNL A   1      35.207  33.025  31.251  1.00  0.00     0.135 A 
ATOM     72  C   UNL A   1      36.793  33.933  29.695  1.00  0.00     0.135 A 
ATOM     73  F   UNL A   1      34.905  32.272  32.319  1.00  0.00    -0.206 F 
ATOM     74  C   UNL A   1      34.173  33.695  30.601  1.00  0.00     0.059 A 
ATOM     75  C   UNL A   1      35.781  34.634  29.046  1.00  0.00     0.059 A 
ATOM     76  F   UNL A   1      38.050  34.083  29.249  1.00  0.00    -0.206 F 
ATOM     77  C   UNL A   1      34.471  34.499  29.499  1.00  0.00     0.060 A 
BRANCH  77  78
ATOM     78  S   UNL A   1      33.130  35.398  28.687  1.00  0.00     0.124 S 
ATOM     79  O   UNL A   1      33.869  36.382  27.903  1.00  0.00    -0.237 OA
ATOM     80  O   UNL A   1      32.467  34.343  27.927  1.00  0.00    -0.237 OA
ATOM     81  O   UNL A   1      32.359  35.932  29.806  1.00  0.00    -0.744 OA
ENDBRANCH  77  78
ENDBRANCH  45  70
BRANCH  57  82
ATOM     82  C   UNL A   1      39.875  34.134  36.861  1.00  0.00     0.058 A 
ATOM     83  C   UNL A   1      40.618  35.324  36.822  1.00  0.00     0.135 A 
ATOM     84  C   UNL A   1      38.961  33.954  37.910  1.00  0.00     0.135 A 
ATOM     85  F   UNL A   1      41.506  35.535  35.837  1.00  0.00    -0.206 F 
ATOM     86  C   UNL A   1      40.495  36.282  37.819  1.00  0.00     0.059 A 
ATOM     87  C   UNL A   1      38.798  34.914  38.899  1.00  0.00     0.059 A 
ATOM     88  F   UNL A   1      38.218  32.837  37.978  1.00  0.00    -0.206 F 
ATOM     89  C   UNL A   1      39.586  36.063  38.856  1.00  0.00     0.060 A 
BRANCH  89  90
ATOM     90  S   UNL A   1      39.440  37.310  40.150  1.00  0.00     0.124 S 
ATOM     91  O   UNL A   1      40.825  37.744  40.291  1.00  0.00    -0.237 OA
ATOM     92  O   UNL A   1      38.528  38.278  39.550  1.00  0.00    -0.237 OA
ATOM     93  O   UNL A   1      38.897  36.562  41.280  1.00  0.00    -0.744 OA
ENDBRANCH  89  90
ENDBRANCH  57  82
ENDBRANCH  31  32
ENDBRANCH  24  26
ENDBRANCH  23  24
ENDBRANCH  22  23
ENDBRANCH   1  22
TORSDOF 19
ENDMDL
MODEL 2
REMARK VINA RESULT:     -10.7      6.990     12.862
REMARK SMILES CCc1cc(OCCC(=O)OCCOC(=O)c2ccc(-c3c4nc(c(-c5c(F)cc(S(=O)(=O)[O-])cc5F)c5ccc([nH]5)c(-c5c(F)cc(S(=O)(=O)[O-])cc5F)c5nc(c(-c6c(F)cc(S(=O)(=O)[O-])cc6F)c6ccc3[nH]6)C=C5)C=C4)cc2)nc(-c2cnccn2)n1
REMARK SMILES IDX 12 1 11 2 9 3 10 4 8 5 7 6 6 7 5 8 3 9 4 10 91 11 84 12
REMARK SMILES IDX 83 13 2 14 1 15 85 16 86 17 90 18 87 19 89 20 88 21 13 22
REMARK SMILES IDX 14 23 15 24 16 25 17 26 18 27 82 28 19 29 81 30 20 31 21 32
REMARK SMILES IDX 22 33 75 34 23 35 80 36 74 37 76 38 24 39 79 40 73 41 72 42
REMARK SMILES IDX 25 44 59 45 38 46 58 47 39 48 42 49 57 50 77 51 40 52 41 53
REMARK SMILES IDX 56 55 78 56 43 57 26 58 27 59 36 60 28 61 29 62 35 63 37 64
REMARK SMILES IDX 30 65 31 66 32 67 33 68 34 69 60 70 61 71 70 72 62 73 63 74
REMARK SMILES IDX 69 75 71 76 64 77 65 78 66 79 67 80 68 81 44 82 45 83 54 84
REMARK SMILES IDX 46 85 47 86 53 87 55 88 48 89 49 90 50 91 51 92 52 93
REMARK H PARENT 76 43 42 54
REMARK Flexibility Score: inf
ROOT
ATOM      1  C   UNL A   1      34.645  32.692  30.934  1.00  0.00     0.274 C 
ENDROOT
BRANCH   1   2
ATOM      2  O   UNL A   1      35.225  33.354  29.793  1.00  0.00    -0.462 OA
BRANCH   2   3
ATOM      3  C   UNL A   1      34.661  33.110  28.587  1.00  0.00     0.309 C 
ATOM      4  O   UNL A   1      33.701  33.718  28.131  1.00  0.00    -0.252 OA
BRANCH   3   5
ATOM      5  C   UNL A   1      35.311  31.953  27.870  1.00  0.00     0.164 C 
BRANCH   5   6
ATOM      6  C   UNL A   1      34.531  30.641  27.910  1.00  0.00     0.243 C 
BRANCH   6   7
ATOM      7  O   UNL A   1      33.242  30.748  27.299  1.00  0.00    -0.477 OA
BRANCH   7   8
ATOM      8  C   UNL A   1      32.854  29.888  26.313  1.00  0.00     0.217 A 
ATOM      9  C   UNL A   1      32.813  27.863  25.091  1.00  0.00     0.048 A 
ATOM     10  C   UNL A   1      33.445  28.682  26.010  1.00  0.00     0.092 A 
ATOM     11  N   UNL A   1      31.713  28.264  24.450  1.00  0.00    -0.231 NA
ATOM     12  C   UNL A   1      31.275  29.510  24.708  1.00  0.00     0.183 A 
ATOM     13  N   UNL A   1      31.797  30.345  25.623  1.00  0.00    -0.192 NA
BRANCH   9  14
ATOM     14  C   UNL A   1      33.238  26.432  24.890  1.00  0.00     0.053 C 
ATOM     15  C   UNL A   1      34.128  25.840  25.970  1.00  0.00     0.011 C 
ENDBRANCH   9  14
BRANCH  12  16
ATOM     16  C   UNL A   1      30.348  30.045  23.718  1.00  0.00     0.126 A 
ATOM     17  C   UNL A   1      30.248  29.430  22.472  1.00  0.00     0.143 A 
ATOM     18  N   UNL A   1      29.446  30.990  24.113  1.00  0.00    -0.250 NA
ATOM     19  N   UNL A   1      29.248  29.695  21.594  1.00  0.00    -0.261 NA
ATOM     20  C   UNL A   1      28.453  31.251  23.240  1.00  0.00     0.132 A 
ATOM     21  C   UNL A   1      28.346  30.608  22.018  1.00  0.00     0.131 A 
ENDBRANCH  12  16
ENDBRANCH   7   8
ENDBRANCH   6   7
ENDBRANCH   5   6
ENDBRANCH   3   5
ENDBRANCH   2   3
ENDBRANCH   1   2
BRANCH   1  22
ATOM     22  C   UNL A   1      35.723  32.121  31.849  1.00  0.00     0.275 C 
BRANCH  22  23
ATOM     23  O   UNL A   1      36.864  31.697  31.112  1.00  0.00    -0.458 OA
BRANCH  23  24
ATOM     24  C   UNL A   1      36.953  30.365  30.903  1.00  0.00     0.338 C 
ATOM     25  O   UNL A   1      36.130  29.491  31.068  1.00  0.00    -0.246 OA
BRANCH  24  26
ATOM     26  C   UNL A   1      38.290  30.122  30.418  1.00  0.00     0.060 A 
ATOM     27  C   UNL A   1      39.299  29.830  31.334  1.00  0.00     0.016 A 
ATOM     28  C   UNL A   1      38.481  30.136  29.036  1.00  0.00     0.016 A 
ATOM     29  C   UNL A   1      40.546  29.514  30.842  1.00  0.00     0.010 A 
ATOM     30  C   UNL A   1      39.719  29.786  28.547  1.00  0.00     0.010 A 
ATOM     31  C   UNL A   1      40.741  29.475  29.454  1.00  0.00    -0.014 A 
BRANCH  31  32
ATOM     32  C   UNL A   1      42.052  29.086  28.939  1.00  0.00     0.031 A 
ATOM     33  C   UNL A   1      43.144  30.099  28.948  1.00  0.00     0.074 A 
ATOM     34  C   UNL A   1      42.186  27.822  28.504  1.00  0.00     0.049 A 
ATOM     35  N   UNL A   1      44.385  29.966  28.581  1.00  0.00    -0.248 NA
ATOM     36  C   UNL A   1      42.792  31.450  29.423  1.00  0.00     0.031 C 
ATOM     37  C   UNL A   1      41.109  26.825  28.474  1.00  0.00     0.029 A 
ATOM     38  N   UNL A   1      43.272  27.154  28.026  1.00  0.00    -0.354 N 
ATOM     39  C   UNL A   1      44.963  31.213  28.774  1.00  0.00     0.074 A 
ATOM     40  C   UNL A   1      43.932  32.102  29.253  1.00  0.00     0.031 C 
ATOM     41  C   UNL A   1      41.603  25.657  28.040  1.00  0.00     0.029 A 
ATOM     42  C   UNL A   1      43.014  25.838  27.729  1.00  0.00     0.049 A 
ATOM     43  H   UNL A   1      44.155  27.572  27.905  1.00  0.00     0.167 HD
ATOM     44  C   UNL A   1      46.254  31.556  28.570  1.00  0.00     0.037 A 
ATOM     45  C   UNL A   1      43.850  24.893  27.263  1.00  0.00     0.037 A 
ATOM     46  C   UNL A   1      47.226  30.615  28.077  1.00  0.00     0.049 A 
ATOM     47  C   UNL A   1      45.281  25.301  27.064  1.00  0.00     0.074 A 
ATOM     48  C   UNL A   1      48.565  30.810  27.806  1.00  0.00     0.029 A 
ATOM     49  N   UNL A   1      46.943  29.283  27.782  1.00  0.00    -0.354 N 
ATOM     50  N   UNL A   1      45.833  26.480  27.261  1.00  0.00    -0.248 NA
ATOM     51  C   UNL A   1      46.205  24.268  26.596  1.00  0.00     0.031 C 
ATOM     52  C   UNL A   1      49.081  29.606  27.308  1.00  0.00     0.029 A 
ATOM     53  C   UNL A   1      48.078  28.646  27.320  1.00  0.00     0.049 A 
ATOM     54  H   UNL A   1      46.062  28.857  27.888  1.00  0.00     0.167 HD
ATOM     55  C   UNL A   1      47.174  26.331  26.949  1.00  0.00     0.074 A 
ATOM     56  C   UNL A   1      47.351  24.936  26.580  1.00  0.00     0.031 C 
ATOM     57  C   UNL A   1      48.174  27.252  26.953  1.00  0.00     0.037 A 
BRANCH  44  58
ATOM     58  C   UNL A   1      46.644  32.983  28.840  1.00  0.00     0.058 A 
ATOM     59  C   UNL A   1      47.268  33.369  30.039  1.00  0.00     0.135 A 
ATOM     60  C   UNL A   1      46.368  33.988  27.900  1.00  0.00     0.135 A 
ATOM     61  F   UNL A   1      47.526  32.457  30.991  1.00  0.00    -0.206 F 
ATOM     62  C   UNL A   1      47.580  34.699  30.306  1.00  0.00     0.059 A 
ATOM     63  C   UNL A   1      46.696  35.321  28.133  1.00  0.00     0.059 A 
ATOM     64  F   UNL A   1      45.756  33.683  26.745  1.00  0.00    -0.206 F 
ATOM     65  C   UNL A   1      47.290  35.669  29.346  1.00  0.00     0.060 A 
BRANCH  65  66
ATOM     66  S   UNL A   1      47.703  37.391  29.704  1.00  0.00     0.124 S 
ATOM     67  O   UNL A   1      48.114  37.309  31.102  1.00  0.00    -0.237 OA
ATOM     68  O   UNL A   1      48.770  37.661  28.745  1.00  0.00    -0.237 OA
ATOM     69  O   UNL A   1      46.450  38.099  29.459  1.00  0.00    -0.744 OA
ENDBRANCH  65  66
ENDBRANCH  44  58
BRANCH  45  70
ATOM     70  C   UNL A   1      43.350  23.518  26.999  1.00  0.00     0.058 A 
ATOM     71  C   UNL A   1      43.070  23.080  25.697  1.00  0.00     0.135 A 
ATOM     72  C   UNL A   1      43.204  22.587  28.042  1.00  0.00     0.135 A 
ATOM     73  F   UNL A   1      43.203  23.922  24.662  1.00  0.00    -0.206 F 
ATOM     74  C   UNL A   1      42.647  21.777  25.439  1.00  0.00     0.059 A 
ATOM     75  C   UNL A   1      42.809  21.273  27.806  1.00  0.00     0.059 A 
ATOM     76  F   UNL A   1      43.485  22.943  29.305  1.00  0.00    -0.206 F 
ATOM     77  C   UNL A   1      42.521  20.881  26.501  1.00  0.00     0.060 A 
BRANCH  77  78
ATOM     78  S   UNL A   1      42.012  19.182  26.153  1.00  0.00     0.124 S 
ATOM     79  O   UNL A   1      42.389  18.504  27.389  1.00  0.00    -0.237 OA
ATOM     80  O   UNL A   1      40.579  19.331  25.918  1.00  0.00    -0.237 OA
ATOM     81  O   UNL A   1      42.799  18.831  24.975  1.00  0.00    -0.744 OA
ENDBRANCH  77  78
ENDBRANCH  45  70
BRANCH  57  82
ATOM     82  C   UNL A   1      49.527  26.746  26.555  1.00  0.00     0.058 A 
ATOM     83  C   UNL A   1      49.954  26.773  25.218  1.00  0.00     0.135 A 
ATOM     84  C   UNL A   1      50.406  26.242  27.525  1.00  0.00     0.135 A 
ATOM     85  F   UNL A   1      49.142  27.243  24.258  1.00  0.00    -0.206 F 
ATOM     86  C   UNL A   1      51.193  26.269  24.849  1.00  0.00     0.059 A 
ATOM     87  C   UNL A   1      51.663  25.764  27.182  1.00  0.00     0.059 A 
ATOM     88  F   UNL A   1      50.044  26.213  28.818  1.00  0.00    -0.206 F 
ATOM     89  C   UNL A   1      52.037  25.761  25.839  1.00  0.00     0.060 A 
BRANCH  89  90
ATOM     90  S   UNL A   1      53.641  25.102  25.347  1.00  0.00     0.124 S 
ATOM     91  O   UNL A   1      54.480  25.515  26.466  1.00  0.00    -0.237 OA
ATOM     92  O   UNL A   1      53.374  23.671  25.247  1.00  0.00    -0.237 OA
ATOM     93  O   UNL A   1      53.908  25.774  24.078  1.00  0.00    -0.744 OA
ENDBRANCH  89  90
ENDBRANCH  57  82
ENDBRANCH  31  32
ENDBRANCH  24  26
ENDBRANCH  23  24
ENDBRANCH  22  23
ENDBRANCH   1  22
TORSDOF 19
ENDMDL
MODEL 3
REMARK VINA RESULT:     -10.6      2.602      4.580
REMARK SMILES CCc1cc(OCCC(=O)OCCOC(=O)c2ccc(-c3c4nc(c(-c5c(F)cc(S(=O)(=O)[O-])cc5F)c5ccc([nH]5)c(-c5c(F)cc(S(=O)(=O)[O-])cc5F)c5nc(c(-c6c(F)cc(S(=O)(=O)[O-])cc6F)c6ccc3[nH]6)C=C5)C=C4)cc2)nc(-c2cnccn2)n1
REMARK SMILES IDX 12 1 11 2 9 3 10 4 8 5 7 6 6 7 5 8 3 9 4 10 91 11 84 12
REMARK SMILES IDX 83 13 2 14 1 15 85 16 86 17 90 18 87 19 89 20 88 21 13 22
REMARK SMILES IDX 14 23 15 24 16 25 17 26 18 27 82 28 19 29 81 30 20 31 21 32
REMARK SMILES IDX 22 33 75 34 23 35 80 36 74 37 76 38 24 39 79 40 73 41 72 42
REMARK SMILES IDX 25 44 59 45 38 46 58 47 39 48 42 49 57 50 77 51 40 52 41 53
REMARK SMILES IDX 56 55 78 56 43 57 26 58 27 59 36 60 28 61 29 62 35 63 37 64
REMARK SMILES IDX 30 65 31 66 32 67 33 68 34 69 60 70 61 71 70 72 62 73 63 74
REMARK SMILES IDX 69 75 71 76 64 77 65 78 66 79 67 80 68 81 44 82 45 83 54 84
REMARK SMILES IDX 46 85 47 86 53 87 55 88 48 89 49 90 50 91 51 92 52 93
REMARK H PARENT 76 43 42 54
REMARK Flexibility Score: inf
ROOT
ATOM      1  C   UNL A   1      38.207  22.543  25.838  1.00  0.00     0.274 C 
ENDROOT
BRANCH   1   2
ATOM      2  O   UNL A   1      37.220  23.558  25.568  1.00  0.00    -0.462 OA
BRANCH   2   3
ATOM      3  C   UNL A   1      35.925  23.231  25.786  1.00  0.00     0.309 C 
ATOM      4  O   UNL A   1      35.549  22.210  26.348  1.00  0.00    -0.252 OA
BRANCH   3   5
ATOM      5  C   UNL A   1      34.968  24.242  25.205  1.00  0.00     0.164 C 
BRANCH   5   6
ATOM      6  C   UNL A   1      33.703  24.486  26.024  1.00  0.00     0.243 C 
BRANCH   6   7
ATOM      7  O   UNL A   1      32.571  24.805  25.209  1.00  0.00    -0.477 OA
BRANCH   7   8
ATOM      8  C   UNL A   1      32.198  26.099  24.995  1.00  0.00     0.217 A 
ATOM      9  C   UNL A   1      30.899  27.866  24.104  1.00  0.00     0.048 A 
ATOM     10  C   UNL A   1      31.281  26.536  24.065  1.00  0.00     0.092 A 
ATOM     11  N   UNL A   1      31.466  28.722  24.957  1.00  0.00    -0.231 NA
ATOM     12  C   UNL A   1      32.448  28.242  25.742  1.00  0.00     0.183 A 
ATOM     13  N   UNL A   1      32.839  26.957  25.804  1.00  0.00    -0.192 NA
BRANCH   9  14
ATOM     14  C   UNL A   1      29.725  28.371  23.307  1.00  0.00     0.053 C 
ATOM     15  C   UNL A   1      29.523  29.877  23.296  1.00  0.00     0.011 C 
ENDBRANCH   9  14
BRANCH  12  16
ATOM     16  C   UNL A   1      33.298  29.263  26.344  1.00  0.00     0.126 A 
ATOM     17  C   UNL A   1      32.736  30.476  26.737  1.00  0.00     0.143 A 
ATOM     18  N   UNL A   1      34.568  28.922  26.710  1.00  0.00    -0.250 NA
ATOM     19  N   UNL A   1      33.383  31.371  27.524  1.00  0.00    -0.261 NA
ATOM     20  C   UNL A   1      35.210  29.813  27.493  1.00  0.00     0.132 A 
ATOM     21  C   UNL A   1      34.626  31.000  27.904  1.00  0.00     0.131 A 
ENDBRANCH  12  16
ENDBRANCH   7   8
ENDBRANCH   6   7
ENDBRANCH   5   6
ENDBRANCH   3   5
ENDBRANCH   2   3
ENDBRANCH   1   2
BRANCH   1  22
ATOM     22  C   UNL A   1      39.412  23.125  26.570  1.00  0.00     0.275 C 
BRANCH  22  23
ATOM     23  O   UNL A   1      39.255  24.519  26.810  1.00  0.00    -0.458 OA
BRANCH  23  24
ATOM     24  C   UNL A   1      40.386  25.252  26.713  1.00  0.00     0.338 C 
ATOM     25  O   UNL A   1      41.250  25.247  25.863  1.00  0.00    -0.246 OA
BRANCH  24  26
ATOM     26  C   UNL A   1      40.411  26.110  27.873  1.00  0.00     0.060 A 
ATOM     27  C   UNL A   1      41.370  27.118  27.947  1.00  0.00     0.016 A 
ATOM     28  C   UNL A   1      39.421  25.912  28.835  1.00  0.00     0.016 A 
ATOM     29  C   UNL A   1      41.318  27.981  29.020  1.00  0.00     0.010 A 
ATOM     30  C   UNL A   1      39.352  26.797  29.888  1.00  0.00     0.010 A 
ATOM     31  C   UNL A   1      40.299  27.826  29.970  1.00  0.00    -0.014 A 
BRANCH  31  32
ATOM     32  C   UNL A   1      40.218  28.778  31.075  1.00  0.00     0.031 A 
ATOM     33  C   UNL A   1      41.158  28.613  32.219  1.00  0.00     0.074 A 
ATOM     34  C   UNL A   1      39.303  29.755  30.974  1.00  0.00     0.049 A 
ATOM     35  N   UNL A   1      41.291  29.355  33.280  1.00  0.00    -0.248 NA
ATOM     36  C   UNL A   1      42.062  27.450  32.174  1.00  0.00     0.031 C 
ATOM     37  C   UNL A   1      38.361  29.912  29.857  1.00  0.00     0.029 A 
ATOM     38  N   UNL A   1      39.024  30.805  31.794  1.00  0.00    -0.354 N 
ATOM     39  C   UNL A   1      42.289  28.750  34.031  1.00  0.00     0.074 A 
ATOM     40  C   UNL A   1      42.701  27.558  33.328  1.00  0.00     0.031 C 
ATOM     41  C   UNL A   1      37.635  31.023  30.048  1.00  0.00     0.029 A 
ATOM     42  C   UNL A   1      38.036  31.628  31.310  1.00  0.00     0.049 A 
ATOM     43  H   UNL A   1      39.484  30.960  32.651  1.00  0.00     0.167 HD
ATOM     44  C   UNL A   1      42.807  29.181  35.202  1.00  0.00     0.037 A 
ATOM     45  C   UNL A   1      37.530  32.753  31.844  1.00  0.00     0.037 A 
ATOM     46  C   UNL A   1      42.335  30.377  35.852  1.00  0.00     0.049 A 
ATOM     47  C   UNL A   1      38.139  33.216  33.137  1.00  0.00     0.074 A 
ATOM     48  C   UNL A   1      42.746  30.938  37.044  1.00  0.00     0.029 A 
ATOM     49  N   UNL A   1      41.332  31.198  35.342  1.00  0.00    -0.354 N 
ATOM     50  N   UNL A   1      39.095  32.649  33.842  1.00  0.00    -0.248 NA
ATOM     51  C   UNL A   1      37.622  34.461  33.704  1.00  0.00     0.031 C 
ATOM     52  C   UNL A   1      41.961  32.075  37.274  1.00  0.00     0.029 A 
ATOM     53  C   UNL A   1      41.099  32.254  36.200  1.00  0.00     0.049 A 
ATOM     54  H   UNL A   1      40.857  31.046  34.493  1.00  0.00     0.167 HD
ATOM     55  C   UNL A   1      39.303  33.473  34.936  1.00  0.00     0.074 A 
ATOM     56  C   UNL A   1      38.390  34.594  34.777  1.00  0.00     0.031 C 
ATOM     57  C   UNL A   1      40.157  33.327  35.983  1.00  0.00     0.037 A 
BRANCH  44  58
ATOM     58  C   UNL A   1      43.881  28.342  35.838  1.00  0.00     0.058 A 
ATOM     59  C   UNL A   1      43.580  27.323  36.759  1.00  0.00     0.135 A 
ATOM     60  C   UNL A   1      45.234  28.574  35.546  1.00  0.00     0.135 A 
ATOM     61  F   UNL A   1      42.306  27.077  37.104  1.00  0.00    -0.206 F 
ATOM     62  C   UNL A   1      44.581  26.583  37.383  1.00  0.00     0.059 A 
ATOM     63  C   UNL A   1      46.251  27.829  36.138  1.00  0.00     0.059 A 
ATOM     64  F   UNL A   1      45.583  29.547  34.690  1.00  0.00    -0.206 F 
ATOM     65  C   UNL A   1      45.915  26.844  37.066  1.00  0.00     0.060 A 
BRANCH  65  66
ATOM     66  S   UNL A   1      47.202  25.876  37.883  1.00  0.00     0.124 S 
ATOM     67  O   UNL A   1      46.470  25.303  39.008  1.00  0.00    -0.237 OA
ATOM     68  O   UNL A   1      47.593  24.935  36.837  1.00  0.00    -0.237 OA
ATOM     69  O   UNL A   1      48.209  26.874  38.232  1.00  0.00    -0.744 OA
ENDBRANCH  65  66
ENDBRANCH  44  58
BRANCH  45  70
ATOM     70  C   UNL A   1      36.444  33.490  31.145  1.00  0.00     0.058 A 
ATOM     71  C   UNL A   1      36.670  34.141  29.925  1.00  0.00     0.135 A 
ATOM     72  C   UNL A   1      35.134  33.504  31.656  1.00  0.00     0.135 A 
ATOM     73  F   UNL A   1      37.898  34.149  29.385  1.00  0.00    -0.206 F 
ATOM     74  C   UNL A   1      35.644  34.793  29.243  1.00  0.00     0.059 A 
ATOM     75  C   UNL A   1      34.088  34.126  30.980  1.00  0.00     0.059 A 
ATOM     76  F   UNL A   1      34.854  32.874  32.807  1.00  0.00    -0.206 F 
ATOM     77  C   UNL A   1      34.355  34.778  29.779  1.00  0.00     0.060 A 
BRANCH  77  78
ATOM     78  S   UNL A   1      33.022  35.589  28.868  1.00  0.00     0.124 S 
ATOM     79  O   UNL A   1      33.762  36.565  28.075  1.00  0.00    -0.237 OA
ATOM     80  O   UNL A   1      32.435  34.478  28.126  1.00  0.00    -0.237 OA
ATOM     81  O   UNL A   1      32.180  36.141  29.925  1.00  0.00    -0.744 OA
ENDBRANCH  77  78
ENDBRANCH  45  70
BRANCH  57  82
ATOM     82  C   UNL A   1      40.124  34.421  37.007  1.00  0.00     0.058 A 
ATOM     83  C   UNL A   1      39.263  34.362  38.113  1.00  0.00     0.135 A 
ATOM     84  C   UNL A   1      40.974  35.530  36.882  1.00  0.00     0.135 A 
ATOM     85  F   UNL A   1      38.431  33.319  38.268  1.00  0.00    -0.206 F 
ATOM     86  C   UNL A   1      39.210  35.394  39.039  1.00  0.00     0.059 A 
ATOM     87  C   UNL A   1      40.961  36.558  37.815  1.00  0.00     0.059 A 
ATOM     88  F   UNL A   1      41.826  35.619  35.848  1.00  0.00    -0.206 F 
ATOM     89  C   UNL A   1      40.060  36.491  38.877  1.00  0.00     0.060 A 
BRANCH  89  90
ATOM     90  S   UNL A   1      39.976  37.830  40.080  1.00  0.00     0.124 S 
ATOM     91  O   UNL A   1      38.770  38.529  39.653  1.00  0.00    -0.237 OA
ATOM     92  O   UNL A   1      39.880  37.108  41.345  1.00  0.00    -0.237 OA
ATOM     93  O   UNL A   1      41.229  38.550  39.870  1.00  0.00    -0.744 OA
ENDBRANCH  89  90
ENDBRANCH  57  82
ENDBRANCH  31  32
ENDBRANCH  24  26
ENDBRANCH  23  24
ENDBRANCH  22  23
ENDBRANCH   1  22
TORSDOF 19
ENDMDL
