MODEL 1
REMARK VINA RESULT:     -10.0      0.000      0.000
REMARK SMILES CCCN(CCC)c1ccc(C(=O)OCCOC(=O)c2ccc(-c3c4nc(c(-c5c(F)cc(S(=O)(=O)[O-])cc5F)c5ccc([nH]5)c(-c5c(F)cc(S(=O)(=O)[O-])cc5F)c5nc(c(-c6c(F)cc(S(=O)(=O)[O-])cc6F)c6ccc3[nH]6)C=C5)C=C4)cc2)cc1[N+](=O)[O-]
REMARK SMILES IDX 15 1 14 2 12 3 13 4 11 5 8 6 9 7 87 8 10 9 86 10 4 11 3 12
REMARK SMILES IDX 2 13 1 14 5 15 6 16 7 17 88 18 89 19 90 20 16 21 17 22 18 23
REMARK SMILES IDX 19 24 20 25 21 26 85 27 22 28 84 29 23 30 24 31 25 32 78 33
REMARK SMILES IDX 26 34 83 35 77 36 79 37 27 38 82 39 76 40 75 41 28 43 62 44
REMARK SMILES IDX 41 45 61 46 42 47 45 48 60 49 80 50 43 51 44 52 59 54 81 55
REMARK SMILES IDX 46 56 29 57 30 58 39 59 31 60 32 61 38 62 40 63 33 64 34 65
REMARK SMILES IDX 35 66 36 67 37 68 63 69 64 70 73 71 65 72 66 73 72 74 74 75
REMARK SMILES IDX 67 76 68 77 69 78 70 79 71 80 47 81 48 82 57 83 49 84 50 85
REMARK SMILES IDX 56 86 58 87 51 88 52 89 53 90 54 91 55 92
REMARK H PARENT 79 42 45 53
REMARK Flexibility Score: inf
ROOT
ATOM      1  C   UNL A   1      33.299  30.413  27.476  1.00  0.00     0.275 C 
ENDROOT
BRANCH   1   2
ATOM      2  O   UNL A   1      32.563  29.177  27.417  1.00  0.00    -0.458 OA
BRANCH   2   3
ATOM      3  C   UNL A   1      32.099  28.846  26.187  1.00  0.00     0.338 C 
ATOM      4  O   UNL A   1      31.699  29.622  25.341  1.00  0.00    -0.246 OA
BRANCH   3   5
ATOM      5  C   UNL A   1      32.183  27.381  25.943  1.00  0.00     0.067 A 
ATOM      6  C   UNL A   1      32.156  24.563  25.552  1.00  0.00     0.116 A 
ATOM      7  C   UNL A   1      31.037  25.242  26.057  1.00  0.00     0.034 A 
ATOM      8  C   UNL A   1      33.276  25.349  25.215  1.00  0.00     0.293 A 
ATOM      9  C   UNL A   1      31.049  26.621  26.257  1.00  0.00     0.018 A 
ATOM     10  C   UNL A   1      33.303  26.745  25.407  1.00  0.00     0.103 A 
BRANCH   6  11
ATOM     11  N   UNL A   1      32.143  23.175  25.526  1.00  0.00    -0.366 N 
BRANCH  11  12
ATOM     12  C   UNL A   1      31.857  22.470  26.786  1.00  0.00     0.116 C 
BRANCH  12  13
ATOM     13  C   UNL A   1      33.041  22.552  27.762  1.00  0.00     0.018 C 
ATOM     14  C   UNL A   1      34.217  21.653  27.397  1.00  0.00     0.006 C 
ENDBRANCH  12  13
ENDBRANCH  11  12
BRANCH  11  15
ATOM     15  C   UNL A   1      31.895  22.482  24.248  1.00  0.00     0.116 C 
BRANCH  15  16
ATOM     16  C   UNL A   1      32.998  21.487  23.861  1.00  0.00     0.018 C 
ATOM     17  C   UNL A   1      32.625  20.041  24.173  1.00  0.00     0.006 C 
ENDBRANCH  15  16
ENDBRANCH  11  15
ENDBRANCH   6  11
BRANCH   8  18
ATOM     18  N   UNL A   1      34.518  24.719  24.793  1.00  0.00     0.065 N 
ATOM     19  O   UNL A   1      35.342  24.464  25.687  1.00  0.00    -0.258 OA
ATOM     20  O   UNL A   1      34.701  24.526  23.584  1.00  0.00    -0.258 OA
ENDBRANCH   8  18
ENDBRANCH   3   5
ENDBRANCH   2   3
ENDBRANCH   1   2
BRANCH   1  21
ATOM     21  C   UNL A   1      34.787  30.190  27.192  1.00  0.00     0.275 C 
BRANCH  21  22
ATOM     22  O   UNL A   1      35.424  29.393  28.212  1.00  0.00    -0.458 OA
BRANCH  22  23
ATOM     23  C   UNL A   1      36.075  30.106  29.161  1.00  0.00     0.338 C 
ATOM     24  O   UNL A   1      35.577  30.694  30.109  1.00  0.00    -0.246 OA
BRANCH  23  25
ATOM     25  C   UNL A   1      37.532  29.992  28.993  1.00  0.00     0.060 A 
ATOM     26  C   UNL A   1      38.021  29.889  27.693  1.00  0.00     0.016 A 
ATOM     27  C   UNL A   1      38.388  29.809  30.079  1.00  0.00     0.016 A 
ATOM     28  C   UNL A   1      39.349  29.545  27.463  1.00  0.00     0.010 A 
ATOM     29  C   UNL A   1      39.739  29.510  29.845  1.00  0.00     0.010 A 
ATOM     30  C   UNL A   1      40.228  29.344  28.535  1.00  0.00    -0.014 A 
BRANCH  30  31
ATOM     31  C   UNL A   1      41.625  28.899  28.261  1.00  0.00     0.031 A 
ATOM     32  C   UNL A   1      42.767  29.881  28.343  1.00  0.00     0.074 A 
ATOM     33  C   UNL A   1      41.882  27.601  27.998  1.00  0.00     0.049 A 
ATOM     34  N   UNL A   1      44.033  29.702  28.061  1.00  0.00    -0.248 NA
ATOM     35  C   UNL A   1      42.442  31.243  28.792  1.00  0.00     0.031 C 
ATOM     36  C   UNL A   1      40.878  26.537  27.932  1.00  0.00     0.029 A 
ATOM     37  N   UNL A   1      43.067  26.952  27.748  1.00  0.00    -0.354 N 
ATOM     38  C   UNL A   1      44.647  30.935  28.256  1.00  0.00     0.074 A 
ATOM     39  C   UNL A   1      43.610  31.858  28.667  1.00  0.00     0.031 C 
ATOM     40  C   UNL A   1      41.490  25.368  27.694  1.00  0.00     0.029 A 
ATOM     41  C   UNL A   1      42.919  25.604  27.515  1.00  0.00     0.049 A 
ATOM     42  H   UNL A   1      43.939  27.408  27.737  1.00  0.00     0.167 HD
ATOM     43  C   UNL A   1      45.953  31.267  28.110  1.00  0.00     0.037 A 
ATOM     44  C   UNL A   1      43.821  24.668  27.160  1.00  0.00     0.037 A 
ATOM     45  C   UNL A   1      46.990  30.333  27.745  1.00  0.00     0.049 A 
ATOM     46  C   UNL A   1      45.258  25.067  26.970  1.00  0.00     0.074 A 
ATOM     47  C   UNL A   1      48.347  30.570  27.594  1.00  0.00     0.029 A 
ATOM     48  N   UNL A   1      46.790  28.986  27.481  1.00  0.00    -0.354 N 
ATOM     49  N   UNL A   1      45.815  26.243  27.131  1.00  0.00    -0.248 NA
ATOM     50  C   UNL A   1      46.188  24.014  26.536  1.00  0.00     0.031 C 
ATOM     51  C   UNL A   1      48.960  29.377  27.197  1.00  0.00     0.029 A 
ATOM     52  C   UNL A   1      47.995  28.384  27.149  1.00  0.00     0.049 A 
ATOM     53  H   UNL A   1      45.922  28.525  27.522  1.00  0.00     0.167 HD
ATOM     54  C   UNL A   1      47.162  26.070  26.831  1.00  0.00     0.074 A 
ATOM     55  C   UNL A   1      47.339  24.671  26.501  1.00  0.00     0.031 C 
ATOM     56  C   UNL A   1      48.159  26.990  26.823  1.00  0.00     0.037 A 
BRANCH  43  57
ATOM     57  C   UNL A   1      46.339  32.709  28.313  1.00  0.00     0.058 A 
ATOM     58  C   UNL A   1      46.798  33.193  29.547  1.00  0.00     0.135 A 
ATOM     59  C   UNL A   1      46.280  33.613  27.238  1.00  0.00     0.135 A 
ATOM     60  F   UNL A   1      46.862  32.377  30.612  1.00  0.00    -0.206 F 
ATOM     61  C   UNL A   1      47.160  34.527  29.717  1.00  0.00     0.059 A 
ATOM     62  C   UNL A   1      46.663  34.944  27.379  1.00  0.00     0.059 A 
ATOM     63  F   UNL A   1      45.851  33.205  26.034  1.00  0.00    -0.206 F 
ATOM     64  C   UNL A   1      47.086  35.395  28.627  1.00  0.00     0.060 A 
BRANCH  64  65
ATOM     65  S   UNL A   1      47.558  37.123  28.863  1.00  0.00     0.124 S 
ATOM     66  O   UNL A   1      49.013  37.021  28.920  1.00  0.00    -0.237 OA
ATOM     67  O   UNL A   1      47.015  37.761  27.669  1.00  0.00    -0.237 OA
ATOM     68  O   UNL A   1      46.905  37.485  30.117  1.00  0.00    -0.744 OA
ENDBRANCH  64  65
ENDBRANCH  43  57
BRANCH  44  69
ATOM     69  C   UNL A   1      43.381  23.265  26.925  1.00  0.00     0.058 A 
ATOM     70  C   UNL A   1      43.262  22.748  25.627  1.00  0.00     0.135 A 
ATOM     71  C   UNL A   1      43.080  22.411  27.998  1.00  0.00     0.135 A 
ATOM     72  F   UNL A   1      43.525  23.529  24.567  1.00  0.00    -0.206 F 
ATOM     73  C   UNL A   1      42.853  21.437  25.398  1.00  0.00     0.059 A 
ATOM     74  C   UNL A   1      42.701  21.087  27.797  1.00  0.00     0.059 A 
ATOM     75  F   UNL A   1      43.187  22.853  29.260  1.00  0.00    -0.206 F 
ATOM     76  C   UNL A   1      42.580  20.613  26.493  1.00  0.00     0.060 A 
BRANCH  76  77
ATOM     77  S   UNL A   1      42.109  18.897  26.189  1.00  0.00     0.124 S 
ATOM     78  O   UNL A   1      42.308  18.300  27.504  1.00  0.00    -0.237 OA
ATOM     79  O   UNL A   1      40.723  19.031  25.750  1.00  0.00    -0.237 OA
ATOM     80  O   UNL A   1      43.047  18.471  25.153  1.00  0.00    -0.744 OA
ENDBRANCH  76  77
ENDBRANCH  44  69
BRANCH  56  81
ATOM     81  C   UNL A   1      49.540  26.504  26.472  1.00  0.00     0.058 A 
ATOM     82  C   UNL A   1      50.059  26.632  25.174  1.00  0.00     0.135 A 
ATOM     83  C   UNL A   1      50.365  25.934  27.455  1.00  0.00     0.135 A 
ATOM     84  F   UNL A   1      49.309  27.163  24.195  1.00  0.00    -0.206 F 
ATOM     85  C   UNL A   1      51.337  26.184  24.855  1.00  0.00     0.059 A 
ATOM     86  C   UNL A   1      51.657  25.505  27.165  1.00  0.00     0.059 A 
ATOM     87  F   UNL A   1      49.922  25.797  28.713  1.00  0.00    -0.206 F 
ATOM     88  C   UNL A   1      52.129  25.622  25.857  1.00  0.00     0.060 A 
BRANCH  88  89
ATOM     89  S   UNL A   1      53.793  25.062  25.436  1.00  0.00     0.124 S 
ATOM     90  O   UNL A   1      54.571  25.587  26.554  1.00  0.00    -0.237 OA
ATOM     91  O   UNL A   1      53.635  23.612  25.398  1.00  0.00    -0.237 OA
ATOM     92  O   UNL A   1      54.046  25.693  24.143  1.00  0.00    -0.744 OA
ENDBRANCH  88  89
ENDBRANCH  56  81
ENDBRANCH  30  31
ENDBRANCH  23  25
ENDBRANCH  22  23
ENDBRANCH  21  22
ENDBRANCH   1  21
TORSDOF 20
ENDMDL
MODEL 2
REMARK VINA RESULT:      -9.9      6.933     12.139
REMARK SMILES CCCN(CCC)c1ccc(C(=O)OCCOC(=O)c2ccc(-c3c4nc(c(-c5c(F)cc(S(=O)(=O)[O-])cc5F)c5ccc([nH]5)c(-c5c(F)cc(S(=O)(=O)[O-])cc5F)c5nc(c(-c6c(F)cc(S(=O)(=O)[O-])cc6F)c6ccc3[nH]6)C=C5)C=C4)cc2)cc1[N+](=O)[O-]
REMARK SMILES IDX 15 1 14 2 12 3 13 4 11 5 8 6 9 7 87 8 10 9 86 10 4 11 3 12
REMARK SMILES IDX 2 13 1 14 5 15 6 16 7 17 88 18 89 19 90 20 16 21 17 22 18 23
REMARK SMILES IDX 19 24 20 25 21 26 85 27 22 28 84 29 23 30 24 31 25 32 78 33
REMARK SMILES IDX 26 34 83 35 77 36 79 37 27 38 82 39 76 40 75 41 28 43 62 44
REMARK SMILES IDX 41 45 61 46 42 47 45 48 60 49 80 50 43 51 44 52 59 54 81 55
REMARK SMILES IDX 46 56 29 57 30 58 39 59 31 60 32 61 38 62 40 63 33 64 34 65
REMARK SMILES IDX 35 66 36 67 37 68 63 69 64 70 73 71 65 72 66 73 72 74 74 75
REMARK SMILES IDX 67 76 68 77 69 78 70 79 71 80 47 81 48 82 57 83 49 84 50 85
REMARK SMILES IDX 56 86 58 87 51 88 52 89 53 90 54 91 55 92
REMARK H PARENT 79 42 45 53
REMARK Flexibility Score: inf
ROOT
ATOM      1  C   UNL A   1      37.703  22.417  25.580  1.00  0.00     0.275 C 
ENDROOT
BRANCH   1   2
ATOM      2  O   UNL A   1      36.314  22.280  25.227  1.00  0.00    -0.458 OA
BRANCH   2   3
ATOM      3  C   UNL A   1      35.932  22.981  24.131  1.00  0.00     0.338 C 
ATOM      4  O   UNL A   1      36.489  22.980  23.051  1.00  0.00    -0.246 OA
BRANCH   3   5
ATOM      5  C   UNL A   1      34.676  23.742  24.376  1.00  0.00     0.067 A 
ATOM      6  C   UNL A   1      32.353  25.346  24.731  1.00  0.00     0.116 A 
ATOM      7  C   UNL A   1      33.427  25.779  23.939  1.00  0.00     0.034 A 
ATOM      8  C   UNL A   1      32.467  24.065  25.308  1.00  0.00     0.293 A 
ATOM      9  C   UNL A   1      34.570  25.000  23.769  1.00  0.00     0.018 A 
ATOM     10  C   UNL A   1      33.614  23.262  25.142  1.00  0.00     0.103 A 
BRANCH   6  11
ATOM     11  N   UNL A   1      31.316  26.229  24.995  1.00  0.00    -0.366 N 
BRANCH  11  12
ATOM     12  C   UNL A   1      31.666  27.565  25.503  1.00  0.00     0.116 C 
BRANCH  12  13
ATOM     13  C   UNL A   1      32.299  27.492  26.901  1.00  0.00     0.018 C 
ATOM     14  C   UNL A   1      33.607  28.264  27.038  1.00  0.00     0.006 C 
ENDBRANCH  12  13
ENDBRANCH  11  12
BRANCH  11  15
ATOM     15  C   UNL A   1      30.021  26.042  24.313  1.00  0.00     0.116 C 
BRANCH  15  16
ATOM     16  C   UNL A   1      29.545  27.280  23.540  1.00  0.00     0.018 C 
ATOM     17  C   UNL A   1      30.504  27.684  22.425  1.00  0.00     0.006 C 
ENDBRANCH  15  16
ENDBRANCH  11  15
ENDBRANCH   6  11
BRANCH   8  18
ATOM     18  N   UNL A   1      31.454  23.582  26.234  1.00  0.00     0.065 N 
ATOM     19  O   UNL A   1      30.661  22.732  25.796  1.00  0.00    -0.258 OA
ATOM     20  O   UNL A   1      31.407  24.078  27.368  1.00  0.00    -0.258 OA
ENDBRANCH   8  18
ENDBRANCH   3   5
ENDBRANCH   2   3
ENDBRANCH   1   2
BRANCH   1  21
ATOM     21  C   UNL A   1      38.036  23.855  25.987  1.00  0.00     0.275 C 
BRANCH  21  22
ATOM     22  O   UNL A   1      39.261  23.938  26.745  1.00  0.00    -0.458 OA
BRANCH  22  23
ATOM     23  C   UNL A   1      40.039  25.004  26.445  1.00  0.00     0.338 C 
ATOM     24  O   UNL A   1      40.436  25.335  25.338  1.00  0.00    -0.246 OA
BRANCH  23  25
ATOM     25  C   UNL A   1      40.267  25.837  27.636  1.00  0.00     0.060 A 
ATOM     26  C   UNL A   1      39.323  25.766  28.657  1.00  0.00     0.016 A 
ATOM     27  C   UNL A   1      41.277  26.797  27.681  1.00  0.00     0.016 A 
ATOM     28  C   UNL A   1      39.341  26.685  29.700  1.00  0.00     0.010 A 
ATOM     29  C   UNL A   1      41.323  27.694  28.761  1.00  0.00     0.010 A 
ATOM     30  C   UNL A   1      40.337  27.667  29.766  1.00  0.00    -0.014 A 
BRANCH  30  31
ATOM     31  C   UNL A   1      40.287  28.689  30.852  1.00  0.00     0.031 A 
ATOM     32  C   UNL A   1      41.257  28.624  32.004  1.00  0.00     0.074 A 
ATOM     33  C   UNL A   1      39.410  29.712  30.778  1.00  0.00     0.049 A 
ATOM     34  N   UNL A   1      41.315  29.370  33.079  1.00  0.00    -0.248 NA
ATOM     35  C   UNL A   1      42.291  27.581  31.945  1.00  0.00     0.031 C 
ATOM     36  C   UNL A   1      38.445  29.921  29.697  1.00  0.00     0.029 A 
ATOM     37  N   UNL A   1      39.196  30.775  31.621  1.00  0.00    -0.354 N 
ATOM     38  C   UNL A   1      42.361  28.861  33.843  1.00  0.00     0.074 A 
ATOM     39  C   UNL A   1      42.900  27.733  33.113  1.00  0.00     0.031 C 
ATOM     40  C   UNL A   1      37.767  31.056  29.924  1.00  0.00     0.029 A 
ATOM     41  C   UNL A   1      38.193  31.619  31.202  1.00  0.00     0.049 A 
ATOM     42  H   UNL A   1      39.711  30.920  32.447  1.00  0.00     0.167 HD
ATOM     43  C   UNL A   1      42.830  29.295  35.038  1.00  0.00     0.037 A 
ATOM     44  C   UNL A   1      37.649  32.701  31.792  1.00  0.00     0.037 A 
ATOM     45  C   UNL A   1      42.320  30.447  35.739  1.00  0.00     0.049 A 
ATOM     46  C   UNL A   1      38.162  33.143  33.134  1.00  0.00     0.074 A 
ATOM     47  C   UNL A   1      42.746  30.979  36.945  1.00  0.00     0.029 A 
ATOM     48  N   UNL A   1      41.279  31.250  35.297  1.00  0.00    -0.354 N 
ATOM     49  N   UNL A   1      39.133  32.632  33.854  1.00  0.00    -0.248 NA
ATOM     50  C   UNL A   1      37.499  34.300  33.752  1.00  0.00     0.031 C 
ATOM     51  C   UNL A   1      41.934  32.076  37.253  1.00  0.00     0.029 A 
ATOM     52  C   UNL A   1      41.036  32.260  36.215  1.00  0.00     0.049 A 
ATOM     53  H   UNL A   1      40.785  31.122  34.455  1.00  0.00     0.167 HD
ATOM     54  C   UNL A   1      39.204  33.412  35.002  1.00  0.00     0.074 A 
ATOM     55  C   UNL A   1      38.195  34.443  34.870  1.00  0.00     0.031 C 
ATOM     56  C   UNL A   1      40.028  33.282  36.072  1.00  0.00     0.037 A 
BRANCH  43  57
ATOM     57  C   UNL A   1      43.935  28.504  35.688  1.00  0.00     0.058 A 
ATOM     58  C   UNL A   1      43.676  27.445  36.572  1.00  0.00     0.135 A 
ATOM     59  C   UNL A   1      45.278  28.790  35.389  1.00  0.00     0.135 A 
ATOM     60  F   UNL A   1      42.412  27.136  36.904  1.00  0.00    -0.206 F 
ATOM     61  C   UNL A   1      44.708  26.716  37.158  1.00  0.00     0.059 A 
ATOM     62  C   UNL A   1      46.325  28.056  35.942  1.00  0.00     0.059 A 
ATOM     63  F   UNL A   1      45.586  29.790  34.548  1.00  0.00    -0.206 F 
ATOM     64  C   UNL A   1      46.029  27.032  36.838  1.00  0.00     0.060 A 
BRANCH  64  65
ATOM     65  S   UNL A   1      47.357  26.078  37.607  1.00  0.00     0.124 S 
ATOM     66  O   UNL A   1      46.669  24.832  37.931  1.00  0.00    -0.237 OA
ATOM     67  O   UNL A   1      48.344  25.996  36.536  1.00  0.00    -0.237 OA
ATOM     68  O   UNL A   1      47.744  26.896  38.752  1.00  0.00    -0.744 OA
ENDBRANCH  64  65
ENDBRANCH  43  57
BRANCH  44  69
ATOM     69  C   UNL A   1      36.526  33.421  31.130  1.00  0.00     0.058 A 
ATOM     70  C   UNL A   1      36.739  34.210  29.990  1.00  0.00     0.135 A 
ATOM     71  C   UNL A   1      35.214  33.323  31.620  1.00  0.00     0.135 A 
ATOM     72  F   UNL A   1      37.977  34.346  29.490  1.00  0.00    -0.206 F 
ATOM     73  C   UNL A   1      35.694  34.884  29.364  1.00  0.00     0.059 A 
ATOM     74  C   UNL A   1      34.148  33.961  30.993  1.00  0.00     0.059 A 
ATOM     75  F   UNL A   1      34.953  32.574  32.702  1.00  0.00    -0.206 F 
ATOM     76  C   UNL A   1      34.400  34.748  29.871  1.00  0.00     0.060 A 
BRANCH  76  77
ATOM     77  S   UNL A   1      33.042  35.576  29.017  1.00  0.00     0.124 S 
ATOM     78  O   UNL A   1      32.238  36.052  30.136  1.00  0.00    -0.237 OA
ATOM     79  O   UNL A   1      33.742  36.602  28.250  1.00  0.00    -0.237 OA
ATOM     80  O   UNL A   1      32.447  34.507  28.220  1.00  0.00    -0.744 OA
ENDBRANCH  76  77
ENDBRANCH  44  69
BRANCH  56  81
ATOM     81  C   UNL A   1      39.890  34.297  37.175  1.00  0.00     0.058 A 
ATOM     82  C   UNL A   1      40.476  35.569  37.084  1.00  0.00     0.135 A 
ATOM     83  C   UNL A   1      39.132  34.005  38.321  1.00  0.00     0.135 A 
ATOM     84  F   UNL A   1      41.217  35.897  36.014  1.00  0.00    -0.206 F 
ATOM     85  C   UNL A   1      40.343  36.505  38.105  1.00  0.00     0.059 A 
ATOM     86  C   UNL A   1      38.962  34.936  39.341  1.00  0.00     0.059 A 
ATOM     87  F   UNL A   1      38.541  32.807  38.453  1.00  0.00    -0.206 F 
ATOM     88  C   UNL A   1      39.584  36.179  39.230  1.00  0.00     0.060 A 
BRANCH  88  89
ATOM     89  S   UNL A   1      39.401  37.410  40.539  1.00  0.00     0.124 S 
ATOM     90  O   UNL A   1      38.706  36.643  41.567  1.00  0.00    -0.237 OA
ATOM     91  O   UNL A   1      40.788  37.758  40.835  1.00  0.00    -0.237 OA
ATOM     92  O   UNL A   1      38.617  38.466  39.905  1.00  0.00    -0.744 OA
ENDBRANCH  88  89
ENDBRANCH  56  81
ENDBRANCH  30  31
ENDBRANCH  23  25
ENDBRANCH  22  23
ENDBRANCH  21  22
ENDBRANCH   1  21
TORSDOF 20
ENDMDL
MODEL 3
REMARK VINA RESULT:      -9.7      1.505      2.570
REMARK SMILES CCCN(CCC)c1ccc(C(=O)OCCOC(=O)c2ccc(-c3c4nc(c(-c5c(F)cc(S(=O)(=O)[O-])cc5F)c5ccc([nH]5)c(-c5c(F)cc(S(=O)(=O)[O-])cc5F)c5nc(c(-c6c(F)cc(S(=O)(=O)[O-])cc6F)c6ccc3[nH]6)C=C5)C=C4)cc2)cc1[N+](=O)[O-]
REMARK SMILES IDX 15 1 14 2 12 3 13 4 11 5 8 6 9 7 87 8 10 9 86 10 4 11 3 12
REMARK SMILES IDX 2 13 1 14 5 15 6 16 7 17 88 18 89 19 90 20 16 21 17 22 18 23
REMARK SMILES IDX 19 24 20 25 21 26 85 27 22 28 84 29 23 30 24 31 25 32 78 33
REMARK SMILES IDX 26 34 83 35 77 36 79 37 27 38 82 39 76 40 75 41 28 43 62 44
REMARK SMILES IDX 41 45 61 46 42 47 45 48 60 49 80 50 43 51 44 52 59 54 81 55
REMARK SMILES IDX 46 56 29 57 30 58 39 59 31 60 32 61 38 62 40 63 33 64 34 65
REMARK SMILES IDX 35 66 36 67 37 68 63 69 64 70 73 71 65 72 66 73 72 74 74 75
REMARK SMILES IDX 67 76 68 77 69 78 70 79 71 80 47 81 48 82 57 83 49 84 50 85
REMARK SMILES IDX 56 86 58 87 51 88 52 89 53 90 54 91 55 92
REMARK H PARENT 79 42 45 53
REMARK Flexibility Score: inf
ROOT
ATOM      1  C   UNL A   1      34.229  31.740  27.742  1.00  0.00     0.275 C 
ENDROOT
BRANCH   1   2
ATOM      2  O   UNL A   1      33.447  30.536  27.642  1.00  0.00    -0.458 OA
BRANCH   2   3
ATOM      3  C   UNL A   1      34.148  29.427  27.299  1.00  0.00     0.338 C 
ATOM      4  O   UNL A   1      35.181  29.046  27.814  1.00  0.00    -0.246 OA
BRANCH   3   5
ATOM      5  C   UNL A   1      33.468  28.658  26.221  1.00  0.00     0.067 A 
ATOM      6  C   UNL A   1      32.243  27.324  24.027  1.00  0.00     0.116 A 
ATOM      7  C   UNL A   1      33.050  28.456  23.836  1.00  0.00     0.034 A 
ATOM      8  C   UNL A   1      32.101  26.863  25.351  1.00  0.00     0.293 A 
ATOM      9  C   UNL A   1      33.646  29.117  24.909  1.00  0.00     0.018 A 
ATOM     10  C   UNL A   1      32.701  27.516  26.447  1.00  0.00     0.103 A 
BRANCH   6  11
ATOM     11  N   UNL A   1      31.548  26.807  22.943  1.00  0.00    -0.366 N 
BRANCH  11  12
ATOM     12  C   UNL A   1      30.553  27.673  22.291  1.00  0.00     0.116 C 
BRANCH  12  13
ATOM     13  C   UNL A   1      29.504  28.183  23.290  1.00  0.00     0.018 C 
ATOM     14  C   UNL A   1      29.486  29.698  23.461  1.00  0.00     0.006 C 
ENDBRANCH  12  13
ENDBRANCH  11  12
BRANCH  11  15
ATOM     15  C   UNL A   1      32.137  25.694  22.175  1.00  0.00     0.116 C 
BRANCH  15  16
ATOM     16  C   UNL A   1      33.614  25.430  22.503  1.00  0.00     0.018 C 
ATOM     17  C   UNL A   1      33.834  24.088  23.194  1.00  0.00     0.006 C 
ENDBRANCH  15  16
ENDBRANCH  11  15
ENDBRANCH   6  11
BRANCH   8  18
ATOM     18  N   UNL A   1      31.193  25.767  25.655  1.00  0.00     0.065 N 
ATOM     19  O   UNL A   1      30.056  26.081  26.046  1.00  0.00    -0.258 OA
ATOM     20  O   UNL A   1      31.615  24.607  25.560  1.00  0.00    -0.258 OA
ENDBRANCH   8  18
ENDBRANCH   3   5
ENDBRANCH   2   3
ENDBRANCH   1   2
BRANCH   1  21
ATOM     21  C   UNL A   1      34.651  32.014  29.188  1.00  0.00     0.275 C 
BRANCH  21  22
ATOM     22  O   UNL A   1      36.084  31.991  29.352  1.00  0.00    -0.458 OA
BRANCH  22  23
ATOM     23  C   UNL A   1      36.531  31.121  30.288  1.00  0.00     0.338 C 
ATOM     24  O   UNL A   1      35.991  30.840  31.347  1.00  0.00    -0.246 OA
BRANCH  23  25
ATOM     25  C   UNL A   1      37.736  30.420  29.818  1.00  0.00     0.060 A 
ATOM     26  C   UNL A   1      38.675  30.047  30.778  1.00  0.00     0.016 A 
ATOM     27  C   UNL A   1      38.031  30.288  28.462  1.00  0.00     0.016 A 
ATOM     28  C   UNL A   1      39.934  29.597  30.396  1.00  0.00     0.010 A 
ATOM     29  C   UNL A   1      39.285  29.787  28.078  1.00  0.00     0.010 A 
ATOM     30  C   UNL A   1      40.261  29.465  29.041  1.00  0.00    -0.014 A 
BRANCH  30  31
ATOM     31  C   UNL A   1      41.644  29.056  28.658  1.00  0.00     0.031 A 
ATOM     32  C   UNL A   1      42.772  30.056  28.695  1.00  0.00     0.074 A 
ATOM     33  C   UNL A   1      41.904  27.772  28.335  1.00  0.00     0.049 A 
ATOM     34  N   UNL A   1      44.019  29.910  28.321  1.00  0.00    -0.248 NA
ATOM     35  C   UNL A   1      42.455  31.396  29.210  1.00  0.00     0.031 C 
ATOM     36  C   UNL A   1      40.916  26.692  28.303  1.00  0.00     0.029 A 
ATOM     37  N   UNL A   1      43.080  27.153  27.984  1.00  0.00    -0.354 N 
ATOM     38  C   UNL A   1      44.623  31.148  28.515  1.00  0.00     0.074 A 
ATOM     39  C   UNL A   1      43.602  32.037  29.026  1.00  0.00     0.031 C 
ATOM     40  C   UNL A   1      41.530  25.542  27.986  1.00  0.00     0.029 A 
ATOM     41  C   UNL A   1      42.939  25.812  27.717  1.00  0.00     0.049 A 
ATOM     42  H   UNL A   1      43.941  27.627  27.930  1.00  0.00     0.167 HD
ATOM     43  C   UNL A   1      45.911  31.509  28.292  1.00  0.00     0.037 A 
ATOM     44  C   UNL A   1      43.831  24.904  27.271  1.00  0.00     0.037 A 
ATOM     45  C   UNL A   1      46.936  30.608  27.826  1.00  0.00     0.049 A 
ATOM     46  C   UNL A   1      45.244  25.336  26.997  1.00  0.00     0.074 A 
ATOM     47  C   UNL A   1      48.275  30.875  27.591  1.00  0.00     0.029 A 
ATOM     48  N   UNL A   1      46.742  29.266  27.532  1.00  0.00    -0.354 N 
ATOM     49  N   UNL A   1      45.791  26.517  27.159  1.00  0.00    -0.248 NA
ATOM     50  C   UNL A   1      46.160  24.316  26.467  1.00  0.00     0.031 C 
ATOM     51  C   UNL A   1      48.880  29.707  27.114  1.00  0.00     0.029 A 
ATOM     52  C   UNL A   1      47.931  28.698  27.099  1.00  0.00     0.049 A 
ATOM     53  H   UNL A   1      45.886  28.788  27.617  1.00  0.00     0.167 HD
ATOM     54  C   UNL A   1      47.117  26.380  26.762  1.00  0.00     0.074 A 
ATOM     55  C   UNL A   1      47.295  24.995  26.375  1.00  0.00     0.031 C 
ATOM     56  C   UNL A   1      48.095  27.318  26.717  1.00  0.00     0.037 A 
BRANCH  43  57
ATOM     57  C   UNL A   1      46.285  32.951  28.515  1.00  0.00     0.058 A 
ATOM     58  C   UNL A   1      46.769  33.415  29.748  1.00  0.00     0.135 A 
ATOM     59  C   UNL A   1      46.191  33.876  27.461  1.00  0.00     0.135 A 
ATOM     60  F   UNL A   1      46.867  32.578  30.794  1.00  0.00    -0.206 F 
ATOM     61  C   UNL A   1      47.119  34.749  29.937  1.00  0.00     0.059 A 
ATOM     62  C   UNL A   1      46.562  35.209  27.621  1.00  0.00     0.059 A 
ATOM     63  F   UNL A   1      45.737  33.488  26.259  1.00  0.00    -0.206 F 
ATOM     64  C   UNL A   1      47.010  35.639  28.867  1.00  0.00     0.060 A 
BRANCH  64  65
ATOM     65  S   UNL A   1      47.468  37.366  29.128  1.00  0.00     0.124 S 
ATOM     66  O   UNL A   1      46.205  37.934  29.592  1.00  0.00    -0.237 OA
ATOM     67  O   UNL A   1      48.522  37.263  30.131  1.00  0.00    -0.237 OA
ATOM     68  O   UNL A   1      47.904  37.806  27.807  1.00  0.00    -0.744 OA
ENDBRANCH  64  65
ENDBRANCH  43  57
BRANCH  44  69
ATOM     69  C   UNL A   1      43.399  23.502  27.020  1.00  0.00     0.058 A 
ATOM     70  C   UNL A   1      43.232  22.592  28.075  1.00  0.00     0.135 A 
ATOM     71  C   UNL A   1      43.134  23.047  25.719  1.00  0.00     0.135 A 
ATOM     72  F   UNL A   1      43.487  22.974  29.337  1.00  0.00    -0.206 F 
ATOM     73  C   UNL A   1      42.827  21.280  27.849  1.00  0.00     0.059 A 
ATOM     74  C   UNL A   1      42.696  21.750  25.471  1.00  0.00     0.059 A 
ATOM     75  F   UNL A   1      43.268  23.879  24.675  1.00  0.00    -0.206 F 
ATOM     76  C   UNL A   1      42.556  20.871  26.542  1.00  0.00     0.060 A 
BRANCH  76  77
ATOM     77  S   UNL A   1      41.972  19.185  26.265  1.00  0.00     0.124 S 
ATOM     78  O   UNL A   1      40.612  19.419  25.795  1.00  0.00    -0.237 OA
ATOM     79  O   UNL A   1      42.917  18.692  25.268  1.00  0.00    -0.237 OA
ATOM     80  O   UNL A   1      42.088  18.569  27.585  1.00  0.00    -0.744 OA
ENDBRANCH  76  77
ENDBRANCH  44  69
BRANCH  56  81
ATOM     81  C   UNL A   1      49.457  26.870  26.257  1.00  0.00     0.058 A 
ATOM     82  C   UNL A   1      49.871  27.020  24.924  1.00  0.00     0.135 A 
ATOM     83  C   UNL A   1      50.370  26.315  27.169  1.00  0.00     0.135 A 
ATOM     84  F   UNL A   1      49.035  27.538  24.010  1.00  0.00    -0.206 F 
ATOM     85  C   UNL A   1      51.132  26.607  24.504  1.00  0.00     0.059 A 
ATOM     86  C   UNL A   1      51.645  25.921  26.777  1.00  0.00     0.059 A 
ATOM     87  F   UNL A   1      50.027  26.158  28.457  1.00  0.00    -0.206 F 
ATOM     88  C   UNL A   1      52.012  26.058  25.438  1.00  0.00     0.060 A 
BRANCH  88  89
ATOM     89  S   UNL A   1      53.653  25.544  24.886  1.00  0.00     0.124 S 
ATOM     90  O   UNL A   1      54.515  26.256  25.825  1.00  0.00    -0.237 OA
ATOM     91  O   UNL A   1      53.597  24.095  25.048  1.00  0.00    -0.237 OA
ATOM     92  O   UNL A   1      53.708  26.013  23.504  1.00  0.00    -0.744 OA
ENDBRANCH  88  89
ENDBRANCH  56  81
ENDBRANCH  30  31
ENDBRANCH  23  25
ENDBRANCH  22  23
ENDBRANCH  21  22
ENDBRANCH   1  21
TORSDOF 20
ENDMDL
