MODEL 1
REMARK VINA RESULT:     -11.9      0.000      0.000
REMARK SMILES C[C@@]1(CN2C(=O)c3ccc(C(=O)OCCOC(=O)c4ccc(-c5c6nc(c(-c7c(F)cc(S(=O)(=O)[O-])cc7F)c7ccc([nH]7)c(-c7c(F)cc(S(=O)(=O)[O-])cc7F)c7nc(c(-c8c(F)cc(S(=O)(=O)[O-])cc8F)c8ccc5[nH]8)C=C7)C=C6)cc4)cc3C2=O)CCCO1
REMARK SMILES IDX 15 1 14 2 13 3 11 4 12 5 10 6 4 7 5 8 87 9 6 10 7 11 86 12
REMARK SMILES IDX 88 13 8 14 85 15 9 16 3 17 2 18 1 19 89 20 92 21 90 22 91 23
REMARK SMILES IDX 16 24 17 25 18 26 19 27 20 28 84 29 21 30 83 31 22 32 23 33
REMARK SMILES IDX 24 34 77 35 25 36 82 37 76 38 78 39 26 40 81 41 75 42 74 43
REMARK SMILES IDX 27 45 61 46 40 47 60 48 41 49 44 50 59 51 79 52 42 53 43 54
REMARK SMILES IDX 58 56 80 57 45 58 28 59 29 60 38 61 30 62 31 63 37 64 39 65
REMARK SMILES IDX 32 66 33 67 34 68 35 69 36 70 62 71 63 72 72 73 64 74 65 75
REMARK SMILES IDX 71 76 73 77 66 78 67 79 68 80 69 81 70 82 46 83 47 84 56 85
REMARK SMILES IDX 48 86 49 87 55 88 57 89 50 90 51 91 52 92 53 93 54 94
REMARK H PARENT 78 44 44 55
REMARK Flexibility Score: inf
ROOT
ATOM      1  C   UNL A   1      39.943  22.161  26.755  1.00  0.00     0.275 C 
ENDROOT
BRANCH   1   2
ATOM      2  C   UNL A   1      39.010  21.413  25.797  1.00  0.00     0.275 C 
BRANCH   2   3
ATOM      3  O   UNL A   1      37.794  22.153  25.546  1.00  0.00    -0.458 OA
BRANCH   3   4
ATOM      4  C   UNL A   1      36.678  21.407  25.358  1.00  0.00     0.338 C 
ATOM      5  O   UNL A   1      36.637  20.244  24.990  1.00  0.00    -0.246 OA
BRANCH   4   6
ATOM      6  C   UNL A   1      35.461  22.157  25.763  1.00  0.00     0.060 A 
ATOM      7  N   UNL A   1      32.409  25.593  25.694  1.00  0.00    -0.271 N 
ATOM      8  C   UNL A   1      32.102  24.563  26.544  1.00  0.00     0.261 C 
ATOM      9  C   UNL A   1      33.553  25.341  24.991  1.00  0.00     0.261 C 
ATOM     10  O   UNL A   1      31.147  24.424  27.280  1.00  0.00    -0.269 OA
ATOM     11  C   UNL A   1      33.186  23.586  26.427  1.00  0.00     0.053 A 
ATOM     12  C   UNL A   1      34.076  24.078  25.496  1.00  0.00     0.054 A 
ATOM     13  O   UNL A   1      34.065  25.958  24.074  1.00  0.00    -0.269 OA
ATOM     14  C   UNL A   1      33.406  22.383  27.076  1.00  0.00     0.015 A 
ATOM     15  C   UNL A   1      35.237  23.410  25.174  1.00  0.00     0.030 A 
ATOM     16  C   UNL A   1      34.554  21.653  26.722  1.00  0.00     0.016 A 
BRANCH   7  17
ATOM     17  C   UNL A   1      31.611  26.799  25.525  1.00  0.00     0.164 C 
BRANCH  17  18
ATOM     18  C   UNL A   1      32.041  27.970  26.455  1.00  0.00     0.084 C 
ATOM     19  C   UNL A   1      31.289  27.968  27.786  1.00  0.00     0.044 C 
ATOM     20  C   UNL A   1      31.873  29.318  25.745  1.00  0.00     0.039 C 
ATOM     21  O   UNL A   1      33.451  27.856  26.751  1.00  0.00    -0.373 OA
ATOM     22  C   UNL A   1      33.214  29.530  25.088  1.00  0.00     0.031 C 
ATOM     23  C   UNL A   1      34.163  28.910  26.087  1.00  0.00     0.161 C 
ENDBRANCH  17  18
ENDBRANCH   7  17
ENDBRANCH   4   6
ENDBRANCH   3   4
ENDBRANCH   2   3
ENDBRANCH   1   2
BRANCH   1  24
ATOM     24  O   UNL A   1      39.607  23.558  26.830  1.00  0.00    -0.458 OA
BRANCH  24  25
ATOM     25  C   UNL A   1      40.668  24.395  26.827  1.00  0.00     0.338 C 
ATOM     26  O   UNL A   1      41.689  24.291  26.166  1.00  0.00    -0.246 OA
BRANCH  25  27
ATOM     27  C   UNL A   1      40.399  25.569  27.667  1.00  0.00     0.060 A 
ATOM     28  C   UNL A   1      41.288  26.633  27.573  1.00  0.00     0.016 A 
ATOM     29  C   UNL A   1      39.439  25.548  28.673  1.00  0.00     0.016 A 
ATOM     30  C   UNL A   1      41.324  27.610  28.560  1.00  0.00     0.010 A 
ATOM     31  C   UNL A   1      39.387  26.609  29.589  1.00  0.00     0.010 A 
ATOM     32  C   UNL A   1      40.358  27.630  29.574  1.00  0.00    -0.014 A 
BRANCH  32  33
ATOM     33  C   UNL A   1      40.377  28.701  30.615  1.00  0.00     0.031 A 
ATOM     34  C   UNL A   1      41.358  28.633  31.761  1.00  0.00     0.074 A 
ATOM     35  C   UNL A   1      39.517  29.739  30.542  1.00  0.00     0.049 A 
ATOM     36  N   UNL A   1      41.400  29.341  32.861  1.00  0.00    -0.248 NA
ATOM     37  C   UNL A   1      42.424  27.621  31.664  1.00  0.00     0.031 C 
ATOM     38  C   UNL A   1      38.547  29.965  29.466  1.00  0.00     0.029 A 
ATOM     39  N   UNL A   1      39.314  30.803  31.389  1.00  0.00    -0.354 N 
ATOM     40  C   UNL A   1      42.454  28.825  33.610  1.00  0.00     0.074 A 
ATOM     41  C   UNL A   1      43.017  27.735  32.845  1.00  0.00     0.031 C 
ATOM     42  C   UNL A   1      37.883  31.106  29.698  1.00  0.00     0.029 A 
ATOM     43  C   UNL A   1      38.296  31.639  30.988  1.00  0.00     0.049 A 
ATOM     44  H   UNL A   1      39.845  30.951  32.204  1.00  0.00     0.167 HD
ATOM     45  C   UNL A   1      42.906  29.228  34.823  1.00  0.00     0.037 A 
ATOM     46  C   UNL A   1      37.715  32.684  31.608  1.00  0.00     0.037 A 
ATOM     47  C   UNL A   1      42.367  30.351  35.552  1.00  0.00     0.049 A 
ATOM     48  C   UNL A   1      38.199  33.080  32.974  1.00  0.00     0.074 A 
ATOM     49  C   UNL A   1      42.767  30.852  36.778  1.00  0.00     0.029 A 
ATOM     50  N   UNL A   1      41.320  31.152  35.116  1.00  0.00    -0.354 N 
ATOM     51  N   UNL A   1      39.163  32.554  33.690  1.00  0.00    -0.248 NA
ATOM     52  C   UNL A   1      37.509  34.201  33.624  1.00  0.00     0.031 C 
ATOM     53  C   UNL A   1      41.929  31.922  37.109  1.00  0.00     0.029 A 
ATOM     54  C   UNL A   1      41.048  32.130  36.060  1.00  0.00     0.049 A 
ATOM     55  H   UNL A   1      40.843  31.042  34.263  1.00  0.00     0.167 HD
ATOM     56  C   UNL A   1      39.213  33.297  34.864  1.00  0.00     0.074 A 
ATOM     57  C   UNL A   1      38.189  34.317  34.755  1.00  0.00     0.031 C 
ATOM     58  C   UNL A   1      40.033  33.147  35.933  1.00  0.00     0.037 A 
BRANCH  45  59
ATOM     59  C   UNL A   1      44.015  28.432  35.465  1.00  0.00     0.058 A 
ATOM     60  C   UNL A   1      45.371  28.731  35.258  1.00  0.00     0.135 A 
ATOM     61  C   UNL A   1      43.709  27.375  36.340  1.00  0.00     0.135 A 
ATOM     62  F   UNL A   1      45.727  29.721  34.424  1.00  0.00    -0.206 F 
ATOM     63  C   UNL A   1      46.382  27.994  35.871  1.00  0.00     0.059 A 
ATOM     64  C   UNL A   1      44.703  26.647  36.989  1.00  0.00     0.059 A 
ATOM     65  F   UNL A   1      42.431  27.045  36.580  1.00  0.00    -0.206 F 
ATOM     66  C   UNL A   1      46.037  26.954  36.735  1.00  0.00     0.060 A 
BRANCH  66  67
ATOM     67  S   UNL A   1      47.361  26.011  37.524  1.00  0.00     0.124 S 
ATOM     68  O   UNL A   1      46.706  24.727  37.757  1.00  0.00    -0.237 OA
ATOM     69  O   UNL A   1      48.400  26.015  36.500  1.00  0.00    -0.237 OA
ATOM     70  O   UNL A   1      47.664  26.786  38.724  1.00  0.00    -0.744 OA
ENDBRANCH  66  67
ENDBRANCH  45  59
BRANCH  46  71
ATOM     71  C   UNL A   1      36.578  33.394  30.959  1.00  0.00     0.058 A 
ATOM     72  C   UNL A   1      36.777  34.206  29.833  1.00  0.00     0.135 A 
ATOM     73  C   UNL A   1      35.264  33.256  31.438  1.00  0.00     0.135 A 
ATOM     74  F   UNL A   1      38.014  34.381  29.342  1.00  0.00    -0.206 F 
ATOM     75  C   UNL A   1      35.720  34.866  29.214  1.00  0.00     0.059 A 
ATOM     76  C   UNL A   1      34.187  33.878  30.816  1.00  0.00     0.059 A 
ATOM     77  F   UNL A   1      35.014  32.482  32.506  1.00  0.00    -0.206 F 
ATOM     78  C   UNL A   1      34.427  34.691  29.710  1.00  0.00     0.060 A 
BRANCH  78  79
ATOM     79  S   UNL A   1      33.057  35.516  28.871  1.00  0.00     0.124 S 
ATOM     80  O   UNL A   1      32.267  35.994  30.000  1.00  0.00    -0.237 OA
ATOM     81  O   UNL A   1      33.747  36.541  28.094  1.00  0.00    -0.237 OA
ATOM     82  O   UNL A   1      32.451  34.446  28.083  1.00  0.00    -0.744 OA
ENDBRANCH  78  79
ENDBRANCH  46  71
BRANCH  58  83
ATOM     83  C   UNL A   1      39.896  34.142  37.053  1.00  0.00     0.058 A 
ATOM     84  C   UNL A   1      40.598  35.357  37.059  1.00  0.00     0.135 A 
ATOM     85  C   UNL A   1      39.011  33.891  38.115  1.00  0.00     0.135 A 
ATOM     86  F   UNL A   1      41.464  35.643  36.073  1.00  0.00    -0.206 F 
ATOM     87  C   UNL A   1      40.445  36.279  38.090  1.00  0.00     0.059 A 
ATOM     88  C   UNL A   1      38.819  34.812  39.138  1.00  0.00     0.059 A 
ATOM     89  F   UNL A   1      38.309  32.748  38.155  1.00  0.00    -0.206 F 
ATOM     90  C   UNL A   1      39.549  35.999  39.124  1.00  0.00     0.060 A 
BRANCH  90  91
ATOM     91  S   UNL A   1      39.333  37.220  40.435  1.00  0.00     0.124 S 
ATOM     92  O   UNL A   1      38.454  38.191  39.792  1.00  0.00    -0.237 OA
ATOM     93  O   UNL A   1      38.729  36.426  41.501  1.00  0.00    -0.237 OA
ATOM     94  O   UNL A   1      40.691  37.682  40.699  1.00  0.00    -0.744 OA
ENDBRANCH  90  91
ENDBRANCH  58  83
ENDBRANCH  32  33
ENDBRANCH  25  27
ENDBRANCH  24  25
ENDBRANCH   1  24
TORSDOF 16
ENDMDL
MODEL 2
REMARK VINA RESULT:     -11.7      6.658     12.150
REMARK SMILES C[C@@]1(CN2C(=O)c3ccc(C(=O)OCCOC(=O)c4ccc(-c5c6nc(c(-c7c(F)cc(S(=O)(=O)[O-])cc7F)c7ccc([nH]7)c(-c7c(F)cc(S(=O)(=O)[O-])cc7F)c7nc(c(-c8c(F)cc(S(=O)(=O)[O-])cc8F)c8ccc5[nH]8)C=C7)C=C6)cc4)cc3C2=O)CCCO1
REMARK SMILES IDX 15 1 14 2 13 3 11 4 12 5 10 6 4 7 5 8 87 9 6 10 7 11 86 12
REMARK SMILES IDX 88 13 8 14 85 15 9 16 3 17 2 18 1 19 89 20 92 21 90 22 91 23
REMARK SMILES IDX 16 24 17 25 18 26 19 27 20 28 84 29 21 30 83 31 22 32 23 33
REMARK SMILES IDX 24 34 77 35 25 36 82 37 76 38 78 39 26 40 81 41 75 42 74 43
REMARK SMILES IDX 27 45 61 46 40 47 60 48 41 49 44 50 59 51 79 52 42 53 43 54
REMARK SMILES IDX 58 56 80 57 45 58 28 59 29 60 38 61 30 62 31 63 37 64 39 65
REMARK SMILES IDX 32 66 33 67 34 68 35 69 36 70 62 71 63 72 72 73 64 74 65 75
REMARK SMILES IDX 71 76 73 77 66 78 67 79 68 80 69 81 70 82 46 83 47 84 56 85
REMARK SMILES IDX 48 86 49 87 55 88 57 89 50 90 51 91 52 92 53 93 54 94
REMARK H PARENT 78 44 44 55
REMARK Flexibility Score: inf
ROOT
ATOM      1  C   UNL A   1      34.263  31.566  27.813  1.00  0.00     0.275 C 
ENDROOT
BRANCH   1   2
ATOM      2  C   UNL A   1      33.040  30.865  27.214  1.00  0.00     0.275 C 
BRANCH   2   3
ATOM      3  O   UNL A   1      33.234  29.437  27.114  1.00  0.00    -0.458 OA
BRANCH   3   4
ATOM      4  C   UNL A   1      33.021  28.896  25.889  1.00  0.00     0.338 C 
ATOM      5  O   UNL A   1      33.210  29.441  24.814  1.00  0.00    -0.246 OA
BRANCH   4   6
ATOM      6  C   UNL A   1      32.612  27.472  25.999  1.00  0.00     0.060 A 
ATOM      7  N   UNL A   1      33.214  22.927  26.316  1.00  0.00    -0.271 N 
ATOM      8  C   UNL A   1      31.910  23.344  26.380  1.00  0.00     0.261 C 
ATOM      9  C   UNL A   1      34.076  23.983  26.230  1.00  0.00     0.261 C 
ATOM     10  O   UNL A   1      30.894  22.693  26.507  1.00  0.00    -0.269 OA
ATOM     11  C   UNL A   1      31.931  24.803  26.254  1.00  0.00     0.053 A 
ATOM     12  C   UNL A   1      33.251  25.181  26.141  1.00  0.00     0.054 A 
ATOM     13  O   UNL A   1      35.293  24.011  26.274  1.00  0.00    -0.269 OA
ATOM     14  C   UNL A   1      30.905  25.731  26.221  1.00  0.00     0.015 A 
ATOM     15  C   UNL A   1      33.620  26.497  25.972  1.00  0.00     0.030 A 
ATOM     16  C   UNL A   1      31.257  27.087  26.109  1.00  0.00     0.016 A 
BRANCH   7  17
ATOM     17  C   UNL A   1      33.647  21.537  26.365  1.00  0.00     0.164 C 
BRANCH  17  18
ATOM     18  C   UNL A   1      34.130  20.984  24.994  1.00  0.00     0.084 C 
ATOM     19  C   UNL A   1      35.654  20.956  24.878  1.00  0.00     0.044 C 
ATOM     20  C   UNL A   1      33.519  21.787  23.838  1.00  0.00     0.039 C 
ATOM     21  O   UNL A   1      33.654  19.631  24.825  1.00  0.00    -0.373 OA
ATOM     22  C   UNL A   1      32.246  21.037  23.536  1.00  0.00     0.031 C 
ATOM     23  C   UNL A   1      32.644  19.604  23.807  1.00  0.00     0.161 C 
ENDBRANCH  17  18
ENDBRANCH   7  17
ENDBRANCH   4   6
ENDBRANCH   3   4
ENDBRANCH   2   3
ENDBRANCH   1   2
BRANCH   1  24
ATOM     24  O   UNL A   1      35.415  30.703  27.808  1.00  0.00    -0.458 OA
BRANCH  24  25
ATOM     25  C   UNL A   1      36.207  30.813  28.898  1.00  0.00     0.338 C 
ATOM     26  O   UNL A   1      35.936  31.357  29.956  1.00  0.00    -0.246 OA
BRANCH  25  27
ATOM     27  C   UNL A   1      37.456  30.066  28.702  1.00  0.00     0.060 A 
ATOM     28  C   UNL A   1      38.251  29.853  29.822  1.00  0.00     0.016 A 
ATOM     29  C   UNL A   1      37.946  29.772  27.434  1.00  0.00     0.016 A 
ATOM     30  C   UNL A   1      39.583  29.485  29.682  1.00  0.00     0.010 A 
ATOM     31  C   UNL A   1      39.248  29.269  27.305  1.00  0.00     0.010 A 
ATOM     32  C   UNL A   1      40.101  29.162  28.422  1.00  0.00    -0.014 A 
BRANCH  32  33
ATOM     33  C   UNL A   1      41.524  28.734  28.276  1.00  0.00     0.031 A 
ATOM     34  C   UNL A   1      42.640  29.745  28.387  1.00  0.00     0.074 A 
ATOM     35  C   UNL A   1      41.827  27.438  28.046  1.00  0.00     0.049 A 
ATOM     36  N   UNL A   1      43.909  29.616  28.093  1.00  0.00    -0.248 NA
ATOM     37  C   UNL A   1      42.276  31.086  28.874  1.00  0.00     0.031 C 
ATOM     38  C   UNL A   1      40.858  26.340  27.966  1.00  0.00     0.029 A 
ATOM     39  N   UNL A   1      43.035  26.819  27.833  1.00  0.00    -0.354 N 
ATOM     40  C   UNL A   1      44.481  30.867  28.303  1.00  0.00     0.074 A 
ATOM     41  C   UNL A   1      43.417  31.746  28.737  1.00  0.00     0.031 C 
ATOM     42  C   UNL A   1      41.509  25.187  27.760  1.00  0.00     0.029 A 
ATOM     43  C   UNL A   1      42.927  25.470  27.583  1.00  0.00     0.049 A 
ATOM     44  H   UNL A   1      43.896  27.295  27.857  1.00  0.00     0.167 HD
ATOM     45  C   UNL A   1      45.775  31.244  28.149  1.00  0.00     0.037 A 
ATOM     46  C   UNL A   1      43.847  24.565  27.196  1.00  0.00     0.037 A 
ATOM     47  C   UNL A   1      46.835  30.343  27.766  1.00  0.00     0.049 A 
ATOM     48  C   UNL A   1      45.264  25.016  26.981  1.00  0.00     0.074 A 
ATOM     49  C   UNL A   1      48.181  30.619  27.601  1.00  0.00     0.029 A 
ATOM     50  N   UNL A   1      46.671  28.990  27.499  1.00  0.00    -0.354 N 
ATOM     51  N   UNL A   1      45.780  26.210  27.138  1.00  0.00    -0.248 NA
ATOM     52  C   UNL A   1      46.221  24.000  26.524  1.00  0.00     0.031 C 
ATOM     53  C   UNL A   1      48.821  29.449  27.183  1.00  0.00     0.029 A 
ATOM     54  C   UNL A   1      47.888  28.425  27.150  1.00  0.00     0.049 A 
ATOM     55  H   UNL A   1      45.817  28.505  27.550  1.00  0.00     0.167 HD
ATOM     56  C   UNL A   1      47.128  26.085  26.825  1.00  0.00     0.074 A 
ATOM     57  C   UNL A   1      47.349  24.694  26.481  1.00  0.00     0.031 C 
ATOM     58  C   UNL A   1      48.095  27.036  26.822  1.00  0.00     0.037 A 
BRANCH  45  59
ATOM     59  C   UNL A   1      46.119  32.697  28.356  1.00  0.00     0.058 A 
ATOM     60  C   UNL A   1      46.075  33.636  27.313  1.00  0.00     0.135 A 
ATOM     61  C   UNL A   1      46.457  33.166  29.638  1.00  0.00     0.135 A 
ATOM     62  F   UNL A   1      45.771  33.247  26.065  1.00  0.00    -0.206 F 
ATOM     63  C   UNL A   1      46.382  34.978  27.526  1.00  0.00     0.059 A 
ATOM     64  C   UNL A   1      46.735  34.508  29.880  1.00  0.00     0.059 A 
ATOM     65  F   UNL A   1      46.512  32.316  30.676  1.00  0.00    -0.206 F 
ATOM     66  C   UNL A   1      46.711  35.404  28.814  1.00  0.00     0.060 A 
BRANCH  66  67
ATOM     67  S   UNL A   1      47.102  37.149  29.073  1.00  0.00     0.124 S 
ATOM     68  O   UNL A   1      45.855  37.646  29.647  1.00  0.00    -0.237 OA
ATOM     69  O   UNL A   1      48.238  37.082  29.987  1.00  0.00    -0.237 OA
ATOM     70  O   UNL A   1      47.409  37.633  27.730  1.00  0.00    -0.744 OA
ENDBRANCH  66  67
ENDBRANCH  45  59
BRANCH  46  71
ATOM     71  C   UNL A   1      43.440  23.155  26.941  1.00  0.00     0.058 A 
ATOM     72  C   UNL A   1      43.370  22.645  25.636  1.00  0.00     0.135 A 
ATOM     73  C   UNL A   1      43.133  22.282  27.998  1.00  0.00     0.135 A 
ATOM     74  F   UNL A   1      43.642  23.439  24.590  1.00  0.00    -0.206 F 
ATOM     75  C   UNL A   1      43.000  21.327  25.387  1.00  0.00     0.059 A 
ATOM     76  C   UNL A   1      42.794  20.951  27.777  1.00  0.00     0.059 A 
ATOM     77  F   UNL A   1      43.195  22.715  29.268  1.00  0.00    -0.206 F 
ATOM     78  C   UNL A   1      42.720  20.486  26.466  1.00  0.00     0.060 A 
BRANCH  78  79
ATOM     79  S   UNL A   1      42.284  18.765  26.134  1.00  0.00     0.124 S 
ATOM     80  O   UNL A   1      42.482  18.153  27.443  1.00  0.00    -0.237 OA
ATOM     81  O   UNL A   1      40.900  18.881  25.687  1.00  0.00    -0.237 OA
ATOM     82  O   UNL A   1      43.237  18.369  25.101  1.00  0.00    -0.744 OA
ENDBRANCH  78  79
ENDBRANCH  46  71
BRANCH  58  83
ATOM     83  C   UNL A   1      49.494  26.597  26.488  1.00  0.00     0.058 A 
ATOM     84  C   UNL A   1      50.338  26.013  27.444  1.00  0.00     0.135 A 
ATOM     85  C   UNL A   1      49.979  26.725  25.176  1.00  0.00     0.135 A 
ATOM     86  F   UNL A   1      49.929  25.876  28.716  1.00  0.00    -0.206 F 
ATOM     87  C   UNL A   1      51.623  25.590  27.116  1.00  0.00     0.059 A 
ATOM     88  C   UNL A   1      51.247  26.280  24.819  1.00  0.00     0.059 A 
ATOM     89  F   UNL A   1      49.210  27.270  24.221  1.00  0.00    -0.206 F 
ATOM     90  C   UNL A   1      52.067  25.724  25.800  1.00  0.00     0.060 A 
BRANCH  90  91
ATOM     91  S   UNL A   1      53.722  25.139  25.380  1.00  0.00     0.124 S 
ATOM     92  O   UNL A   1      54.514  25.679  26.480  1.00  0.00    -0.237 OA
ATOM     93  O   UNL A   1      53.546  23.689  25.377  1.00  0.00    -0.237 OA
ATOM     94  O   UNL A   1      53.974  25.736  24.073  1.00  0.00    -0.744 OA
ENDBRANCH  90  91
ENDBRANCH  58  83
ENDBRANCH  32  33
ENDBRANCH  25  27
ENDBRANCH  24  25
ENDBRANCH   1  24
TORSDOF 16
ENDMDL
MODEL 3
REMARK VINA RESULT:     -11.6      1.921      8.675
REMARK SMILES C[C@@]1(CN2C(=O)c3ccc(C(=O)OCCOC(=O)c4ccc(-c5c6nc(c(-c7c(F)cc(S(=O)(=O)[O-])cc7F)c7ccc([nH]7)c(-c7c(F)cc(S(=O)(=O)[O-])cc7F)c7nc(c(-c8c(F)cc(S(=O)(=O)[O-])cc8F)c8ccc5[nH]8)C=C7)C=C6)cc4)cc3C2=O)CCCO1
REMARK SMILES IDX 15 1 14 2 13 3 11 4 12 5 10 6 4 7 5 8 87 9 6 10 7 11 86 12
REMARK SMILES IDX 88 13 8 14 85 15 9 16 3 17 2 18 1 19 89 20 92 21 90 22 91 23
REMARK SMILES IDX 16 24 17 25 18 26 19 27 20 28 84 29 21 30 83 31 22 32 23 33
REMARK SMILES IDX 24 34 77 35 25 36 82 37 76 38 78 39 26 40 81 41 75 42 74 43
REMARK SMILES IDX 27 45 61 46 40 47 60 48 41 49 44 50 59 51 79 52 42 53 43 54
REMARK SMILES IDX 58 56 80 57 45 58 28 59 29 60 38 61 30 62 31 63 37 64 39 65
REMARK SMILES IDX 32 66 33 67 34 68 35 69 36 70 62 71 63 72 72 73 64 74 65 75
REMARK SMILES IDX 71 76 73 77 66 78 67 79 68 80 69 81 70 82 46 83 47 84 56 85
REMARK SMILES IDX 48 86 49 87 55 88 57 89 50 90 51 91 52 92 53 93 54 94
REMARK H PARENT 78 44 44 55
REMARK Flexibility Score: inf
ROOT
ATOM      1  C   UNL A   1      43.090  23.678  25.392  1.00  0.00     0.275 C 
ENDROOT
BRANCH   1   2
ATOM      2  C   UNL A   1      43.179  22.690  26.560  1.00  0.00     0.275 C 
BRANCH   2   3
ATOM      3  O   UNL A   1      41.900  22.507  27.206  1.00  0.00    -0.458 OA
BRANCH   3   4
ATOM      4  C   UNL A   1      41.070  21.605  26.627  1.00  0.00     0.338 C 
ATOM      5  O   UNL A   1      41.315  20.429  26.414  1.00  0.00    -0.246 OA
BRANCH   4   6
ATOM      6  C   UNL A   1      39.735  22.201  26.364  1.00  0.00     0.060 A 
ATOM      7  N   UNL A   1      35.328  22.260  25.061  1.00  0.00    -0.271 N 
ATOM      8  C   UNL A   1      35.804  23.450  25.548  1.00  0.00     0.261 C 
ATOM      9  C   UNL A   1      36.273  21.277  25.126  1.00  0.00     0.261 C 
ATOM     10  O   UNL A   1      35.236  24.513  25.686  1.00  0.00    -0.269 OA
ATOM     11  C   UNL A   1      37.209  23.228  25.896  1.00  0.00     0.053 A 
ATOM     12  C   UNL A   1      37.492  21.908  25.615  1.00  0.00     0.054 A 
ATOM     13  O   UNL A   1      36.183  20.083  24.900  1.00  0.00    -0.269 OA
ATOM     14  C   UNL A   1      38.173  24.086  26.395  1.00  0.00     0.015 A 
ATOM     15  C   UNL A   1      38.750  21.378  25.798  1.00  0.00     0.030 A 
ATOM     16  C   UNL A   1      39.449  23.556  26.647  1.00  0.00     0.016 A 
BRANCH   7  17
ATOM     17  C   UNL A   1      33.977  22.046  24.562  1.00  0.00     0.164 C 
BRANCH  17  18
ATOM     18  C   UNL A   1      33.019  21.401  25.604  1.00  0.00     0.084 C 
ATOM     19  C   UNL A   1      32.600  19.983  25.217  1.00  0.00     0.044 C 
ATOM     20  C   UNL A   1      31.785  22.284  25.827  1.00  0.00     0.039 C 
ATOM     21  O   UNL A   1      33.683  21.326  26.885  1.00  0.00    -0.373 OA
ATOM     22  C   UNL A   1      32.204  23.177  26.968  1.00  0.00     0.031 C 
ATOM     23  C   UNL A   1      33.078  22.259  27.791  1.00  0.00     0.161 C 
ENDBRANCH  17  18
ENDBRANCH   7  17
ENDBRANCH   4   6
ENDBRANCH   3   4
ENDBRANCH   2   3
ENDBRANCH   1   2
BRANCH   1  24
ATOM     24  O   UNL A   1      43.471  25.005  25.799  1.00  0.00    -0.458 OA
BRANCH  24  25
ATOM     25  C   UNL A   1      42.449  25.885  25.885  1.00  0.00     0.338 C 
ATOM     26  O   UNL A   1      41.581  26.093  25.053  1.00  0.00    -0.246 OA
BRANCH  25  27
ATOM     27  C   UNL A   1      42.426  26.518  27.210  1.00  0.00     0.060 A 
ATOM     28  C   UNL A   1      41.587  25.960  28.166  1.00  0.00     0.016 A 
ATOM     29  C   UNL A   1      43.037  27.745  27.448  1.00  0.00     0.016 A 
ATOM     30  C   UNL A   1      41.234  26.679  29.300  1.00  0.00     0.010 A 
ATOM     31  C   UNL A   1      42.786  28.408  28.658  1.00  0.00     0.010 A 
ATOM     32  C   UNL A   1      41.845  27.908  29.581  1.00  0.00    -0.014 A 
BRANCH  32  33
ATOM     33  C   UNL A   1      41.490  28.665  30.818  1.00  0.00     0.031 A 
ATOM     34  C   UNL A   1      40.304  29.600  30.825  1.00  0.00     0.074 A 
ATOM     35  C   UNL A   1      42.225  28.521  31.941  1.00  0.00     0.049 A 
ATOM     36  N   UNL A   1      39.954  30.490  31.719  1.00  0.00    -0.248 NA
ATOM     37  C   UNL A   1      39.402  29.539  29.662  1.00  0.00     0.031 C 
ATOM     38  C   UNL A   1      43.367  27.615  32.099  1.00  0.00     0.029 A 
ATOM     39  N   UNL A   1      42.126  29.134  33.168  1.00  0.00    -0.354 N 
ATOM     40  C   UNL A   1      38.831  31.132  31.204  1.00  0.00     0.074 A 
ATOM     41  C   UNL A   1      38.566  30.538  29.912  1.00  0.00     0.031 C 
ATOM     42  C   UNL A   1      43.835  27.705  33.351  1.00  0.00     0.029 A 
ATOM     43  C   UNL A   1      43.104  28.749  34.056  1.00  0.00     0.049 A 
ATOM     44  H   UNL A   1      41.422  29.785  33.389  1.00  0.00     0.167 HD
ATOM     45  C   UNL A   1      38.093  32.123  31.760  1.00  0.00     0.037 A 
ATOM     46  C   UNL A   1      43.423  29.217  35.278  1.00  0.00     0.037 A 
ATOM     47  C   UNL A   1      38.339  32.670  33.072  1.00  0.00     0.049 A 
ATOM     48  C   UNL A   1      42.623  30.351  35.853  1.00  0.00     0.074 A 
ATOM     49  C   UNL A   1      37.638  33.662  33.736  1.00  0.00     0.029 A 
ATOM     50  N   UNL A   1      39.357  32.265  33.925  1.00  0.00    -0.354 N 
ATOM     51  N   UNL A   1      41.595  30.979  35.336  1.00  0.00    -0.248 NA
ATOM     52  C   UNL A   1      43.032  30.850  37.173  1.00  0.00     0.031 C 
ATOM     53  C   UNL A   1      38.263  33.894  34.965  1.00  0.00     0.029 A 
ATOM     54  C   UNL A   1      39.315  33.002  35.098  1.00  0.00     0.049 A 
ATOM     55  H   UNL A   1      40.012  31.558  33.725  1.00  0.00     0.167 HD
ATOM     56  C   UNL A   1      41.218  31.930  36.276  1.00  0.00     0.074 A 
ATOM     57  C   UNL A   1      42.121  31.785  37.400  1.00  0.00     0.031 C 
ATOM     58  C   UNL A   1      40.214  32.839  36.214  1.00  0.00     0.037 A 
BRANCH  45  59
ATOM     59  C   UNL A   1      36.970  32.713  30.945  1.00  0.00     0.058 A 
ATOM     60  C   UNL A   1      37.177  33.744  30.014  1.00  0.00     0.135 A 
ATOM     61  C   UNL A   1      35.666  32.202  31.067  1.00  0.00     0.135 A 
ATOM     62  F   UNL A   1      38.398  34.282  29.861  1.00  0.00    -0.206 F 
ATOM     63  C   UNL A   1      36.130  34.267  29.259  1.00  0.00     0.059 A 
ATOM     64  C   UNL A   1      34.611  32.687  30.299  1.00  0.00     0.059 A 
ATOM     65  F   UNL A   1      35.406  31.213  31.937  1.00  0.00    -0.206 F 
ATOM     66  C   UNL A   1      34.850  33.730  29.409  1.00  0.00     0.060 A 
BRANCH  66  67
ATOM     67  S   UNL A   1      33.505  34.417  28.418  1.00  0.00     0.124 S 
ATOM     68  O   UNL A   1      33.078  33.249  27.654  1.00  0.00    -0.237 OA
ATOM     69  O   UNL A   1      32.571  34.883  29.439  1.00  0.00    -0.237 OA
ATOM     70  O   UNL A   1      34.155  35.469  27.641  1.00  0.00    -0.744 OA
ENDBRANCH  66  67
ENDBRANCH  45  59
BRANCH  46  71
ATOM     71  C   UNL A   1      44.584  28.643  36.014  1.00  0.00     0.058 A 
ATOM     72  C   UNL A   1      45.875  29.168  35.855  1.00  0.00     0.135 A 
ATOM     73  C   UNL A   1      44.423  27.571  36.908  1.00  0.00     0.135 A 
ATOM     74  F   UNL A   1      46.086  30.184  35.004  1.00  0.00    -0.206 F 
ATOM     75  C   UNL A   1      46.965  28.645  36.544  1.00  0.00     0.059 A 
ATOM     76  C   UNL A   1      45.491  27.054  37.634  1.00  0.00     0.059 A 
ATOM     77  F   UNL A   1      43.207  27.037  37.107  1.00  0.00    -0.206 F 
ATOM     78  C   UNL A   1      46.761  27.591  37.436  1.00  0.00     0.060 A 
BRANCH  78  79
ATOM     79  S   UNL A   1      48.175  26.950  38.359  1.00  0.00     0.124 S 
ATOM     80  O   UNL A   1      48.481  25.731  37.618  1.00  0.00    -0.237 OA
ATOM     81  O   UNL A   1      49.141  28.036  38.231  1.00  0.00    -0.237 OA
ATOM     82  O   UNL A   1      47.639  26.754  39.703  1.00  0.00    -0.744 OA
ENDBRANCH  78  79
ENDBRANCH  46  71
BRANCH  58  83
ATOM     83  C   UNL A   1      40.002  33.717  37.417  1.00  0.00     0.058 A 
ATOM     84  C   UNL A   1      40.687  34.930  37.582  1.00  0.00     0.135 A 
ATOM     85  C   UNL A   1      39.064  33.354  38.398  1.00  0.00     0.135 A 
ATOM     86  F   UNL A   1      41.603  35.319  36.680  1.00  0.00    -0.206 F 
ATOM     87  C   UNL A   1      40.466  35.744  38.689  1.00  0.00     0.059 A 
ATOM     88  C   UNL A   1      38.804  34.168  39.495  1.00  0.00     0.059 A 
ATOM     89  F   UNL A   1      38.376  32.208  38.285  1.00  0.00    -0.206 F 
ATOM     90  C   UNL A   1      39.518  35.356  39.639  1.00  0.00     0.060 A 
BRANCH  90  91
ATOM     91  S   UNL A   1      39.215  36.438  41.050  1.00  0.00     0.124 S 
ATOM     92  O   UNL A   1      40.556  36.585  41.604  1.00  0.00    -0.237 OA
ATOM     93  O   UNL A   1      38.657  37.629  40.414  1.00  0.00    -0.237 OA
ATOM     94  O   UNL A   1      38.278  35.676  41.869  1.00  0.00    -0.744 OA
ENDBRANCH  90  91
ENDBRANCH  58  83
ENDBRANCH  32  33
ENDBRANCH  25  27
ENDBRANCH  24  25
ENDBRANCH   1  24
TORSDOF 16
ENDMDL
