MODEL 1
REMARK VINA RESULT:     -11.8      0.000      0.000
REMARK SMILES CN(C)C(=O)CCc1cccc(NC(=O)[C@H]2CCCC[C@@H]2C(=O)OCCOC(=O)c2ccc(-c3c4nc(c(-c5c(F)cc(S(=O)(=O)[O-])cc5F)c5ccc([nH]5)c(-c5c(F)cc(S(=O)(=O)[O-])cc5F)c5nc(c(-c6c(F)cc(S(=O)(=O)[O-])cc6F)c6ccc3[nH]6)C=C5)C=C4)cc2)c1
REMARK SMILES IDX 25 1 24 2 22 3 23 4 21 5 16 6 17 7 18 8 20 9 19 10 14 11
REMARK SMILES IDX 13 12 15 14 12 15 8 16 9 17 96 18 10 19 11 20 7 21 6 22 4 23
REMARK SMILES IDX 1 24 2 25 3 26 5 27 26 28 27 29 28 30 29 31 30 32 31 33
REMARK SMILES IDX 95 34 32 35 94 36 33 37 34 38 35 39 88 40 36 41 93 42 87 43
REMARK SMILES IDX 89 44 37 45 92 46 86 47 85 48 38 50 72 51 51 52 71 53 52 54
REMARK SMILES IDX 55 55 70 56 90 57 53 58 54 59 69 61 91 62 56 63 39 64 40 65
REMARK SMILES IDX 49 66 41 67 42 68 48 69 50 70 43 71 44 72 45 73 46 74 47 75
REMARK SMILES IDX 73 76 74 77 83 78 75 79 76 80 82 81 84 82 77 83 78 84 79 85
REMARK SMILES IDX 80 86 81 87 57 88 58 89 67 90 59 91 60 92 66 93 68 94 61 95
REMARK SMILES IDX 62 96 63 97 64 98 65 99
REMARK H PARENT 13 13 89 49 55 60
REMARK Flexibility Score: inf
ROOT
ATOM      1  C   UNL A   1      37.209  23.127  24.912  1.00  0.00     0.274 C 
ENDROOT
BRANCH   1   2
ATOM      2  O   UNL A   1      35.854  23.599  25.075  1.00  0.00    -0.462 OA
BRANCH   2   3
ATOM      3  C   UNL A   1      35.008  23.382  24.039  1.00  0.00     0.309 C 
ATOM      4  O   UNL A   1      35.377  23.270  22.874  1.00  0.00    -0.252 OA
BRANCH   3   5
ATOM      5  C   UNL A   1      33.526  23.349  24.445  1.00  0.00     0.111 C 
ATOM      6  C   UNL A   1      33.410  22.889  25.920  1.00  0.00     0.093 C 
ATOM      7  C   UNL A   1      33.399  21.340  25.920  1.00  0.00     0.014 C 
ATOM      8  C   UNL A   1      32.316  20.759  25.006  1.00  0.00     0.001 C 
ATOM      9  C   UNL A   1      32.570  22.700  23.452  1.00  0.00     0.016 C 
ATOM     10  C   UNL A   1      32.500  21.194  23.560  1.00  0.00     0.001 C 
BRANCH   6  11
ATOM     11  C   UNL A   1      32.272  23.446  26.841  1.00  0.00     0.228 C 
ATOM     12  N   UNL A   1      31.793  24.732  26.869  1.00  0.00    -0.326 N 
ATOM     13  H   UNL A   1      31.163  24.912  27.606  1.00  0.00     0.169 HD
ATOM     14  O   UNL A   1      31.756  22.695  27.684  1.00  0.00    -0.274 OA
BRANCH  12  15
ATOM     15  C   UNL A   1      32.038  25.832  26.042  1.00  0.00     0.041 A 
ATOM     16  C   UNL A   1      31.765  26.716  23.833  1.00  0.00    -0.045 A 
ATOM     17  C   UNL A   1      33.147  26.833  23.809  1.00  0.00     0.004 A 
ATOM     18  C   UNL A   1      31.206  26.083  24.942  1.00  0.00     0.029 A 
ATOM     19  C   UNL A   1      33.820  26.948  25.005  1.00  0.00     0.002 A 
ATOM     20  C   UNL A   1      33.187  26.575  26.171  1.00  0.00     0.026 A 
BRANCH  16  21
ATOM     21  C   UNL A   1      31.011  27.378  22.704  1.00  0.00     0.045 C 
BRANCH  21  22
ATOM     22  C   UNL A   1      29.912  28.354  23.231  1.00  0.00     0.105 C 
BRANCH  22  23
ATOM     23  C   UNL A   1      29.469  29.390  22.190  1.00  0.00     0.222 C 
ATOM     24  C   UNL A   1      27.926  31.211  21.573  1.00  0.00     0.146 C 
ATOM     25  N   UNL A   1      28.226  30.010  22.334  1.00  0.00    -0.349 N 
ATOM     26  C   UNL A   1      27.160  29.541  23.196  1.00  0.00     0.146 C 
ATOM     27  O   UNL A   1      30.290  29.758  21.344  1.00  0.00    -0.275 OA
ENDBRANCH  22  23
ENDBRANCH  21  22
ENDBRANCH  16  21
ENDBRANCH  12  15
ENDBRANCH   6  11
ENDBRANCH   3   5
ENDBRANCH   2   3
ENDBRANCH   1   2
BRANCH   1  28
ATOM     28  C   UNL A   1      37.999  23.340  26.203  1.00  0.00     0.275 C 
BRANCH  28  29
ATOM     29  O   UNL A   1      38.722  24.589  26.176  1.00  0.00    -0.458 OA
BRANCH  29  30
ATOM     30  C   UNL A   1      39.984  24.547  26.656  1.00  0.00     0.338 C 
ATOM     31  O   UNL A   1      40.894  23.821  26.268  1.00  0.00    -0.246 OA
BRANCH  30  32
ATOM     32  C   UNL A   1      40.174  25.605  27.664  1.00  0.00     0.060 A 
ATOM     33  C   UNL A   1      39.305  25.627  28.752  1.00  0.00     0.016 A 
ATOM     34  C   UNL A   1      41.153  26.600  27.530  1.00  0.00     0.016 A 
ATOM     35  C   UNL A   1      39.442  26.621  29.722  1.00  0.00     0.010 A 
ATOM     36  C   UNL A   1      41.271  27.609  28.506  1.00  0.00     0.010 A 
ATOM     37  C   UNL A   1      40.425  27.619  29.623  1.00  0.00    -0.014 A 
BRANCH  37  38
ATOM     38  C   UNL A   1      40.488  28.646  30.708  1.00  0.00     0.031 A 
ATOM     39  C   UNL A   1      39.404  29.685  30.806  1.00  0.00     0.074 A 
ATOM     40  C   UNL A   1      41.385  28.544  31.712  1.00  0.00     0.049 A 
ATOM     41  N   UNL A   1      39.224  30.610  31.714  1.00  0.00    -0.248 NA
ATOM     42  C   UNL A   1      38.395  29.691  29.734  1.00  0.00     0.031 C 
ATOM     43  C   UNL A   1      42.422  27.522  31.803  1.00  0.00     0.029 A 
ATOM     44  N   UNL A   1      41.497  29.230  32.903  1.00  0.00    -0.354 N 
ATOM     45  C   UNL A   1      38.116  31.334  31.301  1.00  0.00     0.074 A 
ATOM     46  C   UNL A   1      37.620  30.703  30.097  1.00  0.00     0.031 C 
ATOM     47  C   UNL A   1      42.941  27.534  33.041  1.00  0.00     0.029 A 
ATOM     48  C   UNL A   1      42.367  28.642  33.800  1.00  0.00     0.049 A 
ATOM     49  H   UNL A   1      41.005  30.059  33.096  1.00  0.00     0.167 HD
ATOM     50  C   UNL A   1      37.605  32.469  31.835  1.00  0.00     0.037 A 
ATOM     51  C   UNL A   1      42.670  28.958  35.079  1.00  0.00     0.037 A 
ATOM     52  C   UNL A   1      38.125  33.116  33.010  1.00  0.00     0.049 A 
ATOM     53  C   UNL A   1      42.098  30.231  35.655  1.00  0.00     0.074 A 
ATOM     54  C   UNL A   1      37.786  34.350  33.538  1.00  0.00     0.029 A 
ATOM     55  N   UNL A   1      39.094  32.577  33.843  1.00  0.00    -0.354 N 
ATOM     56  N   UNL A   1      41.155  31.005  35.176  1.00  0.00    -0.248 NA
ATOM     57  C   UNL A   1      42.695  30.722  36.908  1.00  0.00     0.031 C 
ATOM     58  C   UNL A   1      38.581  34.576  34.667  1.00  0.00     0.029 A 
ATOM     59  C   UNL A   1      39.377  33.461  34.872  1.00  0.00     0.049 A 
ATOM     60  H   UNL A   1      39.518  31.697  33.721  1.00  0.00     0.167 HD
ATOM     61  C   UNL A   1      41.079  32.092  36.040  1.00  0.00     0.074 A 
ATOM     62  C   UNL A   1      42.022  31.846  37.109  1.00  0.00     0.031 C 
ATOM     63  C   UNL A   1      40.324  33.213  35.930  1.00  0.00     0.037 A 
BRANCH  50  64
ATOM     64  C   UNL A   1      36.533  33.158  31.045  1.00  0.00     0.058 A 
ATOM     65  C   UNL A   1      36.800  33.880  29.874  1.00  0.00     0.135 A 
ATOM     66  C   UNL A   1      35.208  33.119  31.511  1.00  0.00     0.135 A 
ATOM     67  F   UNL A   1      38.055  33.973  29.407  1.00  0.00    -0.206 F 
ATOM     68  C   UNL A   1      35.790  34.565  29.204  1.00  0.00     0.059 A 
ATOM     69  C   UNL A   1      34.181  33.779  30.847  1.00  0.00     0.059 A 
ATOM     70  F   UNL A   1      34.906  32.452  32.636  1.00  0.00    -0.206 F 
ATOM     71  C   UNL A   1      34.486  34.515  29.704  1.00  0.00     0.060 A 
BRANCH  71  72
ATOM     72  S   UNL A   1      33.189  35.436  28.851  1.00  0.00     0.124 S 
ATOM     73  O   UNL A   1      33.976  36.382  28.064  1.00  0.00    -0.237 OA
ATOM     74  O   UNL A   1      32.510  34.391  28.092  1.00  0.00    -0.237 OA
ATOM     75  O   UNL A   1      32.413  36.020  29.940  1.00  0.00    -0.744 OA
ENDBRANCH  71  72
ENDBRANCH  50  64
BRANCH  51  76
ATOM     76  C   UNL A   1      43.621  28.132  35.886  1.00  0.00     0.058 A 
ATOM     77  C   UNL A   1      43.162  27.123  36.752  1.00  0.00     0.135 A 
ATOM     78  C   UNL A   1      45.007  28.357  35.849  1.00  0.00     0.135 A 
ATOM     79  F   UNL A   1      41.847  26.879  36.863  1.00  0.00    -0.206 F 
ATOM     80  C   UNL A   1      44.035  26.375  37.543  1.00  0.00     0.059 A 
ATOM     81  C   UNL A   1      45.902  27.595  36.596  1.00  0.00     0.059 A 
ATOM     82  F   UNL A   1      45.514  29.319  35.064  1.00  0.00    -0.206 F 
ATOM     83  C   UNL A   1      45.406  26.615  37.452  1.00  0.00     0.060 A 
BRANCH  83  84
ATOM     84  S   UNL A   1      46.551  25.609  38.424  1.00  0.00     0.124 S 
ATOM     85  O   UNL A   1      47.474  25.139  37.398  1.00  0.00    -0.237 OA
ATOM     86  O   UNL A   1      47.090  26.576  39.374  1.00  0.00    -0.237 OA
ATOM     87  O   UNL A   1      45.681  24.591  39.008  1.00  0.00    -0.744 OA
ENDBRANCH  83  84
ENDBRANCH  51  76
BRANCH  63  88
ATOM     88  C   UNL A   1      40.500  34.281  36.973  1.00  0.00     0.058 A 
ATOM     89  C   UNL A   1      41.429  35.320  36.801  1.00  0.00     0.135 A 
ATOM     90  C   UNL A   1      39.678  34.318  38.110  1.00  0.00     0.135 A 
ATOM     91  F   UNL A   1      42.241  35.331  35.733  1.00  0.00    -0.206 F 
ATOM     92  C   UNL A   1      41.544  36.354  37.726  1.00  0.00     0.059 A 
ATOM     93  C   UNL A   1      39.762  35.353  39.036  1.00  0.00     0.059 A 
ATOM     94  F   UNL A   1      38.767  33.355  38.316  1.00  0.00    -0.206 F 
ATOM     95  C   UNL A   1      40.701  36.363  38.839  1.00  0.00     0.060 A 
BRANCH  95  96
ATOM     96  S   UNL A   1      40.823  37.739  40.003  1.00  0.00     0.124 S 
ATOM     97  O   UNL A   1      40.914  37.038  41.280  1.00  0.00    -0.237 OA
ATOM     98  O   UNL A   1      42.038  38.416  39.565  1.00  0.00    -0.237 OA
ATOM     99  O   UNL A   1      39.585  38.481  39.783  1.00  0.00    -0.744 OA
ENDBRANCH  95  96
ENDBRANCH  63  88
ENDBRANCH  37  38
ENDBRANCH  30  32
ENDBRANCH  29  30
ENDBRANCH  28  29
ENDBRANCH   1  28
TORSDOF 19
ENDMDL
MODEL 2
REMARK VINA RESULT:     -11.8      5.360     10.817
REMARK SMILES CN(C)C(=O)CCc1cccc(NC(=O)[C@H]2CCCC[C@@H]2C(=O)OCCOC(=O)c2ccc(-c3c4nc(c(-c5c(F)cc(S(=O)(=O)[O-])cc5F)c5ccc([nH]5)c(-c5c(F)cc(S(=O)(=O)[O-])cc5F)c5nc(c(-c6c(F)cc(S(=O)(=O)[O-])cc6F)c6ccc3[nH]6)C=C5)C=C4)cc2)c1
REMARK SMILES IDX 25 1 24 2 22 3 23 4 21 5 16 6 17 7 18 8 20 9 19 10 14 11
REMARK SMILES IDX 13 12 15 14 12 15 8 16 9 17 96 18 10 19 11 20 7 21 6 22 4 23
REMARK SMILES IDX 1 24 2 25 3 26 5 27 26 28 27 29 28 30 29 31 30 32 31 33
REMARK SMILES IDX 95 34 32 35 94 36 33 37 34 38 35 39 88 40 36 41 93 42 87 43
REMARK SMILES IDX 89 44 37 45 92 46 86 47 85 48 38 50 72 51 51 52 71 53 52 54
REMARK SMILES IDX 55 55 70 56 90 57 53 58 54 59 69 61 91 62 56 63 39 64 40 65
REMARK SMILES IDX 49 66 41 67 42 68 48 69 50 70 43 71 44 72 45 73 46 74 47 75
REMARK SMILES IDX 73 76 74 77 83 78 75 79 76 80 82 81 84 82 77 83 78 84 79 85
REMARK SMILES IDX 80 86 81 87 57 88 58 89 67 90 59 91 60 92 66 93 68 94 61 95
REMARK SMILES IDX 62 96 63 97 64 98 65 99
REMARK H PARENT 13 13 89 49 55 60
REMARK Flexibility Score: inf
ROOT
ATOM      1  C   UNL A   1      31.916  27.829  27.263  1.00  0.00     0.274 C 
ENDROOT
BRANCH   1   2
ATOM      2  O   UNL A   1      32.401  26.726  26.467  1.00  0.00    -0.462 OA
BRANCH   2   3
ATOM      3  C   UNL A   1      31.479  25.817  26.068  1.00  0.00     0.309 C 
ATOM      4  O   UNL A   1      30.724  25.233  26.839  1.00  0.00    -0.252 OA
BRANCH   3   5
ATOM      5  C   UNL A   1      31.502  25.532  24.557  1.00  0.00     0.111 C 
ATOM      6  C   UNL A   1      32.534  26.466  23.877  1.00  0.00     0.093 C 
ATOM      7  C   UNL A   1      31.815  27.802  23.569  1.00  0.00     0.014 C 
ATOM      8  C   UNL A   1      30.531  27.606  22.757  1.00  0.00     0.001 C 
ATOM      9  C   UNL A   1      30.145  25.404  23.875  1.00  0.00     0.016 C 
ATOM     10  C   UNL A   1      29.526  26.727  23.486  1.00  0.00     0.001 C 
BRANCH   6  11
ATOM     11  C   UNL A   1      33.347  25.979  22.629  1.00  0.00     0.228 C 
ATOM     12  N   UNL A   1      34.082  24.824  22.525  1.00  0.00    -0.326 N 
ATOM     13  H   UNL A   1      34.620  24.761  21.703  1.00  0.00     0.169 HD
ATOM     14  O   UNL A   1      33.402  26.706  21.623  1.00  0.00    -0.274 OA
BRANCH  12  15
ATOM     15  C   UNL A   1      34.204  23.723  23.377  1.00  0.00     0.041 A 
ATOM     16  C   UNL A   1      33.033  21.893  24.387  1.00  0.00    -0.045 A 
ATOM     17  C   UNL A   1      33.425  22.434  25.602  1.00  0.00     0.004 A 
ATOM     18  C   UNL A   1      33.333  22.631  23.243  1.00  0.00     0.029 A 
ATOM     19  C   UNL A   1      34.553  23.222  25.641  1.00  0.00     0.002 A 
ATOM     20  C   UNL A   1      35.040  23.757  24.467  1.00  0.00     0.026 A 
BRANCH  16  21
ATOM     21  C   UNL A   1      32.415  20.515  24.428  1.00  0.00     0.045 C 
BRANCH  21  22
ATOM     22  C   UNL A   1      33.498  19.391  24.460  1.00  0.00     0.105 C 
BRANCH  22  23
ATOM     23  C   UNL A   1      32.971  18.055  24.998  1.00  0.00     0.222 C 
ATOM     24  C   UNL A   1      33.189  15.601  25.084  1.00  0.00     0.146 C 
ATOM     25  N   UNL A   1      33.401  16.866  24.402  1.00  0.00    -0.349 N 
ATOM     26  C   UNL A   1      34.049  16.773  23.110  1.00  0.00     0.146 C 
ATOM     27  O   UNL A   1      32.308  18.063  26.038  1.00  0.00    -0.275 OA
ENDBRANCH  22  23
ENDBRANCH  21  22
ENDBRANCH  16  21
ENDBRANCH  12  15
ENDBRANCH   6  11
ENDBRANCH   3   5
ENDBRANCH   2   3
ENDBRANCH   1   2
BRANCH   1  28
ATOM     28  C   UNL A   1      32.742  29.084  26.980  1.00  0.00     0.275 C 
BRANCH  28  29
ATOM     29  O   UNL A   1      34.100  28.934  27.445  1.00  0.00    -0.458 OA
BRANCH  29  30
ATOM     30  C   UNL A   1      34.675  30.050  27.946  1.00  0.00     0.338 C 
ATOM     31  O   UNL A   1      34.123  31.122  28.173  1.00  0.00    -0.246 OA
BRANCH  30  32
ATOM     32  C   UNL A   1      36.075  29.772  28.313  1.00  0.00     0.060 A 
ATOM     33  C   UNL A   1      37.048  29.945  27.331  1.00  0.00     0.016 A 
ATOM     34  C   UNL A   1      36.437  29.299  29.582  1.00  0.00     0.016 A 
ATOM     35  C   UNL A   1      38.384  29.679  27.634  1.00  0.00     0.010 A 
ATOM     36  C   UNL A   1      37.787  29.017  29.871  1.00  0.00     0.010 A 
ATOM     37  C   UNL A   1      38.778  29.222  28.902  1.00  0.00    -0.014 A 
BRANCH  37  38
ATOM     38  C   UNL A   1      40.232  28.957  29.127  1.00  0.00     0.031 A 
ATOM     39  C   UNL A   1      40.842  27.686  28.601  1.00  0.00     0.074 A 
ATOM     40  C   UNL A   1      41.047  29.916  29.618  1.00  0.00     0.049 A 
ATOM     41  N   UNL A   1      42.093  27.302  28.615  1.00  0.00    -0.248 NA
ATOM     42  C   UNL A   1      39.922  26.715  27.988  1.00  0.00     0.031 C 
ATOM     43  C   UNL A   1      40.608  31.233  30.064  1.00  0.00     0.029 A 
ATOM     44  N   UNL A   1      42.420  29.979  29.715  1.00  0.00    -0.354 N 
ATOM     45  C   UNL A   1      42.103  26.031  28.060  1.00  0.00     0.074 A 
ATOM     46  C   UNL A   1      40.747  25.733  27.655  1.00  0.00     0.031 C 
ATOM     47  C   UNL A   1      41.683  32.024  30.217  1.00  0.00     0.029 A 
ATOM     48  C   UNL A   1      42.897  31.243  30.002  1.00  0.00     0.049 A 
ATOM     49  H   UNL A   1      43.006  29.198  29.592  1.00  0.00     0.167 HD
ATOM     50  C   UNL A   1      43.137  25.162  27.967  1.00  0.00     0.037 A 
ATOM     51  C   UNL A   1      44.161  31.716  30.086  1.00  0.00     0.037 A 
ATOM     52  C   UNL A   1      44.477  25.446  28.406  1.00  0.00     0.049 A 
ATOM     53  C   UNL A   1      45.301  30.731  29.989  1.00  0.00     0.074 A 
ATOM     54  C   UNL A   1      45.555  24.584  28.506  1.00  0.00     0.029 A 
ATOM     55  N   UNL A   1      44.923  26.694  28.816  1.00  0.00    -0.354 N 
ATOM     56  N   UNL A   1      45.279  29.475  29.615  1.00  0.00    -0.248 NA
ATOM     57  C   UNL A   1      46.629  31.206  30.410  1.00  0.00     0.031 C 
ATOM     58  C   UNL A   1      46.643  25.301  29.017  1.00  0.00     0.029 A 
ATOM     59  C   UNL A   1      46.257  26.621  29.186  1.00  0.00     0.049 A 
ATOM     60  H   UNL A   1      44.374  27.510  28.840  1.00  0.00     0.167 HD
ATOM     61  C   UNL A   1      46.574  29.000  29.799  1.00  0.00     0.074 A 
ATOM     62  C   UNL A   1      47.371  30.118  30.253  1.00  0.00     0.031 C 
ATOM     63  C   UNL A   1      47.044  27.737  29.645  1.00  0.00     0.037 A 
BRANCH  50  64
ATOM     64  C   UNL A   1      42.804  23.769  27.520  1.00  0.00     0.058 A 
ATOM     65  C   UNL A   1      42.391  22.768  28.409  1.00  0.00     0.135 A 
ATOM     66  C   UNL A   1      42.948  23.433  26.164  1.00  0.00     0.135 A 
ATOM     67  F   UNL A   1      42.271  23.032  29.719  1.00  0.00    -0.206 F 
ATOM     68  C   UNL A   1      42.157  21.467  27.969  1.00  0.00     0.059 A 
ATOM     69  C   UNL A   1      42.700  22.147  25.700  1.00  0.00     0.059 A 
ATOM     70  F   UNL A   1      43.354  24.356  25.278  1.00  0.00    -0.206 F 
ATOM     71  C   UNL A   1      42.323  21.165  26.614  1.00  0.00     0.060 A 
BRANCH  71  72
ATOM     72  S   UNL A   1      42.053  19.470  26.059  1.00  0.00     0.124 S 
ATOM     73  O   UNL A   1      42.479  18.710  27.231  1.00  0.00    -0.237 OA
ATOM     74  O   UNL A   1      40.620  19.455  25.781  1.00  0.00    -0.237 OA
ATOM     75  O   UNL A   1      42.917  19.353  24.889  1.00  0.00    -0.744 OA
ENDBRANCH  71  72
ENDBRANCH  50  64
BRANCH  51  76
ATOM     76  C   UNL A   1      44.441  33.159  30.365  1.00  0.00     0.058 A 
ATOM     77  C   UNL A   1      44.772  34.053  29.331  1.00  0.00     0.135 A 
ATOM     78  C   UNL A   1      44.428  33.673  31.671  1.00  0.00     0.135 A 
ATOM     79  F   UNL A   1      44.836  33.621  28.062  1.00  0.00    -0.206 F 
ATOM     80  C   UNL A   1      45.078  35.392  29.582  1.00  0.00     0.059 A 
ATOM     81  C   UNL A   1      44.687  35.014  31.943  1.00  0.00     0.059 A 
ATOM     82  F   UNL A   1      44.144  32.872  32.709  1.00  0.00    -0.206 F 
ATOM     83  C   UNL A   1      45.025  35.864  30.893  1.00  0.00     0.060 A 
BRANCH  83  84
ATOM     84  S   UNL A   1      45.356  37.610  31.223  1.00  0.00     0.124 S 
ATOM     85  O   UNL A   1      46.535  37.531  32.076  1.00  0.00    -0.237 OA
ATOM     86  O   UNL A   1      45.571  38.148  29.884  1.00  0.00    -0.237 OA
ATOM     87  O   UNL A   1      44.130  38.060  31.878  1.00  0.00    -0.744 OA
ENDBRANCH  83  84
ENDBRANCH  51  76
BRANCH  63  88
ATOM     88  C   UNL A   1      48.482  27.479  29.997  1.00  0.00     0.058 A 
ATOM     89  C   UNL A   1      48.853  27.058  31.285  1.00  0.00     0.135 A 
ATOM     90  C   UNL A   1      49.488  27.569  29.022  1.00  0.00     0.135 A 
ATOM     91  F   UNL A   1      47.930  26.959  32.255  1.00  0.00    -0.206 F 
ATOM     92  C   UNL A   1      50.172  26.744  31.596  1.00  0.00     0.059 A 
ATOM     93  C   UNL A   1      50.810  27.239  29.306  1.00  0.00     0.059 A 
ATOM     94  F   UNL A   1      49.186  27.956  27.773  1.00  0.00    -0.206 F 
ATOM     95  C   UNL A   1      51.143  26.833  30.597  1.00  0.00     0.060 A 
BRANCH  95  96
ATOM     96  S   UNL A   1      52.842  26.371  30.999  1.00  0.00     0.124 S 
ATOM     97  O   UNL A   1      53.278  27.511  31.798  1.00  0.00    -0.237 OA
ATOM     98  O   UNL A   1      52.664  25.119  31.728  1.00  0.00    -0.237 OA
ATOM     99  O   UNL A   1      53.478  26.241  29.691  1.00  0.00    -0.744 OA
ENDBRANCH  95  96
ENDBRANCH  63  88
ENDBRANCH  37  38
ENDBRANCH  30  32
ENDBRANCH  29  30
ENDBRANCH  28  29
ENDBRANCH   1  28
TORSDOF 19
ENDMDL
MODEL 3
REMARK VINA RESULT:     -11.7      1.751      2.341
REMARK SMILES CN(C)C(=O)CCc1cccc(NC(=O)[C@H]2CCCC[C@@H]2C(=O)OCCOC(=O)c2ccc(-c3c4nc(c(-c5c(F)cc(S(=O)(=O)[O-])cc5F)c5ccc([nH]5)c(-c5c(F)cc(S(=O)(=O)[O-])cc5F)c5nc(c(-c6c(F)cc(S(=O)(=O)[O-])cc6F)c6ccc3[nH]6)C=C5)C=C4)cc2)c1
REMARK SMILES IDX 25 1 24 2 22 3 23 4 21 5 16 6 17 7 18 8 20 9 19 10 14 11
REMARK SMILES IDX 13 12 15 14 12 15 8 16 9 17 96 18 10 19 11 20 7 21 6 22 4 23
REMARK SMILES IDX 1 24 2 25 3 26 5 27 26 28 27 29 28 30 29 31 30 32 31 33
REMARK SMILES IDX 95 34 32 35 94 36 33 37 34 38 35 39 88 40 36 41 93 42 87 43
REMARK SMILES IDX 89 44 37 45 92 46 86 47 85 48 38 50 72 51 51 52 71 53 52 54
REMARK SMILES IDX 55 55 70 56 90 57 53 58 54 59 69 61 91 62 56 63 39 64 40 65
REMARK SMILES IDX 49 66 41 67 42 68 48 69 50 70 43 71 44 72 45 73 46 74 47 75
REMARK SMILES IDX 73 76 74 77 83 78 75 79 76 80 82 81 84 82 77 83 78 84 79 85
REMARK SMILES IDX 80 86 81 87 57 88 58 89 67 90 59 91 60 92 66 93 68 94 61 95
REMARK SMILES IDX 62 96 63 97 64 98 65 99
REMARK H PARENT 13 13 89 49 55 60
REMARK Flexibility Score: inf
ROOT
ATOM      1  C   UNL A   1      36.325  23.337  23.605  1.00  0.00     0.274 C 
ENDROOT
BRANCH   1   2
ATOM      2  O   UNL A   1      35.043  22.685  23.477  1.00  0.00    -0.462 OA
BRANCH   2   3
ATOM      3  C   UNL A   1      33.948  23.459  23.672  1.00  0.00     0.309 C 
ATOM      4  O   UNL A   1      33.793  24.559  23.152  1.00  0.00    -0.252 OA
BRANCH   3   5
ATOM      5  C   UNL A   1      32.933  22.860  24.659  1.00  0.00     0.111 C 
ATOM      6  C   UNL A   1      32.940  23.691  25.966  1.00  0.00     0.093 C 
ATOM      7  C   UNL A   1      34.072  23.132  26.862  1.00  0.00     0.014 C 
ATOM      8  C   UNL A   1      33.951  21.623  27.091  1.00  0.00     0.001 C 
ATOM      9  C   UNL A   1      32.958  21.344  24.815  1.00  0.00     0.016 C 
ATOM     10  C   UNL A   1      34.002  20.844  25.786  1.00  0.00     0.001 C 
BRANCH   6  11
ATOM     11  C   UNL A   1      31.625  23.879  26.797  1.00  0.00     0.228 C 
ATOM     12  N   UNL A   1      30.856  25.014  26.875  1.00  0.00    -0.326 N 
ATOM     13  H   UNL A   1      30.139  24.971  27.549  1.00  0.00     0.169 HD
ATOM     14  O   UNL A   1      31.226  22.947  27.515  1.00  0.00    -0.274 OA
BRANCH  12  15
ATOM     15  C   UNL A   1      30.909  26.220  26.171  1.00  0.00     0.041 A 
ATOM     16  C   UNL A   1      30.819  27.221  23.997  1.00  0.00    -0.045 A 
ATOM     17  C   UNL A   1      32.074  27.736  24.284  1.00  0.00     0.004 A 
ATOM     18  C   UNL A   1      30.275  26.336  24.926  1.00  0.00     0.029 A 
ATOM     19  C   UNL A   1      32.430  27.912  25.602  1.00  0.00     0.002 A 
ATOM     20  C   UNL A   1      31.725  27.248  26.583  1.00  0.00     0.026 A 
BRANCH  16  21
ATOM     21  C   UNL A   1      30.136  27.753  22.759  1.00  0.00     0.045 C 
BRANCH  21  22
ATOM     22  C   UNL A   1      28.996  28.760  23.110  1.00  0.00     0.105 C 
BRANCH  22  23
ATOM     23  C   UNL A   1      29.021  30.030  22.251  1.00  0.00     0.222 C 
ATOM     24  C   UNL A   1      28.655  32.464  22.101  1.00  0.00     0.146 C 
ATOM     25  N   UNL A   1      28.373  31.178  22.716  1.00  0.00    -0.349 N 
ATOM     26  C   UNL A   1      27.397  31.203  23.786  1.00  0.00     0.146 C 
ATOM     27  O   UNL A   1      29.744  30.047  21.251  1.00  0.00    -0.275 OA
ENDBRANCH  22  23
ENDBRANCH  21  22
ENDBRANCH  16  21
ENDBRANCH  12  15
ENDBRANCH   6  11
ENDBRANCH   3   5
ENDBRANCH   2   3
ENDBRANCH   1   2
BRANCH   1  28
ATOM     28  C   UNL A   1      37.036  22.854  24.868  1.00  0.00     0.275 C 
BRANCH  28  29
ATOM     29  O   UNL A   1      37.727  23.937  25.527  1.00  0.00    -0.458 OA
BRANCH  29  30
ATOM     30  C   UNL A   1      38.832  23.590  26.224  1.00  0.00     0.338 C 
ATOM     31  O   UNL A   1      39.438  22.524  26.158  1.00  0.00    -0.246 OA
BRANCH  30  32
ATOM     32  C   UNL A   1      39.309  24.738  27.016  1.00  0.00     0.060 A 
ATOM     33  C   UNL A   1      38.855  24.852  28.328  1.00  0.00     0.016 A 
ATOM     34  C   UNL A   1      40.145  25.724  26.475  1.00  0.00     0.016 A 
ATOM     35  C   UNL A   1      39.272  25.932  29.107  1.00  0.00     0.010 A 
ATOM     36  C   UNL A   1      40.546  26.820  27.265  1.00  0.00     0.010 A 
ATOM     37  C   UNL A   1      40.125  26.925  28.599  1.00  0.00    -0.014 A 
BRANCH  37  38
ATOM     38  C   UNL A   1      40.509  28.048  29.507  1.00  0.00     0.031 A 
ATOM     39  C   UNL A   1      39.521  29.151  29.777  1.00  0.00     0.074 A 
ATOM     40  C   UNL A   1      41.641  27.994  30.241  1.00  0.00     0.049 A 
ATOM     41  N   UNL A   1      39.621  30.169  30.594  1.00  0.00    -0.248 NA
ATOM     42  C   UNL A   1      38.260  29.110  29.020  1.00  0.00     0.031 C 
ATOM     43  C   UNL A   1      42.634  26.929  30.163  1.00  0.00     0.029 A 
ATOM     44  N   UNL A   1      42.092  28.786  31.276  1.00  0.00    -0.354 N 
ATOM     45  C   UNL A   1      38.463  30.911  30.415  1.00  0.00     0.074 A 
ATOM     46  C   UNL A   1      37.641  30.194  29.464  1.00  0.00     0.031 C 
ATOM     47  C   UNL A   1      43.471  27.033  31.208  1.00  0.00     0.029 A 
ATOM     48  C   UNL A   1      43.156  28.240  31.967  1.00  0.00     0.049 A 
ATOM     49  H   UNL A   1      41.693  29.657  31.502  1.00  0.00     0.167 HD
ATOM     50  C   UNL A   1      38.148  32.119  30.939  1.00  0.00     0.037 A 
ATOM     51  C   UNL A   1      43.803  28.662  33.076  1.00  0.00     0.037 A 
ATOM     52  C   UNL A   1      38.985  32.848  31.854  1.00  0.00     0.049 A 
ATOM     53  C   UNL A   1      43.445  30.015  33.641  1.00  0.00     0.074 A 
ATOM     54  C   UNL A   1      38.837  34.145  32.315  1.00  0.00     0.029 A 
ATOM     55  N   UNL A   1      40.129  32.339  32.451  1.00  0.00    -0.354 N 
ATOM     56  N   UNL A   1      42.430  30.791  33.350  1.00  0.00    -0.248 NA
ATOM     57  C   UNL A   1      44.374  30.592  34.628  1.00  0.00     0.031 C 
ATOM     58  C   UNL A   1      39.915  34.435  33.159  1.00  0.00     0.029 A 
ATOM     59  C   UNL A   1      40.705  33.302  33.264  1.00  0.00     0.049 A 
ATOM     60  H   UNL A   1      40.478  31.429  32.318  1.00  0.00     0.167 HD
ATOM     61  C   UNL A   1      42.621  31.960  34.079  1.00  0.00     0.074 A 
ATOM     62  C   UNL A   1      43.812  31.767  34.877  1.00  0.00     0.031 C 
ATOM     63  C   UNL A   1      41.896  33.106  34.052  1.00  0.00     0.037 A 
BRANCH  50  64
ATOM     64  C   UNL A   1      36.922  32.787  30.393  1.00  0.00     0.058 A 
ATOM     65  C   UNL A   1      36.932  33.543  29.213  1.00  0.00     0.135 A 
ATOM     66  C   UNL A   1      35.716  32.692  31.108  1.00  0.00     0.135 A 
ATOM     67  F   UNL A   1      38.067  33.690  28.513  1.00  0.00    -0.206 F 
ATOM     68  C   UNL A   1      35.790  34.207  28.773  1.00  0.00     0.059 A 
ATOM     69  C   UNL A   1      34.559  33.330  30.676  1.00  0.00     0.059 A 
ATOM     70  F   UNL A   1      35.661  31.991  32.251  1.00  0.00    -0.206 F 
ATOM     71  C   UNL A   1      34.611  34.101  29.517  1.00  0.00     0.060 A 
BRANCH  71  72
ATOM     72  S   UNL A   1      33.145  34.994  28.960  1.00  0.00     0.124 S 
ATOM     73  O   UNL A   1      33.741  36.193  28.376  1.00  0.00    -0.237 OA
ATOM     74  O   UNL A   1      32.548  34.058  28.013  1.00  0.00    -0.237 OA
ATOM     75  O   UNL A   1      32.387  35.206  30.189  1.00  0.00    -0.744 OA
ENDBRANCH  71  72
ENDBRANCH  50  64
BRANCH  51  76
ATOM     76  C   UNL A   1      44.915  27.867  33.685  1.00  0.00     0.058 A 
ATOM     77  C   UNL A   1      44.672  26.939  34.714  1.00  0.00     0.135 A 
ATOM     78  C   UNL A   1      46.250  28.044  33.290  1.00  0.00     0.135 A 
ATOM     79  F   UNL A   1      43.422  26.744  35.164  1.00  0.00    -0.206 F 
ATOM     80  C   UNL A   1      45.704  26.222  35.321  1.00  0.00     0.059 A 
ATOM     81  C   UNL A   1      47.292  27.310  33.850  1.00  0.00     0.059 A 
ATOM     82  F   UNL A   1      46.558  28.931  32.332  1.00  0.00    -0.206 F 
ATOM     83  C   UNL A   1      47.012  26.410  34.875  1.00  0.00     0.060 A 
BRANCH  83  84
ATOM     84  S   UNL A   1      48.350  25.441  35.609  1.00  0.00     0.124 S 
ATOM     85  O   UNL A   1      48.303  25.878  36.999  1.00  0.00    -0.237 OA
ATOM     86  O   UNL A   1      47.920  24.070  35.355  1.00  0.00    -0.237 OA
ATOM     87  O   UNL A   1      49.522  25.869  34.850  1.00  0.00    -0.744 OA
ENDBRANCH  83  84
ENDBRANCH  51  76
BRANCH  63  88
ATOM     88  C   UNL A   1      42.379  34.259  34.886  1.00  0.00     0.058 A 
ATOM     89  C   UNL A   1      41.887  34.473  36.185  1.00  0.00     0.135 A 
ATOM     90  C   UNL A   1      43.398  35.105  34.423  1.00  0.00     0.135 A 
ATOM     91  F   UNL A   1      40.910  33.694  36.675  1.00  0.00    -0.206 F 
ATOM     92  C   UNL A   1      42.384  35.492  36.992  1.00  0.00     0.059 A 
ATOM     93  C   UNL A   1      43.924  36.117  35.221  1.00  0.00     0.059 A 
ATOM     94  F   UNL A   1      43.909  34.936  33.194  1.00  0.00    -0.206 F 
ATOM     95  C   UNL A   1      43.407  36.307  36.501  1.00  0.00     0.060 A 
BRANCH  95  96
ATOM     96  S   UNL A   1      44.080  37.592  37.577  1.00  0.00     0.124 S 
ATOM     97  O   UNL A   1      43.053  37.681  38.610  1.00  0.00    -0.237 OA
ATOM     98  O   UNL A   1      45.353  37.015  37.998  1.00  0.00    -0.237 OA
ATOM     99  O   UNL A   1      44.186  38.751  36.697  1.00  0.00    -0.744 OA
ENDBRANCH  95  96
ENDBRANCH  63  88
ENDBRANCH  37  38
ENDBRANCH  30  32
ENDBRANCH  29  30
ENDBRANCH  28  29
ENDBRANCH   1  28
TORSDOF 19
ENDMDL
