MODEL 1
REMARK VINA RESULT:      -9.5      0.000      0.000
REMARK SMILES C[C@H](CC(=O)OCCOC(=O)c1ccc(-c2c3nc(c(-c4c(F)cc(S(=O)(=O)[O-])cc4F)c4ccc([nH]4)c(-c4c(F)cc(S(=O)(=O)[O-])cc4F)c4nc(c(-c5c(F)cc(S(=O)(=O)[O-])cc5F)c5ccc2[nH]5)C=C4)C=C3)cc1)[NH2+][C@H](C)c1ccccc1
REMARK SMILES IDX 7 1 6 2 4 3 5 4 3 5 2 6 1 7 78 8 79 11 80 12 81 13 82 14
REMARK SMILES IDX 86 15 83 16 85 17 84 18 8 19 9 20 10 21 11 22 12 23 13 24
REMARK SMILES IDX 77 25 14 26 76 27 15 28 16 29 17 30 70 31 18 32 75 33 69 34
REMARK SMILES IDX 71 35 19 36 74 37 68 38 67 39 20 41 54 42 33 43 53 44 34 45
REMARK SMILES IDX 37 46 52 47 72 48 35 49 36 50 51 52 73 53 38 54 21 55 22 56
REMARK SMILES IDX 31 57 23 58 24 59 30 60 32 61 25 62 26 63 27 64 28 65 29 66
REMARK SMILES IDX 55 67 56 68 65 69 57 70 58 71 64 72 66 73 59 74 60 75 61 76
REMARK SMILES IDX 62 77 63 78 39 79 40 80 49 81 41 82 42 83 48 84 50 85 43 86
REMARK SMILES IDX 44 87 45 88 46 89 47 90
REMARK H PARENT 78 9 78 10 71 40 37 51
REMARK Flexibility Score: inf
ROOT
ATOM      1  C   UNL A   1      40.688  19.737  26.076  1.00  0.00     0.274 C 
ENDROOT
BRANCH   1   2
ATOM      2  O   UNL A   1      42.030  19.991  25.616  1.00  0.00    -0.462 OA
BRANCH   2   3
ATOM      3  C   UNL A   1      42.863  18.923  25.494  1.00  0.00     0.311 C 
ATOM      4  O   UNL A   1      42.634  17.812  25.956  1.00  0.00    -0.252 OA
BRANCH   3   5
ATOM      5  C   UNL A   1      44.177  19.283  24.827  1.00  0.00     0.187 C 
BRANCH   5   6
ATOM      6  C   UNL A   1      44.862  20.626  25.187  1.00  0.00     0.190 C 
ATOM      7  C   UNL A   1      46.331  20.648  24.772  1.00  0.00     0.076 C 
BRANCH   6   8
ATOM      8  N   UNL A   1      44.033  21.734  24.709  1.00  0.00    -0.338 N 
ATOM      9  H   UNL A   1      43.069  21.401  24.745  1.00  0.00     0.347 HD
ATOM     10  H   UNL A   1      44.463  21.940  23.807  1.00  0.00     0.347 HD
BRANCH   8  11
ATOM     11  C   UNL A   1      44.029  23.058  25.345  1.00  0.00     0.210 C 
ATOM     12  C   UNL A   1      45.047  24.055  24.774  1.00  0.00     0.081 C 
BRANCH  11  13
ATOM     13  C   UNL A   1      43.951  23.118  26.869  1.00  0.00     0.009 A 
ATOM     14  C   UNL A   1      45.050  23.303  27.715  1.00  0.00     0.010 A 
ATOM     15  C   UNL A   1      42.690  22.956  27.478  1.00  0.00     0.010 A 
ATOM     16  C   UNL A   1      44.891  23.397  29.103  1.00  0.00     0.001 A 
ATOM     17  C   UNL A   1      42.528  23.030  28.862  1.00  0.00     0.001 A 
ATOM     18  C   UNL A   1      43.631  23.267  29.675  1.00  0.00     0.000 A 
ENDBRANCH  11  13
ENDBRANCH   8  11
ENDBRANCH   6   8
ENDBRANCH   5   6
ENDBRANCH   3   5
ENDBRANCH   2   3
ENDBRANCH   1   2
BRANCH   1  19
ATOM     19  C   UNL A   1      40.075  20.962  26.758  1.00  0.00     0.275 C 
BRANCH  19  20
ATOM     20  O   UNL A   1      39.787  22.000  25.805  1.00  0.00    -0.458 OA
BRANCH  20  21
ATOM     21  C   UNL A   1      38.751  22.799  26.145  1.00  0.00     0.338 C 
ATOM     22  O   UNL A   1      37.566  22.514  26.100  1.00  0.00    -0.246 OA
BRANCH  21  23
ATOM     23  C   UNL A   1      39.256  24.065  26.697  1.00  0.00     0.060 A 
ATOM     24  C   UNL A   1      39.979  24.913  25.856  1.00  0.00     0.016 A 
ATOM     25  C   UNL A   1      39.115  24.365  28.051  1.00  0.00     0.016 A 
ATOM     26  C   UNL A   1      40.606  26.043  26.370  1.00  0.00     0.010 A 
ATOM     27  C   UNL A   1      39.708  25.527  28.559  1.00  0.00     0.010 A 
ATOM     28  C   UNL A   1      40.471  26.363  27.726  1.00  0.00    -0.014 A 
BRANCH  28  29
ATOM     29  C   UNL A   1      41.129  27.583  28.252  1.00  0.00     0.031 A 
ATOM     30  C   UNL A   1      42.626  27.707  28.237  1.00  0.00     0.074 A 
ATOM     31  C   UNL A   1      40.369  28.592  28.718  1.00  0.00     0.049 A 
ATOM     32  N   UNL A   1      43.377  28.667  28.711  1.00  0.00    -0.248 NA
ATOM     33  C   UNL A   1      43.376  26.610  27.607  1.00  0.00     0.031 C 
ATOM     34  C   UNL A   1      38.904  28.599  28.748  1.00  0.00     0.029 A 
ATOM     35  N   UNL A   1      40.719  29.806  29.250  1.00  0.00    -0.354 N 
ATOM     36  C   UNL A   1      44.689  28.282  28.462  1.00  0.00     0.074 A 
ATOM     37  C   UNL A   1      44.630  26.995  27.801  1.00  0.00     0.031 C 
ATOM     38  C   UNL A   1      38.481  29.764  29.264  1.00  0.00     0.029 A 
ATOM     39  C   UNL A   1      39.642  30.564  29.642  1.00  0.00     0.049 A 
ATOM     40  H   UNL A   1      41.652  30.105  29.343  1.00  0.00     0.167 HD
ATOM     41  C   UNL A   1      45.833  28.944  28.755  1.00  0.00     0.037 A 
ATOM     42  C   UNL A   1      39.594  31.759  30.260  1.00  0.00     0.037 A 
ATOM     43  C   UNL A   1      45.882  30.235  29.395  1.00  0.00     0.049 A 
ATOM     44  C   UNL A   1      40.878  32.459  30.602  1.00  0.00     0.074 A 
ATOM     45  C   UNL A   1      46.994  30.990  29.729  1.00  0.00     0.029 A 
ATOM     46  N   UNL A   1      44.771  30.963  29.795  1.00  0.00    -0.354 N 
ATOM     47  N   UNL A   1      42.112  32.073  30.376  1.00  0.00    -0.248 NA
ATOM     48  C   UNL A   1      40.767  33.753  31.288  1.00  0.00     0.031 C 
ATOM     49  C   UNL A   1      46.555  32.161  30.358  1.00  0.00     0.029 A 
ATOM     50  C   UNL A   1      45.170  32.152  30.384  1.00  0.00     0.049 A 
ATOM     51  H   UNL A   1      43.837  30.676  29.678  1.00  0.00     0.167 HD
ATOM     52  C   UNL A   1      42.923  33.081  30.881  1.00  0.00     0.074 A 
ATOM     53  C   UNL A   1      42.039  34.102  31.411  1.00  0.00     0.031 C 
ATOM     54  C   UNL A   1      44.276  33.155  30.907  1.00  0.00     0.037 A 
BRANCH  41  55
ATOM     55  C   UNL A   1      47.132  28.271  28.410  1.00  0.00     0.058 A 
ATOM     56  C   UNL A   1      47.758  28.464  27.170  1.00  0.00     0.135 A 
ATOM     57  C   UNL A   1      47.771  27.442  29.346  1.00  0.00     0.135 A 
ATOM     58  F   UNL A   1      47.181  29.234  26.234  1.00  0.00    -0.206 F 
ATOM     59  C   UNL A   1      48.962  27.840  26.860  1.00  0.00     0.059 A 
ATOM     60  C   UNL A   1      48.985  26.824  29.065  1.00  0.00     0.059 A 
ATOM     61  F   UNL A   1      47.213  27.222  30.547  1.00  0.00    -0.206 F 
ATOM     62  C   UNL A   1      49.567  27.017  27.813  1.00  0.00     0.060 A 
BRANCH  62  63
ATOM     63  S   UNL A   1      51.127  26.208  27.399  1.00  0.00     0.124 S 
ATOM     64  O   UNL A   1      50.703  24.820  27.248  1.00  0.00    -0.237 OA
ATOM     65  O   UNL A   1      51.518  26.887  26.167  1.00  0.00    -0.237 OA
ATOM     66  O   UNL A   1      51.971  26.485  28.557  1.00  0.00    -0.744 OA
ENDBRANCH  62  63
ENDBRANCH  41  55
BRANCH  42  67
ATOM     67  C   UNL A   1      38.280  32.356  30.608  1.00  0.00     0.058 A 
ATOM     68  C   UNL A   1      37.673  32.097  31.844  1.00  0.00     0.135 A 
ATOM     69  C   UNL A   1      37.619  33.221  29.720  1.00  0.00     0.135 A 
ATOM     70  F   UNL A   1      38.264  31.270  32.721  1.00  0.00    -0.206 F 
ATOM     71  C   UNL A   1      36.452  32.667  32.188  1.00  0.00     0.059 A 
ATOM     72  C   UNL A   1      36.410  33.821  30.050  1.00  0.00     0.059 A 
ATOM     73  F   UNL A   1      38.168  33.510  28.530  1.00  0.00    -0.206 F 
ATOM     74  C   UNL A   1      35.829  33.530  31.285  1.00  0.00     0.060 A 
BRANCH  74  75
ATOM     75  S   UNL A   1      34.274  34.318  31.761  1.00  0.00     0.124 S 
ATOM     76  O   UNL A   1      33.623  34.484  30.467  1.00  0.00    -0.237 OA
ATOM     77  O   UNL A   1      33.683  33.324  32.652  1.00  0.00    -0.237 OA
ATOM     78  O   UNL A   1      34.712  35.548  32.412  1.00  0.00    -0.744 OA
ENDBRANCH  74  75
ENDBRANCH  42  67
BRANCH  54  79
ATOM     79  C   UNL A   1      44.880  34.391  31.509  1.00  0.00     0.058 A 
ATOM     80  C   UNL A   1      45.137  35.533  30.735  1.00  0.00     0.135 A 
ATOM     81  C   UNL A   1      45.186  34.441  32.878  1.00  0.00     0.135 A 
ATOM     82  F   UNL A   1      44.869  35.531  29.420  1.00  0.00    -0.206 F 
ATOM     83  C   UNL A   1      45.700  36.676  31.293  1.00  0.00     0.059 A 
ATOM     84  C   UNL A   1      45.731  35.580  33.462  1.00  0.00     0.059 A 
ATOM     85  F   UNL A   1      44.953  33.376  33.662  1.00  0.00    -0.206 F 
ATOM     86  C   UNL A   1      45.998  36.688  32.658  1.00  0.00     0.060 A 
BRANCH  86  87
ATOM     87  S   UNL A   1      46.713  38.180  33.379  1.00  0.00     0.124 S 
ATOM     88  O   UNL A   1      47.758  37.622  34.232  1.00  0.00    -0.237 OA
ATOM     89  O   UNL A   1      47.179  38.908  32.202  1.00  0.00    -0.237 OA
ATOM     90  O   UNL A   1      45.587  38.790  34.079  1.00  0.00    -0.744 OA
ENDBRANCH  86  87
ENDBRANCH  54  79
ENDBRANCH  28  29
ENDBRANCH  21  23
ENDBRANCH  20  21
ENDBRANCH  19  20
ENDBRANCH   1  19
TORSDOF 18
ENDMDL
MODEL 2
REMARK VINA RESULT:      -9.5      2.798     11.331
REMARK SMILES C[C@H](CC(=O)OCCOC(=O)c1ccc(-c2c3nc(c(-c4c(F)cc(S(=O)(=O)[O-])cc4F)c4ccc([nH]4)c(-c4c(F)cc(S(=O)(=O)[O-])cc4F)c4nc(c(-c5c(F)cc(S(=O)(=O)[O-])cc5F)c5ccc2[nH]5)C=C4)C=C3)cc1)[NH2+][C@H](C)c1ccccc1
REMARK SMILES IDX 7 1 6 2 4 3 5 4 3 5 2 6 1 7 78 8 79 11 80 12 81 13 82 14
REMARK SMILES IDX 86 15 83 16 85 17 84 18 8 19 9 20 10 21 11 22 12 23 13 24
REMARK SMILES IDX 77 25 14 26 76 27 15 28 16 29 17 30 70 31 18 32 75 33 69 34
REMARK SMILES IDX 71 35 19 36 74 37 68 38 67 39 20 41 54 42 33 43 53 44 34 45
REMARK SMILES IDX 37 46 52 47 72 48 35 49 36 50 51 52 73 53 38 54 21 55 22 56
REMARK SMILES IDX 31 57 23 58 24 59 30 60 32 61 25 62 26 63 27 64 28 65 29 66
REMARK SMILES IDX 55 67 56 68 65 69 57 70 58 71 64 72 66 73 59 74 60 75 61 76
REMARK SMILES IDX 62 77 63 78 39 79 40 80 49 81 41 82 42 83 48 84 50 85 43 86
REMARK SMILES IDX 44 87 45 88 46 89 47 90
REMARK H PARENT 78 9 78 10 71 40 37 51
REMARK Flexibility Score: inf
ROOT
ATOM      1  C   UNL A   1      33.071  33.617  27.839  1.00  0.00     0.274 C 
ENDROOT
BRANCH   1   2
ATOM      2  O   UNL A   1      32.765  34.063  29.176  1.00  0.00    -0.462 OA
BRANCH   2   3
ATOM      3  C   UNL A   1      32.957  35.379  29.457  1.00  0.00     0.311 C 
ATOM      4  O   UNL A   1      32.376  36.298  28.891  1.00  0.00    -0.252 OA
BRANCH   3   5
ATOM      5  C   UNL A   1      34.066  35.603  30.468  1.00  0.00     0.187 C 
BRANCH   5   6
ATOM      6  C   UNL A   1      34.112  34.722  31.742  1.00  0.00     0.190 C 
ATOM      7  C   UNL A   1      32.912  34.971  32.653  1.00  0.00     0.076 C 
BRANCH   6   8
ATOM      8  N   UNL A   1      34.362  33.331  31.358  1.00  0.00    -0.338 N 
ATOM      9  H   UNL A   1      34.118  33.264  30.369  1.00  0.00     0.347 HD
ATOM     10  H   UNL A   1      33.812  32.823  32.051  1.00  0.00     0.347 HD
BRANCH   8  11
ATOM     11  C   UNL A   1      35.677  32.691  31.496  1.00  0.00     0.210 C 
ATOM     12  C   UNL A   1      35.984  32.135  32.893  1.00  0.00     0.081 C 
BRANCH  11  13
ATOM     13  C   UNL A   1      36.882  33.392  30.873  1.00  0.00     0.009 A 
ATOM     14  C   UNL A   1      37.175  33.406  29.505  1.00  0.00     0.010 A 
ATOM     15  C   UNL A   1      37.780  34.058  31.732  1.00  0.00     0.010 A 
ATOM     16  C   UNL A   1      38.273  34.115  29.005  1.00  0.00     0.001 A 
ATOM     17  C   UNL A   1      38.888  34.750  31.240  1.00  0.00     0.001 A 
ATOM     18  C   UNL A   1      39.125  34.791  29.871  1.00  0.00     0.000 A 
ENDBRANCH  11  13
ENDBRANCH   8  11
ENDBRANCH   6   8
ENDBRANCH   5   6
ENDBRANCH   3   5
ENDBRANCH   2   3
ENDBRANCH   1   2
BRANCH   1  19
ATOM     19  C   UNL A   1      34.346  32.774  27.794  1.00  0.00     0.275 C 
BRANCH  19  20
ATOM     20  O   UNL A   1      34.249  31.634  28.667  1.00  0.00    -0.458 OA
BRANCH  20  21
ATOM     21  C   UNL A   1      34.442  30.444  28.055  1.00  0.00     0.338 C 
ATOM     22  O   UNL A   1      33.642  29.848  27.354  1.00  0.00    -0.246 OA
BRANCH  21  23
ATOM     23  C   UNL A   1      35.825  29.993  28.264  1.00  0.00     0.060 A 
ATOM     24  C   UNL A   1      36.206  29.592  29.546  1.00  0.00     0.016 A 
ATOM     25  C   UNL A   1      36.767  30.064  27.238  1.00  0.00     0.016 A 
ATOM     26  C   UNL A   1      37.537  29.306  29.826  1.00  0.00     0.010 A 
ATOM     27  C   UNL A   1      38.100  29.732  27.509  1.00  0.00     0.010 A 
ATOM     28  C   UNL A   1      38.495  29.367  28.807  1.00  0.00    -0.014 A 
BRANCH  28  29
ATOM     29  C   UNL A   1      39.907  29.037  29.119  1.00  0.00     0.031 A 
ATOM     30  C   UNL A   1      40.794  30.045  29.793  1.00  0.00     0.074 A 
ATOM     31  C   UNL A   1      40.379  27.812  28.817  1.00  0.00     0.049 A 
ATOM     32  N   UNL A   1      42.065  29.959  30.084  1.00  0.00    -0.248 NA
ATOM     33  C   UNL A   1      40.169  31.316  30.192  1.00  0.00     0.031 C 
ATOM     34  C   UNL A   1      39.600  26.739  28.194  1.00  0.00     0.029 A 
ATOM     35  N   UNL A   1      41.622  27.262  28.994  1.00  0.00    -0.354 N 
ATOM     36  C   UNL A   1      42.403  31.169  30.677  1.00  0.00     0.074 A 
ATOM     37  C   UNL A   1      41.202  31.978  30.695  1.00  0.00     0.031 C 
ATOM     38  C   UNL A   1      40.381  25.657  28.050  1.00  0.00     0.029 A 
ATOM     39  C   UNL A   1      41.724  25.975  28.526  1.00  0.00     0.049 A 
ATOM     40  H   UNL A   1      42.369  27.744  29.417  1.00  0.00     0.167 HD
ATOM     41  C   UNL A   1      43.604  31.566  31.162  1.00  0.00     0.037 A 
ATOM     42  C   UNL A   1      42.786  25.150  28.463  1.00  0.00     0.037 A 
ATOM     43  C   UNL A   1      44.791  30.748  31.157  1.00  0.00     0.049 A 
ATOM     44  C   UNL A   1      44.114  25.625  28.980  1.00  0.00     0.074 A 
ATOM     45  C   UNL A   1      46.054  31.059  31.632  1.00  0.00     0.029 A 
ATOM     46  N   UNL A   1      44.860  29.456  30.656  1.00  0.00    -0.354 N 
ATOM     47  N   UNL A   1      44.422  26.780  29.521  1.00  0.00    -0.248 NA
ATOM     48  C   UNL A   1      45.241  24.689  28.873  1.00  0.00     0.031 C 
ATOM     49  C   UNL A   1      46.894  29.965  31.390  1.00  0.00     0.029 A 
ATOM     50  C   UNL A   1      46.146  28.961  30.798  1.00  0.00     0.049 A 
ATOM     51  H   UNL A   1      44.106  28.965  30.258  1.00  0.00     0.167 HD
ATOM     52  C   UNL A   1      45.774  26.706  29.830  1.00  0.00     0.074 A 
ATOM     53  C   UNL A   1      46.222  25.386  29.429  1.00  0.00     0.031 C 
ATOM     54  C   UNL A   1      46.574  27.645  30.391  1.00  0.00     0.037 A 
BRANCH  41  55
ATOM     55  C   UNL A   1      43.702  32.960  31.715  1.00  0.00     0.058 A 
ATOM     56  C   UNL A   1      43.996  34.061  30.898  1.00  0.00     0.135 A 
ATOM     57  C   UNL A   1      43.471  33.198  33.080  1.00  0.00     0.135 A 
ATOM     58  F   UNL A   1      44.241  33.885  29.590  1.00  0.00    -0.206 F 
ATOM     59  C   UNL A   1      44.081  35.349  31.418  1.00  0.00     0.059 A 
ATOM     60  C   UNL A   1      43.532  34.480  33.617  1.00  0.00     0.059 A 
ATOM     61  F   UNL A   1      43.188  32.179  33.906  1.00  0.00    -0.206 F 
ATOM     62  C   UNL A   1      43.851  35.549  32.781  1.00  0.00     0.060 A 
BRANCH  62  63
ATOM     63  S   UNL A   1      43.969  37.223  33.446  1.00  0.00     0.124 S 
ATOM     64  O   UNL A   1      44.037  38.017  32.223  1.00  0.00    -0.237 OA
ATOM     65  O   UNL A   1      42.732  37.346  34.211  1.00  0.00    -0.237 OA
ATOM     66  O   UNL A   1      45.192  37.188  34.241  1.00  0.00    -0.744 OA
ENDBRANCH  62  63
ENDBRANCH  41  55
BRANCH  42  67
ATOM     67  C   UNL A   1      42.634  23.798  27.870  1.00  0.00     0.058 A 
ATOM     68  C   UNL A   1      42.455  22.668  28.680  1.00  0.00     0.135 A 
ATOM     69  C   UNL A   1      42.636  23.614  26.477  1.00  0.00     0.135 A 
ATOM     70  F   UNL A   1      42.453  22.795  30.016  1.00  0.00    -0.206 F 
ATOM     71  C   UNL A   1      42.290  21.401  28.133  1.00  0.00     0.059 A 
ATOM     72  C   UNL A   1      42.451  22.360  25.906  1.00  0.00     0.059 A 
ATOM     73  F   UNL A   1      42.791  24.668  25.660  1.00  0.00    -0.206 F 
ATOM     74  C   UNL A   1      42.288  21.257  26.744  1.00  0.00     0.060 A 
BRANCH  74  75
ATOM     75  S   UNL A   1      42.012  19.618  26.037  1.00  0.00     0.124 S 
ATOM     76  O   UNL A   1      40.582  19.656  25.760  1.00  0.00    -0.237 OA
ATOM     77  O   UNL A   1      42.890  19.631  24.870  1.00  0.00    -0.237 OA
ATOM     78  O   UNL A   1      42.426  18.720  27.110  1.00  0.00    -0.744 OA
ENDBRANCH  74  75
ENDBRANCH  42  67
BRANCH  54  79
ATOM     79  C   UNL A   1      48.009  27.269  30.624  1.00  0.00     0.058 A 
ATOM     80  C   UNL A   1      48.406  26.571  31.776  1.00  0.00     0.135 A 
ATOM     81  C   UNL A   1      48.993  27.590  29.677  1.00  0.00     0.135 A 
ATOM     82  F   UNL A   1      47.502  26.248  32.714  1.00  0.00    -0.206 F 
ATOM     83  C   UNL A   1      49.735  26.225  31.992  1.00  0.00     0.059 A 
ATOM     84  C   UNL A   1      50.326  27.237  29.863  1.00  0.00     0.059 A 
ATOM     85  F   UNL A   1      48.662  28.251  28.556  1.00  0.00    -0.206 F 
ATOM     86  C   UNL A   1      50.690  26.567  31.031  1.00  0.00     0.060 A 
BRANCH  86  87
ATOM     87  S   UNL A   1      52.411  26.102  31.310  1.00  0.00     0.124 S 
ATOM     88  O   UNL A   1      52.264  24.778  31.906  1.00  0.00    -0.237 OA
ATOM     89  O   UNL A   1      52.970  26.132  29.961  1.00  0.00    -0.237 OA
ATOM     90  O   UNL A   1      52.901  27.145  32.206  1.00  0.00    -0.744 OA
ENDBRANCH  86  87
ENDBRANCH  54  79
ENDBRANCH  28  29
ENDBRANCH  21  23
ENDBRANCH  20  21
ENDBRANCH  19  20
ENDBRANCH   1  19
TORSDOF 18
ENDMDL
MODEL 3
REMARK VINA RESULT:      -9.5      4.189     11.913
REMARK SMILES C[C@H](CC(=O)OCCOC(=O)c1ccc(-c2c3nc(c(-c4c(F)cc(S(=O)(=O)[O-])cc4F)c4ccc([nH]4)c(-c4c(F)cc(S(=O)(=O)[O-])cc4F)c4nc(c(-c5c(F)cc(S(=O)(=O)[O-])cc5F)c5ccc2[nH]5)C=C4)C=C3)cc1)[NH2+][C@H](C)c1ccccc1
REMARK SMILES IDX 7 1 6 2 4 3 5 4 3 5 2 6 1 7 78 8 79 11 80 12 81 13 82 14
REMARK SMILES IDX 86 15 83 16 85 17 84 18 8 19 9 20 10 21 11 22 12 23 13 24
REMARK SMILES IDX 77 25 14 26 76 27 15 28 16 29 17 30 70 31 18 32 75 33 69 34
REMARK SMILES IDX 71 35 19 36 74 37 68 38 67 39 20 41 54 42 33 43 53 44 34 45
REMARK SMILES IDX 37 46 52 47 72 48 35 49 36 50 51 52 73 53 38 54 21 55 22 56
REMARK SMILES IDX 31 57 23 58 24 59 30 60 32 61 25 62 26 63 27 64 28 65 29 66
REMARK SMILES IDX 55 67 56 68 65 69 57 70 58 71 64 72 66 73 59 74 60 75 61 76
REMARK SMILES IDX 62 77 63 78 39 79 40 80 49 81 41 82 42 83 48 84 50 85 43 86
REMARK SMILES IDX 44 87 45 88 46 89 47 90
REMARK H PARENT 78 9 78 10 71 40 37 51
REMARK Flexibility Score: inf
ROOT
ATOM      1  C   UNL A   1      33.007  33.918  28.011  1.00  0.00     0.274 C 
ENDROOT
BRANCH   1   2
ATOM      2  O   UNL A   1      33.153  34.411  29.357  1.00  0.00    -0.462 OA
BRANCH   2   3
ATOM      3  C   UNL A   1      32.874  35.723  29.579  1.00  0.00     0.311 C 
ATOM      4  O   UNL A   1      32.251  36.437  28.802  1.00  0.00    -0.252 OA
BRANCH   3   5
ATOM      5  C   UNL A   1      33.525  36.252  30.843  1.00  0.00     0.187 C 
BRANCH   5   6
ATOM      6  C   UNL A   1      33.186  35.585  32.200  1.00  0.00     0.190 C 
ATOM      7  C   UNL A   1      31.711  35.745  32.563  1.00  0.00     0.076 C 
BRANCH   6   8
ATOM      8  N   UNL A   1      33.716  34.220  32.213  1.00  0.00    -0.338 N 
ATOM      9  H   UNL A   1      33.687  33.897  31.245  1.00  0.00     0.347 HD
ATOM     10  H   UNL A   1      33.122  33.774  32.912  1.00  0.00     0.347 HD
BRANCH   8  11
ATOM     11  C   UNL A   1      35.059  33.891  32.710  1.00  0.00     0.210 C 
ATOM     12  C   UNL A   1      35.435  34.550  34.045  1.00  0.00     0.081 C 
BRANCH  11  13
ATOM     13  C   UNL A   1      36.214  33.905  31.711  1.00  0.00     0.009 A 
ATOM     14  C   UNL A   1      36.179  33.307  30.447  1.00  0.00     0.010 A 
ATOM     15  C   UNL A   1      37.412  34.544  32.089  1.00  0.00     0.010 A 
ATOM     16  C   UNL A   1      37.263  33.406  29.566  1.00  0.00     0.001 A 
ATOM     17  C   UNL A   1      38.503  34.629  31.223  1.00  0.00     0.001 A 
ATOM     18  C   UNL A   1      38.421  34.071  29.952  1.00  0.00     0.000 A 
ENDBRANCH  11  13
ENDBRANCH   8  11
ENDBRANCH   6   8
ENDBRANCH   5   6
ENDBRANCH   3   5
ENDBRANCH   2   3
ENDBRANCH   1   2
BRANCH   1  19
ATOM     19  C   UNL A   1      34.103  32.916  27.646  1.00  0.00     0.275 C 
BRANCH  19  20
ATOM     20  O   UNL A   1      33.853  31.629  28.238  1.00  0.00    -0.458 OA
BRANCH  20  21
ATOM     21  C   UNL A   1      34.339  30.584  27.531  1.00  0.00     0.338 C 
ATOM     22  O   UNL A   1      33.859  30.105  26.518  1.00  0.00    -0.246 OA
BRANCH  21  23
ATOM     23  C   UNL A   1      35.624  30.151  28.099  1.00  0.00     0.060 A 
ATOM     24  C   UNL A   1      35.633  29.618  29.389  1.00  0.00     0.016 A 
ATOM     25  C   UNL A   1      36.820  30.366  27.415  1.00  0.00     0.016 A 
ATOM     26  C   UNL A   1      36.837  29.339  30.025  1.00  0.00     0.010 A 
ATOM     27  C   UNL A   1      38.031  30.043  28.039  1.00  0.00     0.010 A 
ATOM     28  C   UNL A   1      38.048  29.543  29.353  1.00  0.00    -0.014 A 
BRANCH  28  29
ATOM     29  C   UNL A   1      39.322  29.220  30.039  1.00  0.00     0.031 A 
ATOM     30  C   UNL A   1      39.728  29.962  31.279  1.00  0.00     0.074 A 
ATOM     31  C   UNL A   1      40.099  28.232  29.553  1.00  0.00     0.049 A 
ATOM     32  N   UNL A   1      40.831  29.862  31.975  1.00  0.00    -0.248 NA
ATOM     33  C   UNL A   1      38.770  30.945  31.808  1.00  0.00     0.031 C 
ATOM     34  C   UNL A   1      39.789  27.418  28.375  1.00  0.00     0.029 A 
ATOM     35  N   UNL A   1      41.303  27.743  29.988  1.00  0.00    -0.354 N 
ATOM     36  C   UNL A   1      40.715  30.783  33.008  1.00  0.00     0.074 A 
ATOM     37  C   UNL A   1      39.435  31.441  32.842  1.00  0.00     0.031 C 
ATOM     38  C   UNL A   1      40.773  26.525  28.188  1.00  0.00     0.029 A 
ATOM     39  C   UNL A   1      41.803  26.735  29.201  1.00  0.00     0.049 A 
ATOM     40  H   UNL A   1      41.765  28.083  30.789  1.00  0.00     0.167 HD
ATOM     41  C   UNL A   1      41.594  31.053  34.003  1.00  0.00     0.037 A 
ATOM     42  C   UNL A   1      42.971  26.069  29.271  1.00  0.00     0.037 A 
ATOM     43  C   UNL A   1      42.857  30.380  34.172  1.00  0.00     0.049 A 
ATOM     44  C   UNL A   1      43.942  26.408  30.366  1.00  0.00     0.074 A 
ATOM     45  C   UNL A   1      43.815  30.578  35.153  1.00  0.00     0.029 A 
ATOM     46  N   UNL A   1      43.338  29.377  33.343  1.00  0.00    -0.354 N 
ATOM     47  N   UNL A   1      43.826  27.295  31.325  1.00  0.00    -0.248 NA
ATOM     48  C   UNL A   1      45.207  25.660  30.386  1.00  0.00     0.031 C 
ATOM     49  C   UNL A   1      44.887  29.715  34.898  1.00  0.00     0.029 A 
ATOM     50  C   UNL A   1      44.583  28.955  33.781  1.00  0.00     0.049 A 
ATOM     51  H   UNL A   1      42.864  29.019  32.558  1.00  0.00     0.167 HD
ATOM     52  C   UNL A   1      44.994  27.205  32.069  1.00  0.00     0.074 A 
ATOM     53  C   UNL A   1      45.799  26.165  31.458  1.00  0.00     0.031 C 
ATOM     54  C   UNL A   1      45.370  27.920  33.158  1.00  0.00     0.037 A 
BRANCH  41  55
ATOM     55  C   UNL A   1      41.231  32.141  34.973  1.00  0.00     0.058 A 
ATOM     56  C   UNL A   1      40.426  31.894  36.095  1.00  0.00     0.135 A 
ATOM     57  C   UNL A   1      41.720  33.445  34.790  1.00  0.00     0.135 A 
ATOM     58  F   UNL A   1      39.920  30.669  36.307  1.00  0.00    -0.206 F 
ATOM     59  C   UNL A   1      40.098  32.908  36.990  1.00  0.00     0.059 A 
ATOM     60  C   UNL A   1      41.421  34.469  35.683  1.00  0.00     0.059 A 
ATOM     61  F   UNL A   1      42.493  33.735  33.731  1.00  0.00    -0.206 F 
ATOM     62  C   UNL A   1      40.597  34.194  36.774  1.00  0.00     0.060 A 
BRANCH  62  63
ATOM     63  S   UNL A   1      40.162  35.503  37.940  1.00  0.00     0.124 S 
ATOM     64  O   UNL A   1      39.940  36.630  37.040  1.00  0.00    -0.237 OA
ATOM     65  O   UNL A   1      38.969  34.966  38.586  1.00  0.00    -0.237 OA
ATOM     66  O   UNL A   1      41.342  35.603  38.793  1.00  0.00    -0.744 OA
ENDBRANCH  62  63
ENDBRANCH  41  55
BRANCH  42  67
ATOM     67  C   UNL A   1      43.288  25.029  28.260  1.00  0.00     0.058 A 
ATOM     68  C   UNL A   1      42.945  23.687  28.470  1.00  0.00     0.135 A 
ATOM     69  C   UNL A   1      43.916  25.365  27.049  1.00  0.00     0.135 A 
ATOM     70  F   UNL A   1      42.350  23.319  29.616  1.00  0.00    -0.206 F 
ATOM     71  C   UNL A   1      43.218  22.709  27.521  1.00  0.00     0.059 A 
ATOM     72  C   UNL A   1      44.179  24.410  26.074  1.00  0.00     0.059 A 
ATOM     73  F   UNL A   1      44.251  26.640  26.796  1.00  0.00    -0.206 F 
ATOM     74  C   UNL A   1      43.834  23.082  26.324  1.00  0.00     0.060 A 
BRANCH  74  75
ATOM     75  S   UNL A   1      44.132  21.819  25.066  1.00  0.00     0.124 S 
ATOM     76  O   UNL A   1      43.896  22.567  23.839  1.00  0.00    -0.237 OA
ATOM     77  O   UNL A   1      45.517  21.440  25.328  1.00  0.00    -0.237 OA
ATOM     78  O   UNL A   1      43.141  20.795  25.384  1.00  0.00    -0.744 OA
ENDBRANCH  74  75
ENDBRANCH  42  67
BRANCH  54  79
ATOM     79  C   UNL A   1      46.700  27.584  33.769  1.00  0.00     0.058 A 
ATOM     80  C   UNL A   1      47.875  28.244  33.376  1.00  0.00     0.135 A 
ATOM     81  C   UNL A   1      46.798  26.607  34.772  1.00  0.00     0.135 A 
ATOM     82  F   UNL A   1      47.833  29.181  32.415  1.00  0.00    -0.206 F 
ATOM     83  C   UNL A   1      49.107  27.930  33.940  1.00  0.00     0.059 A 
ATOM     84  C   UNL A   1      48.017  26.290  35.364  1.00  0.00     0.059 A 
ATOM     85  F   UNL A   1      45.702  25.952  35.187  1.00  0.00    -0.206 F 
ATOM     86  C   UNL A   1      49.168  26.948  34.931  1.00  0.00     0.060 A 
BRANCH  86  87
ATOM     87  S   UNL A   1      50.767  26.556  35.671  1.00  0.00     0.124 S 
ATOM     88  O   UNL A   1      50.402  25.511  36.623  1.00  0.00    -0.237 OA
ATOM     89  O   UNL A   1      51.549  26.117  34.518  1.00  0.00    -0.237 OA
ATOM     90  O   UNL A   1      51.187  27.824  36.258  1.00  0.00    -0.744 OA
ENDBRANCH  86  87
ENDBRANCH  54  79
ENDBRANCH  28  29
ENDBRANCH  21  23
ENDBRANCH  20  21
ENDBRANCH  19  20
ENDBRANCH   1  19
TORSDOF 18
ENDMDL
