MODEL 1
REMARK VINA RESULT:     -10.5      0.000      0.000
REMARK SMILES O=C(C[C@@H]1C[N@@H+](CCSc2ccccc2F)CCO1)OCCOC(=O)c1ccc(-c2c3nc(c(-c4c(F)cc(S(=O)(=O)[O-])cc4F)c4ccc([nH]4)c(-c4c(F)cc(S(=O)(=O)[O-])cc4F)c4nc(c(-c5c(F)cc(S(=O)(=O)[O-])cc5F)c5ccc2[nH]5)C=C4)C=C3)cc1
REMARK SMILES IDX 21 1 20 2 2 3 1 4 3 5 4 6 5 7 19 8 6 9 18 10 17 11 7 13 8 14
REMARK SMILES IDX 9 15 10 16 11 17 15 18 12 19 14 20 16 21 13 22 22 23 23 24
REMARK SMILES IDX 24 25 25 26 26 27 27 28 91 29 28 30 90 31 29 32 30 33 31 34
REMARK SMILES IDX 84 35 32 36 89 37 83 38 85 39 33 40 88 41 82 42 81 43 34 45
REMARK SMILES IDX 68 46 47 47 67 48 48 49 51 50 66 51 86 52 49 53 50 54 65 56
REMARK SMILES IDX 87 57 52 58 35 59 36 60 45 61 37 62 38 63 44 64 46 65 39 66
REMARK SMILES IDX 40 67 41 68 42 69 43 70 69 71 70 72 79 73 71 74 72 75 78 76
REMARK SMILES IDX 80 77 73 78 74 79 75 80 76 81 77 82 53 83 54 84 63 85 55 86
REMARK SMILES IDX 56 87 62 88 64 89 57 90 58 91 59 92 60 93 61 94
REMARK H PARENT 6 12 85 44 51 55
REMARK Flexibility Score: inf
ROOT
ATOM      1  C   UNL A   1      39.269  22.009  26.176  1.00  0.00     0.274 C 
ENDROOT
BRANCH   1   2
ATOM      2  O   UNL A   1      38.023  22.584  25.746  1.00  0.00    -0.462 OA
BRANCH   2   3
ATOM      3  C   UNL A   1      37.205  21.782  25.020  1.00  0.00     0.308 C 
ATOM      4  O   UNL A   1      36.933  20.639  25.368  1.00  0.00    -0.252 OA
BRANCH   3   5
ATOM      5  C   UNL A   1      36.735  22.369  23.713  1.00  0.00     0.160 C 
BRANCH   5   6
ATOM      6  C   UNL A   1      35.647  23.406  23.941  1.00  0.00     0.184 C 
ATOM      7  C   UNL A   1      34.658  23.002  25.047  1.00  0.00     0.295 C 
ATOM      8  O   UNL A   1      34.933  23.528  22.695  1.00  0.00    -0.366 OA
ATOM      9  N   UNL A   1      33.546  23.955  25.197  1.00  0.00    -0.330 N 
ATOM     10  C   UNL A   1      33.904  24.512  22.783  1.00  0.00     0.222 C 
ATOM     11  C   UNL A   1      32.907  24.199  23.904  1.00  0.00     0.291 C 
ATOM     12  H   UNL A   1      32.848  23.497  25.783  1.00  0.00     0.348 HD
BRANCH   9  13
ATOM     13  C   UNL A   1      33.780  25.124  26.056  1.00  0.00     0.273 C 
BRANCH  13  14
ATOM     14  C   UNL A   1      32.886  26.392  26.023  1.00  0.00     0.136 C 
BRANCH  14  15
ATOM     15  S   UNL A   1      33.494  27.790  24.978  1.00  0.00    -0.117 SA
BRANCH  15  16
ATOM     16  C   UNL A   1      33.633  29.138  26.140  1.00  0.00     0.043 A 
ATOM     17  C   UNL A   1      34.797  29.328  26.898  1.00  0.00     0.018 A 
ATOM     18  C   UNL A   1      32.573  30.035  26.317  1.00  0.00     0.136 A 
ATOM     19  C   UNL A   1      34.924  30.446  27.735  1.00  0.00     0.001 A 
ATOM     20  C   UNL A   1      32.697  31.154  27.139  1.00  0.00     0.040 A 
ATOM     21  F   UNL A   1      31.426  29.875  25.640  1.00  0.00    -0.206 F 
ATOM     22  C   UNL A   1      33.882  31.370  27.838  1.00  0.00     0.003 A 
ENDBRANCH  15  16
ENDBRANCH  14  15
ENDBRANCH  13  14
ENDBRANCH   9  13
ENDBRANCH   5   6
ENDBRANCH   3   5
ENDBRANCH   2   3
ENDBRANCH   1   2
BRANCH   1  23
ATOM     23  C   UNL A   1      40.266  23.089  26.611  1.00  0.00     0.275 C 
BRANCH  23  24
ATOM     24  O   UNL A   1      39.718  24.405  26.453  1.00  0.00    -0.458 OA
BRANCH  24  25
ATOM     25  C   UNL A   1      40.642  25.392  26.325  1.00  0.00     0.338 C 
ATOM     26  O   UNL A   1      41.276  25.670  25.327  1.00  0.00    -0.246 OA
BRANCH  25  27
ATOM     27  C   UNL A   1      40.646  26.220  27.553  1.00  0.00     0.060 A 
ATOM     28  C   UNL A   1      39.655  25.956  28.507  1.00  0.00     0.016 A 
ATOM     29  C   UNL A   1      41.604  27.212  27.783  1.00  0.00     0.016 A 
ATOM     30  C   UNL A   1      39.615  26.687  29.691  1.00  0.00     0.010 A 
ATOM     31  C   UNL A   1      41.544  27.969  28.958  1.00  0.00     0.010 A 
ATOM     32  C   UNL A   1      40.533  27.724  29.902  1.00  0.00    -0.014 A 
BRANCH  32  33
ATOM     33  C   UNL A   1      40.261  28.692  30.987  1.00  0.00     0.031 A 
ATOM     34  C   UNL A   1      41.117  28.610  32.220  1.00  0.00     0.074 A 
ATOM     35  C   UNL A   1      39.334  29.657  30.862  1.00  0.00     0.049 A 
ATOM     36  N   UNL A   1      41.167  29.410  33.250  1.00  0.00    -0.248 NA
ATOM     37  C   UNL A   1      42.050  27.471  32.290  1.00  0.00     0.031 C 
ATOM     38  C   UNL A   1      38.461  29.850  29.705  1.00  0.00     0.029 A 
ATOM     39  N   UNL A   1      38.985  30.668  31.721  1.00  0.00    -0.354 N 
ATOM     40  C   UNL A   1      42.164  28.897  34.070  1.00  0.00     0.074 A 
ATOM     41  C   UNL A   1      42.653  27.687  33.448  1.00  0.00     0.031 C 
ATOM     42  C   UNL A   1      37.677  30.920  29.927  1.00  0.00     0.029 A 
ATOM     43  C   UNL A   1      37.991  31.485  31.240  1.00  0.00     0.049 A 
ATOM     44  H   UNL A   1      39.409  30.797  32.601  1.00  0.00     0.167 HD
ATOM     45  C   UNL A   1      42.644  29.399  35.231  1.00  0.00     0.037 A 
ATOM     46  C   UNL A   1      37.412  32.569  31.796  1.00  0.00     0.037 A 
ATOM     47  C   UNL A   1      42.120  30.571  35.876  1.00  0.00     0.049 A 
ATOM     48  C   UNL A   1      37.903  33.064  33.133  1.00  0.00     0.074 A 
ATOM     49  C   UNL A   1      42.507  31.140  37.074  1.00  0.00     0.029 A 
ATOM     50  N   UNL A   1      41.081  31.344  35.377  1.00  0.00    -0.354 N 
ATOM     51  N   UNL A   1      38.868  32.591  33.886  1.00  0.00    -0.248 NA
ATOM     52  C   UNL A   1      37.236  34.251  33.690  1.00  0.00     0.031 C 
ATOM     53  C   UNL A   1      41.674  32.237  37.322  1.00  0.00     0.029 A 
ATOM     54  C   UNL A   1      40.803  32.380  36.252  1.00  0.00     0.049 A 
ATOM     55  H   UNL A   1      40.612  31.181  34.528  1.00  0.00     0.167 HD
ATOM     56  C   UNL A   1      38.949  33.441  34.986  1.00  0.00     0.074 A 
ATOM     57  C   UNL A   1      37.932  34.456  34.801  1.00  0.00     0.031 C 
ATOM     58  C   UNL A   1      39.794  33.390  36.045  1.00  0.00     0.037 A 
BRANCH  45  59
ATOM     59  C   UNL A   1      43.779  28.657  35.873  1.00  0.00     0.058 A 
ATOM     60  C   UNL A   1      45.109  29.009  35.605  1.00  0.00     0.135 A 
ATOM     61  C   UNL A   1      43.545  27.605  36.774  1.00  0.00     0.135 A 
ATOM     62  F   UNL A   1      45.387  30.018  34.764  1.00  0.00    -0.206 F 
ATOM     63  C   UNL A   1      46.171  28.347  36.213  1.00  0.00     0.059 A 
ATOM     64  C   UNL A   1      44.590  26.945  37.412  1.00  0.00     0.059 A 
ATOM     65  F   UNL A   1      42.287  27.251  37.088  1.00  0.00    -0.206 F 
ATOM     66  C   UNL A   1      45.901  27.320  37.120  1.00  0.00     0.060 A 
BRANCH  66  67
ATOM     67  S   UNL A   1      47.286  26.527  37.963  1.00  0.00     0.124 S 
ATOM     68  O   UNL A   1      46.622  25.442  38.676  1.00  0.00    -0.237 OA
ATOM     69  O   UNL A   1      48.138  26.127  36.845  1.00  0.00    -0.237 OA
ATOM     70  O   UNL A   1      47.828  27.594  38.799  1.00  0.00    -0.744 OA
ENDBRANCH  66  67
ENDBRANCH  45  59
BRANCH  46  71
ATOM     71  C   UNL A   1      36.332  33.283  31.064  1.00  0.00     0.058 A 
ATOM     72  C   UNL A   1      36.616  34.067  29.936  1.00  0.00     0.135 A 
ATOM     73  C   UNL A   1      35.000  33.220  31.498  1.00  0.00     0.135 A 
ATOM     74  F   UNL A   1      37.875  34.160  29.480  1.00  0.00    -0.206 F 
ATOM     75  C   UNL A   1      35.622  34.785  29.280  1.00  0.00     0.059 A 
ATOM     76  C   UNL A   1      33.984  33.913  30.846  1.00  0.00     0.059 A 
ATOM     77  F   UNL A   1      34.677  32.470  32.564  1.00  0.00    -0.206 F 
ATOM     78  C   UNL A   1      34.309  34.708  29.747  1.00  0.00     0.060 A 
BRANCH  78  79
ATOM     79  S   UNL A   1      33.039  35.673  28.900  1.00  0.00     0.124 S 
ATOM     80  O   UNL A   1      33.850  36.632  28.155  1.00  0.00    -0.237 OA
ATOM     81  O   UNL A   1      32.363  34.657  28.101  1.00  0.00    -0.237 OA
ATOM     82  O   UNL A   1      32.254  36.233  29.995  1.00  0.00    -0.744 OA
ENDBRANCH  78  79
ENDBRANCH  46  71
BRANCH  58  83
ATOM     83  C   UNL A   1      39.699  34.479  37.078  1.00  0.00     0.058 A 
ATOM     84  C   UNL A   1      40.509  35.622  36.975  1.00  0.00     0.135 A 
ATOM     85  C   UNL A   1      38.886  34.351  38.215  1.00  0.00     0.135 A 
ATOM     86  F   UNL A   1      41.311  35.789  35.911  1.00  0.00    -0.206 F 
ATOM     87  C   UNL A   1      40.533  36.589  37.972  1.00  0.00     0.059 A 
ATOM     88  C   UNL A   1      38.876  35.320  39.214  1.00  0.00     0.059 A 
ATOM     89  F   UNL A   1      38.089  33.281  38.358  1.00  0.00    -0.206 F 
ATOM     90  C   UNL A   1      39.717  36.427  39.093  1.00  0.00     0.060 A 
BRANCH  90  91
ATOM     91  S   UNL A   1      39.757  37.695  40.378  1.00  0.00     0.124 S 
ATOM     92  O   UNL A   1      38.741  38.629  39.908  1.00  0.00    -0.237 OA
ATOM     93  O   UNL A   1      39.414  36.933  41.576  1.00  0.00    -0.237 OA
ATOM     94  O   UNL A   1      41.132  38.183  40.328  1.00  0.00    -0.744 OA
ENDBRANCH  90  91
ENDBRANCH  58  83
ENDBRANCH  32  33
ENDBRANCH  25  27
ENDBRANCH  24  25
ENDBRANCH  23  24
ENDBRANCH   1  23
TORSDOF 19
ENDMDL
MODEL 2
REMARK VINA RESULT:     -10.2      0.859      1.706
REMARK SMILES O=C(C[C@@H]1C[N@@H+](CCSc2ccccc2F)CCO1)OCCOC(=O)c1ccc(-c2c3nc(c(-c4c(F)cc(S(=O)(=O)[O-])cc4F)c4ccc([nH]4)c(-c4c(F)cc(S(=O)(=O)[O-])cc4F)c4nc(c(-c5c(F)cc(S(=O)(=O)[O-])cc5F)c5ccc2[nH]5)C=C4)C=C3)cc1
REMARK SMILES IDX 21 1 20 2 2 3 1 4 3 5 4 6 5 7 19 8 6 9 18 10 17 11 7 13 8 14
REMARK SMILES IDX 9 15 10 16 11 17 15 18 12 19 14 20 16 21 13 22 22 23 23 24
REMARK SMILES IDX 24 25 25 26 26 27 27 28 91 29 28 30 90 31 29 32 30 33 31 34
REMARK SMILES IDX 84 35 32 36 89 37 83 38 85 39 33 40 88 41 82 42 81 43 34 45
REMARK SMILES IDX 68 46 47 47 67 48 48 49 51 50 66 51 86 52 49 53 50 54 65 56
REMARK SMILES IDX 87 57 52 58 35 59 36 60 45 61 37 62 38 63 44 64 46 65 39 66
REMARK SMILES IDX 40 67 41 68 42 69 43 70 69 71 70 72 79 73 71 74 72 75 78 76
REMARK SMILES IDX 80 77 73 78 74 79 75 80 76 81 77 82 53 83 54 84 63 85 55 86
REMARK SMILES IDX 56 87 62 88 64 89 57 90 58 91 59 92 60 93 61 94
REMARK H PARENT 6 12 85 44 51 55
REMARK Flexibility Score: inf
ROOT
ATOM      1  C   UNL A   1      39.108  21.991  26.097  1.00  0.00     0.274 C 
ENDROOT
BRANCH   1   2
ATOM      2  O   UNL A   1      37.766  22.503  26.157  1.00  0.00    -0.462 OA
BRANCH   2   3
ATOM      3  C   UNL A   1      36.935  22.141  25.148  1.00  0.00     0.308 C 
ATOM      4  O   UNL A   1      37.093  22.532  23.998  1.00  0.00    -0.252 OA
BRANCH   3   5
ATOM      5  C   UNL A   1      35.756  21.298  25.566  1.00  0.00     0.160 C 
BRANCH   5   6
ATOM      6  C   UNL A   1      34.448  22.036  25.328  1.00  0.00     0.184 C 
ATOM      7  C   UNL A   1      33.653  22.277  26.622  1.00  0.00     0.295 C 
ATOM      8  O   UNL A   1      33.667  21.206  24.446  1.00  0.00    -0.366 OA
ATOM      9  N   UNL A   1      32.339  22.898  26.380  1.00  0.00    -0.330 N 
ATOM     10  C   UNL A   1      32.424  21.824  24.120  1.00  0.00     0.222 C 
ATOM     11  C   UNL A   1      31.598  22.142  25.372  1.00  0.00     0.291 C 
ATOM     12  H   UNL A   1      31.814  22.813  27.250  1.00  0.00     0.348 HD
BRANCH   9  13
ATOM     13  C   UNL A   1      32.303  24.363  26.275  1.00  0.00     0.273 C 
BRANCH  13  14
ATOM     14  C   UNL A   1      31.761  25.108  25.027  1.00  0.00     0.136 C 
BRANCH  14  15
ATOM     15  S   UNL A   1      32.898  26.350  24.263  1.00  0.00    -0.117 SA
BRANCH  15  16
ATOM     16  C   UNL A   1      32.932  27.669  25.465  1.00  0.00     0.043 A 
ATOM     17  C   UNL A   1      34.023  27.840  26.328  1.00  0.00     0.018 A 
ATOM     18  C   UNL A   1      31.857  28.561  25.571  1.00  0.00     0.136 A 
ATOM     19  C   UNL A   1      34.073  28.937  27.200  1.00  0.00     0.001 A 
ATOM     20  C   UNL A   1      31.905  29.659  26.428  1.00  0.00     0.040 A 
ATOM     21  F   UNL A   1      30.775  28.416  24.791  1.00  0.00    -0.206 F 
ATOM     22  C   UNL A   1      33.024  29.858  27.234  1.00  0.00     0.003 A 
ENDBRANCH  15  16
ENDBRANCH  14  15
ENDBRANCH  13  14
ENDBRANCH   9  13
ENDBRANCH   5   6
ENDBRANCH   3   5
ENDBRANCH   2   3
ENDBRANCH   1   2
BRANCH   1  23
ATOM     23  C   UNL A   1      40.131  23.040  26.550  1.00  0.00     0.275 C 
BRANCH  23  24
ATOM     24  O   UNL A   1      39.607  24.370  26.435  1.00  0.00    -0.458 OA
BRANCH  24  25
ATOM     25  C   UNL A   1      40.547  25.341  26.303  1.00  0.00     0.338 C 
ATOM     26  O   UNL A   1      41.175  25.614  25.301  1.00  0.00    -0.246 OA
BRANCH  25  27
ATOM     27  C   UNL A   1      40.579  26.160  27.537  1.00  0.00     0.060 A 
ATOM     28  C   UNL A   1      39.578  25.925  28.488  1.00  0.00     0.016 A 
ATOM     29  C   UNL A   1      41.572  27.115  27.775  1.00  0.00     0.016 A 
ATOM     30  C   UNL A   1      39.563  26.649  29.677  1.00  0.00     0.010 A 
ATOM     31  C   UNL A   1      41.538  27.866  28.954  1.00  0.00     0.010 A 
ATOM     32  C   UNL A   1      40.518  27.651  29.896  1.00  0.00    -0.014 A 
BRANCH  32  33
ATOM     33  C   UNL A   1      40.280  28.621  30.987  1.00  0.00     0.031 A 
ATOM     34  C   UNL A   1      41.154  28.521  32.207  1.00  0.00     0.074 A 
ATOM     35  C   UNL A   1      39.367  29.601  30.879  1.00  0.00     0.049 A 
ATOM     36  N   UNL A   1      41.235  29.318  33.236  1.00  0.00    -0.248 NA
ATOM     37  C   UNL A   1      42.069  27.367  32.259  1.00  0.00     0.031 C 
ATOM     38  C   UNL A   1      38.479  29.811  29.737  1.00  0.00     0.029 A 
ATOM     39  N   UNL A   1      39.050  30.616  31.746  1.00  0.00    -0.354 N 
ATOM     40  C   UNL A   1      42.235  28.787  34.040  1.00  0.00     0.074 A 
ATOM     41  C   UNL A   1      42.694  27.570  33.407  1.00  0.00     0.031 C 
ATOM     42  C   UNL A   1      37.717  30.895  29.974  1.00  0.00     0.029 A 
ATOM     43  C   UNL A   1      38.062  31.451  31.283  1.00  0.00     0.049 A 
ATOM     44  H   UNL A   1      39.490  30.736  32.619  1.00  0.00     0.167 HD
ATOM     45  C   UNL A   1      42.743  29.278  35.193  1.00  0.00     0.037 A 
ATOM     46  C   UNL A   1      37.510  32.543  31.850  1.00  0.00     0.037 A 
ATOM     47  C   UNL A   1      42.249  30.456  35.849  1.00  0.00     0.049 A 
ATOM     48  C   UNL A   1      38.030  33.027  33.181  1.00  0.00     0.074 A 
ATOM     49  C   UNL A   1      42.665  31.016  37.043  1.00  0.00     0.029 A 
ATOM     50  N   UNL A   1      41.216  31.248  35.369  1.00  0.00    -0.354 N 
ATOM     51  N   UNL A   1      38.999  32.536  33.917  1.00  0.00    -0.248 NA
ATOM     52  C   UNL A   1      37.393  34.224  33.751  1.00  0.00     0.031 C 
ATOM     53  C   UNL A   1      41.854  32.126  37.307  1.00  0.00     0.029 A 
ATOM     54  C   UNL A   1      40.968  32.286  36.251  1.00  0.00     0.049 A 
ATOM     55  H   UNL A   1      40.730  31.094  34.527  1.00  0.00     0.167 HD
ATOM     56  C   UNL A   1      39.112  33.382  35.017  1.00  0.00     0.074 A 
ATOM     57  C   UNL A   1      38.110  34.414  34.851  1.00  0.00     0.031 C 
ATOM     58  C   UNL A   1      39.974  33.314  36.062  1.00  0.00     0.037 A 
BRANCH  45  59
ATOM     59  C   UNL A   1      43.876  28.515  35.815  1.00  0.00     0.058 A 
ATOM     60  C   UNL A   1      43.628  27.456  36.700  1.00  0.00     0.135 A 
ATOM     61  C   UNL A   1      45.213  28.821  35.513  1.00  0.00     0.135 A 
ATOM     62  F   UNL A   1      42.367  27.112  37.008  1.00  0.00    -0.206 F 
ATOM     63  C   UNL A   1      44.667  26.723  37.263  1.00  0.00     0.059 A 
ATOM     64  C   UNL A   1      46.268  28.087  36.046  1.00  0.00     0.059 A 
ATOM     65  F   UNL A   1      45.502  29.806  34.646  1.00  0.00    -0.206 F 
ATOM     66  C   UNL A   1      45.984  27.042  36.925  1.00  0.00     0.060 A 
BRANCH  66  67
ATOM     67  S   UNL A   1      47.317  26.029  37.599  1.00  0.00     0.124 S 
ATOM     68  O   UNL A   1      46.607  24.812  37.976  1.00  0.00    -0.237 OA
ATOM     69  O   UNL A   1      48.221  25.912  36.458  1.00  0.00    -0.237 OA
ATOM     70  O   UNL A   1      47.824  26.832  38.707  1.00  0.00    -0.744 OA
ENDBRANCH  66  67
ENDBRANCH  45  59
BRANCH  46  71
ATOM     71  C   UNL A   1      36.431  33.276  31.138  1.00  0.00     0.058 A 
ATOM     72  C   UNL A   1      36.713  34.080  30.023  1.00  0.00     0.135 A 
ATOM     73  C   UNL A   1      35.100  33.213  31.577  1.00  0.00     0.135 A 
ATOM     74  F   UNL A   1      37.970  34.175  29.563  1.00  0.00    -0.206 F 
ATOM     75  C   UNL A   1      35.720  34.816  29.386  1.00  0.00     0.059 A 
ATOM     76  C   UNL A   1      34.085  33.924  30.944  1.00  0.00     0.059 A 
ATOM     77  F   UNL A   1      34.778  32.445  32.630  1.00  0.00    -0.206 F 
ATOM     78  C   UNL A   1      34.409  34.738  29.859  1.00  0.00     0.060 A 
BRANCH  78  79
ATOM     79  S   UNL A   1      33.141  35.726  29.036  1.00  0.00     0.124 S 
ATOM     80  O   UNL A   1      32.385  34.698  28.327  1.00  0.00    -0.237 OA
ATOM     81  O   UNL A   1      32.459  36.351  30.164  1.00  0.00    -0.237 OA
ATOM     82  O   UNL A   1      33.913  36.632  28.192  1.00  0.00    -0.744 OA
ENDBRANCH  78  79
ENDBRANCH  46  71
BRANCH  58  83
ATOM     83  C   UNL A   1      39.913  34.402  37.099  1.00  0.00     0.058 A 
ATOM     84  C   UNL A   1      39.040  34.285  38.193  1.00  0.00     0.135 A 
ATOM     85  C   UNL A   1      40.638  35.595  36.962  1.00  0.00     0.135 A 
ATOM     86  F   UNL A   1      38.318  33.166  38.366  1.00  0.00    -0.206 F 
ATOM     87  C   UNL A   1      38.871  35.321  39.104  1.00  0.00     0.059 A 
ATOM     88  C   UNL A   1      40.503  36.636  37.877  1.00  0.00     0.059 A 
ATOM     89  F   UNL A   1      41.490  35.754  35.938  1.00  0.00    -0.206 F 
ATOM     90  C   UNL A   1      39.603  36.497  38.934  1.00  0.00     0.060 A 
BRANCH  90  91
ATOM     91  S   UNL A   1      39.375  37.833  40.128  1.00  0.00     0.124 S 
ATOM     92  O   UNL A   1      40.643  38.547  40.022  1.00  0.00    -0.237 OA
ATOM     93  O   UNL A   1      38.207  38.529  39.595  1.00  0.00    -0.237 OA
ATOM     94  O   UNL A   1      39.155  37.126  41.386  1.00  0.00    -0.744 OA
ENDBRANCH  90  91
ENDBRANCH  58  83
ENDBRANCH  32  33
ENDBRANCH  25  27
ENDBRANCH  24  25
ENDBRANCH  23  24
ENDBRANCH   1  23
TORSDOF 19
ENDMDL
MODEL 3
REMARK VINA RESULT:     -10.2      2.231      4.131
REMARK SMILES O=C(C[C@@H]1C[N@@H+](CCSc2ccccc2F)CCO1)OCCOC(=O)c1ccc(-c2c3nc(c(-c4c(F)cc(S(=O)(=O)[O-])cc4F)c4ccc([nH]4)c(-c4c(F)cc(S(=O)(=O)[O-])cc4F)c4nc(c(-c5c(F)cc(S(=O)(=O)[O-])cc5F)c5ccc2[nH]5)C=C4)C=C3)cc1
REMARK SMILES IDX 21 1 20 2 2 3 1 4 3 5 4 6 5 7 19 8 6 9 18 10 17 11 7 13 8 14
REMARK SMILES IDX 9 15 10 16 11 17 15 18 12 19 14 20 16 21 13 22 22 23 23 24
REMARK SMILES IDX 24 25 25 26 26 27 27 28 91 29 28 30 90 31 29 32 30 33 31 34
REMARK SMILES IDX 84 35 32 36 89 37 83 38 85 39 33 40 88 41 82 42 81 43 34 45
REMARK SMILES IDX 68 46 47 47 67 48 48 49 51 50 66 51 86 52 49 53 50 54 65 56
REMARK SMILES IDX 87 57 52 58 35 59 36 60 45 61 37 62 38 63 44 64 46 65 39 66
REMARK SMILES IDX 40 67 41 68 42 69 43 70 69 71 70 72 79 73 71 74 72 75 78 76
REMARK SMILES IDX 80 77 73 78 74 79 75 80 76 81 77 82 53 83 54 84 63 85 55 86
REMARK SMILES IDX 56 87 62 88 64 89 57 90 58 91 59 92 60 93 61 94
REMARK H PARENT 6 12 85 44 51 55
REMARK Flexibility Score: inf
ROOT
ATOM      1  C   UNL A   1      39.504  21.961  26.266  1.00  0.00     0.274 C 
ENDROOT
BRANCH   1   2
ATOM      2  O   UNL A   1      38.144  22.429  26.271  1.00  0.00    -0.462 OA
BRANCH   2   3
ATOM      3  C   UNL A   1      37.464  22.320  25.103  1.00  0.00     0.308 C 
ATOM      4  O   UNL A   1      37.408  21.270  24.473  1.00  0.00    -0.252 OA
BRANCH   3   5
ATOM      5  C   UNL A   1      36.862  23.606  24.594  1.00  0.00     0.160 C 
BRANCH   5   6
ATOM      6  C   UNL A   1      35.374  23.668  24.897  1.00  0.00     0.184 C 
ATOM      7  C   UNL A   1      34.500  23.390  23.662  1.00  0.00     0.295 C 
ATOM      8  O   UNL A   1      35.109  25.005  25.366  1.00  0.00    -0.366 OA
ATOM      9  N   UNL A   1      33.061  23.553  23.931  1.00  0.00    -0.330 N 
ATOM     10  C   UNL A   1      33.737  25.167  25.721  1.00  0.00     0.222 C 
ATOM     11  C   UNL A   1      32.803  24.853  24.547  1.00  0.00     0.291 C 
ATOM     12  H   UNL A   1      32.596  23.564  23.023  1.00  0.00     0.348 HD
BRANCH   9  13
ATOM     13  C   UNL A   1      32.352  22.396  24.494  1.00  0.00     0.273 C 
BRANCH  13  14
ATOM     14  C   UNL A   1      32.622  20.936  24.044  1.00  0.00     0.136 C 
BRANCH  14  15
ATOM     15  S   UNL A   1      34.138  20.137  24.737  1.00  0.00    -0.117 SA
BRANCH  15  16
ATOM     16  C   UNL A   1      33.745  18.396  24.681  1.00  0.00     0.043 A 
ATOM     17  C   UNL A   1      34.192  17.582  23.632  1.00  0.00     0.018 A 
ATOM     18  C   UNL A   1      32.974  17.810  25.693  1.00  0.00     0.136 A 
ATOM     19  C   UNL A   1      33.954  16.200  23.655  1.00  0.00     0.001 A 
ATOM     20  C   UNL A   1      32.743  16.436  25.726  1.00  0.00     0.040 A 
ATOM     21  F   UNL A   1      32.494  18.556  26.700  1.00  0.00    -0.206 F 
ATOM     22  C   UNL A   1      33.248  15.625  24.713  1.00  0.00     0.003 A 
ENDBRANCH  15  16
ENDBRANCH  14  15
ENDBRANCH  13  14
ENDBRANCH   9  13
ENDBRANCH   5   6
ENDBRANCH   3   5
ENDBRANCH   2   3
ENDBRANCH   1   2
BRANCH   1  23
ATOM     23  C   UNL A   1      40.495  23.112  26.479  1.00  0.00     0.275 C 
BRANCH  23  24
ATOM     24  O   UNL A   1      39.833  24.385  26.469  1.00  0.00    -0.458 OA
BRANCH  24  25
ATOM     25  C   UNL A   1      40.655  25.451  26.288  1.00  0.00     0.338 C 
ATOM     26  O   UNL A   1      41.185  25.792  25.251  1.00  0.00    -0.246 OA
BRANCH  25  27
ATOM     27  C   UNL A   1      40.677  26.265  27.525  1.00  0.00     0.060 A 
ATOM     28  C   UNL A   1      39.665  26.032  28.465  1.00  0.00     0.016 A 
ATOM     29  C   UNL A   1      41.673  27.214  27.778  1.00  0.00     0.016 A 
ATOM     30  C   UNL A   1      39.641  26.751  29.656  1.00  0.00     0.010 A 
ATOM     31  C   UNL A   1      41.630  27.960  28.960  1.00  0.00     0.010 A 
ATOM     32  C   UNL A   1      40.599  27.747  29.889  1.00  0.00    -0.014 A 
BRANCH  32  33
ATOM     33  C   UNL A   1      40.354  28.714  30.982  1.00  0.00     0.031 A 
ATOM     34  C   UNL A   1      41.242  28.631  32.193  1.00  0.00     0.074 A 
ATOM     35  C   UNL A   1      39.423  29.678  30.882  1.00  0.00     0.049 A 
ATOM     36  N   UNL A   1      41.318  29.431  33.221  1.00  0.00    -0.248 NA
ATOM     37  C   UNL A   1      42.178  27.494  32.237  1.00  0.00     0.031 C 
ATOM     38  C   UNL A   1      38.520  29.870  29.749  1.00  0.00     0.029 A 
ATOM     39  N   UNL A   1      39.096  30.688  31.751  1.00  0.00    -0.354 N 
ATOM     40  C   UNL A   1      42.336  28.919  34.015  1.00  0.00     0.074 A 
ATOM     41  C   UNL A   1      42.811  27.710  33.380  1.00  0.00     0.031 C 
ATOM     42  C   UNL A   1      37.741  30.940  29.992  1.00  0.00     0.029 A 
ATOM     43  C   UNL A   1      38.089  31.504  31.296  1.00  0.00     0.049 A 
ATOM     44  H   UNL A   1      39.542  30.817  32.619  1.00  0.00     0.167 HD
ATOM     45  C   UNL A   1      42.846  29.420  35.163  1.00  0.00     0.037 A 
ATOM     46  C   UNL A   1      37.523  32.586  31.868  1.00  0.00     0.037 A 
ATOM     47  C   UNL A   1      42.338  30.591  35.823  1.00  0.00     0.049 A 
ATOM     48  C   UNL A   1      38.048  33.081  33.193  1.00  0.00     0.074 A 
ATOM     49  C   UNL A   1      42.755  31.159  37.011  1.00  0.00     0.029 A 
ATOM     50  N   UNL A   1      41.286  31.363  35.352  1.00  0.00    -0.354 N 
ATOM     51  N   UNL A   1      39.032  32.609  33.920  1.00  0.00    -0.248 NA
ATOM     52  C   UNL A   1      37.394  34.267  33.768  1.00  0.00     0.031 C 
ATOM     53  C   UNL A   1      41.927  32.255  37.282  1.00  0.00     0.029 A 
ATOM     54  C   UNL A   1      41.029  32.398  36.235  1.00  0.00     0.049 A 
ATOM     55  H   UNL A   1      40.795  31.200  34.515  1.00  0.00     0.167 HD
ATOM     56  C   UNL A   1      39.141  33.458  35.018  1.00  0.00     0.074 A 
ATOM     57  C   UNL A   1      38.119  34.472  34.861  1.00  0.00     0.031 C 
ATOM     58  C   UNL A   1      40.014  33.407  36.054  1.00  0.00     0.037 A 
BRANCH  45  59
ATOM     59  C   UNL A   1      43.999  28.678  35.775  1.00  0.00     0.058 A 
ATOM     60  C   UNL A   1      43.778  27.601  36.644  1.00  0.00     0.135 A 
ATOM     61  C   UNL A   1      45.328  29.025  35.478  1.00  0.00     0.135 A 
ATOM     62  F   UNL A   1      42.527  27.219  36.946  1.00  0.00    -0.206 F 
ATOM     63  C   UNL A   1      44.837  26.888  37.197  1.00  0.00     0.059 A 
ATOM     64  C   UNL A   1      46.401  28.311  36.001  1.00  0.00     0.059 A 
ATOM     65  F   UNL A   1      45.591  30.029  34.626  1.00  0.00    -0.206 F 
ATOM     66  C   UNL A   1      46.145  27.247  36.865  1.00  0.00     0.060 A 
BRANCH  66  67
ATOM     67  S   UNL A   1      47.504  26.259  37.525  1.00  0.00     0.124 S 
ATOM     68  O   UNL A   1      47.879  27.020  38.711  1.00  0.00    -0.237 OA
ATOM     69  O   UNL A   1      46.858  24.972  37.771  1.00  0.00    -0.237 OA
ATOM     70  O   UNL A   1      48.480  26.260  36.440  1.00  0.00    -0.744 OA
ENDBRANCH  66  67
ENDBRANCH  45  59
BRANCH  46  71
ATOM     71  C   UNL A   1      36.424  33.300  31.166  1.00  0.00     0.058 A 
ATOM     72  C   UNL A   1      36.679  34.093  30.036  1.00  0.00     0.135 A 
ATOM     73  C   UNL A   1      35.102  33.227  31.629  1.00  0.00     0.135 A 
ATOM     74  F   UNL A   1      37.926  34.195  29.553  1.00  0.00    -0.206 F 
ATOM     75  C   UNL A   1      35.666  34.810  29.407  1.00  0.00     0.059 A 
ATOM     76  C   UNL A   1      34.068  33.920  31.004  1.00  0.00     0.059 A 
ATOM     77  F   UNL A   1      34.806  32.469  32.696  1.00  0.00    -0.206 F 
ATOM     78  C   UNL A   1      34.365  34.724  29.903  1.00  0.00     0.060 A 
BRANCH  78  79
ATOM     79  S   UNL A   1      33.072  35.688  29.091  1.00  0.00     0.124 S 
ATOM     80  O   UNL A   1      32.427  34.673  28.264  1.00  0.00    -0.237 OA
ATOM     81  O   UNL A   1      32.293  36.173  30.225  1.00  0.00    -0.237 OA
ATOM     82  O   UNL A   1      33.818  36.709  28.363  1.00  0.00    -0.744 OA
ENDBRANCH  78  79
ENDBRANCH  46  71
BRANCH  58  83
ATOM     83  C   UNL A   1      39.944  34.495  37.091  1.00  0.00     0.058 A 
ATOM     84  C   UNL A   1      39.044  34.389  38.165  1.00  0.00     0.135 A 
ATOM     85  C   UNL A   1      40.687  35.679  36.972  1.00  0.00     0.135 A 
ATOM     86  F   UNL A   1      38.303  33.280  38.319  1.00  0.00    -0.206 F 
ATOM     87  C   UNL A   1      38.868  35.427  39.072  1.00  0.00     0.059 A 
ATOM     88  C   UNL A   1      40.545  36.721  37.884  1.00  0.00     0.059 A 
ATOM     89  F   UNL A   1      41.565  35.827  35.967  1.00  0.00    -0.206 F 
ATOM     90  C   UNL A   1      39.620  36.594  38.920  1.00  0.00     0.060 A 
BRANCH  90  91
ATOM     91  S   UNL A   1      39.382  37.931  40.109  1.00  0.00     0.124 S 
ATOM     92  O   UNL A   1      38.133  38.525  39.646  1.00  0.00    -0.237 OA
ATOM     93  O   UNL A   1      39.311  37.210  41.377  1.00  0.00    -0.237 OA
ATOM     94  O   UNL A   1      40.574  38.756  39.932  1.00  0.00    -0.744 OA
ENDBRANCH  90  91
ENDBRANCH  58  83
ENDBRANCH  32  33
ENDBRANCH  25  27
ENDBRANCH  24  25
ENDBRANCH  23  24
ENDBRANCH   1  23
TORSDOF 19
ENDMDL
