MODEL 1
REMARK VINA RESULT:     -11.4      0.000      0.000
REMARK SMILES CCc1noc(C[N@@H+]2CC[C@H](Cc3cccc(C(=O)OCCOC(=O)c4ccc(-c5c6nc(c(-c7c(F)cc(S(=O)(=O)[O-])cc7F)c7ccc([nH]7)c(-c7c(F)cc(S(=O)(=O)[O-])cc7F)c7nc(c(-c8c(F)cc(S(=O)(=O)[O-])cc8F)c8ccc5[nH]8)C=C7)C=C6)cc4)c3)C2)n1
REMARK SMILES IDX 21 1 20 2 18 3 19 4 17 5 13 6 14 7 92 8 15 9 16 10 12 11
REMARK SMILES IDX 11 12 8 13 9 14 93 15 10 17 7 18 6 19 3 20 4 21 94 22 5 23
REMARK SMILES IDX 2 24 1 25 22 26 23 27 24 28 25 29 26 30 27 31 91 32 28 33
REMARK SMILES IDX 90 34 29 35 30 36 31 37 84 38 32 39 89 40 83 41 85 42 33 43
REMARK SMILES IDX 88 44 82 45 81 46 34 48 68 49 47 50 67 51 48 52 51 53 66 54
REMARK SMILES IDX 86 55 49 56 50 57 65 59 87 60 52 61 35 62 36 63 45 64 37 65
REMARK SMILES IDX 38 66 44 67 46 68 39 69 40 70 41 71 42 72 43 73 69 74 70 75
REMARK SMILES IDX 79 76 71 77 72 78 78 79 80 80 73 81 74 82 75 83 76 84 77 85
REMARK SMILES IDX 53 86 54 87 63 88 55 89 56 90 62 91 64 92 57 93 58 94 59 95
REMARK SMILES IDX 60 96 61 97
REMARK H PARENT 8 16 85 47 51 58
REMARK Flexibility Score: inf
ROOT
ATOM      1  C   UNL A   1      35.377  33.129  30.507  1.00  0.00     0.275 C 
ENDROOT
BRANCH   1   2
ATOM      2  O   UNL A   1      34.212  33.001  29.676  1.00  0.00    -0.458 OA
BRANCH   2   3
ATOM      3  C   UNL A   1      34.428  32.936  28.340  1.00  0.00     0.338 C 
ATOM      4  O   UNL A   1      34.759  33.862  27.615  1.00  0.00    -0.246 OA
BRANCH   3   5
ATOM      5  C   UNL A   1      34.287  31.538  27.862  1.00  0.00     0.060 A 
ATOM      6  C   UNL A   1      32.979  29.759  26.878  1.00  0.00    -0.047 A 
ATOM      7  C   UNL A   1      34.088  28.909  26.970  1.00  0.00     0.004 A 
ATOM      8  C   UNL A   1      33.068  31.059  27.380  1.00  0.00     0.019 A 
ATOM      9  C   UNL A   1      35.296  29.365  27.483  1.00  0.00     0.001 A 
ATOM     10  C   UNL A   1      35.408  30.694  27.874  1.00  0.00     0.016 A 
BRANCH   6  11
ATOM     11  C   UNL A   1      31.766  29.339  26.091  1.00  0.00     0.045 C 
BRANCH  11  12
ATOM     12  C   UNL A   1      31.889  27.875  25.632  1.00  0.00     0.054 C 
ATOM     13  N   UNL A   1      30.592  26.643  24.004  1.00  0.00    -0.327 N 
ATOM     14  C   UNL A   1      30.581  25.897  25.264  1.00  0.00     0.263 C 
ATOM     15  C   UNL A   1      31.618  27.689  24.137  1.00  0.00     0.266 C 
ATOM     16  H   UNL A   1      30.827  26.017  23.235  1.00  0.00     0.348 HD
ATOM     17  C   UNL A   1      30.929  26.907  26.332  1.00  0.00     0.071 C 
BRANCH  13  18
ATOM     18  C   UNL A   1      29.267  27.158  23.598  1.00  0.00     0.364 C 
BRANCH  18  19
ATOM     19  C   UNL A   1      29.191  28.488  22.917  1.00  0.00     0.281 A 
ATOM     20  C   UNL A   1      28.882  30.459  22.273  1.00  0.00     0.171 A 
ATOM     21  N   UNL A   1      29.814  30.001  21.425  1.00  0.00    -0.062 NA
ATOM     22  N   UNL A   1      28.473  29.551  23.219  1.00  0.00    -0.191 NA
ATOM     23  O   UNL A   1      30.025  28.689  21.854  1.00  0.00    -0.333 OA
BRANCH  20  24
ATOM     24  C   UNL A   1      28.406  31.868  22.258  1.00  0.00     0.078 C 
ATOM     25  C   UNL A   1      27.995  32.381  20.887  1.00  0.00     0.012 C 
ENDBRANCH  20  24
ENDBRANCH  18  19
ENDBRANCH  13  18
ENDBRANCH  11  12
ENDBRANCH   6  11
ENDBRANCH   3   5
ENDBRANCH   2   3
ENDBRANCH   1   2
BRANCH   1  26
ATOM     26  C   UNL A   1      35.316  32.159  31.689  1.00  0.00     0.275 C 
BRANCH  26  27
ATOM     27  O   UNL A   1      36.096  30.975  31.436  1.00  0.00    -0.458 OA
BRANCH  27  28
ATOM     28  C   UNL A   1      37.280  30.929  32.090  1.00  0.00     0.338 C 
ATOM     29  O   UNL A   1      37.494  31.243  33.250  1.00  0.00    -0.246 OA
BRANCH  28  30
ATOM     30  C   UNL A   1      38.310  30.305  31.247  1.00  0.00     0.060 A 
ATOM     31  C   UNL A   1      39.306  29.589  31.899  1.00  0.00     0.016 A 
ATOM     32  C   UNL A   1      38.427  30.576  29.888  1.00  0.00     0.016 A 
ATOM     33  C   UNL A   1      40.473  29.223  31.242  1.00  0.00     0.010 A 
ATOM     34  C   UNL A   1      39.569  30.137  29.200  1.00  0.00     0.010 A 
ATOM     35  C   UNL A   1      40.628  29.501  29.882  1.00  0.00    -0.014 A 
BRANCH  35  36
ATOM     36  C   UNL A   1      41.934  29.222  29.217  1.00  0.00     0.031 A 
ATOM     37  C   UNL A   1      42.195  27.863  28.617  1.00  0.00     0.074 A 
ATOM     38  C   UNL A   1      42.872  30.184  29.103  1.00  0.00     0.049 A 
ATOM     39  N   UNL A   1      43.303  27.366  28.130  1.00  0.00    -0.248 NA
ATOM     40  C   UNL A   1      41.056  26.933  28.580  1.00  0.00     0.031 C 
ATOM     41  C   UNL A   1      42.738  31.561  29.584  1.00  0.00     0.029 A 
ATOM     42  N   UNL A   1      44.128  30.152  28.544  1.00  0.00    -0.354 N 
ATOM     43  C   UNL A   1      43.012  26.050  27.786  1.00  0.00     0.074 A 
ATOM     44  C   UNL A   1      41.630  25.820  28.147  1.00  0.00     0.031 C 
ATOM     45  C   UNL A   1      43.852  32.243  29.284  1.00  0.00     0.029 A 
ATOM     46  C   UNL A   1      44.815  31.337  28.669  1.00  0.00     0.049 A 
ATOM     47  H   UNL A   1      44.499  29.357  28.097  1.00  0.00     0.167 HD
ATOM     48  C   UNL A   1      43.819  25.120  27.218  1.00  0.00     0.037 A 
ATOM     49  C   UNL A   1      46.092  31.650  28.372  1.00  0.00     0.037 A 
ATOM     50  C   UNL A   1      45.183  25.373  26.825  1.00  0.00     0.049 A 
ATOM     51  C   UNL A   1      46.984  30.602  27.771  1.00  0.00     0.074 A 
ATOM     52  C   UNL A   1      46.084  24.507  26.230  1.00  0.00     0.029 A 
ATOM     53  N   UNL A   1      45.843  26.585  26.981  1.00  0.00    -0.354 N 
ATOM     54  N   UNL A   1      46.710  29.350  27.492  1.00  0.00    -0.248 NA
ATOM     55  C   UNL A   1      48.358  31.005  27.447  1.00  0.00     0.031 C 
ATOM     56  C   UNL A   1      47.301  25.178  26.075  1.00  0.00     0.029 A 
ATOM     57  C   UNL A   1      47.142  26.484  26.510  1.00  0.00     0.049 A 
ATOM     58  H   UNL A   1      45.445  27.397  27.371  1.00  0.00     0.167 HD
ATOM     59  C   UNL A   1      47.870  28.819  26.938  1.00  0.00     0.074 A 
ATOM     60  C   UNL A   1      48.844  29.894  26.911  1.00  0.00     0.031 C 
ATOM     61  C   UNL A   1      48.105  27.560  26.489  1.00  0.00     0.037 A 
BRANCH  48  62
ATOM     62  C   UNL A   1      43.256  23.732  27.040  1.00  0.00     0.058 A 
ATOM     63  C   UNL A   1      43.158  22.817  28.101  1.00  0.00     0.135 A 
ATOM     64  C   UNL A   1      42.833  23.300  25.771  1.00  0.00     0.135 A 
ATOM     65  F   UNL A   1      43.557  23.167  29.335  1.00  0.00    -0.206 F 
ATOM     66  C   UNL A   1      42.726  21.509  27.900  1.00  0.00     0.059 A 
ATOM     67  C   UNL A   1      42.360  22.008  25.555  1.00  0.00     0.059 A 
ATOM     68  F   UNL A   1      42.893  24.130  24.718  1.00  0.00    -0.206 F 
ATOM     69  C   UNL A   1      42.338  21.111  26.620  1.00  0.00     0.060 A 
BRANCH  69  70
ATOM     70  S   UNL A   1      41.831  19.398  26.363  1.00  0.00     0.124 S 
ATOM     71  O   UNL A   1      40.382  19.538  26.247  1.00  0.00    -0.237 OA
ATOM     72  O   UNL A   1      42.532  19.044  25.133  1.00  0.00    -0.237 OA
ATOM     73  O   UNL A   1      42.300  18.719  27.566  1.00  0.00    -0.744 OA
ENDBRANCH  69  70
ENDBRANCH  48  62
BRANCH  49  74
ATOM     74  C   UNL A   1      46.594  33.018  28.677  1.00  0.00     0.058 A 
ATOM     75  C   UNL A   1      46.483  34.062  27.749  1.00  0.00     0.135 A 
ATOM     76  C   UNL A   1      47.136  33.321  29.939  1.00  0.00     0.135 A 
ATOM     77  F   UNL A   1      45.985  33.821  26.526  1.00  0.00    -0.206 F 
ATOM     78  C   UNL A   1      46.880  35.359  28.060  1.00  0.00     0.059 A 
ATOM     79  C   UNL A   1      47.511  34.615  30.284  1.00  0.00     0.059 A 
ATOM     80  F   UNL A   1      47.255  32.359  30.868  1.00  0.00    -0.206 F 
ATOM     81  C   UNL A   1      47.380  35.627  29.337  1.00  0.00     0.060 A 
BRANCH  81  82
ATOM     82  S   UNL A   1      47.797  37.333  29.762  1.00  0.00     0.124 S 
ATOM     83  O   UNL A   1      49.240  37.346  29.550  1.00  0.00    -0.237 OA
ATOM     84  O   UNL A   1      47.003  38.090  28.800  1.00  0.00    -0.237 OA
ATOM     85  O   UNL A   1      47.362  37.448  31.151  1.00  0.00    -0.744 OA
ENDBRANCH  81  82
ENDBRANCH  49  74
BRANCH  61  86
ATOM     86  C   UNL A   1      49.455  27.284  25.881  1.00  0.00     0.058 A 
ATOM     87  C   UNL A   1      49.694  27.410  24.503  1.00  0.00     0.135 A 
ATOM     88  C   UNL A   1      50.536  26.919  26.700  1.00  0.00     0.135 A 
ATOM     89  F   UNL A   1      48.696  27.752  23.673  1.00  0.00    -0.206 F 
ATOM     90  C   UNL A   1      50.946  27.151  23.955  1.00  0.00     0.059 A 
ATOM     91  C   UNL A   1      51.804  26.685  26.178  1.00  0.00     0.059 A 
ATOM     92  F   UNL A   1      50.368  26.794  28.026  1.00  0.00    -0.206 F 
ATOM     93  C   UNL A   1      51.996  26.788  24.801  1.00  0.00     0.060 A 
BRANCH  93  94
ATOM     94  S   UNL A   1      53.620  26.467  24.081  1.00  0.00     0.124 S 
ATOM     95  O   UNL A   1      54.413  27.552  24.650  1.00  0.00    -0.237 OA
ATOM     96  O   UNL A   1      53.925  25.130  24.581  1.00  0.00    -0.237 OA
ATOM     97  O   UNL A   1      53.378  26.553  22.644  1.00  0.00    -0.744 OA
ENDBRANCH  93  94
ENDBRANCH  61  86
ENDBRANCH  35  36
ENDBRANCH  28  30
ENDBRANCH  27  28
ENDBRANCH  26  27
ENDBRANCH   1  26
TORSDOF 19
ENDMDL
MODEL 2
REMARK VINA RESULT:     -11.4      0.753      8.180
REMARK SMILES CCc1noc(C[N@@H+]2CC[C@H](Cc3cccc(C(=O)OCCOC(=O)c4ccc(-c5c6nc(c(-c7c(F)cc(S(=O)(=O)[O-])cc7F)c7ccc([nH]7)c(-c7c(F)cc(S(=O)(=O)[O-])cc7F)c7nc(c(-c8c(F)cc(S(=O)(=O)[O-])cc8F)c8ccc5[nH]8)C=C7)C=C6)cc4)c3)C2)n1
REMARK SMILES IDX 21 1 20 2 18 3 19 4 17 5 13 6 14 7 92 8 15 9 16 10 12 11
REMARK SMILES IDX 11 12 8 13 9 14 93 15 10 17 7 18 6 19 3 20 4 21 94 22 5 23
REMARK SMILES IDX 2 24 1 25 22 26 23 27 24 28 25 29 26 30 27 31 91 32 28 33
REMARK SMILES IDX 90 34 29 35 30 36 31 37 84 38 32 39 89 40 83 41 85 42 33 43
REMARK SMILES IDX 88 44 82 45 81 46 34 48 68 49 47 50 67 51 48 52 51 53 66 54
REMARK SMILES IDX 86 55 49 56 50 57 65 59 87 60 52 61 35 62 36 63 45 64 37 65
REMARK SMILES IDX 38 66 44 67 46 68 39 69 40 70 41 71 42 72 43 73 69 74 70 75
REMARK SMILES IDX 79 76 71 77 72 78 78 79 80 80 73 81 74 82 75 83 76 84 77 85
REMARK SMILES IDX 53 86 54 87 63 88 55 89 56 90 62 91 64 92 57 93 58 94 59 95
REMARK SMILES IDX 60 96 61 97
REMARK H PARENT 8 16 85 47 51 58
REMARK Flexibility Score: inf
ROOT
ATOM      1  C   UNL A   1      34.852  34.004  30.458  1.00  0.00     0.275 C 
ENDROOT
BRANCH   1   2
ATOM      2  O   UNL A   1      34.003  33.196  29.626  1.00  0.00    -0.458 OA
BRANCH   2   3
ATOM      3  C   UNL A   1      34.299  33.174  28.303  1.00  0.00     0.338 C 
ATOM      4  O   UNL A   1      34.539  34.143  27.600  1.00  0.00    -0.246 OA
BRANCH   3   5
ATOM      5  C   UNL A   1      34.378  31.774  27.816  1.00  0.00     0.060 A 
ATOM      6  C   UNL A   1      33.422  29.875  26.666  1.00  0.00    -0.047 A 
ATOM      7  C   UNL A   1      34.592  29.149  26.915  1.00  0.00     0.004 A 
ATOM      8  C   UNL A   1      33.298  31.172  27.170  1.00  0.00     0.019 A 
ATOM      9  C   UNL A   1      35.660  29.727  27.591  1.00  0.00     0.001 A 
ATOM     10  C   UNL A   1      35.571  31.056  27.988  1.00  0.00     0.016 A 
BRANCH   6  11
ATOM     11  C   UNL A   1      32.383  29.336  25.717  1.00  0.00     0.045 C 
BRANCH  11  12
ATOM     12  C   UNL A   1      33.038  28.500  24.604  1.00  0.00     0.054 C 
ATOM     13  N   UNL A   1      32.167  27.827  22.450  1.00  0.00    -0.327 N 
ATOM     14  C   UNL A   1      32.624  26.630  23.158  1.00  0.00     0.263 C 
ATOM     15  C   UNL A   1      32.679  28.986  23.197  1.00  0.00     0.266 C 
ATOM     16  H   UNL A   1      32.539  27.830  21.501  1.00  0.00     0.348 HD
ATOM     17  C   UNL A   1      32.659  27.015  24.619  1.00  0.00     0.071 C 
BRANCH  13  18
ATOM     18  C   UNL A   1      30.708  27.869  22.217  1.00  0.00     0.364 C 
BRANCH  18  19
ATOM     19  C   UNL A   1      29.990  29.172  22.379  1.00  0.00     0.281 A 
ATOM     20  C   UNL A   1      28.993  31.009  22.222  1.00  0.00     0.171 A 
ATOM     21  N   UNL A   1      28.818  30.673  23.508  1.00  0.00    -0.062 NA
ATOM     22  N   UNL A   1      29.712  30.098  21.485  1.00  0.00    -0.191 NA
ATOM     23  O   UNL A   1      29.479  29.447  23.615  1.00  0.00    -0.333 OA
BRANCH  20  24
ATOM     24  C   UNL A   1      28.371  32.216  21.615  1.00  0.00     0.078 C 
ATOM     25  C   UNL A   1      27.926  32.040  20.173  1.00  0.00     0.012 C 
ENDBRANCH  20  24
ENDBRANCH  18  19
ENDBRANCH  13  18
ENDBRANCH  11  12
ENDBRANCH   6  11
ENDBRANCH   3   5
ENDBRANCH   2   3
ENDBRANCH   1   2
BRANCH   1  26
ATOM     26  C   UNL A   1      35.548  33.151  31.521  1.00  0.00     0.275 C 
BRANCH  26  27
ATOM     27  O   UNL A   1      36.703  32.482  30.981  1.00  0.00    -0.458 OA
BRANCH  27  28
ATOM     28  C   UNL A   1      37.139  31.429  31.711  1.00  0.00     0.338 C 
ATOM     29  O   UNL A   1      36.694  31.039  32.779  1.00  0.00    -0.246 OA
BRANCH  28  30
ATOM     30  C   UNL A   1      38.177  30.688  30.981  1.00  0.00     0.060 A 
ATOM     31  C   UNL A   1      38.981  29.834  31.726  1.00  0.00     0.016 A 
ATOM     32  C   UNL A   1      38.497  30.964  29.656  1.00  0.00     0.016 A 
ATOM     33  C   UNL A   1      40.163  29.327  31.204  1.00  0.00     0.010 A 
ATOM     34  C   UNL A   1      39.650  30.388  29.099  1.00  0.00     0.010 A 
ATOM     35  C   UNL A   1      40.523  29.605  29.883  1.00  0.00    -0.014 A 
BRANCH  35  36
ATOM     36  C   UNL A   1      41.855  29.166  29.374  1.00  0.00     0.031 A 
ATOM     37  C   UNL A   1      43.008  30.138  29.353  1.00  0.00     0.074 A 
ATOM     38  C   UNL A   1      42.057  27.894  28.974  1.00  0.00     0.049 A 
ATOM     39  N   UNL A   1      44.196  30.009  28.820  1.00  0.00    -0.248 NA
ATOM     40  C   UNL A   1      42.782  31.437  30.004  1.00  0.00     0.031 C 
ATOM     41  C   UNL A   1      41.052  26.829  28.992  1.00  0.00     0.029 A 
ATOM     42  N   UNL A   1      43.179  27.278  28.473  1.00  0.00    -0.354 N 
ATOM     43  C   UNL A   1      44.836  31.228  29.017  1.00  0.00     0.074 A 
ATOM     44  C   UNL A   1      43.892  32.091  29.694  1.00  0.00     0.031 C 
ATOM     45  C   UNL A   1      41.605  25.693  28.544  1.00  0.00     0.029 A 
ATOM     46  C   UNL A   1      42.976  25.963  28.124  1.00  0.00     0.049 A 
ATOM     47  H   UNL A   1      44.046  27.735  28.373  1.00  0.00     0.167 HD
ATOM     48  C   UNL A   1      46.095  31.595  28.671  1.00  0.00     0.037 A 
ATOM     49  C   UNL A   1      43.778  25.084  27.492  1.00  0.00     0.037 A 
ATOM     50  C   UNL A   1      47.041  30.714  28.032  1.00  0.00     0.049 A 
ATOM     51  C   UNL A   1      45.159  25.513  27.087  1.00  0.00     0.074 A 
ATOM     52  C   UNL A   1      48.345  30.979  27.650  1.00  0.00     0.029 A 
ATOM     53  N   UNL A   1      46.788  29.392  27.687  1.00  0.00    -0.354 N 
ATOM     54  N   UNL A   1      45.737  26.681  27.239  1.00  0.00    -0.248 NA
ATOM     55  C   UNL A   1      45.998  24.508  26.422  1.00  0.00     0.031 C 
ATOM     56  C   UNL A   1      48.860  29.837  27.028  1.00  0.00     0.029 A 
ATOM     57  C   UNL A   1      47.903  28.836  27.082  1.00  0.00     0.049 A 
ATOM     58  H   UNL A   1      45.938  28.921  27.847  1.00  0.00     0.167 HD
ATOM     59  C   UNL A   1      47.016  26.547  26.709  1.00  0.00     0.074 A 
ATOM     60  C   UNL A   1      47.129  25.178  26.244  1.00  0.00     0.031 C 
ATOM     61  C   UNL A   1      48.006  27.471  26.621  1.00  0.00     0.037 A 
BRANCH  48  62
ATOM     62  C   UNL A   1      46.495  33.027  28.931  1.00  0.00     0.058 A 
ATOM     63  C   UNL A   1      46.276  34.051  27.995  1.00  0.00     0.135 A 
ATOM     64  C   UNL A   1      47.138  33.372  30.132  1.00  0.00     0.135 A 
ATOM     65  F   UNL A   1      45.677  33.781  26.824  1.00  0.00    -0.206 F 
ATOM     66  C   UNL A   1      46.737  35.347  28.210  1.00  0.00     0.059 A 
ATOM     67  C   UNL A   1      47.573  34.670  30.385  1.00  0.00     0.059 A 
ATOM     68  F   UNL A   1      47.367  32.439  31.070  1.00  0.00    -0.206 F 
ATOM     69  C   UNL A   1      47.394  35.644  29.405  1.00  0.00     0.060 A 
BRANCH  69  70
ATOM     70  S   UNL A   1      48.033  37.314  29.649  1.00  0.00     0.124 S 
ATOM     71  O   UNL A   1      47.882  37.476  31.093  1.00  0.00    -0.237 OA
ATOM     72  O   UNL A   1      49.406  37.199  29.167  1.00  0.00    -0.237 OA
ATOM     73  O   UNL A   1      47.152  38.140  28.831  1.00  0.00    -0.744 OA
ENDBRANCH  69  70
ENDBRANCH  48  62
BRANCH  49  74
ATOM     74  C   UNL A   1      43.264  23.722  27.183  1.00  0.00     0.058 A 
ATOM     75  C   UNL A   1      42.777  23.396  25.910  1.00  0.00     0.135 A 
ATOM     76  C   UNL A   1      43.314  22.699  28.146  1.00  0.00     0.135 A 
ATOM     77  F   UNL A   1      42.696  24.341  24.961  1.00  0.00    -0.206 F 
ATOM     78  C   UNL A   1      42.368  22.103  25.596  1.00  0.00     0.059 A 
ATOM     79  C   UNL A   1      42.939  21.393  27.847  1.00  0.00     0.059 A 
ATOM     80  F   UNL A   1      43.781  22.957  29.378  1.00  0.00    -0.206 F 
ATOM     81  C   UNL A   1      42.467  21.105  26.569  1.00  0.00     0.060 A 
BRANCH  81  82
ATOM     82  S   UNL A   1      42.029  19.411  26.119  1.00  0.00     0.124 S 
ATOM     83  O   UNL A   1      40.607  19.543  25.821  1.00  0.00    -0.237 OA
ATOM     84  O   UNL A   1      42.901  19.163  24.976  1.00  0.00    -0.237 OA
ATOM     85  O   UNL A   1      42.353  18.650  27.322  1.00  0.00    -0.744 OA
ENDBRANCH  81  82
ENDBRANCH  49  74
BRANCH  61  86
ATOM     86  C   UNL A   1      49.321  27.021  26.043  1.00  0.00     0.058 A 
ATOM     87  C   UNL A   1      49.627  27.165  24.680  1.00  0.00     0.135 A 
ATOM     88  C   UNL A   1      50.306  26.467  26.878  1.00  0.00     0.135 A 
ATOM     89  F   UNL A   1      48.722  27.684  23.835  1.00  0.00    -0.206 F 
ATOM     90  C   UNL A   1      50.847  26.743  24.160  1.00  0.00     0.059 A 
ATOM     91  C   UNL A   1      51.543  26.068  26.385  1.00  0.00     0.059 A 
ATOM     92  F   UNL A   1      50.072  26.316  28.191  1.00  0.00    -0.206 F 
ATOM     93  C   UNL A   1      51.799  26.195  25.021  1.00  0.00     0.060 A 
BRANCH  93  94
ATOM     94  S   UNL A   1      53.384  25.664  24.337  1.00  0.00     0.124 S 
ATOM     95  O   UNL A   1      53.180  25.894  22.911  1.00  0.00    -0.237 OA
ATOM     96  O   UNL A   1      54.325  26.564  24.996  1.00  0.00    -0.237 OA
ATOM     97  O   UNL A   1      53.477  24.264  24.740  1.00  0.00    -0.744 OA
ENDBRANCH  93  94
ENDBRANCH  61  86
ENDBRANCH  35  36
ENDBRANCH  28  30
ENDBRANCH  27  28
ENDBRANCH  26  27
ENDBRANCH   1  26
TORSDOF 19
ENDMDL
MODEL 3
REMARK VINA RESULT:     -11.4      1.204      8.353
REMARK SMILES CCc1noc(C[N@@H+]2CC[C@H](Cc3cccc(C(=O)OCCOC(=O)c4ccc(-c5c6nc(c(-c7c(F)cc(S(=O)(=O)[O-])cc7F)c7ccc([nH]7)c(-c7c(F)cc(S(=O)(=O)[O-])cc7F)c7nc(c(-c8c(F)cc(S(=O)(=O)[O-])cc8F)c8ccc5[nH]8)C=C7)C=C6)cc4)c3)C2)n1
REMARK SMILES IDX 21 1 20 2 18 3 19 4 17 5 13 6 14 7 92 8 15 9 16 10 12 11
REMARK SMILES IDX 11 12 8 13 9 14 93 15 10 17 7 18 6 19 3 20 4 21 94 22 5 23
REMARK SMILES IDX 2 24 1 25 22 26 23 27 24 28 25 29 26 30 27 31 91 32 28 33
REMARK SMILES IDX 90 34 29 35 30 36 31 37 84 38 32 39 89 40 83 41 85 42 33 43
REMARK SMILES IDX 88 44 82 45 81 46 34 48 68 49 47 50 67 51 48 52 51 53 66 54
REMARK SMILES IDX 86 55 49 56 50 57 65 59 87 60 52 61 35 62 36 63 45 64 37 65
REMARK SMILES IDX 38 66 44 67 46 68 39 69 40 70 41 71 42 72 43 73 69 74 70 75
REMARK SMILES IDX 79 76 71 77 72 78 78 79 80 80 73 81 74 82 75 83 76 84 77 85
REMARK SMILES IDX 53 86 54 87 63 88 55 89 56 90 62 91 64 92 57 93 58 94 59 95
REMARK SMILES IDX 60 96 61 97
REMARK H PARENT 8 16 85 47 51 58
REMARK Flexibility Score: inf
ROOT
ATOM      1  C   UNL A   1      34.301  31.653  27.661  1.00  0.00     0.275 C 
ENDROOT
BRANCH   1   2
ATOM      2  O   UNL A   1      34.174  30.226  27.551  1.00  0.00    -0.458 OA
BRANCH   2   3
ATOM      3  C   UNL A   1      33.008  29.762  27.039  1.00  0.00     0.338 C 
ATOM      4  O   UNL A   1      31.896  30.229  27.234  1.00  0.00    -0.246 OA
BRANCH   3   5
ATOM      5  C   UNL A   1      33.264  28.625  26.119  1.00  0.00     0.060 A 
ATOM      6  C   UNL A   1      33.004  26.304  25.498  1.00  0.00    -0.047 A 
ATOM      7  C   UNL A   1      33.767  26.539  24.347  1.00  0.00     0.004 A 
ATOM      8  C   UNL A   1      32.803  27.341  26.412  1.00  0.00     0.019 A 
ATOM      9  C   UNL A   1      34.261  27.806  24.066  1.00  0.00     0.001 A 
ATOM     10  C   UNL A   1      33.959  28.857  24.923  1.00  0.00     0.016 A 
BRANCH   6  11
ATOM     11  C   UNL A   1      32.261  25.004  25.662  1.00  0.00     0.045 C 
BRANCH  11  12
ATOM     12  C   UNL A   1      30.932  25.030  24.886  1.00  0.00     0.054 C 
ATOM     13  N   UNL A   1      30.057  26.691  23.361  1.00  0.00    -0.327 N 
ATOM     14  C   UNL A   1      29.058  26.448  24.402  1.00  0.00     0.263 C 
ATOM     15  C   UNL A   1      31.067  25.628  23.484  1.00  0.00     0.266 C 
ATOM     16  H   UNL A   1      29.615  26.650  22.443  1.00  0.00     0.348 HD
ATOM     17  C   UNL A   1      29.821  25.842  25.558  1.00  0.00     0.071 C 
BRANCH  13  18
ATOM     18  C   UNL A   1      30.625  28.055  23.376  1.00  0.00     0.364 C 
BRANCH  18  19
ATOM     19  C   UNL A   1      29.783  29.190  22.884  1.00  0.00     0.281 A 
ATOM     20  C   UNL A   1      28.695  30.946  22.528  1.00  0.00     0.171 A 
ATOM     21  N   UNL A   1      28.707  30.344  21.331  1.00  0.00    -0.062 NA
ATOM     22  N   UNL A   1      29.358  30.263  23.519  1.00  0.00    -0.191 NA
ATOM     23  O   UNL A   1      29.435  29.175  21.564  1.00  0.00    -0.333 OA
BRANCH  20  24
ATOM     24  C   UNL A   1      28.102  32.293  22.744  1.00  0.00     0.078 C 
ATOM     25  C   UNL A   1      29.101  33.363  23.157  1.00  0.00     0.012 C 
ENDBRANCH  20  24
ENDBRANCH  18  19
ENDBRANCH  13  18
ENDBRANCH  11  12
ENDBRANCH   6  11
ENDBRANCH   3   5
ENDBRANCH   2   3
ENDBRANCH   1   2
BRANCH   1  26
ATOM     26  C   UNL A   1      34.669  32.060  29.090  1.00  0.00     0.275 C 
BRANCH  26  27
ATOM     27  O   UNL A   1      36.087  31.948  29.317  1.00  0.00    -0.458 OA
BRANCH  27  28
ATOM     28  C   UNL A   1      36.441  31.015  30.231  1.00  0.00     0.338 C 
ATOM     29  O   UNL A   1      35.865  30.751  31.275  1.00  0.00    -0.246 OA
BRANCH  28  30
ATOM     30  C   UNL A   1      37.579  30.222  29.746  1.00  0.00     0.060 A 
ATOM     31  C   UNL A   1      38.380  29.619  30.708  1.00  0.00     0.016 A 
ATOM     32  C   UNL A   1      37.981  30.231  28.414  1.00  0.00     0.016 A 
ATOM     33  C   UNL A   1      39.631  29.111  30.383  1.00  0.00     0.010 A 
ATOM     34  C   UNL A   1      39.209  29.646  28.069  1.00  0.00     0.010 A 
ATOM     35  C   UNL A   1      40.071  29.126  29.057  1.00  0.00    -0.014 A 
BRANCH  35  36
ATOM     36  C   UNL A   1      41.464  28.699  28.739  1.00  0.00     0.031 A 
ATOM     37  C   UNL A   1      42.589  29.701  28.805  1.00  0.00     0.074 A 
ATOM     38  C   UNL A   1      41.742  27.415  28.436  1.00  0.00     0.049 A 
ATOM     39  N   UNL A   1      43.837  29.580  28.428  1.00  0.00    -0.248 NA
ATOM     40  C   UNL A   1      42.257  31.026  29.351  1.00  0.00     0.031 C 
ATOM     41  C   UNL A   1      40.766  26.324  28.390  1.00  0.00     0.029 A 
ATOM     42  N   UNL A   1      42.931  26.806  28.110  1.00  0.00    -0.354 N 
ATOM     43  C   UNL A   1      44.420  30.825  28.634  1.00  0.00     0.074 A 
ATOM     44  C   UNL A   1      43.382  31.694  29.144  1.00  0.00     0.031 C 
ATOM     45  C   UNL A   1      41.395  25.183  28.075  1.00  0.00     0.029 A 
ATOM     46  C   UNL A   1      42.801  25.470  27.811  1.00  0.00     0.049 A 
ATOM     47  H   UNL A   1      43.793  27.282  28.091  1.00  0.00     0.167 HD
ATOM     48  C   UNL A   1      45.704  31.209  28.424  1.00  0.00     0.037 A 
ATOM     49  C   UNL A   1      43.694  24.583  27.330  1.00  0.00     0.037 A 
ATOM     50  C   UNL A   1      46.741  30.324  27.955  1.00  0.00     0.049 A 
ATOM     51  C   UNL A   1      45.105  25.029  27.073  1.00  0.00     0.074 A 
ATOM     52  C   UNL A   1      48.075  30.606  27.720  1.00  0.00     0.029 A 
ATOM     53  N   UNL A   1      46.561  28.980  27.653  1.00  0.00    -0.354 N 
ATOM     54  N   UNL A   1      45.633  26.220  27.230  1.00  0.00    -0.248 NA
ATOM     55  C   UNL A   1      46.041  24.016  26.571  1.00  0.00     0.031 C 
ATOM     56  C   UNL A   1      48.688  29.448  27.229  1.00  0.00     0.029 A 
ATOM     57  C   UNL A   1      47.754  28.425  27.220  1.00  0.00     0.049 A 
ATOM     58  H   UNL A   1      45.709  28.493  27.735  1.00  0.00     0.167 HD
ATOM     59  C   UNL A   1      46.970  26.095  26.868  1.00  0.00     0.074 A 
ATOM     60  C   UNL A   1      47.170  24.707  26.495  1.00  0.00     0.031 C 
ATOM     61  C   UNL A   1      47.943  27.042  26.850  1.00  0.00     0.037 A 
BRANCH  48  62
ATOM     62  C   UNL A   1      46.038  32.663  28.652  1.00  0.00     0.058 A 
ATOM     63  C   UNL A   1      45.899  33.634  27.647  1.00  0.00     0.135 A 
ATOM     64  C   UNL A   1      46.534  33.085  29.897  1.00  0.00     0.135 A 
ATOM     65  F   UNL A   1      45.441  33.289  26.432  1.00  0.00    -0.206 F 
ATOM     66  C   UNL A   1      46.302  34.952  27.844  1.00  0.00     0.059 A 
ATOM     67  C   UNL A   1      46.906  34.407  30.129  1.00  0.00     0.059 A 
ATOM     68  F   UNL A   1      46.681  32.207  30.902  1.00  0.00    -0.206 F 
ATOM     69  C   UNL A   1      46.814  35.326  29.087  1.00  0.00     0.060 A 
BRANCH  69  70
ATOM     70  S   UNL A   1      47.381  37.025  29.313  1.00  0.00     0.124 S 
ATOM     71  O   UNL A   1      48.654  37.003  28.598  1.00  0.00    -0.237 OA
ATOM     72  O   UNL A   1      46.316  37.799  28.685  1.00  0.00    -0.237 OA
ATOM     73  O   UNL A   1      47.480  37.161  30.763  1.00  0.00    -0.744 OA
ENDBRANCH  69  70
ENDBRANCH  48  62
BRANCH  49  74
ATOM     74  C   UNL A   1      43.251  23.193  27.036  1.00  0.00     0.058 A 
ATOM     75  C   UNL A   1      43.114  22.732  25.719  1.00  0.00     0.135 A 
ATOM     76  C   UNL A   1      43.021  22.275  28.076  1.00  0.00     0.135 A 
ATOM     77  F   UNL A   1      43.309  23.572  24.691  1.00  0.00    -0.206 F 
ATOM     78  C   UNL A   1      42.776  21.411  25.441  1.00  0.00     0.059 A 
ATOM     79  C   UNL A   1      42.713  20.943  27.823  1.00  0.00     0.059 A 
ATOM     80  F   UNL A   1      43.149  22.663  29.355  1.00  0.00    -0.206 F 
ATOM     81  C   UNL A   1      42.592  20.521  26.502  1.00  0.00     0.060 A 
BRANCH  81  82
ATOM     82  S   UNL A   1      42.253  18.786  26.127  1.00  0.00     0.124 S 
ATOM     83  O   UNL A   1      42.547  18.145  27.404  1.00  0.00    -0.237 OA
ATOM     84  O   UNL A   1      40.846  18.826  25.741  1.00  0.00    -0.237 OA
ATOM     85  O   UNL A   1      43.184  18.489  25.042  1.00  0.00    -0.744 OA
ENDBRANCH  81  82
ENDBRANCH  49  74
BRANCH  61  86
ATOM     86  C   UNL A   1      49.329  26.600  26.461  1.00  0.00     0.058 A 
ATOM     87  C   UNL A   1      50.196  25.972  27.370  1.00  0.00     0.135 A 
ATOM     88  C   UNL A   1      49.783  26.780  25.144  1.00  0.00     0.135 A 
ATOM     89  F   UNL A   1      49.816  25.779  28.643  1.00  0.00    -0.206 F 
ATOM     90  C   UNL A   1      51.475  25.571  26.997  1.00  0.00     0.059 A 
ATOM     91  C   UNL A   1      51.046  26.358  24.741  1.00  0.00     0.059 A 
ATOM     92  F   UNL A   1      48.993  27.365  24.230  1.00  0.00    -0.206 F 
ATOM     93  C   UNL A   1      51.891  25.769  25.679  1.00  0.00     0.060 A 
BRANCH  93  94
ATOM     94  S   UNL A   1      53.548  25.231  25.203  1.00  0.00     0.124 S 
ATOM     95  O   UNL A   1      53.579  25.595  23.790  1.00  0.00    -0.237 OA
ATOM     96  O   UNL A   1      54.399  26.027  26.081  1.00  0.00    -0.237 OA
ATOM     97  O   UNL A   1      53.534  23.799  25.482  1.00  0.00    -0.744 OA
ENDBRANCH  93  94
ENDBRANCH  61  86
ENDBRANCH  35  36
ENDBRANCH  28  30
ENDBRANCH  27  28
ENDBRANCH  26  27
ENDBRANCH   1  26
TORSDOF 19
ENDMDL
