MODEL 1
REMARK VINA RESULT:     -10.3      0.000      0.000
REMARK SMILES CC(C)C[C@@H](C[NH3+])C(=O)N1CCOC[C@H]1C(=O)OCCOC(=O)c1ccc(-c2c3nc(c(-c4c(F)cc(S(=O)(=O)[O-])cc4F)c4ccc([nH]4)c(-c4c(F)cc(S(=O)(=O)[O-])cc4F)c4nc(c(-c5c(F)cc(S(=O)(=O)[O-])cc5F)c5ccc2[nH]5)C=C4)C=C3)cc1
REMARK SMILES IDX 19 1 18 2 16 3 17 4 15 5 10 6 11 7 12 8 14 9 13 10 8 11 9 12
REMARK SMILES IDX 5 13 4 14 2 15 1 16 3 17 6 18 7 19 20 23 21 24 22 25 23 26
REMARK SMILES IDX 24 27 25 28 89 29 26 30 88 31 27 32 28 33 29 34 82 35 30 36
REMARK SMILES IDX 87 37 81 38 83 39 31 40 86 41 80 42 79 43 32 45 66 46 45 47
REMARK SMILES IDX 65 48 46 49 49 50 64 51 84 52 47 53 48 54 63 56 85 57 50 58
REMARK SMILES IDX 33 59 34 60 43 61 35 62 36 63 42 64 44 65 37 66 38 67 39 68
REMARK SMILES IDX 40 69 41 70 67 71 68 72 77 73 69 74 70 75 76 76 78 77 71 78
REMARK SMILES IDX 72 79 73 80 74 81 75 82 51 83 52 84 61 85 53 86 54 87 60 88
REMARK SMILES IDX 62 89 55 90 56 91 57 92 58 93 59 94
REMARK H PARENT 7 20 7 21 7 22 83 44 49 55
REMARK Flexibility Score: inf
ROOT
ATOM      1  C   UNL A   1      33.735  29.454  26.479  1.00  0.00     0.274 C 
ENDROOT
BRANCH   1   2
ATOM      2  O   UNL A   1      33.508  28.096  26.899  1.00  0.00    -0.460 OA
BRANCH   2   3
ATOM      3  C   UNL A   1      32.229  27.639  26.878  1.00  0.00     0.331 C 
ATOM      4  O   UNL A   1      31.416  27.828  27.778  1.00  0.00    -0.250 OA
BRANCH   3   5
ATOM      5  C   UNL A   1      31.916  26.760  25.655  1.00  0.00     0.221 C 
ATOM      6  N   UNL A   1      32.799  25.613  25.331  1.00  0.00    -0.324 N 
ATOM      7  C   UNL A   1      32.682  24.501  26.269  1.00  0.00     0.149 C 
ATOM      8  C   UNL A   1      31.223  24.073  26.425  1.00  0.00     0.181 C 
ATOM      9  C   UNL A   1      30.476  26.242  25.814  1.00  0.00     0.197 C 
ATOM     10  O   UNL A   1      30.390  25.185  26.792  1.00  0.00    -0.377 OA
BRANCH   6  11
ATOM     11  C   UNL A   1      33.560  25.694  24.181  1.00  0.00     0.232 C 
ATOM     12  O   UNL A   1      34.188  26.736  23.942  1.00  0.00    -0.274 OA
BRANCH  11  13
ATOM     13  C   UNL A   1      33.442  24.683  23.018  1.00  0.00     0.134 C 
BRANCH  13  14
ATOM     14  C   UNL A   1      34.075  23.291  23.132  1.00  0.00     0.022 C 
BRANCH  14  15
ATOM     15  C   UNL A   1      35.312  23.158  24.049  1.00  0.00    -0.016 C 
ATOM     16  C   UNL A   1      35.225  22.020  25.062  1.00  0.00     0.007 C 
ATOM     17  C   UNL A   1      36.562  22.983  23.177  1.00  0.00     0.007 C 
ENDBRANCH  14  15
ENDBRANCH  13  14
BRANCH  13  18
ATOM     18  C   UNL A   1      31.968  24.680  22.561  1.00  0.00     0.272 C 
BRANCH  18  19
ATOM     19  N   UNL A   1      31.239  23.450  22.883  1.00  0.00    -0.357 N 
ATOM     20  H   UNL A   1      30.246  23.660  22.981  1.00  0.00     0.344 HD
ATOM     21  H   UNL A   1      31.594  23.064  23.758  1.00  0.00     0.344 HD
ATOM     22  H   UNL A   1      31.371  22.771  22.134  1.00  0.00     0.344 HD
ENDBRANCH  18  19
ENDBRANCH  13  18
ENDBRANCH  11  13
ENDBRANCH   6  11
ENDBRANCH   3   5
ENDBRANCH   2   3
ENDBRANCH   1   2
BRANCH   1  23
ATOM     23  C   UNL A   1      34.230  30.284  27.660  1.00  0.00     0.275 C 
BRANCH  23  24
ATOM     24  O   UNL A   1      35.287  29.593  28.344  1.00  0.00    -0.458 OA
BRANCH  24  25
ATOM     25  C   UNL A   1      36.091  30.378  29.104  1.00  0.00     0.338 C 
ATOM     26  O   UNL A   1      35.755  31.287  29.840  1.00  0.00    -0.246 OA
BRANCH  25  27
ATOM     27  C   UNL A   1      37.467  29.886  28.955  1.00  0.00     0.060 A 
ATOM     28  C   UNL A   1      38.218  29.610  30.099  1.00  0.00     0.016 A 
ATOM     29  C   UNL A   1      38.017  29.717  27.685  1.00  0.00     0.016 A 
ATOM     30  C   UNL A   1      39.537  29.179  29.985  1.00  0.00     0.010 A 
ATOM     31  C   UNL A   1      39.333  29.269  27.570  1.00  0.00     0.010 A 
ATOM     32  C   UNL A   1      40.103  29.007  28.717  1.00  0.00    -0.014 A 
BRANCH  32  33
ATOM     33  C   UNL A   1      41.519  28.594  28.574  1.00  0.00     0.031 A 
ATOM     34  C   UNL A   1      42.596  29.637  28.628  1.00  0.00     0.074 A 
ATOM     35  C   UNL A   1      41.824  27.302  28.355  1.00  0.00     0.049 A 
ATOM     36  N   UNL A   1      43.863  29.534  28.328  1.00  0.00    -0.248 NA
ATOM     37  C   UNL A   1      42.188  30.983  29.065  1.00  0.00     0.031 C 
ATOM     38  C   UNL A   1      40.862  26.199  28.327  1.00  0.00     0.029 A 
ATOM     39  N   UNL A   1      43.029  26.702  28.086  1.00  0.00    -0.354 N 
ATOM     40  C   UNL A   1      44.398  30.804  28.500  1.00  0.00     0.074 A 
ATOM     41  C   UNL A   1      43.316  31.666  28.930  1.00  0.00     0.031 C 
ATOM     42  C   UNL A   1      41.511  25.060  28.032  1.00  0.00     0.029 A 
ATOM     43  C   UNL A   1      42.919  25.363  27.795  1.00  0.00     0.049 A 
ATOM     44  H   UNL A   1      43.888  27.184  28.099  1.00  0.00     0.167 HD
ATOM     45  C   UNL A   1      45.675  31.210  28.310  1.00  0.00     0.037 A 
ATOM     46  C   UNL A   1      43.841  24.492  27.341  1.00  0.00     0.037 A 
ATOM     47  C   UNL A   1      46.743  30.331  27.912  1.00  0.00     0.049 A 
ATOM     48  C   UNL A   1      45.246  24.974  27.100  1.00  0.00     0.074 A 
ATOM     49  C   UNL A   1      48.081  30.631  27.727  1.00  0.00     0.029 A 
ATOM     50  N   UNL A   1      46.596  28.978  27.640  1.00  0.00    -0.354 N 
ATOM     51  N   UNL A   1      45.743  26.178  27.266  1.00  0.00    -0.248 NA
ATOM     52  C   UNL A   1      46.216  23.987  26.607  1.00  0.00     0.031 C 
ATOM     53  C   UNL A   1      48.735  29.472  27.301  1.00  0.00     0.029 A 
ATOM     54  C   UNL A   1      47.815  28.435  27.267  1.00  0.00     0.049 A 
ATOM     55  H   UNL A   1      45.751  28.477  27.702  1.00  0.00     0.167 HD
ATOM     56  C   UNL A   1      47.087  26.086  26.918  1.00  0.00     0.074 A 
ATOM     57  C   UNL A   1      47.327  24.708  26.542  1.00  0.00     0.031 C 
ATOM     58  C   UNL A   1      48.035  27.056  26.911  1.00  0.00     0.037 A 
BRANCH  45  59
ATOM     59  C   UNL A   1      45.984  32.668  28.493  1.00  0.00     0.058 A 
ATOM     60  C   UNL A   1      46.406  33.191  29.725  1.00  0.00     0.135 A 
ATOM     61  C   UNL A   1      45.904  33.549  27.401  1.00  0.00     0.135 A 
ATOM     62  F   UNL A   1      46.483  32.398  30.806  1.00  0.00    -0.206 F 
ATOM     63  C   UNL A   1      46.723  34.539  29.873  1.00  0.00     0.059 A 
ATOM     64  C   UNL A   1      46.238  34.894  27.520  1.00  0.00     0.059 A 
ATOM     65  F   UNL A   1      45.503  33.102  26.201  1.00  0.00    -0.206 F 
ATOM     66  C   UNL A   1      46.637  35.383  28.763  1.00  0.00     0.060 A 
BRANCH  66  67
ATOM     67  S   UNL A   1      47.071  37.124  28.964  1.00  0.00     0.124 S 
ATOM     68  O   UNL A   1      47.044  37.264  30.417  1.00  0.00    -0.237 OA
ATOM     69  O   UNL A   1      48.390  37.191  28.346  1.00  0.00    -0.237 OA
ATOM     70  O   UNL A   1      46.010  37.824  28.247  1.00  0.00    -0.744 OA
ENDBRANCH  66  67
ENDBRANCH  45  59
BRANCH  46  71
ATOM     71  C   UNL A   1      43.450  23.087  27.040  1.00  0.00     0.058 A 
ATOM     72  C   UNL A   1      43.351  22.629  25.719  1.00  0.00     0.135 A 
ATOM     73  C   UNL A   1      43.176  22.175  28.071  1.00  0.00     0.135 A 
ATOM     74  F   UNL A   1      43.593  23.466  24.699  1.00  0.00    -0.206 F 
ATOM     75  C   UNL A   1      42.978  21.320  25.428  1.00  0.00     0.059 A 
ATOM     76  C   UNL A   1      42.827  20.855  27.807  1.00  0.00     0.059 A 
ATOM     77  F   UNL A   1      43.268  22.560  29.353  1.00  0.00    -0.206 F 
ATOM     78  C   UNL A   1      42.720  20.439  26.481  1.00  0.00     0.060 A 
BRANCH  78  79
ATOM     79  S   UNL A   1      42.275  18.732  26.095  1.00  0.00     0.124 S 
ATOM     80  O   UNL A   1      42.510  18.072  27.375  1.00  0.00    -0.237 OA
ATOM     81  O   UNL A   1      40.878  18.860  25.691  1.00  0.00    -0.237 OA
ATOM     82  O   UNL A   1      43.200  18.379  25.022  1.00  0.00    -0.744 OA
ENDBRANCH  78  79
ENDBRANCH  46  71
BRANCH  58  83
ATOM     83  C   UNL A   1      49.431  26.657  26.524  1.00  0.00     0.058 A 
ATOM     84  C   UNL A   1      50.292  26.018  27.429  1.00  0.00     0.135 A 
ATOM     85  C   UNL A   1      49.882  26.847  25.207  1.00  0.00     0.135 A 
ATOM     86  F   UNL A   1      49.911  25.821  28.701  1.00  0.00    -0.206 F 
ATOM     87  C   UNL A   1      51.560  25.592  27.045  1.00  0.00     0.059 A 
ATOM     88  C   UNL A   1      51.135  26.406  24.796  1.00  0.00     0.059 A 
ATOM     89  F   UNL A   1      49.091  27.444  24.302  1.00  0.00    -0.206 F 
ATOM     90  C   UNL A   1      51.970  25.785  25.724  1.00  0.00     0.060 A 
BRANCH  90  91
ATOM     91  S   UNL A   1      53.594  25.177  25.223  1.00  0.00     0.124 S 
ATOM     92  O   UNL A   1      54.462  25.799  26.218  1.00  0.00    -0.237 OA
ATOM     93  O   UNL A   1      53.435  23.729  25.336  1.00  0.00    -0.237 OA
ATOM     94  O   UNL A   1      53.740  25.679  23.860  1.00  0.00    -0.744 OA
ENDBRANCH  90  91
ENDBRANCH  58  83
ENDBRANCH  32  33
ENDBRANCH  25  27
ENDBRANCH  24  25
ENDBRANCH  23  24
ENDBRANCH   1  23
TORSDOF 20
ENDMDL
MODEL 2
REMARK VINA RESULT:     -10.2      2.213      3.144
REMARK SMILES CC(C)C[C@@H](C[NH3+])C(=O)N1CCOC[C@H]1C(=O)OCCOC(=O)c1ccc(-c2c3nc(c(-c4c(F)cc(S(=O)(=O)[O-])cc4F)c4ccc([nH]4)c(-c4c(F)cc(S(=O)(=O)[O-])cc4F)c4nc(c(-c5c(F)cc(S(=O)(=O)[O-])cc5F)c5ccc2[nH]5)C=C4)C=C3)cc1
REMARK SMILES IDX 19 1 18 2 16 3 17 4 15 5 10 6 11 7 12 8 14 9 13 10 8 11 9 12
REMARK SMILES IDX 5 13 4 14 2 15 1 16 3 17 6 18 7 19 20 23 21 24 22 25 23 26
REMARK SMILES IDX 24 27 25 28 89 29 26 30 88 31 27 32 28 33 29 34 82 35 30 36
REMARK SMILES IDX 87 37 81 38 83 39 31 40 86 41 80 42 79 43 32 45 66 46 45 47
REMARK SMILES IDX 65 48 46 49 49 50 64 51 84 52 47 53 48 54 63 56 85 57 50 58
REMARK SMILES IDX 33 59 34 60 43 61 35 62 36 63 42 64 44 65 37 66 38 67 39 68
REMARK SMILES IDX 40 69 41 70 67 71 68 72 77 73 69 74 70 75 76 76 78 77 71 78
REMARK SMILES IDX 72 79 73 80 74 81 75 82 51 83 52 84 61 85 53 86 54 87 60 88
REMARK SMILES IDX 62 89 55 90 56 91 57 92 58 93 59 94
REMARK H PARENT 7 20 7 21 7 22 83 44 49 55
REMARK Flexibility Score: inf
ROOT
ATOM      1  C   UNL A   1      31.880  28.328  26.889  1.00  0.00     0.274 C 
ENDROOT
BRANCH   1   2
ATOM      2  O   UNL A   1      32.568  27.429  26.001  1.00  0.00    -0.460 OA
BRANCH   2   3
ATOM      3  C   UNL A   1      32.356  26.098  26.167  1.00  0.00     0.331 C 
ATOM      4  O   UNL A   1      31.471  25.625  26.874  1.00  0.00    -0.250 OA
BRANCH   3   5
ATOM      5  C   UNL A   1      33.406  25.221  25.463  1.00  0.00     0.221 C 
ATOM      6  N   UNL A   1      33.100  23.798  25.175  1.00  0.00    -0.324 N 
ATOM      7  C   UNL A   1      32.111  23.617  24.116  1.00  0.00     0.149 C 
ATOM      8  C   UNL A   1      32.516  24.381  22.856  1.00  0.00     0.181 C 
ATOM      9  C   UNL A   1      33.784  25.919  24.145  1.00  0.00     0.197 C 
ATOM     10  O   UNL A   1      32.757  25.768  23.143  1.00  0.00    -0.377 OA
BRANCH   6  11
ATOM     11  C   UNL A   1      33.806  22.836  25.869  1.00  0.00     0.232 C 
ATOM     12  O   UNL A   1      34.008  22.991  27.083  1.00  0.00    -0.274 OA
BRANCH  11  13
ATOM     13  C   UNL A   1      34.625  21.724  25.174  1.00  0.00     0.134 C 
BRANCH  13  14
ATOM     14  C   UNL A   1      36.125  21.575  25.453  1.00  0.00     0.022 C 
BRANCH  14  15
ATOM     15  C   UNL A   1      37.082  22.476  24.640  1.00  0.00    -0.016 C 
ATOM     16  C   UNL A   1      36.544  22.894  23.274  1.00  0.00     0.007 C 
ATOM     17  C   UNL A   1      37.420  23.721  25.469  1.00  0.00     0.007 C 
ENDBRANCH  14  15
ENDBRANCH  13  14
BRANCH  13  18
ATOM     18  C   UNL A   1      33.817  20.415  25.299  1.00  0.00     0.272 C 
BRANCH  18  19
ATOM     19  N   UNL A   1      34.562  19.209  24.930  1.00  0.00    -0.357 N 
ATOM     20  H   UNL A   1      34.079  18.731  24.170  1.00  0.00     0.344 HD
ATOM     21  H   UNL A   1      34.624  18.588  25.738  1.00  0.00     0.344 HD
ATOM     22  H   UNL A   1      35.501  19.467  24.628  1.00  0.00     0.344 HD
ENDBRANCH  18  19
ENDBRANCH  13  18
ENDBRANCH  11  13
ENDBRANCH   6  11
ENDBRANCH   3   5
ENDBRANCH   2   3
ENDBRANCH   1   2
BRANCH   1  23
ATOM     23  C   UNL A   1      32.691  29.609  27.059  1.00  0.00     0.275 C 
BRANCH  23  24
ATOM     24  O   UNL A   1      33.889  29.342  27.805  1.00  0.00    -0.458 OA
BRANCH  24  25
ATOM     25  C   UNL A   1      34.612  30.438  28.146  1.00  0.00     0.338 C 
ATOM     26  O   UNL A   1      34.202  31.572  28.311  1.00  0.00    -0.246 OA
BRANCH  25  27
ATOM     27  C   UNL A   1      35.998  30.007  28.372  1.00  0.00     0.060 A 
ATOM     28  C   UNL A   1      36.375  29.569  29.643  1.00  0.00     0.016 A 
ATOM     29  C   UNL A   1      36.925  30.057  27.333  1.00  0.00     0.016 A 
ATOM     30  C   UNL A   1      37.692  29.192  29.892  1.00  0.00     0.010 A 
ATOM     31  C   UNL A   1      38.241  29.663  27.578  1.00  0.00     0.010 A 
ATOM     32  C   UNL A   1      38.634  29.238  28.860  1.00  0.00    -0.014 A 
BRANCH  32  33
ATOM     33  C   UNL A   1      40.050  28.886  29.116  1.00  0.00     0.031 A 
ATOM     34  C   UNL A   1      40.993  29.946  29.603  1.00  0.00     0.074 A 
ATOM     35  C   UNL A   1      40.488  27.638  28.869  1.00  0.00     0.049 A 
ATOM     36  N   UNL A   1      42.296  29.914  29.697  1.00  0.00    -0.248 NA
ATOM     37  C   UNL A   1      40.388  31.218  30.031  1.00  0.00     0.031 C 
ATOM     38  C   UNL A   1      39.651  26.518  28.434  1.00  0.00     0.029 A 
ATOM     39  N   UNL A   1      41.754  27.108  28.921  1.00  0.00    -0.354 N 
ATOM     40  C   UNL A   1      42.672  31.171  30.154  1.00  0.00     0.074 A 
ATOM     41  C   UNL A   1      41.460  31.944  30.319  1.00  0.00     0.031 C 
ATOM     42  C   UNL A   1      40.429  25.441  28.236  1.00  0.00     0.029 A 
ATOM     43  C   UNL A   1      41.821  25.810  28.474  1.00  0.00     0.049 A 
ATOM     44  H   UNL A   1      42.536  27.610  29.247  1.00  0.00     0.167 HD
ATOM     45  C   UNL A   1      43.919  31.632  30.408  1.00  0.00     0.037 A 
ATOM     46  C   UNL A   1      42.890  25.025  28.237  1.00  0.00     0.037 A 
ATOM     47  C   UNL A   1      45.111  30.837  30.268  1.00  0.00     0.049 A 
ATOM     48  C   UNL A   1      44.269  25.572  28.490  1.00  0.00     0.074 A 
ATOM     49  C   UNL A   1      46.421  31.195  30.534  1.00  0.00     0.029 A 
ATOM     50  N   UNL A   1      45.138  29.522  29.826  1.00  0.00    -0.354 N 
ATOM     51  N   UNL A   1      44.616  26.761  28.922  1.00  0.00    -0.248 NA
ATOM     52  C   UNL A   1      45.403  24.677  28.219  1.00  0.00     0.031 C 
ATOM     53  C   UNL A   1      47.244  30.113  30.211  1.00  0.00     0.029 A 
ATOM     54  C   UNL A   1      46.444  29.062  29.791  1.00  0.00     0.049 A 
ATOM     55  H   UNL A   1      44.347  28.993  29.575  1.00  0.00     0.167 HD
ATOM     56  C   UNL A   1      46.005  26.750  28.996  1.00  0.00     0.074 A 
ATOM     57  C   UNL A   1      46.434  25.433  28.572  1.00  0.00     0.031 C 
ATOM     58  C   UNL A   1      46.848  27.740  29.379  1.00  0.00     0.037 A 
BRANCH  45  59
ATOM     59  C   UNL A   1      44.066  33.067  30.826  1.00  0.00     0.058 A 
ATOM     60  C   UNL A   1      44.202  33.441  32.172  1.00  0.00     0.135 A 
ATOM     61  C   UNL A   1      44.123  34.082  29.856  1.00  0.00     0.135 A 
ATOM     62  F   UNL A   1      44.138  32.513  33.141  1.00  0.00    -0.206 F 
ATOM     63  C   UNL A   1      44.372  34.771  32.543  1.00  0.00     0.059 A 
ATOM     64  C   UNL A   1      44.316  35.416  30.203  1.00  0.00     0.059 A 
ATOM     65  F   UNL A   1      43.995  33.781  28.555  1.00  0.00    -0.206 F 
ATOM     66  C   UNL A   1      44.429  35.753  31.551  1.00  0.00     0.060 A 
BRANCH  66  67
ATOM     67  S   UNL A   1      44.671  37.472  32.046  1.00  0.00     0.124 S 
ATOM     68  O   UNL A   1      43.351  37.813  32.568  1.00  0.00    -0.237 OA
ATOM     69  O   UNL A   1      45.735  37.365  33.039  1.00  0.00    -0.237 OA
ATOM     70  O   UNL A   1      45.044  38.136  30.802  1.00  0.00    -0.744 OA
ENDBRANCH  66  67
ENDBRANCH  45  59
BRANCH  46  71
ATOM     71  C   UNL A   1      42.698  23.654  27.688  1.00  0.00     0.058 A 
ATOM     72  C   UNL A   1      42.588  22.543  28.535  1.00  0.00     0.135 A 
ATOM     73  C   UNL A   1      42.613  23.434  26.304  1.00  0.00     0.135 A 
ATOM     74  F   UNL A   1      42.673  22.701  29.864  1.00  0.00    -0.206 F 
ATOM     75  C   UNL A   1      42.417  21.257  28.030  1.00  0.00     0.059 A 
ATOM     76  C   UNL A   1      42.416  22.162  25.776  1.00  0.00     0.059 A 
ATOM     77  F   UNL A   1      42.701  24.465  25.451  1.00  0.00    -0.206 F 
ATOM     78  C   UNL A   1      42.330  21.077  26.648  1.00  0.00     0.060 A 
BRANCH  78  79
ATOM     79  S   UNL A   1      42.068  19.410  26.003  1.00  0.00     0.124 S 
ATOM     80  O   UNL A   1      40.632  19.418  25.747  1.00  0.00    -0.237 OA
ATOM     81  O   UNL A   1      42.926  19.398  24.822  1.00  0.00    -0.237 OA
ATOM     82  O   UNL A   1      42.511  18.554  27.099  1.00  0.00    -0.744 OA
ENDBRANCH  78  79
ENDBRANCH  46  71
BRANCH  58  83
ATOM     83  C   UNL A   1      48.318  27.430  29.400  1.00  0.00     0.058 A 
ATOM     84  C   UNL A   1      49.112  27.547  28.249  1.00  0.00     0.135 A 
ATOM     85  C   UNL A   1      48.952  27.085  30.605  1.00  0.00     0.135 A 
ATOM     86  F   UNL A   1      48.553  27.866  27.071  1.00  0.00    -0.206 F 
ATOM     87  C   UNL A   1      50.484  27.322  28.289  1.00  0.00     0.059 A 
ATOM     88  C   UNL A   1      50.325  26.880  30.673  1.00  0.00     0.059 A 
ATOM     89  F   UNL A   1      48.237  26.969  31.735  1.00  0.00    -0.206 F 
ATOM     90  C   UNL A   1      51.083  26.994  29.508  1.00  0.00     0.060 A 
BRANCH  90  91
ATOM     91  S   UNL A   1      52.873  26.760  29.559  1.00  0.00     0.124 S 
ATOM     92  O   UNL A   1      53.339  28.114  29.839  1.00  0.00    -0.237 OA
ATOM     93  O   UNL A   1      53.031  25.798  30.646  1.00  0.00    -0.237 OA
ATOM     94  O   UNL A   1      53.187  26.250  28.229  1.00  0.00    -0.744 OA
ENDBRANCH  90  91
ENDBRANCH  58  83
ENDBRANCH  32  33
ENDBRANCH  25  27
ENDBRANCH  24  25
ENDBRANCH  23  24
ENDBRANCH   1  23
TORSDOF 20
ENDMDL
MODEL 3
REMARK VINA RESULT:     -10.0      6.840     12.152
REMARK SMILES CC(C)C[C@@H](C[NH3+])C(=O)N1CCOC[C@H]1C(=O)OCCOC(=O)c1ccc(-c2c3nc(c(-c4c(F)cc(S(=O)(=O)[O-])cc4F)c4ccc([nH]4)c(-c4c(F)cc(S(=O)(=O)[O-])cc4F)c4nc(c(-c5c(F)cc(S(=O)(=O)[O-])cc5F)c5ccc2[nH]5)C=C4)C=C3)cc1
REMARK SMILES IDX 19 1 18 2 16 3 17 4 15 5 10 6 11 7 12 8 14 9 13 10 8 11 9 12
REMARK SMILES IDX 5 13 4 14 2 15 1 16 3 17 6 18 7 19 20 23 21 24 22 25 23 26
REMARK SMILES IDX 24 27 25 28 89 29 26 30 88 31 27 32 28 33 29 34 82 35 30 36
REMARK SMILES IDX 87 37 81 38 83 39 31 40 86 41 80 42 79 43 32 45 66 46 45 47
REMARK SMILES IDX 65 48 46 49 49 50 64 51 84 52 47 53 48 54 63 56 85 57 50 58
REMARK SMILES IDX 33 59 34 60 43 61 35 62 36 63 42 64 44 65 37 66 38 67 39 68
REMARK SMILES IDX 40 69 41 70 67 71 68 72 77 73 69 74 70 75 76 76 78 77 71 78
REMARK SMILES IDX 72 79 73 80 74 81 75 82 51 83 52 84 61 85 53 86 54 87 60 88
REMARK SMILES IDX 62 89 55 90 56 91 57 92 58 93 59 94
REMARK H PARENT 7 20 7 21 7 22 83 44 49 55
REMARK Flexibility Score: inf
ROOT
ATOM      1  C   UNL A   1      37.107  22.565  25.956  1.00  0.00     0.274 C 
ENDROOT
BRANCH   1   2
ATOM      2  O   UNL A   1      36.734  21.909  24.731  1.00  0.00    -0.460 OA
BRANCH   2   3
ATOM      3  C   UNL A   1      35.967  22.607  23.854  1.00  0.00     0.331 C 
ATOM      4  O   UNL A   1      36.338  22.947  22.734  1.00  0.00    -0.250 OA
BRANCH   3   5
ATOM      5  C   UNL A   1      34.608  23.032  24.437  1.00  0.00     0.221 C 
ATOM      6  N   UNL A   1      33.671  23.830  23.608  1.00  0.00    -0.324 N 
ATOM      7  C   UNL A   1      33.065  23.073  22.518  1.00  0.00     0.149 C 
ATOM      8  C   UNL A   1      32.416  21.791  23.041  1.00  0.00     0.181 C 
ATOM      9  C   UNL A   1      33.885  21.757  24.904  1.00  0.00     0.197 C 
ATOM     10  O   UNL A   1      33.352  21.004  23.796  1.00  0.00    -0.377 OA
BRANCH   6  11
ATOM     11  C   UNL A   1      33.435  25.137  23.986  1.00  0.00     0.232 C 
ATOM     12  O   UNL A   1      33.839  26.060  23.263  1.00  0.00    -0.274 OA
BRANCH  11  13
ATOM     13  C   UNL A   1      32.963  25.534  25.404  1.00  0.00     0.134 C 
BRANCH  13  14
ATOM     14  C   UNL A   1      33.114  26.978  25.896  1.00  0.00     0.022 C 
BRANCH  14  15
ATOM     15  C   UNL A   1      31.812  27.750  26.210  1.00  0.00    -0.016 C 
ATOM     16  C   UNL A   1      31.727  28.289  27.635  1.00  0.00     0.007 C 
ATOM     17  C   UNL A   1      31.662  28.902  25.209  1.00  0.00     0.007 C 
ENDBRANCH  14  15
ENDBRANCH  13  14
BRANCH  13  18
ATOM     18  C   UNL A   1      31.555  24.934  25.603  1.00  0.00     0.272 C 
BRANCH  18  19
ATOM     19  N   UNL A   1      31.376  24.223  26.871  1.00  0.00    -0.357 N 
ATOM     20  H   UNL A   1      32.174  24.407  27.479  1.00  0.00     0.344 HD
ATOM     21  H   UNL A   1      31.309  23.220  26.692  1.00  0.00     0.344 HD
ATOM     22  H   UNL A   1      30.521  24.544  27.324  1.00  0.00     0.344 HD
ENDBRANCH  18  19
ENDBRANCH  13  18
ENDBRANCH  11  13
ENDBRANCH   6  11
ENDBRANCH   3   5
ENDBRANCH   2   3
ENDBRANCH   1   2
BRANCH   1  23
ATOM     23  C   UNL A   1      38.587  22.934  25.915  1.00  0.00     0.275 C 
BRANCH  23  24
ATOM     24  O   UNL A   1      38.835  24.082  26.740  1.00  0.00    -0.458 OA
BRANCH  24  25
ATOM     25  C   UNL A   1      40.136  24.456  26.834  1.00  0.00     0.338 C 
ATOM     26  O   UNL A   1      41.068  24.061  26.158  1.00  0.00    -0.246 OA
BRANCH  25  27
ATOM     27  C   UNL A   1      40.228  25.506  27.856  1.00  0.00     0.060 A 
ATOM     28  C   UNL A   1      39.213  25.621  28.807  1.00  0.00     0.016 A 
ATOM     29  C   UNL A   1      41.308  26.388  27.859  1.00  0.00     0.016 A 
ATOM     30  C   UNL A   1      39.258  26.632  29.762  1.00  0.00     0.010 A 
ATOM     31  C   UNL A   1      41.363  27.392  28.826  1.00  0.00     0.010 A 
ATOM     32  C   UNL A   1      40.334  27.526  29.777  1.00  0.00    -0.014 A 
BRANCH  32  33
ATOM     33  C   UNL A   1      40.378  28.637  30.755  1.00  0.00     0.031 A 
ATOM     34  C   UNL A   1      41.303  28.543  31.932  1.00  0.00     0.074 A 
ATOM     35  C   UNL A   1      39.561  29.696  30.607  1.00  0.00     0.049 A 
ATOM     36  N   UNL A   1      41.358  29.289  33.003  1.00  0.00    -0.248 NA
ATOM     37  C   UNL A   1      42.292  27.451  31.906  1.00  0.00     0.031 C 
ATOM     38  C   UNL A   1      38.653  29.913  29.479  1.00  0.00     0.029 A 
ATOM     39  N   UNL A   1      39.343  30.778  31.424  1.00  0.00    -0.354 N 
ATOM     40  C   UNL A   1      42.356  28.738  33.797  1.00  0.00     0.074 A 
ATOM     41  C   UNL A   1      42.881  27.592  33.086  1.00  0.00     0.031 C 
ATOM     42  C   UNL A   1      37.958  31.043  29.688  1.00  0.00     0.029 A 
ATOM     43  C   UNL A   1      38.330  31.597  30.986  1.00  0.00     0.049 A 
ATOM     44  H   UNL A   1      39.860  30.948  32.244  1.00  0.00     0.167 HD
ATOM     45  C   UNL A   1      42.787  29.153  35.011  1.00  0.00     0.037 A 
ATOM     46  C   UNL A   1      37.736  32.647  31.588  1.00  0.00     0.037 A 
ATOM     47  C   UNL A   1      42.273  30.315  35.689  1.00  0.00     0.049 A 
ATOM     48  C   UNL A   1      38.207  33.067  32.954  1.00  0.00     0.074 A 
ATOM     49  C   UNL A   1      42.666  30.845  36.906  1.00  0.00     0.029 A 
ATOM     50  N   UNL A   1      41.257  31.128  35.207  1.00  0.00    -0.354 N 
ATOM     51  N   UNL A   1      39.151  32.540  33.698  1.00  0.00    -0.248 NA
ATOM     52  C   UNL A   1      37.531  34.218  33.568  1.00  0.00     0.031 C 
ATOM     53  C   UNL A   1      41.858  31.952  37.181  1.00  0.00     0.029 A 
ATOM     54  C   UNL A   1      40.994  32.143  36.113  1.00  0.00     0.049 A 
ATOM     55  H   UNL A   1      40.791  31.003  34.349  1.00  0.00     0.167 HD
ATOM     56  C   UNL A   1      39.197  33.309  34.856  1.00  0.00     0.074 A 
ATOM     57  C   UNL A   1      38.192  34.341  34.711  1.00  0.00     0.031 C 
ATOM     58  C   UNL A   1      39.998  33.171  35.941  1.00  0.00     0.037 A 
BRANCH  45  59
ATOM     59  C   UNL A   1      43.838  28.332  35.703  1.00  0.00     0.058 A 
ATOM     60  C   UNL A   1      43.510  27.312  36.608  1.00  0.00     0.135 A 
ATOM     61  C   UNL A   1      45.197  28.540  35.414  1.00  0.00     0.135 A 
ATOM     62  F   UNL A   1      42.228  27.082  36.933  1.00  0.00    -0.206 F 
ATOM     63  C   UNL A   1      44.494  26.536  37.215  1.00  0.00     0.059 A 
ATOM     64  C   UNL A   1      46.195  27.762  35.991  1.00  0.00     0.059 A 
ATOM     65  F   UNL A   1      45.567  29.506  34.558  1.00  0.00    -0.206 F 
ATOM     66  C   UNL A   1      45.835  26.768  36.900  1.00  0.00     0.060 A 
BRANCH  66  67
ATOM     67  S   UNL A   1      47.097  25.740  37.680  1.00  0.00     0.124 S 
ATOM     68  O   UNL A   1      46.521  25.525  39.003  1.00  0.00    -0.237 OA
ATOM     69  O   UNL A   1      47.133  24.571  36.807  1.00  0.00    -0.237 OA
ATOM     70  O   UNL A   1      48.290  26.580  37.644  1.00  0.00    -0.744 OA
ENDBRANCH  66  67
ENDBRANCH  45  59
BRANCH  46  71
ATOM     71  C   UNL A   1      36.602  33.342  30.920  1.00  0.00     0.058 A 
ATOM     72  C   UNL A   1      36.817  34.203  29.835  1.00  0.00     0.135 A 
ATOM     73  C   UNL A   1      35.280  33.151  31.351  1.00  0.00     0.135 A 
ATOM     74  F   UNL A   1      38.064  34.426  29.392  1.00  0.00    -0.206 F 
ATOM     75  C   UNL A   1      35.764  34.864  29.210  1.00  0.00     0.059 A 
ATOM     76  C   UNL A   1      34.208  33.779  30.727  1.00  0.00     0.059 A 
ATOM     77  F   UNL A   1      35.019  32.328  32.378  1.00  0.00    -0.206 F 
ATOM     78  C   UNL A   1      34.461  34.643  29.663  1.00  0.00     0.060 A 
BRANCH  78  79
ATOM     79  S   UNL A   1      33.096  35.474  28.820  1.00  0.00     0.124 S 
ATOM     80  O   UNL A   1      32.517  34.379  28.051  1.00  0.00    -0.237 OA
ATOM     81  O   UNL A   1      32.294  35.961  29.939  1.00  0.00    -0.237 OA
ATOM     82  O   UNL A   1      33.765  36.511  28.040  1.00  0.00    -0.744 OA
ENDBRANCH  78  79
ENDBRANCH  46  71
BRANCH  58  83
ATOM     83  C   UNL A   1      39.854  34.183  37.042  1.00  0.00     0.058 A 
ATOM     84  C   UNL A   1      40.458  35.447  36.965  1.00  0.00     0.135 A 
ATOM     85  C   UNL A   1      39.036  33.910  38.152  1.00  0.00     0.135 A 
ATOM     86  F   UNL A   1      41.255  35.754  35.929  1.00  0.00    -0.206 F 
ATOM     87  C   UNL A   1      40.266  36.404  37.957  1.00  0.00     0.059 A 
ATOM     88  C   UNL A   1      38.810  34.860  39.141  1.00  0.00     0.059 A 
ATOM     89  F   UNL A   1      38.429  32.719  38.267  1.00  0.00    -0.206 F 
ATOM     90  C   UNL A   1      39.436  36.103  39.039  1.00  0.00     0.060 A 
BRANCH  90  91
ATOM     91  S   UNL A   1      39.149  37.372  40.291  1.00  0.00     0.124 S 
ATOM     92  O   UNL A   1      38.552  36.592  41.369  1.00  0.00    -0.237 OA
ATOM     93  O   UNL A   1      40.497  37.874  40.542  1.00  0.00    -0.237 OA
ATOM     94  O   UNL A   1      38.252  38.311  39.624  1.00  0.00    -0.744 OA
ENDBRANCH  90  91
ENDBRANCH  58  83
ENDBRANCH  32  33
ENDBRANCH  25  27
ENDBRANCH  24  25
ENDBRANCH  23  24
ENDBRANCH   1  23
TORSDOF 20
ENDMDL
