MODEL 1
REMARK VINA RESULT:     -11.8      0.000      0.000
REMARK SMILES Cc1noc(C)c1[C@H](C)NC(=O)NC[C@@](C)(O)C(=O)OCCOC(=O)c1ccc(-c2c3nc(c(-c4c(F)cc(S(=O)(=O)[O-])cc4F)c4ccc([nH]4)c(-c4c(F)cc(S(=O)(=O)[O-])cc4F)c4nc(c(-c5c(F)cc(S(=O)(=O)[O-])cc5F)c5ccc2[nH]5)C=C4)C=C3)cc1
REMARK SMILES IDX 21 1 20 2 18 3 19 4 15 5 16 6 14 7 13 8 10 9 11 10 12 12
REMARK SMILES IDX 8 14 9 15 7 16 1 17 2 18 3 19 4 20 5 21 6 22 17 23 22 25
REMARK SMILES IDX 23 26 24 27 25 28 26 29 27 30 91 31 28 32 90 33 29 34 30 35
REMARK SMILES IDX 31 36 84 37 32 38 89 39 83 40 85 41 33 42 88 43 82 44 81 45
REMARK SMILES IDX 34 47 68 48 47 49 67 50 48 51 51 52 66 53 86 54 49 55 50 56
REMARK SMILES IDX 65 58 87 59 52 60 35 61 36 62 45 63 37 64 38 65 44 66 46 67
REMARK SMILES IDX 39 68 40 69 41 70 42 71 43 72 69 73 70 74 79 75 71 76 72 77
REMARK SMILES IDX 78 78 80 79 73 80 74 81 75 82 76 83 77 84 53 85 54 86 63 87
REMARK SMILES IDX 55 88 56 89 62 90 64 91 57 92 58 93 59 94 60 95 61 96
REMARK H PARENT 10 11 13 13 17 24 85 46 51 57
REMARK Flexibility Score: inf
ROOT
ATOM      1  C   UNL A   1      36.318  34.982  32.478  1.00  0.00     0.274 C 
ENDROOT
BRANCH   1   2
ATOM      2  O   UNL A   1      35.267  35.593  33.261  1.00  0.00    -0.460 OA
BRANCH   2   3
ATOM      3  C   UNL A   1      33.980  35.173  33.027  1.00  0.00     0.339 C 
ATOM      4  O   UNL A   1      33.623  34.005  33.084  1.00  0.00    -0.249 OA
BRANCH   3   5
ATOM      5  C   UNL A   1      33.074  36.387  32.672  1.00  0.00     0.176 C 
ATOM      6  C   UNL A   1      33.989  37.604  32.840  1.00  0.00     0.057 C 
BRANCH   5   7
ATOM      7  C   UNL A   1      32.452  36.374  31.237  1.00  0.00     0.164 C 
BRANCH   7   8
ATOM      8  N   UNL A   1      33.312  36.663  30.086  1.00  0.00    -0.335 N 
ATOM      9  N   UNL A   1      33.315  35.188  28.070  1.00  0.00    -0.331 N 
ATOM     10  C   UNL A   1      33.497  36.349  28.810  1.00  0.00     0.315 C 
ATOM     11  H   UNL A   1      33.310  35.545  27.154  1.00  0.00     0.165 HD
ATOM     12  O   UNL A   1      34.031  37.269  28.166  1.00  0.00    -0.249 OA
ATOM     13  H   UNL A   1      33.993  37.322  30.353  1.00  0.00     0.165 HD
BRANCH   9  14
ATOM     14  C   UNL A   1      33.045  33.143  27.708  1.00  0.00     0.116 C 
ATOM     15  C   UNL A   1      31.662  32.430  26.928  1.00  0.00     0.036 C 
BRANCH  14  16
ATOM     16  C   UNL A   1      34.263  31.743  27.821  1.00  0.00     0.040 A 
ATOM     17  C   UNL A   1      33.287  29.113  27.276  1.00  0.00     0.071 C 
ATOM     18  C   UNL A   1      34.244  30.256  27.473  1.00  0.00     0.086 A 
ATOM     19  N   UNL A   1      35.484  29.771  27.375  1.00  0.00    -0.085 NA
ATOM     20  O   UNL A   1      36.320  30.749  27.718  1.00  0.00    -0.361 OA
ATOM     21  C   UNL A   1      35.662  31.887  28.032  1.00  0.00     0.139 A 
ATOM     22  C   UNL A   1      36.681  32.876  28.457  1.00  0.00     0.091 C 
ENDBRANCH  14  16
ENDBRANCH   9  14
ENDBRANCH   7   8
ENDBRANCH   5   7
BRANCH   5  23
ATOM     23  O   UNL A   1      32.006  36.616  33.607  1.00  0.00    -0.377 OA
ATOM     24  H   UNL A   1      31.597  35.770  33.845  1.00  0.00     0.212 HD
ENDBRANCH   5  23
ENDBRANCH   3   5
ENDBRANCH   2   3
ENDBRANCH   1   2
BRANCH   1  25
ATOM     25  C   UNL A   1      37.023  33.909  33.305  1.00  0.00     0.275 C 
BRANCH  25  26
ATOM     26  O   UNL A   1      37.028  32.704  32.528  1.00  0.00    -0.458 OA
BRANCH  26  27
ATOM     27  C   UNL A   1      37.457  31.632  33.204  1.00  0.00     0.338 C 
ATOM     28  O   UNL A   1      37.122  31.299  34.333  1.00  0.00    -0.246 OA
BRANCH  27  29
ATOM     29  C   UNL A   1      38.349  30.769  32.428  1.00  0.00     0.060 A 
ATOM     30  C   UNL A   1      40.041  30.705  33.136  1.00  0.00     0.016 A 
ATOM     31  C   UNL A   1      38.137  30.345  30.664  1.00  0.00     0.016 A 
ATOM     32  C   UNL A   1      41.433  30.179  32.111  1.00  0.00     0.010 A 
ATOM     33  C   UNL A   1      39.580  30.036  29.605  1.00  0.00     0.010 A 
ATOM     34  C   UNL A   1      41.218  29.923  30.340  1.00  0.00    -0.014 A 
BRANCH  34  35
ATOM     35  C   UNL A   1      42.389  29.448  29.539  1.00  0.00     0.031 A 
ATOM     36  C   UNL A   1      43.496  30.395  29.186  1.00  0.00     0.074 A 
ATOM     37  C   UNL A   1      42.498  28.171  29.134  1.00  0.00     0.049 A 
ATOM     38  N   UNL A   1      44.755  30.175  28.923  1.00  0.00    -0.248 NA
ATOM     39  C   UNL A   1      43.132  31.809  29.162  1.00  0.00     0.031 C 
ATOM     40  C   UNL A   1      41.497  27.128  29.306  1.00  0.00     0.029 A 
ATOM     41  N   UNL A   1      43.516  27.538  28.462  1.00  0.00    -0.354 N 
ATOM     42  C   UNL A   1      45.352  31.432  28.868  1.00  0.00     0.074 A 
ATOM     43  C   UNL A   1      44.311  32.409  29.089  1.00  0.00     0.031 C 
ATOM     44  C   UNL A   1      41.923  25.996  28.726  1.00  0.00     0.029 A 
ATOM     45  C   UNL A   1      43.245  26.225  28.161  1.00  0.00     0.049 A 
ATOM     46  H   UNL A   1      44.359  27.984  28.218  1.00  0.00     0.167 HD
ATOM     47  C   UNL A   1      46.645  31.742  28.617  1.00  0.00     0.037 A 
ATOM     48  C   UNL A   1      43.985  25.308  27.511  1.00  0.00     0.037 A 
ATOM     49  C   UNL A   1      47.583  30.784  28.094  1.00  0.00     0.049 A 
ATOM     50  C   UNL A   1      45.387  25.675  27.112  1.00  0.00     0.074 A 
ATOM     51  C   UNL A   1      48.900  30.972  27.718  1.00  0.00     0.029 A 
ATOM     52  N   UNL A   1      47.258  29.471  27.778  1.00  0.00    -0.354 N 
ATOM     53  N   UNL A   1      46.017  26.818  27.269  1.00  0.00    -0.248 NA
ATOM     54  C   UNL A   1      46.194  24.621  26.488  1.00  0.00     0.031 C 
ATOM     55  C   UNL A   1      49.342  29.797  27.096  1.00  0.00     0.029 A 
ATOM     56  C   UNL A   1      48.329  28.852  27.161  1.00  0.00     0.049 A 
ATOM     57  H   UNL A   1      46.391  29.044  27.963  1.00  0.00     0.167 HD
ATOM     58  C   UNL A   1      47.304  26.614  26.785  1.00  0.00     0.074 A 
ATOM     59  C   UNL A   1      47.364  25.230  26.352  1.00  0.00     0.031 C 
ATOM     60  C   UNL A   1      48.345  27.482  26.708  1.00  0.00     0.037 A 
BRANCH  47  61
ATOM     61  C   UNL A   1      47.091  33.165  28.839  1.00  0.00     0.058 A 
ATOM     62  C   UNL A   1      47.023  34.110  27.800  1.00  0.00     0.135 A 
ATOM     63  C   UNL A   1      47.525  33.614  30.095  1.00  0.00     0.135 A 
ATOM     64  F   UNL A   1      46.635  33.737  26.570  1.00  0.00    -0.206 F 
ATOM     65  C   UNL A   1      47.365  35.446  28.000  1.00  0.00     0.059 A 
ATOM     66  C   UNL A   1      47.858  34.948  30.323  1.00  0.00     0.059 A 
ATOM     67  F   UNL A   1      47.627  32.754  31.121  1.00  0.00    -0.206 F 
ATOM     68  C   UNL A   1      47.776  35.857  29.269  1.00  0.00     0.060 A 
BRANCH  68  69
ATOM     69  S   UNL A   1      48.196  37.597  29.514  1.00  0.00     0.124 S 
ATOM     70  O   UNL A   1      49.396  37.727  28.693  1.00  0.00    -0.237 OA
ATOM     71  O   UNL A   1      47.007  38.277  29.010  1.00  0.00    -0.237 OA
ATOM     72  O   UNL A   1      48.411  37.697  30.954  1.00  0.00    -0.744 OA
ENDBRANCH  68  69
ENDBRANCH  47  61
BRANCH  48  73
ATOM     73  C   UNL A   1      43.412  23.962  27.237  1.00  0.00     0.058 A 
ATOM     74  C   UNL A   1      43.002  23.581  25.952  1.00  0.00     0.135 A 
ATOM     75  C   UNL A   1      43.307  23.006  28.263  1.00  0.00     0.135 A 
ATOM     76  F   UNL A   1      43.081  24.455  24.937  1.00  0.00    -0.206 F 
ATOM     77  C   UNL A   1      42.497  22.310  25.693  1.00  0.00     0.059 A 
ATOM     78  C   UNL A   1      42.832  21.720  28.024  1.00  0.00     0.059 A 
ATOM     79  F   UNL A   1      43.700  23.311  29.509  1.00  0.00    -0.206 F 
ATOM     80  C   UNL A   1      42.420  21.384  26.735  1.00  0.00     0.060 A 
BRANCH  80  81
ATOM     81  S   UNL A   1      41.811  19.721  26.376  1.00  0.00     0.124 S 
ATOM     82  O   UNL A   1      42.288  18.976  27.536  1.00  0.00    -0.237 OA
ATOM     83  O   UNL A   1      40.369  19.933  26.302  1.00  0.00    -0.237 OA
ATOM     84  O   UNL A   1      42.455  19.392  25.108  1.00  0.00    -0.744 OA
ENDBRANCH  80  81
ENDBRANCH  48  73
BRANCH  60  85
ATOM     85  C   UNL A   1      49.631  26.950  26.141  1.00  0.00     0.058 A 
ATOM     86  C   UNL A   1      50.558  26.256  26.934  1.00  0.00     0.135 A 
ATOM     87  C   UNL A   1      49.931  27.130  24.781  1.00  0.00     0.135 A 
ATOM     88  F   UNL A   1      50.317  26.056  28.239  1.00  0.00    -0.206 F 
ATOM     89  C   UNL A   1      51.765  25.808  26.410  1.00  0.00     0.059 A 
ATOM     90  C   UNL A   1      51.115  26.658  24.228  1.00  0.00     0.059 A 
ATOM     91  F   UNL A   1      49.069  27.770  23.975  1.00  0.00    -0.206 F 
ATOM     92  C   UNL A   1      52.036  26.019  25.057  1.00  0.00     0.060 A 
BRANCH  92  93
ATOM     93  S   UNL A   1      53.613  25.448  24.393  1.00  0.00     0.124 S 
ATOM     94  O   UNL A   1      53.564  24.025  24.709  1.00  0.00    -0.237 OA
ATOM     95  O   UNL A   1      53.497  25.789  22.977  1.00  0.00    -0.237 OA
ATOM     96  O   UNL A   1      54.597  26.226  25.140  1.00  0.00    -0.744 OA
ENDBRANCH  92  93
ENDBRANCH  60  85
ENDBRANCH  34  35
ENDBRANCH  27  29
ENDBRANCH  26  27
ENDBRANCH  25  26
ENDBRANCH   1  25
TORSDOF 19
ENDMDL
MODEL 2
REMARK VINA RESULT:     -11.7      6.147     13.500
REMARK SMILES Cc1noc(C)c1[C@H](C)NC(=O)NC[C@@](C)(O)C(=O)OCCOC(=O)c1ccc(-c2c3nc(c(-c4c(F)cc(S(=O)(=O)[O-])cc4F)c4ccc([nH]4)c(-c4c(F)cc(S(=O)(=O)[O-])cc4F)c4nc(c(-c5c(F)cc(S(=O)(=O)[O-])cc5F)c5ccc2[nH]5)C=C4)C=C3)cc1
REMARK SMILES IDX 21 1 20 2 18 3 19 4 15 5 16 6 14 7 13 8 10 9 11 10 12 12
REMARK SMILES IDX 8 14 9 15 7 16 1 17 2 18 3 19 4 20 5 21 6 22 17 23 22 25
REMARK SMILES IDX 23 26 24 27 25 28 26 29 27 30 91 31 28 32 90 33 29 34 30 35
REMARK SMILES IDX 31 36 84 37 32 38 89 39 83 40 85 41 33 42 88 43 82 44 81 45
REMARK SMILES IDX 34 47 68 48 47 49 67 50 48 51 51 52 66 53 86 54 49 55 50 56
REMARK SMILES IDX 65 58 87 59 52 60 35 61 36 62 45 63 37 64 38 65 44 66 46 67
REMARK SMILES IDX 39 68 40 69 41 70 42 71 43 72 69 73 70 74 79 75 71 76 72 77
REMARK SMILES IDX 78 78 80 79 73 80 74 81 75 82 76 83 77 84 53 85 54 86 63 87
REMARK SMILES IDX 55 88 56 89 62 90 64 91 57 92 58 93 59 94 60 95 61 96
REMARK H PARENT 10 11 13 13 17 24 85 46 51 57
REMARK Flexibility Score: inf
ROOT
ATOM      1  C   UNL A   1      43.054  22.848  24.951  1.00  0.00     0.274 C 
ENDROOT
BRANCH   1   2
ATOM      2  O   UNL A   1      43.178  21.987  26.107  1.00  0.00    -0.460 OA
BRANCH   2   3
ATOM      3  C   UNL A   1      42.444  20.826  26.110  1.00  0.00     0.339 C 
ATOM      4  O   UNL A   1      42.719  19.843  25.436  1.00  0.00    -0.249 OA
BRANCH   3   5
ATOM      5  C   UNL A   1      41.226  20.962  27.070  1.00  0.00     0.176 C 
ATOM      6  C   UNL A   1      41.665  22.017  28.090  1.00  0.00     0.057 C 
BRANCH   5   7
ATOM      7  C   UNL A   1      39.878  21.386  26.402  1.00  0.00     0.164 C 
BRANCH   7   8
ATOM      8  N   UNL A   1      39.585  22.812  26.230  1.00  0.00    -0.335 N 
ATOM      9  N   UNL A   1      37.260  23.692  26.464  1.00  0.00    -0.331 N 
ATOM     10  C   UNL A   1      38.648  23.724  26.454  1.00  0.00     0.315 C 
ATOM     11  H   UNL A   1      37.054  24.518  26.957  1.00  0.00     0.165 HD
ATOM     12  O   UNL A   1      39.119  24.866  26.594  1.00  0.00    -0.249 OA
ATOM     13  H   UNL A   1      40.355  23.245  25.797  1.00  0.00     0.165 HD
BRANCH   9  14
ATOM     14  C   UNL A   1      35.335  22.966  26.074  1.00  0.00     0.116 C 
ATOM     15  C   UNL A   1      34.551  21.670  26.934  1.00  0.00     0.036 C 
BRANCH  14  16
ATOM     16  C   UNL A   1      33.980  23.686  25.025  1.00  0.00     0.040 A 
ATOM     17  C   UNL A   1      32.640  21.918  23.222  1.00  0.00     0.071 C 
ATOM     18  C   UNL A   1      32.921  23.121  24.079  1.00  0.00     0.086 A 
ATOM     19  N   UNL A   1      31.940  24.004  23.876  1.00  0.00    -0.085 NA
ATOM     20  O   UNL A   1      32.283  25.128  24.504  1.00  0.00    -0.361 OA
ATOM     21  C   UNL A   1      33.471  25.009  25.136  1.00  0.00     0.139 A 
ATOM     22  C   UNL A   1      33.778  26.329  25.737  1.00  0.00     0.091 C 
ENDBRANCH  14  16
ENDBRANCH   9  14
ENDBRANCH   7   8
ENDBRANCH   5   7
BRANCH   5  23
ATOM     23  O   UNL A   1      40.970  19.789  27.862  1.00  0.00    -0.377 OA
ATOM     24  H   UNL A   1      41.802  19.318  28.021  1.00  0.00     0.212 HD
ENDBRANCH   5  23
ENDBRANCH   3   5
ENDBRANCH   2   3
ENDBRANCH   1   2
BRANCH   1  25
ATOM     25  C   UNL A   1      44.401  23.501  24.646  1.00  0.00     0.275 C 
BRANCH  25  26
ATOM     26  O   UNL A   1      44.714  24.367  25.744  1.00  0.00    -0.458 OA
BRANCH  26  27
ATOM     27  C   UNL A   1      43.969  25.478  25.780  1.00  0.00     0.338 C 
ATOM     28  O   UNL A   1      43.372  25.987  24.841  1.00  0.00    -0.246 OA
BRANCH  27  29
ATOM     29  C   UNL A   1      43.826  26.044  27.122  1.00  0.00     0.060 A 
ATOM     30  C   UNL A   1      42.201  25.642  27.875  1.00  0.00     0.016 A 
ATOM     31  C   UNL A   1      44.735  27.495  27.759  1.00  0.00     0.016 A 
ATOM     32  C   UNL A   1      41.566  26.637  29.244  1.00  0.00     0.010 A 
ATOM     33  C   UNL A   1      43.973  28.603  28.980  1.00  0.00     0.010 A 
ATOM     34  C   UNL A   1      42.407  28.151  29.740  1.00  0.00    -0.014 A 
BRANCH  34  35
ATOM     35  C   UNL A   1      41.868  28.920  30.905  1.00  0.00     0.031 A 
ATOM     36  C   UNL A   1      42.477  28.755  32.265  1.00  0.00     0.074 A 
ATOM     37  C   UNL A   1      40.850  29.789  30.770  1.00  0.00     0.049 A 
ATOM     38  N   UNL A   1      42.520  29.570  33.284  1.00  0.00    -0.248 NA
ATOM     39  C   UNL A   1      43.173  27.493  32.495  1.00  0.00     0.031 C 
ATOM     40  C   UNL A   1      40.080  30.025  29.558  1.00  0.00     0.029 A 
ATOM     41  N   UNL A   1      40.273  30.627  31.692  1.00  0.00    -0.354 N 
ATOM     42  C   UNL A   1      43.384  28.976  34.201  1.00  0.00     0.074 A 
ATOM     43  C   UNL A   1      43.814  27.720  33.633  1.00  0.00     0.031 C 
ATOM     44  C   UNL A   1      39.108  30.914  29.810  1.00  0.00     0.029 A 
ATOM     45  C   UNL A   1      39.201  31.333  31.200  1.00  0.00     0.049 A 
ATOM     46  H   UNL A   1      40.596  30.712  32.619  1.00  0.00     0.167 HD
ATOM     47  C   UNL A   1      43.755  29.425  35.423  1.00  0.00     0.037 A 
ATOM     48  C   UNL A   1      38.393  32.225  31.803  1.00  0.00     0.037 A 
ATOM     49  C   UNL A   1      43.077  30.505  36.089  1.00  0.00     0.049 A 
ATOM     50  C   UNL A   1      38.717  32.645  33.209  1.00  0.00     0.074 A 
ATOM     51  C   UNL A   1      43.289  31.016  37.356  1.00  0.00     0.029 A 
ATOM     52  N   UNL A   1      41.979  31.174  35.565  1.00  0.00    -0.354 N 
ATOM     53  N   UNL A   1      39.686  32.227  33.993  1.00  0.00    -0.248 NA
ATOM     54  C   UNL A   1      37.868  33.685  33.800  1.00  0.00     0.031 C 
ATOM     55  C   UNL A   1      42.264  31.931  37.630  1.00  0.00     0.029 A 
ATOM     56  C   UNL A   1      41.466  32.053  36.502  1.00  0.00     0.049 A 
ATOM     57  H   UNL A   1      41.616  31.042  34.660  1.00  0.00     0.167 HD
ATOM     58  C   UNL A   1      39.578  32.971  35.162  1.00  0.00     0.074 A 
ATOM     59  C   UNL A   1      38.463  33.879  34.969  1.00  0.00     0.031 C 
ATOM     60  C   UNL A   1      40.331  32.918  36.291  1.00  0.00     0.037 A 
BRANCH  47  61
ATOM     61  C   UNL A   1      44.881  28.714  36.129  1.00  0.00     0.058 A 
ATOM     62  C   UNL A   1      44.624  27.623  36.978  1.00  0.00     0.135 A 
ATOM     63  C   UNL A   1      46.223  29.068  35.919  1.00  0.00     0.135 A 
ATOM     64  F   UNL A   1      43.359  27.249  37.234  1.00  0.00    -0.206 F 
ATOM     65  C   UNL A   1      45.653  26.909  37.587  1.00  0.00     0.059 A 
ATOM     66  C   UNL A   1      47.270  28.359  36.505  1.00  0.00     0.059 A 
ATOM     67  F   UNL A   1      46.530  30.112  35.133  1.00  0.00    -0.206 F 
ATOM     68  C   UNL A   1      46.975  27.281  37.339  1.00  0.00     0.060 A 
BRANCH  68  69
ATOM     69  S   UNL A   1      48.297  26.329  38.122  1.00  0.00     0.124 S 
ATOM     70  O   UNL A   1      48.268  25.095  37.343  1.00  0.00    -0.237 OA
ATOM     71  O   UNL A   1      49.461  27.184  37.911  1.00  0.00    -0.237 OA
ATOM     72  O   UNL A   1      47.855  26.205  39.507  1.00  0.00    -0.744 OA
ENDBRANCH  68  69
ENDBRANCH  47  61
BRANCH  48  73
ATOM     73  C   UNL A   1      37.234  32.786  31.056  1.00  0.00     0.058 A 
ATOM     74  C   UNL A   1      37.399  33.764  30.065  1.00  0.00     0.135 A 
ATOM     75  C   UNL A   1      35.932  32.313  31.293  1.00  0.00     0.135 A 
ATOM     76  F   UNL A   1      38.620  34.250  29.799  1.00  0.00    -0.206 F 
ATOM     77  C   UNL A   1      36.317  34.263  29.345  1.00  0.00     0.059 A 
ATOM     78  C   UNL A   1      34.838  32.776  30.567  1.00  0.00     0.059 A 
ATOM     79  F   UNL A   1      35.719  31.365  32.219  1.00  0.00    -0.206 F 
ATOM     80  C   UNL A   1      35.040  33.759  29.600  1.00  0.00     0.060 A 
BRANCH  80  81
ATOM     81  S   UNL A   1      33.651  34.378  28.624  1.00  0.00     0.124 S 
ATOM     82  O   UNL A   1      32.699  34.745  29.666  1.00  0.00    -0.237 OA
ATOM     83  O   UNL A   1      34.259  35.487  27.896  1.00  0.00    -0.237 OA
ATOM     84  O   UNL A   1      33.276  33.230  27.804  1.00  0.00    -0.744 OA
ENDBRANCH  80  81
ENDBRANCH  48  73
BRANCH  60  85
ATOM     85  C   UNL A   1      39.970  33.875  37.392  1.00  0.00     0.058 A 
ATOM     86  C   UNL A   1      40.537  35.157  37.474  1.00  0.00     0.135 A 
ATOM     87  C   UNL A   1      39.034  33.505  38.371  1.00  0.00     0.135 A 
ATOM     88  F   UNL A   1      41.435  35.559  36.561  1.00  0.00    -0.206 F 
ATOM     89  C   UNL A   1      40.232  36.017  38.521  1.00  0.00     0.059 A 
ATOM     90  C   UNL A   1      38.686  34.364  39.406  1.00  0.00     0.059 A 
ATOM     91  F   UNL A   1      38.448  32.299  38.327  1.00  0.00    -0.206 F 
ATOM     92  C   UNL A   1      39.308  35.609  39.486  1.00  0.00     0.060 A 
BRANCH  92  93
ATOM     93  S   UNL A   1      38.932  36.727  40.850  1.00  0.00     0.124 S 
ATOM     94  O   UNL A   1      40.261  36.981  41.394  1.00  0.00    -0.237 OA
ATOM     95  O   UNL A   1      38.301  37.852  40.165  1.00  0.00    -0.237 OA
ATOM     96  O   UNL A   1      38.044  35.940  41.699  1.00  0.00    -0.744 OA
ENDBRANCH  92  93
ENDBRANCH  60  85
ENDBRANCH  34  35
ENDBRANCH  27  29
ENDBRANCH  26  27
ENDBRANCH  25  26
ENDBRANCH   1  25
TORSDOF 19
ENDMDL
MODEL 3
REMARK VINA RESULT:     -11.5      5.633     11.656
REMARK SMILES Cc1noc(C)c1[C@H](C)NC(=O)NC[C@@](C)(O)C(=O)OCCOC(=O)c1ccc(-c2c3nc(c(-c4c(F)cc(S(=O)(=O)[O-])cc4F)c4ccc([nH]4)c(-c4c(F)cc(S(=O)(=O)[O-])cc4F)c4nc(c(-c5c(F)cc(S(=O)(=O)[O-])cc5F)c5ccc2[nH]5)C=C4)C=C3)cc1
REMARK SMILES IDX 21 1 20 2 18 3 19 4 15 5 16 6 14 7 13 8 10 9 11 10 12 12
REMARK SMILES IDX 8 14 9 15 7 16 1 17 2 18 3 19 4 20 5 21 6 22 17 23 22 25
REMARK SMILES IDX 23 26 24 27 25 28 26 29 27 30 91 31 28 32 90 33 29 34 30 35
REMARK SMILES IDX 31 36 84 37 32 38 89 39 83 40 85 41 33 42 88 43 82 44 81 45
REMARK SMILES IDX 34 47 68 48 47 49 67 50 48 51 51 52 66 53 86 54 49 55 50 56
REMARK SMILES IDX 65 58 87 59 52 60 35 61 36 62 45 63 37 64 38 65 44 66 46 67
REMARK SMILES IDX 39 68 40 69 41 70 42 71 43 72 69 73 70 74 79 75 71 76 72 77
REMARK SMILES IDX 78 78 80 79 73 80 74 81 75 82 76 83 77 84 53 85 54 86 63 87
REMARK SMILES IDX 55 88 56 89 62 90 64 91 57 92 58 93 59 94 60 95 61 96
REMARK H PARENT 10 11 13 13 17 24 85 46 51 57
REMARK Flexibility Score: inf
ROOT
ATOM      1  C   UNL A   1      35.416  23.004  23.849  1.00  0.00     0.274 C 
ENDROOT
BRANCH   1   2
ATOM      2  O   UNL A   1      35.107  22.598  25.203  1.00  0.00    -0.460 OA
BRANCH   2   3
ATOM      3  C   UNL A   1      34.773  21.281  25.406  1.00  0.00     0.339 C 
ATOM      4  O   UNL A   1      35.354  20.341  24.880  1.00  0.00    -0.249 OA
BRANCH   3   5
ATOM      5  C   UNL A   1      33.560  21.176  26.374  1.00  0.00     0.176 C 
ATOM      6  C   UNL A   1      34.012  21.927  27.630  1.00  0.00     0.057 C 
BRANCH   5   7
ATOM      7  C   UNL A   1      32.214  21.771  25.845  1.00  0.00     0.164 C 
BRANCH   7   8
ATOM      8  N   UNL A   1      31.271  22.359  26.800  1.00  0.00    -0.335 N 
ATOM      9  N   UNL A   1      29.913  24.370  26.207  1.00  0.00    -0.331 N 
ATOM     10  C   UNL A   1      30.252  23.204  26.882  1.00  0.00     0.315 C 
ATOM     11  H   UNL A   1      28.957  24.444  26.424  1.00  0.00     0.165 HD
ATOM     12  O   UNL A   1      29.488  22.939  27.827  1.00  0.00    -0.249 OA
ATOM     13  H   UNL A   1      31.461  22.001  27.697  1.00  0.00     0.165 HD
BRANCH   9  14
ATOM     14  C   UNL A   1      30.189  26.065  25.010  1.00  0.00     0.116 C 
ATOM     15  C   UNL A   1      29.018  26.717  23.898  1.00  0.00     0.036 C 
BRANCH  14  16
ATOM     16  C   UNL A   1      31.510  27.371  25.080  1.00  0.00     0.040 A 
ATOM     17  C   UNL A   1      32.946  27.912  22.670  1.00  0.00     0.071 C 
ATOM     18  C   UNL A   1      32.387  28.086  24.054  1.00  0.00     0.086 A 
ATOM     19  N   UNL A   1      32.895  29.213  24.560  1.00  0.00    -0.085 NA
ATOM     20  O   UNL A   1      32.531  29.271  25.840  1.00  0.00    -0.361 OA
ATOM     21  C   UNL A   1      31.777  28.209  26.198  1.00  0.00     0.139 A 
ATOM     22  C   UNL A   1      31.490  28.347  27.646  1.00  0.00     0.091 C 
ENDBRANCH  14  16
ENDBRANCH   9  14
ENDBRANCH   7   8
ENDBRANCH   5   7
BRANCH   5  23
ATOM     23  O   UNL A   1      33.293  19.841  26.838  1.00  0.00    -0.377 OA
ATOM     24  H   UNL A   1      32.550  19.468  26.340  1.00  0.00     0.212 HD
ENDBRANCH   5  23
ENDBRANCH   3   5
ENDBRANCH   2   3
ENDBRANCH   1   2
BRANCH   1  25
ATOM     25  C   UNL A   1      36.905  23.323  23.732  1.00  0.00     0.275 C 
BRANCH  25  26
ATOM     26  O   UNL A   1      37.323  23.875  24.987  1.00  0.00    -0.458 OA
BRANCH  26  27
ATOM     27  C   UNL A   1      38.298  23.178  25.581  1.00  0.00     0.338 C 
ATOM     28  O   UNL A   1      38.534  21.985  25.439  1.00  0.00    -0.246 OA
BRANCH  27  29
ATOM     29  C   UNL A   1      39.187  23.999  26.405  1.00  0.00     0.060 A 
ATOM     30  C   UNL A   1      38.500  24.296  28.081  1.00  0.00     0.016 A 
ATOM     31  C   UNL A   1      40.440  25.165  25.768  1.00  0.00     0.016 A 
ATOM     32  C   UNL A   1      39.105  25.679  29.076  1.00  0.00     0.010 A 
ATOM     33  C   UNL A   1      40.864  26.667  26.697  1.00  0.00     0.010 A 
ATOM     34  C   UNL A   1      40.219  26.901  28.360  1.00  0.00    -0.014 A 
BRANCH  34  35
ATOM     35  C   UNL A   1      40.725  28.005  29.233  1.00  0.00     0.031 A 
ATOM     36  C   UNL A   1      39.952  29.283  29.358  1.00  0.00     0.074 A 
ATOM     37  C   UNL A   1      41.861  27.883  29.942  1.00  0.00     0.049 A 
ATOM     38  N   UNL A   1      39.908  30.162  30.323  1.00  0.00    -0.248 NA
ATOM     39  C   UNL A   1      39.067  29.596  28.240  1.00  0.00     0.031 C 
ATOM     40  C   UNL A   1      42.787  26.761  29.891  1.00  0.00     0.029 A 
ATOM     41  N   UNL A   1      42.442  28.744  30.840  1.00  0.00    -0.354 N 
ATOM     42  C   UNL A   1      38.873  31.032  29.989  1.00  0.00     0.074 A 
ATOM     43  C   UNL A   1      38.341  30.596  28.719  1.00  0.00     0.031 C 
ATOM     44  C   UNL A   1      43.839  27.009  30.686  1.00  0.00     0.029 A 
ATOM     45  C   UNL A   1      43.649  28.302  31.327  1.00  0.00     0.049 A 
ATOM     46  H   UNL A   1      42.033  29.599  31.109  1.00  0.00     0.167 HD
ATOM     47  C   UNL A   1      38.433  32.119  30.665  1.00  0.00     0.037 A 
ATOM     48  C   UNL A   1      44.500  28.872  32.200  1.00  0.00     0.037 A 
ATOM     49  C   UNL A   1      39.174  32.708  31.749  1.00  0.00     0.049 A 
ATOM     50  C   UNL A   1      44.082  30.150  32.872  1.00  0.00     0.074 A 
ATOM     51  C   UNL A   1      38.895  33.851  32.474  1.00  0.00     0.029 A 
ATOM     52  N   UNL A   1      40.406  32.243  32.191  1.00  0.00    -0.354 N 
ATOM     53  N   UNL A   1      42.983  30.851  32.702  1.00  0.00    -0.248 NA
ATOM     54  C   UNL A   1      44.994  30.694  33.884  1.00  0.00     0.031 C 
ATOM     55  C   UNL A   1      39.999  34.123  33.292  1.00  0.00     0.029 A 
ATOM     56  C   UNL A   1      40.927  33.104  33.139  1.00  0.00     0.049 A 
ATOM     57  H   UNL A   1      40.846  31.421  31.875  1.00  0.00     0.167 HD
ATOM     58  C   UNL A   1      43.061  31.907  33.603  1.00  0.00     0.074 A 
ATOM     59  C   UNL A   1      44.305  31.734  34.330  1.00  0.00     0.031 C 
ATOM     60  C   UNL A   1      42.187  32.923  33.819  1.00  0.00     0.037 A 
BRANCH  47  61
ATOM     61  C   UNL A   1      37.148  32.764  30.214  1.00  0.00     0.058 A 
ATOM     62  C   UNL A   1      35.919  32.407  30.798  1.00  0.00     0.135 A 
ATOM     63  C   UNL A   1      37.135  33.783  29.250  1.00  0.00     0.135 A 
ATOM     64  F   UNL A   1      35.865  31.425  31.713  1.00  0.00    -0.206 F 
ATOM     65  C   UNL A   1      34.729  33.039  30.445  1.00  0.00     0.059 A 
ATOM     66  C   UNL A   1      35.958  34.440  28.891  1.00  0.00     0.059 A 
ATOM     67  F   UNL A   1      38.273  34.154  28.644  1.00  0.00    -0.206 F 
ATOM     68  C   UNL A   1      34.760  34.059  29.493  1.00  0.00     0.060 A 
BRANCH  68  69
ATOM     69  S   UNL A   1      33.208  34.880  29.063  1.00  0.00     0.124 S 
ATOM     70  O   UNL A   1      32.553  34.967  30.365  1.00  0.00    -0.237 OA
ATOM     71  O   UNL A   1      33.672  36.145  28.502  1.00  0.00    -0.237 OA
ATOM     72  O   UNL A   1      32.588  33.963  28.112  1.00  0.00    -0.744 OA
ENDBRANCH  68  69
ENDBRANCH  47  61
BRANCH  48  73
ATOM     73  C   UNL A   1      45.801  28.212  32.495  1.00  0.00     0.058 A 
ATOM     74  C   UNL A   1      45.920  27.223  33.482  1.00  0.00     0.135 A 
ATOM     75  C   UNL A   1      46.951  28.531  31.751  1.00  0.00     0.135 A 
ATOM     76  F   UNL A   1      44.853  26.881  34.219  1.00  0.00    -0.206 F 
ATOM     77  C   UNL A   1      47.131  26.584  33.732  1.00  0.00     0.059 A 
ATOM     78  C   UNL A   1      48.166  27.886  31.964  1.00  0.00     0.059 A 
ATOM     79  F   UNL A   1      46.890  29.458  30.783  1.00  0.00    -0.206 F 
ATOM     80  C   UNL A   1      48.248  26.919  32.964  1.00  0.00     0.060 A 
BRANCH  80  81
ATOM     81  S   UNL A   1      49.801  26.045  33.264  1.00  0.00     0.124 S 
ATOM     82  O   UNL A   1      49.617  25.582  34.634  1.00  0.00    -0.237 OA
ATOM     83  O   UNL A   1      49.776  25.013  32.232  1.00  0.00    -0.237 OA
ATOM     84  O   UNL A   1      50.812  27.081  33.079  1.00  0.00    -0.744 OA
ENDBRANCH  80  81
ENDBRANCH  48  73
BRANCH  60  85
ATOM     85  C   UNL A   1      42.551  33.915  34.888  1.00  0.00     0.058 A 
ATOM     86  C   UNL A   1      43.170  35.137  34.583  1.00  0.00     0.135 A 
ATOM     87  C   UNL A   1      42.263  33.639  36.234  1.00  0.00     0.135 A 
ATOM     88  F   UNL A   1      43.464  35.449  33.311  1.00  0.00    -0.206 F 
ATOM     89  C   UNL A   1      43.544  36.027  35.583  1.00  0.00     0.059 A 
ATOM     90  C   UNL A   1      42.594  34.532  37.246  1.00  0.00     0.059 A 
ATOM     91  F   UNL A   1      41.653  32.494  36.577  1.00  0.00    -0.206 F 
ATOM     92  C   UNL A   1      43.256  35.712  36.913  1.00  0.00     0.060 A 
BRANCH  92  93
ATOM     93  S   UNL A   1      43.761  36.868  38.202  1.00  0.00     0.124 S 
ATOM     94  O   UNL A   1      42.545  37.652  38.383  1.00  0.00    -0.237 OA
ATOM     95  O   UNL A   1      44.109  35.973  39.303  1.00  0.00    -0.237 OA
ATOM     96  O   UNL A   1      44.885  37.578  37.600  1.00  0.00    -0.744 OA
ENDBRANCH  92  93
ENDBRANCH  60  85
ENDBRANCH  34  35
ENDBRANCH  27  29
ENDBRANCH  26  27
ENDBRANCH  25  26
ENDBRANCH   1  25
TORSDOF 19
ENDMDL
