MODEL 1
REMARK VINA RESULT:     -11.9      0.000      0.000
REMARK SMILES NS(=O)(=O)c1ccc(NS(=O)(=O)c2cccc(C(=O)OCCOC(=O)c3ccc(-c4c5nc(c(-c6c(F)cc(S(=O)(=O)[O-])cc6F)c6ccc([nH]6)c(-c6c(F)cc(S(=O)(=O)[O-])cc6F)c6nc(c(-c7c(F)cc(S(=O)(=O)[O-])cc7F)c7ccc4[nH]7)C=C6)C=C5)cc3)c2)cc1
REMARK SMILES IDX 21 1 20 2 18 3 19 4 17 5 13 6 14 7 92 8 15 9 16 10 10 11
REMARK SMILES IDX 11 12 12 13 9 14 8 16 5 17 6 18 94 19 7 20 93 21 2 22 3 23
REMARK SMILES IDX 4 24 1 25 22 28 23 29 24 30 25 31 26 32 27 33 91 34 28 35
REMARK SMILES IDX 90 36 29 37 30 38 31 39 84 40 32 41 89 42 83 43 85 44 33 45
REMARK SMILES IDX 88 46 82 47 81 48 34 50 68 51 47 52 67 53 48 54 51 55 66 56
REMARK SMILES IDX 86 57 49 58 50 59 65 61 87 62 52 63 35 64 36 65 45 66 37 67
REMARK SMILES IDX 38 68 44 69 46 70 39 71 40 72 41 73 42 74 43 75 69 76 70 77
REMARK SMILES IDX 79 78 71 79 72 80 78 81 80 82 73 83 74 84 75 85 76 86 77 87
REMARK SMILES IDX 53 88 54 89 63 90 55 91 56 92 62 93 64 94 57 95 58 96 59 97
REMARK SMILES IDX 60 98 61 99
REMARK H PARENT 9 15 1 26 1 27 85 49 51 60
REMARK Flexibility Score: inf
ROOT
ATOM      1  C   UNL A   1      38.997  21.434  25.754  1.00  0.00     0.275 C 
ENDROOT
BRANCH   1   2
ATOM      2  O   UNL A   1      37.978  22.341  25.283  1.00  0.00    -0.458 OA
BRANCH   2   3
ATOM      3  C   UNL A   1      36.809  21.777  24.889  1.00  0.00     0.338 C 
ATOM      4  O   UNL A   1      36.543  20.593  24.809  1.00  0.00    -0.246 OA
BRANCH   3   5
ATOM      5  C   UNL A   1      35.811  22.859  24.771  1.00  0.00     0.061 A 
ATOM      6  C   UNL A   1      34.239  24.177  23.527  1.00  0.00     0.088 A 
ATOM      7  C   UNL A   1      34.148  25.098  24.578  1.00  0.00     0.022 A 
ATOM      8  C   UNL A   1      35.133  23.099  23.583  1.00  0.00     0.038 A 
ATOM      9  C   UNL A   1      34.769  24.803  25.784  1.00  0.00     0.002 A 
ATOM     10  C   UNL A   1      35.540  23.650  25.892  1.00  0.00     0.016 A 
BRANCH   6  11
ATOM     11  S   UNL A   1      32.998  24.134  22.259  1.00  0.00     0.261 S 
ATOM     12  O   UNL A   1      33.607  23.548  21.083  1.00  0.00    -0.201 OA
ATOM     13  O   UNL A   1      32.401  25.451  22.220  1.00  0.00    -0.201 OA
BRANCH  11  14
ATOM     14  N   UNL A   1      31.800  23.100  22.785  1.00  0.00    -0.280 N 
ATOM     15  H   UNL A   1      30.928  23.518  22.972  1.00  0.00     0.180 HD
BRANCH  14  16
ATOM     16  C   UNL A   1      31.870  21.692  23.001  1.00  0.00     0.049 A 
ATOM     17  C   UNL A   1      32.740  19.076  23.505  1.00  0.00     0.082 A 
ATOM     18  C   UNL A   1      32.300  19.426  22.229  1.00  0.00     0.024 A 
ATOM     19  C   UNL A   1      32.633  19.987  24.558  1.00  0.00     0.024 A 
ATOM     20  C   UNL A   1      31.824  20.724  21.993  1.00  0.00     0.028 A 
ATOM     21  C   UNL A   1      32.212  21.292  24.298  1.00  0.00     0.028 A 
BRANCH  17  22
ATOM     22  S   UNL A   1      33.529  17.527  23.839  1.00  0.00     0.238 S 
ATOM     23  O   UNL A   1      34.671  17.784  24.688  1.00  0.00    -0.207 OA
ATOM     24  O   UNL A   1      33.630  16.814  22.589  1.00  0.00    -0.207 OA
BRANCH  22  25
ATOM     25  N   UNL A   1      32.439  16.670  24.780  1.00  0.00    -0.225 NA
ATOM     26  H   UNL A   1      32.941  16.171  25.515  1.00  0.00     0.137 HD
ATOM     27  H   UNL A   1      31.940  15.998  24.195  1.00  0.00     0.137 HD
ENDBRANCH  22  25
ENDBRANCH  17  22
ENDBRANCH  14  16
ENDBRANCH  11  14
ENDBRANCH   6  11
ENDBRANCH   3   5
ENDBRANCH   2   3
ENDBRANCH   1   2
BRANCH   1  28
ATOM     28  C   UNL A   1      39.787  22.101  26.882  1.00  0.00     0.275 C 
BRANCH  28  29
ATOM     29  O   UNL A   1      39.675  23.529  26.744  1.00  0.00    -0.458 OA
BRANCH  29  30
ATOM     30  C   UNL A   1      40.830  24.226  26.637  1.00  0.00     0.338 C 
ATOM     31  O   UNL A   1      41.723  24.052  25.827  1.00  0.00    -0.246 OA
BRANCH  30  32
ATOM     32  C   UNL A   1      40.856  25.283  27.672  1.00  0.00     0.060 A 
ATOM     33  C   UNL A   1      39.769  25.446  28.524  1.00  0.00     0.016 A 
ATOM     34  C   UNL A   1      41.927  26.171  27.750  1.00  0.00     0.016 A 
ATOM     35  C   UNL A   1      39.683  26.563  29.353  1.00  0.00     0.010 A 
ATOM     36  C   UNL A   1      41.911  27.193  28.709  1.00  0.00     0.010 A 
ATOM     37  C   UNL A   1      40.779  27.421  29.512  1.00  0.00    -0.014 A 
BRANCH  37  38
ATOM     38  C   UNL A   1      40.757  28.510  30.539  1.00  0.00     0.031 A 
ATOM     39  C   UNL A   1      41.729  28.502  31.694  1.00  0.00     0.074 A 
ATOM     40  C   UNL A   1      39.845  29.505  30.460  1.00  0.00     0.049 A 
ATOM     41  N   UNL A   1      41.704  29.202  32.800  1.00  0.00    -0.248 NA
ATOM     42  C   UNL A   1      42.869  27.575  31.603  1.00  0.00     0.031 C 
ATOM     43  C   UNL A   1      38.860  29.680  29.389  1.00  0.00     0.029 A 
ATOM     44  N   UNL A   1      39.591  30.562  31.303  1.00  0.00    -0.354 N 
ATOM     45  C   UNL A   1      42.777  28.755  33.563  1.00  0.00     0.074 A 
ATOM     46  C   UNL A   1      43.441  27.726  32.790  1.00  0.00     0.031 C 
ATOM     47  C   UNL A   1      38.152  30.795  29.609  1.00  0.00     0.029 A 
ATOM     48  C   UNL A   1      38.536  31.348  30.898  1.00  0.00     0.049 A 
ATOM     49  H   UNL A   1      40.114  30.740  32.118  1.00  0.00     0.167 HD
ATOM     50  C   UNL A   1      43.168  29.160  34.796  1.00  0.00     0.037 A 
ATOM     51  C   UNL A   1      37.889  32.358  31.514  1.00  0.00     0.037 A 
ATOM     52  C   UNL A   1      42.540  30.226  35.536  1.00  0.00     0.049 A 
ATOM     53  C   UNL A   1      38.300  32.752  32.900  1.00  0.00     0.074 A 
ATOM     54  C   UNL A   1      42.886  30.732  36.778  1.00  0.00     0.029 A 
ATOM     55  N   UNL A   1      41.444  30.956  35.101  1.00  0.00    -0.354 N 
ATOM     56  N   UNL A   1      39.280  32.279  33.632  1.00  0.00    -0.248 NA
ATOM     57  C   UNL A   1      37.497  33.789  33.562  1.00  0.00     0.031 C 
ATOM     58  C   UNL A   1      41.977  31.742  37.110  1.00  0.00     0.029 A 
ATOM     59  C   UNL A   1      41.087  31.892  36.058  1.00  0.00     0.049 A 
ATOM     60  H   UNL A   1      40.986  30.827  34.239  1.00  0.00     0.167 HD
ATOM     61  C   UNL A   1      39.208  32.957  34.842  1.00  0.00     0.074 A 
ATOM     62  C   UNL A   1      38.106  33.891  34.736  1.00  0.00     0.031 C 
ATOM     63  C   UNL A   1      39.983  32.810  35.943  1.00  0.00     0.037 A 
BRANCH  50  64
ATOM     64  C   UNL A   1      44.310  28.428  35.449  1.00  0.00     0.058 A 
ATOM     65  C   UNL A   1      45.646  28.809  35.261  1.00  0.00     0.135 A 
ATOM     66  C   UNL A   1      44.052  27.350  36.314  1.00  0.00     0.135 A 
ATOM     67  F   UNL A   1      45.949  29.824  34.435  1.00  0.00    -0.206 F 
ATOM     68  C   UNL A   1      46.690  28.132  35.885  1.00  0.00     0.059 A 
ATOM     69  C   UNL A   1      45.078  26.673  36.967  1.00  0.00     0.059 A 
ATOM     70  F   UNL A   1      42.791  26.946  36.533  1.00  0.00    -0.206 F 
ATOM     71  C   UNL A   1      46.396  27.062  36.733  1.00  0.00     0.060 A 
BRANCH  71  72
ATOM     72  S   UNL A   1      47.760  26.188  37.531  1.00  0.00     0.124 S 
ATOM     73  O   UNL A   1      47.601  26.609  38.920  1.00  0.00    -0.237 OA
ATOM     74  O   UNL A   1      47.442  24.791  37.254  1.00  0.00    -0.237 OA
ATOM     75  O   UNL A   1      48.941  26.706  36.849  1.00  0.00    -0.744 OA
ENDBRANCH  71  72
ENDBRANCH  50  64
BRANCH  51  76
ATOM     76  C   UNL A   1      36.733  33.009  30.842  1.00  0.00     0.058 A 
ATOM     77  C   UNL A   1      35.418  32.733  31.242  1.00  0.00     0.135 A 
ATOM     78  C   UNL A   1      36.922  33.951  29.817  1.00  0.00     0.135 A 
ATOM     79  F   UNL A   1      35.187  31.830  32.206  1.00  0.00    -0.206 F 
ATOM     80  C   UNL A   1      34.332  33.372  30.654  1.00  0.00     0.059 A 
ATOM     81  C   UNL A   1      35.854  34.624  29.236  1.00  0.00     0.059 A 
ATOM     82  F   UNL A   1      38.163  34.259  29.407  1.00  0.00    -0.206 F 
ATOM     83  C   UNL A   1      34.559  34.323  29.658  1.00  0.00     0.060 A 
BRANCH  83  84
ATOM     84  S   UNL A   1      33.150  35.208  28.958  1.00  0.00     0.124 S 
ATOM     85  O   UNL A   1      32.653  34.242  27.984  1.00  0.00    -0.237 OA
ATOM     86  O   UNL A   1      32.308  35.423  30.131  1.00  0.00    -0.237 OA
ATOM     87  O   UNL A   1      33.755  36.414  28.403  1.00  0.00    -0.744 OA
ENDBRANCH  83  84
ENDBRANCH  51  76
BRANCH  63  88
ATOM     88  C   UNL A   1      39.672  33.684  37.124  1.00  0.00     0.058 A 
ATOM     89  C   UNL A   1      38.786  33.265  38.128  1.00  0.00     0.135 A 
ATOM     90  C   UNL A   1      40.309  34.925  37.281  1.00  0.00     0.135 A 
ATOM     91  F   UNL A   1      38.143  32.092  38.015  1.00  0.00    -0.206 F 
ATOM     92  C   UNL A   1      38.537  34.050  39.248  1.00  0.00     0.059 A 
ATOM     93  C   UNL A   1      40.090  35.717  38.404  1.00  0.00     0.059 A 
ATOM     94  F   UNL A   1      41.166  35.368  36.349  1.00  0.00    -0.206 F 
ATOM     95  C   UNL A   1      39.199  35.273  39.380  1.00  0.00     0.060 A 
BRANCH  95  96
ATOM     96  S   UNL A   1      38.908  36.259  40.864  1.00  0.00     0.124 S 
ATOM     97  O   UNL A   1      40.216  36.209  41.510  1.00  0.00    -0.237 OA
ATOM     98  O   UNL A   1      38.523  37.553  40.309  1.00  0.00    -0.237 OA
ATOM     99  O   UNL A   1      37.841  35.535  41.549  1.00  0.00    -0.744 OA
ENDBRANCH  95  96
ENDBRANCH  63  88
ENDBRANCH  37  38
ENDBRANCH  30  32
ENDBRANCH  29  30
ENDBRANCH  28  29
ENDBRANCH   1  28
TORSDOF 19
ENDMDL
MODEL 2
REMARK VINA RESULT:     -11.9      2.059      3.636
REMARK SMILES NS(=O)(=O)c1ccc(NS(=O)(=O)c2cccc(C(=O)OCCOC(=O)c3ccc(-c4c5nc(c(-c6c(F)cc(S(=O)(=O)[O-])cc6F)c6ccc([nH]6)c(-c6c(F)cc(S(=O)(=O)[O-])cc6F)c6nc(c(-c7c(F)cc(S(=O)(=O)[O-])cc7F)c7ccc4[nH]7)C=C6)C=C5)cc3)c2)cc1
REMARK SMILES IDX 21 1 20 2 18 3 19 4 17 5 13 6 14 7 92 8 15 9 16 10 10 11
REMARK SMILES IDX 11 12 12 13 9 14 8 16 5 17 6 18 94 19 7 20 93 21 2 22 3 23
REMARK SMILES IDX 4 24 1 25 22 28 23 29 24 30 25 31 26 32 27 33 91 34 28 35
REMARK SMILES IDX 90 36 29 37 30 38 31 39 84 40 32 41 89 42 83 43 85 44 33 45
REMARK SMILES IDX 88 46 82 47 81 48 34 50 68 51 47 52 67 53 48 54 51 55 66 56
REMARK SMILES IDX 86 57 49 58 50 59 65 61 87 62 52 63 35 64 36 65 45 66 37 67
REMARK SMILES IDX 38 68 44 69 46 70 39 71 40 72 41 73 42 74 43 75 69 76 70 77
REMARK SMILES IDX 79 78 71 79 72 80 78 81 80 82 73 83 74 84 75 85 76 86 77 87
REMARK SMILES IDX 53 88 54 89 63 90 55 91 56 92 62 93 64 94 57 95 58 96 59 97
REMARK SMILES IDX 60 98 61 99
REMARK H PARENT 9 15 1 26 1 27 85 49 51 60
REMARK Flexibility Score: inf
ROOT
ATOM      1  C   UNL A   1      38.040  21.956  25.401  1.00  0.00     0.275 C 
ENDROOT
BRANCH   1   2
ATOM      2  O   UNL A   1      37.435  23.179  24.930  1.00  0.00    -0.458 OA
BRANCH   2   3
ATOM      3  C   UNL A   1      36.507  23.050  23.949  1.00  0.00     0.338 C 
ATOM      4  O   UNL A   1      36.691  23.035  22.747  1.00  0.00    -0.246 OA
BRANCH   3   5
ATOM      5  C   UNL A   1      35.223  22.707  24.594  1.00  0.00     0.061 A 
ATOM      6  C   UNL A   1      33.238  23.275  25.814  1.00  0.00     0.088 A 
ATOM      7  C   UNL A   1      32.953  21.920  26.022  1.00  0.00     0.022 A 
ATOM      8  C   UNL A   1      34.417  23.679  25.173  1.00  0.00     0.038 A 
ATOM      9  C   UNL A   1      33.723  20.965  25.372  1.00  0.00     0.002 A 
ATOM     10  C   UNL A   1      34.812  21.371  24.607  1.00  0.00     0.016 A 
BRANCH   6  11
ATOM     11  S   UNL A   1      31.975  24.503  26.032  1.00  0.00     0.261 S 
ATOM     12  O   UNL A   1      32.629  25.795  26.038  1.00  0.00    -0.201 OA
ATOM     13  O   UNL A   1      31.163  24.067  27.148  1.00  0.00    -0.201 OA
BRANCH  11  14
ATOM     14  N   UNL A   1      30.989  24.433  24.689  1.00  0.00    -0.280 N 
ATOM     15  H   UNL A   1      30.791  23.530  24.352  1.00  0.00     0.180 HD
BRANCH  14  16
ATOM     16  C   UNL A   1      30.395  25.508  23.963  1.00  0.00     0.049 A 
ATOM     17  C   UNL A   1      29.764  28.017  22.885  1.00  0.00     0.082 A 
ATOM     18  C   UNL A   1      28.907  27.425  23.811  1.00  0.00     0.024 A 
ATOM     19  C   UNL A   1      30.870  27.313  22.403  1.00  0.00     0.024 A 
ATOM     20  C   UNL A   1      29.204  26.150  24.314  1.00  0.00     0.028 A 
ATOM     21  C   UNL A   1      31.187  26.070  22.954  1.00  0.00     0.028 A 
BRANCH  17  22
ATOM     22  S   UNL A   1      29.563  29.692  22.349  1.00  0.00     0.238 S 
ATOM     23  O   UNL A   1      29.446  30.524  23.527  1.00  0.00    -0.207 OA
ATOM     24  O   UNL A   1      28.582  29.694  21.292  1.00  0.00    -0.207 OA
BRANCH  22  25
ATOM     25  N   UNL A   1      31.022  30.105  21.636  1.00  0.00    -0.225 NA
ATOM     26  H   UNL A   1      31.784  29.623  22.113  1.00  0.00     0.137 HD
ATOM     27  H   UNL A   1      31.161  31.114  21.707  1.00  0.00     0.137 HD
ENDBRANCH  22  25
ENDBRANCH  17  22
ENDBRANCH  14  16
ENDBRANCH  11  14
ENDBRANCH   6  11
ENDBRANCH   3   5
ENDBRANCH   2   3
ENDBRANCH   1   2
BRANCH   1  28
ATOM     28  C   UNL A   1      39.067  22.284  26.486  1.00  0.00     0.275 C 
BRANCH  28  29
ATOM     29  O   UNL A   1      39.292  23.704  26.497  1.00  0.00    -0.458 OA
BRANCH  29  30
ATOM     30  C   UNL A   1      40.572  24.121  26.642  1.00  0.00     0.338 C 
ATOM     31  O   UNL A   1      41.550  23.720  26.037  1.00  0.00    -0.246 OA
BRANCH  30  32
ATOM     32  C   UNL A   1      40.622  25.184  27.669  1.00  0.00     0.060 A 
ATOM     33  C   UNL A   1      39.571  25.330  28.569  1.00  0.00     0.016 A 
ATOM     34  C   UNL A   1      41.676  26.095  27.693  1.00  0.00     0.016 A 
ATOM     35  C   UNL A   1      39.500  26.451  29.395  1.00  0.00     0.010 A 
ATOM     36  C   UNL A   1      41.683  27.122  28.647  1.00  0.00     0.010 A 
ATOM     37  C   UNL A   1      40.583  27.333  29.499  1.00  0.00    -0.014 A 
BRANCH  37  38
ATOM     38  C   UNL A   1      40.585  28.427  30.520  1.00  0.00     0.031 A 
ATOM     39  C   UNL A   1      41.562  28.408  31.672  1.00  0.00     0.074 A 
ATOM     40  C   UNL A   1      39.691  29.438  30.439  1.00  0.00     0.049 A 
ATOM     41  N   UNL A   1      41.553  29.115  32.773  1.00  0.00    -0.248 NA
ATOM     42  C   UNL A   1      42.684  27.460  31.581  1.00  0.00     0.031 C 
ATOM     43  C   UNL A   1      38.705  29.624  29.371  1.00  0.00     0.029 A 
ATOM     44  N   UNL A   1      39.459  30.504  31.277  1.00  0.00    -0.354 N 
ATOM     45  C   UNL A   1      42.621  28.652  33.535  1.00  0.00     0.074 A 
ATOM     46  C   UNL A   1      43.263  27.607  32.765  1.00  0.00     0.031 C 
ATOM     47  C   UNL A   1      38.018  30.753  29.587  1.00  0.00     0.029 A 
ATOM     48  C   UNL A   1      38.417  31.307  30.872  1.00  0.00     0.049 A 
ATOM     49  H   UNL A   1      39.988  30.677  32.089  1.00  0.00     0.167 HD
ATOM     50  C   UNL A   1      43.024  29.057  34.764  1.00  0.00     0.037 A 
ATOM     51  C   UNL A   1      37.791  32.332  31.485  1.00  0.00     0.037 A 
ATOM     52  C   UNL A   1      42.419  30.138  35.501  1.00  0.00     0.049 A 
ATOM     53  C   UNL A   1      38.215  32.726  32.867  1.00  0.00     0.074 A 
ATOM     54  C   UNL A   1      42.779  30.645  36.738  1.00  0.00     0.029 A 
ATOM     55  N   UNL A   1      41.334  30.885  35.066  1.00  0.00    -0.354 N 
ATOM     56  N   UNL A   1      39.189  32.239  33.598  1.00  0.00    -0.248 NA
ATOM     57  C   UNL A   1      37.433  33.780  33.525  1.00  0.00     0.031 C 
ATOM     58  C   UNL A   1      41.889  31.673  37.069  1.00  0.00     0.029 A 
ATOM     59  C   UNL A   1      40.997  31.833  36.019  1.00  0.00     0.049 A 
ATOM     60  H   UNL A   1      40.871  30.760  34.206  1.00  0.00     0.167 HD
ATOM     61  C   UNL A   1      39.134  32.925  34.804  1.00  0.00     0.074 A 
ATOM     62  C   UNL A   1      38.048  33.878  34.697  1.00  0.00     0.031 C 
ATOM     63  C   UNL A   1      39.910  32.770  35.903  1.00  0.00     0.037 A 
BRANCH  50  64
ATOM     64  C   UNL A   1      44.155  28.308  35.416  1.00  0.00     0.058 A 
ATOM     65  C   UNL A   1      45.493  28.701  35.272  1.00  0.00     0.135 A 
ATOM     66  C   UNL A   1      43.884  27.200  36.238  1.00  0.00     0.135 A 
ATOM     67  F   UNL A   1      45.809  29.746  34.489  1.00  0.00    -0.206 F 
ATOM     68  C   UNL A   1      46.526  28.008  35.896  1.00  0.00     0.059 A 
ATOM     69  C   UNL A   1      44.899  26.505  36.890  1.00  0.00     0.059 A 
ATOM     70  F   UNL A   1      42.620  26.783  36.414  1.00  0.00    -0.206 F 
ATOM     71  C   UNL A   1      46.219  26.908  36.700  1.00  0.00     0.060 A 
BRANCH  71  72
ATOM     72  S   UNL A   1      47.570  26.013  37.497  1.00  0.00     0.124 S 
ATOM     73  O   UNL A   1      47.733  24.874  36.599  1.00  0.00    -0.237 OA
ATOM     74  O   UNL A   1      48.650  26.993  37.478  1.00  0.00    -0.237 OA
ATOM     75  O   UNL A   1      47.036  25.697  38.818  1.00  0.00    -0.744 OA
ENDBRANCH  71  72
ENDBRANCH  50  64
BRANCH  51  76
ATOM     76  C   UNL A   1      36.644  32.999  30.813  1.00  0.00     0.058 A 
ATOM     77  C   UNL A   1      35.328  32.771  31.238  1.00  0.00     0.135 A 
ATOM     78  C   UNL A   1      36.845  33.911  29.763  1.00  0.00     0.135 A 
ATOM     79  F   UNL A   1      35.085  31.899  32.228  1.00  0.00    -0.206 F 
ATOM     80  C   UNL A   1      34.252  33.428  30.651  1.00  0.00     0.059 A 
ATOM     81  C   UNL A   1      35.788  34.601  29.180  1.00  0.00     0.059 A 
ATOM     82  F   UNL A   1      38.088  34.172  29.327  1.00  0.00    -0.206 F 
ATOM     83  C   UNL A   1      34.492  34.347  29.628  1.00  0.00     0.060 A 
BRANCH  83  84
ATOM     84  S   UNL A   1      33.098  35.256  28.927  1.00  0.00     0.124 S 
ATOM     85  O   UNL A   1      33.763  36.430  28.374  1.00  0.00    -0.237 OA
ATOM     86  O   UNL A   1      32.569  34.305  27.954  1.00  0.00    -0.237 OA
ATOM     87  O   UNL A   1      32.241  35.497  30.083  1.00  0.00    -0.744 OA
ENDBRANCH  83  84
ENDBRANCH  51  76
BRANCH  63  88
ATOM     88  C   UNL A   1      39.620  33.656  37.080  1.00  0.00     0.058 A 
ATOM     89  C   UNL A   1      38.782  33.232  38.123  1.00  0.00     0.135 A 
ATOM     90  C   UNL A   1      40.228  34.916  37.193  1.00  0.00     0.135 A 
ATOM     91  F   UNL A   1      38.167  32.041  38.053  1.00  0.00    -0.206 F 
ATOM     92  C   UNL A   1      38.553  34.029  39.238  1.00  0.00     0.059 A 
ATOM     93  C   UNL A   1      40.030  35.721  38.310  1.00  0.00     0.059 A 
ATOM     94  F   UNL A   1      41.040  35.364  36.223  1.00  0.00    -0.206 F 
ATOM     95  C   UNL A   1      39.187  35.271  39.325  1.00  0.00     0.060 A 
BRANCH  95  96
ATOM     96  S   UNL A   1      38.926  36.274  40.804  1.00  0.00     0.124 S 
ATOM     97  O   UNL A   1      40.242  36.223  41.431  1.00  0.00    -0.237 OA
ATOM     98  O   UNL A   1      38.541  37.566  40.241  1.00  0.00    -0.237 OA
ATOM     99  O   UNL A   1      37.863  35.566  41.511  1.00  0.00    -0.744 OA
ENDBRANCH  95  96
ENDBRANCH  63  88
ENDBRANCH  37  38
ENDBRANCH  30  32
ENDBRANCH  29  30
ENDBRANCH  28  29
ENDBRANCH   1  28
TORSDOF 19
ENDMDL
MODEL 3
REMARK VINA RESULT:     -11.6      4.327      7.140
REMARK SMILES NS(=O)(=O)c1ccc(NS(=O)(=O)c2cccc(C(=O)OCCOC(=O)c3ccc(-c4c5nc(c(-c6c(F)cc(S(=O)(=O)[O-])cc6F)c6ccc([nH]6)c(-c6c(F)cc(S(=O)(=O)[O-])cc6F)c6nc(c(-c7c(F)cc(S(=O)(=O)[O-])cc7F)c7ccc4[nH]7)C=C6)C=C5)cc3)c2)cc1
REMARK SMILES IDX 21 1 20 2 18 3 19 4 17 5 13 6 14 7 92 8 15 9 16 10 10 11
REMARK SMILES IDX 11 12 12 13 9 14 8 16 5 17 6 18 94 19 7 20 93 21 2 22 3 23
REMARK SMILES IDX 4 24 1 25 22 28 23 29 24 30 25 31 26 32 27 33 91 34 28 35
REMARK SMILES IDX 90 36 29 37 30 38 31 39 84 40 32 41 89 42 83 43 85 44 33 45
REMARK SMILES IDX 88 46 82 47 81 48 34 50 68 51 47 52 67 53 48 54 51 55 66 56
REMARK SMILES IDX 86 57 49 58 50 59 65 61 87 62 52 63 35 64 36 65 45 66 37 67
REMARK SMILES IDX 38 68 44 69 46 70 39 71 40 72 41 73 42 74 43 75 69 76 70 77
REMARK SMILES IDX 79 78 71 79 72 80 78 81 80 82 73 83 74 84 75 85 76 86 77 87
REMARK SMILES IDX 53 88 54 89 63 90 55 91 56 92 62 93 64 94 57 95 58 96 59 97
REMARK SMILES IDX 60 98 61 99
REMARK H PARENT 9 15 1 26 1 27 85 49 51 60
REMARK Flexibility Score: inf
ROOT
ATOM      1  C   UNL A   1      40.742  20.104  26.429  1.00  0.00     0.275 C 
ENDROOT
BRANCH   1   2
ATOM      2  O   UNL A   1      41.584  19.585  25.379  1.00  0.00    -0.458 OA
BRANCH   2   3
ATOM      3  C   UNL A   1      42.652  18.848  25.774  1.00  0.00     0.338 C 
ATOM      4  O   UNL A   1      42.663  17.685  26.130  1.00  0.00    -0.246 OA
BRANCH   3   5
ATOM      5  C   UNL A   1      43.867  19.639  25.492  1.00  0.00     0.061 A 
ATOM      6  C   UNL A   1      45.079  21.705  25.375  1.00  0.00     0.088 A 
ATOM      7  C   UNL A   1      46.117  21.081  24.672  1.00  0.00     0.022 A 
ATOM      8  C   UNL A   1      43.912  21.009  25.715  1.00  0.00     0.038 A 
ATOM      9  C   UNL A   1      46.093  19.700  24.527  1.00  0.00     0.002 A 
ATOM     10  C   UNL A   1      44.999  18.983  24.999  1.00  0.00     0.016 A 
BRANCH   6  11
ATOM     11  S   UNL A   1      45.344  23.276  26.161  1.00  0.00     0.261 S 
ATOM     12  O   UNL A   1      46.775  23.458  26.281  1.00  0.00    -0.201 OA
ATOM     13  O   UNL A   1      44.481  23.307  27.321  1.00  0.00    -0.201 OA
BRANCH  11  14
ATOM     14  N   UNL A   1      44.763  24.444  25.122  1.00  0.00    -0.280 N 
ATOM     15  H   UNL A   1      44.469  24.122  24.239  1.00  0.00     0.180 HD
BRANCH  14  16
ATOM     16  C   UNL A   1      44.635  25.847  25.342  1.00  0.00     0.049 A 
ATOM     17  C   UNL A   1      44.372  28.388  26.495  1.00  0.00     0.082 A 
ATOM     18  C   UNL A   1      43.304  27.832  25.792  1.00  0.00     0.024 A 
ATOM     19  C   UNL A   1      45.608  27.739  26.523  1.00  0.00     0.024 A 
ATOM     20  C   UNL A   1      43.456  26.580  25.179  1.00  0.00     0.028 A 
ATOM     21  C   UNL A   1      45.729  26.467  25.959  1.00  0.00     0.028 A 
BRANCH  17  22
ATOM     22  S   UNL A   1      44.203  29.868  27.452  1.00  0.00     0.238 S 
ATOM     23  O   UNL A   1      44.402  30.994  26.567  1.00  0.00    -0.207 OA
ATOM     24  O   UNL A   1      44.959  29.686  28.666  1.00  0.00    -0.207 OA
BRANCH  22  25
ATOM     25  N   UNL A   1      42.591  29.917  27.907  1.00  0.00    -0.225 NA
ATOM     26  H   UNL A   1      42.169  28.998  27.769  1.00  0.00     0.137 HD
ATOM     27  H   UNL A   1      42.098  30.605  27.336  1.00  0.00     0.137 HD
ENDBRANCH  22  25
ENDBRANCH  17  22
ENDBRANCH  14  16
ENDBRANCH  11  14
ENDBRANCH   6  11
ENDBRANCH   3   5
ENDBRANCH   2   3
ENDBRANCH   1   2
BRANCH   1  28
ATOM     28  C   UNL A   1      40.480  21.591  26.181  1.00  0.00     0.275 C 
BRANCH  28  29
ATOM     29  O   UNL A   1      39.096  21.869  26.456  1.00  0.00    -0.458 OA
BRANCH  29  30
ATOM     30  C   UNL A   1      38.570  22.979  25.887  1.00  0.00     0.338 C 
ATOM     31  O   UNL A   1      37.874  23.037  24.890  1.00  0.00    -0.246 OA
BRANCH  30  32
ATOM     32  C   UNL A   1      38.960  24.162  26.685  1.00  0.00     0.060 A 
ATOM     33  C   UNL A   1      39.770  25.144  26.121  1.00  0.00     0.016 A 
ATOM     34  C   UNL A   1      38.590  24.267  28.024  1.00  0.00     0.016 A 
ATOM     35  C   UNL A   1      40.321  26.146  26.916  1.00  0.00     0.010 A 
ATOM     36  C   UNL A   1      39.008  25.375  28.775  1.00  0.00     0.010 A 
ATOM     37  C   UNL A   1      39.900  26.322  28.241  1.00  0.00    -0.014 A 
BRANCH  37  38
ATOM     38  C   UNL A   1      40.347  27.508  29.037  1.00  0.00     0.031 A 
ATOM     39  C   UNL A   1      41.666  27.492  29.772  1.00  0.00     0.074 A 
ATOM     40  C   UNL A   1      39.560  28.603  29.131  1.00  0.00     0.049 A 
ATOM     41  N   UNL A   1      42.103  28.305  30.700  1.00  0.00    -0.248 NA
ATOM     42  C   UNL A   1      42.609  26.414  29.431  1.00  0.00     0.031 C 
ATOM     43  C   UNL A   1      38.274  28.794  28.453  1.00  0.00     0.029 A 
ATOM     44  N   UNL A   1      39.722  29.770  29.842  1.00  0.00    -0.354 N 
ATOM     45  C   UNL A   1      43.336  27.800  31.103  1.00  0.00     0.074 A 
ATOM     46  C   UNL A   1      43.581  26.613  30.311  1.00  0.00     0.031 C 
ATOM     47  C   UNL A   1      37.795  30.013  28.735  1.00  0.00     0.029 A 
ATOM     48  C   UNL A   1      38.667  30.645  29.714  1.00  0.00     0.049 A 
ATOM     49  H   UNL A   1      40.518  29.962  30.390  1.00  0.00     0.167 HD
ATOM     50  C   UNL A   1      44.179  28.279  32.050  1.00  0.00     0.037 A 
ATOM     51  C   UNL A   1      38.379  31.793  30.358  1.00  0.00     0.037 A 
ATOM     52  C   UNL A   1      43.958  29.494  32.793  1.00  0.00     0.049 A 
ATOM     53  C   UNL A   1      39.295  32.275  31.441  1.00  0.00     0.074 A 
ATOM     54  C   UNL A   1      44.773  30.079  33.748  1.00  0.00     0.029 A 
ATOM     55  N   UNL A   1      42.849  30.315  32.661  1.00  0.00    -0.354 N 
ATOM     56  N   UNL A   1      40.427  31.754  31.850  1.00  0.00    -0.248 NA
ATOM     57  C   UNL A   1      38.880  33.476  32.177  1.00  0.00     0.031 C 
ATOM     58  C   UNL A   1      44.138  31.233  34.220  1.00  0.00     0.029 A 
ATOM     59  C   UNL A   1      42.946  31.389  33.531  1.00  0.00     0.049 A 
ATOM     60  H   UNL A   1      42.101  30.158  32.039  1.00  0.00     0.167 HD
ATOM     61  C   UNL A   1      40.857  32.562  32.894  1.00  0.00     0.074 A 
ATOM     62  C   UNL A   1      39.879  33.621  33.039  1.00  0.00     0.031 C 
ATOM     63  C   UNL A   1      41.961  32.431  33.669  1.00  0.00     0.037 A 
BRANCH  50  64
ATOM     64  C   UNL A   1      45.410  27.472  32.369  1.00  0.00     0.058 A 
ATOM     65  C   UNL A   1      45.371  26.353  33.213  1.00  0.00     0.135 A 
ATOM     66  C   UNL A   1      46.641  27.805  31.780  1.00  0.00     0.135 A 
ATOM     67  F   UNL A   1      44.223  25.998  33.812  1.00  0.00    -0.206 F 
ATOM     68  C   UNL A   1      46.514  25.607  33.484  1.00  0.00     0.059 A 
ATOM     69  C   UNL A   1      47.793  27.060  32.018  1.00  0.00     0.059 A 
ATOM     70  F   UNL A   1      46.734  28.864  30.960  1.00  0.00    -0.206 F 
ATOM     71  C   UNL A   1      47.722  25.972  32.885  1.00  0.00     0.060 A 
BRANCH  71  72
ATOM     72  S   UNL A   1      49.200  25.000  33.251  1.00  0.00     0.124 S 
ATOM     73  O   UNL A   1      48.626  23.848  33.941  1.00  0.00    -0.237 OA
ATOM     74  O   UNL A   1      49.740  24.736  31.922  1.00  0.00    -0.237 OA
ATOM     75  O   UNL A   1      49.998  25.895  34.083  1.00  0.00    -0.744 OA
ENDBRANCH  71  72
ENDBRANCH  50  64
BRANCH  51  76
ATOM     76  C   UNL A   1      37.120  32.519  30.038  1.00  0.00     0.058 A 
ATOM     77  C   UNL A   1      35.934  32.246  30.733  1.00  0.00     0.135 A 
ATOM     78  C   UNL A   1      37.091  33.529  29.062  1.00  0.00     0.135 A 
ATOM     79  F   UNL A   1      35.911  31.281  31.664  1.00  0.00    -0.206 F 
ATOM     80  C   UNL A   1      34.764  32.953  30.477  1.00  0.00     0.059 A 
ATOM     81  C   UNL A   1      35.941  34.269  28.809  1.00  0.00     0.059 A 
ATOM     82  F   UNL A   1      38.203  33.836  28.376  1.00  0.00    -0.206 F 
ATOM     83  C   UNL A   1      34.779  33.968  29.519  1.00  0.00     0.060 A 
BRANCH  83  84
ATOM     84  S   UNL A   1      33.278  34.936  29.250  1.00  0.00     0.124 S 
ATOM     85  O   UNL A   1      33.826  36.196  28.763  1.00  0.00    -0.237 OA
ATOM     86  O   UNL A   1      32.562  34.128  28.267  1.00  0.00    -0.237 OA
ATOM     87  O   UNL A   1      32.667  34.979  30.575  1.00  0.00    -0.744 OA
ENDBRANCH  83  84
ENDBRANCH  51  76
BRANCH  63  88
ATOM     88  C   UNL A   1      42.176  33.461  34.740  1.00  0.00     0.058 A 
ATOM     89  C   UNL A   1      42.858  34.658  34.473  1.00  0.00     0.135 A 
ATOM     90  C   UNL A   1      41.649  33.275  36.027  1.00  0.00     0.135 A 
ATOM     91  F   UNL A   1      43.393  34.875  33.261  1.00  0.00    -0.206 F 
ATOM     92  C   UNL A   1      43.014  35.636  35.449  1.00  0.00     0.059 A 
ATOM     93  C   UNL A   1      41.774  34.248  37.012  1.00  0.00     0.059 A 
ATOM     94  F   UNL A   1      40.987  32.147  36.330  1.00  0.00    -0.206 F 
ATOM     95  C   UNL A   1      42.463  35.424  36.715  1.00  0.00     0.060 A 
BRANCH  95  96
ATOM     96  S   UNL A   1      42.624  36.724  37.958  1.00  0.00     0.124 S 
ATOM     97  O   UNL A   1      41.228  37.058  38.217  1.00  0.00    -0.237 OA
ATOM     98  O   UNL A   1      43.324  36.037  39.040  1.00  0.00    -0.237 OA
ATOM     99  O   UNL A   1      43.400  37.754  37.273  1.00  0.00    -0.744 OA
ENDBRANCH  95  96
ENDBRANCH  63  88
ENDBRANCH  37  38
ENDBRANCH  30  32
ENDBRANCH  29  30
ENDBRANCH  28  29
ENDBRANCH   1  28
TORSDOF 19
ENDMDL
