MODEL 1
REMARK VINA RESULT:     -10.6      0.000      0.000
REMARK SMILES O=C(/C=C/c1ccc(O)c(O)c1)OCCOC(=O)c1ccc(-c2c3nc(c(-c4c(F)cc(S(=O)(=O)[O-])cc4F)c4ccc([nH]4)c(-c4c(F)cc(S(=O)(=O)[O-])cc4F)c4nc(c(-c5c(F)cc(S(=O)(=O)[O-])cc5F)c5ccc2[nH]5)C=C4)C=C3)cc1
REMARK SMILES IDX 15 1 14 2 13 3 2 4 1 5 3 6 4 7 5 8 6 9 12 10 7 11 10 12 8 13
REMARK SMILES IDX 11 14 9 16 16 18 17 19 18 20 19 21 20 22 84 23 21 24 83 25
REMARK SMILES IDX 22 26 23 27 24 28 77 29 25 30 82 31 76 32 78 33 26 34 81 35
REMARK SMILES IDX 75 36 74 37 27 39 61 40 40 41 60 42 41 43 44 44 59 45 79 46
REMARK SMILES IDX 42 47 43 48 58 50 80 51 45 52 28 53 29 54 38 55 30 56 31 57
REMARK SMILES IDX 37 58 39 59 32 60 33 61 34 62 35 63 36 64 62 65 63 66 72 67
REMARK SMILES IDX 64 68 65 69 71 70 73 71 66 72 67 73 68 74 69 75 70 76 46 77
REMARK SMILES IDX 47 78 56 79 48 80 49 81 55 82 57 83 50 84 51 85 52 86 53 87
REMARK SMILES IDX 54 88
REMARK H PARENT 11 15 9 17 78 38 44 49
REMARK Flexibility Score: inf
ROOT
ATOM      1  C   UNL A   1      33.075  30.277  26.320  1.00  0.00     0.275 C 
ENDROOT
BRANCH   1   2
ATOM      2  C   UNL A   1      33.020  29.304  25.140  1.00  0.00     0.275 C 
BRANCH   2   3
ATOM      3  O   UNL A   1      32.096  28.206  25.284  1.00  0.00    -0.459 OA
BRANCH   3   4
ATOM      4  C   UNL A   1      30.999  27.932  24.538  1.00  0.00     0.330 C 
ATOM      5  O   UNL A   1      30.544  26.792  24.487  1.00  0.00    -0.247 OA
BRANCH   4   6
ATOM      6  C   UNL A   1      30.445  28.949  23.630  1.00  0.00     0.094 C 
ATOM      7  C   UNL A   1      29.163  29.124  23.285  1.00  0.00     0.016 C 
BRANCH   7   8
ATOM      8  C   UNL A   1      28.717  30.294  22.520  1.00  0.00    -0.021 A 
ATOM      9  C   UNL A   1      28.198  30.192  21.219  1.00  0.00     0.012 A 
ATOM     10  C   UNL A   1      28.820  31.555  23.122  1.00  0.00     0.058 A 
ATOM     11  C   UNL A   1      27.788  31.337  20.525  1.00  0.00     0.051 A 
ATOM     12  C   UNL A   1      28.412  32.683  22.426  1.00  0.00     0.157 A 
ATOM     13  C   UNL A   1      27.895  32.578  21.138  1.00  0.00     0.157 A 
BRANCH  12  14
ATOM     14  O   UNL A   1      28.525  33.909  23.018  1.00  0.00    -0.504 OA
ATOM     15  H   UNL A   1      29.271  34.448  22.842  1.00  0.00     0.293 HD
ENDBRANCH  12  14
BRANCH  13  16
ATOM     16  O   UNL A   1      27.503  33.731  20.517  1.00  0.00    -0.504 OA
ATOM     17  H   UNL A   1      28.046  34.493  20.557  1.00  0.00     0.293 HD
ENDBRANCH  13  16
ENDBRANCH   7   8
ENDBRANCH   4   6
ENDBRANCH   3   4
ENDBRANCH   2   3
ENDBRANCH   1   2
BRANCH   1  18
ATOM     18  O   UNL A   1      33.796  29.753  27.441  1.00  0.00    -0.458 OA
BRANCH  18  19
ATOM     19  C   UNL A   1      34.538  30.668  28.117  1.00  0.00     0.338 C 
ATOM     20  O   UNL A   1      34.128  31.700  28.620  1.00  0.00    -0.246 OA
BRANCH  19  21
ATOM     21  C   UNL A   1      35.921  30.172  28.300  1.00  0.00     0.060 A 
ATOM     22  C   UNL A   1      36.278  29.708  29.573  1.00  0.00     0.016 A 
ATOM     23  C   UNL A   1      36.854  30.148  27.258  1.00  0.00     0.016 A 
ATOM     24  C   UNL A   1      37.573  29.244  29.813  1.00  0.00     0.010 A 
ATOM     25  C   UNL A   1      38.152  29.684  27.502  1.00  0.00     0.010 A 
ATOM     26  C   UNL A   1      38.527  29.251  28.786  1.00  0.00    -0.014 A 
BRANCH  26  27
ATOM     27  C   UNL A   1      39.937  28.895  29.086  1.00  0.00     0.031 A 
ATOM     28  C   UNL A   1      40.822  29.900  29.772  1.00  0.00     0.074 A 
ATOM     29  C   UNL A   1      40.421  27.680  28.773  1.00  0.00     0.049 A 
ATOM     30  N   UNL A   1      42.073  29.787  30.137  1.00  0.00    -0.248 NA
ATOM     31  C   UNL A   1      40.217  31.204  30.084  1.00  0.00     0.031 C 
ATOM     32  C   UNL A   1      39.664  26.608  28.128  1.00  0.00     0.029 A 
ATOM     33  N   UNL A   1      41.673  27.145  28.956  1.00  0.00    -0.354 N 
ATOM     34  C   UNL A   1      42.405  30.998  30.730  1.00  0.00     0.074 A 
ATOM     35  C   UNL A   1      41.235  31.846  30.639  1.00  0.00     0.031 C 
ATOM     36  C   UNL A   1      40.470  25.544  27.963  1.00  0.00     0.029 A 
ATOM     37  C   UNL A   1      41.804  25.865  28.472  1.00  0.00     0.049 A 
ATOM     38  H   UNL A   1      42.408  27.632  29.393  1.00  0.00     0.167 HD
ATOM     39  C   UNL A   1      43.572  31.369  31.309  1.00  0.00     0.037 A 
ATOM     40  C   UNL A   1      42.877  25.050  28.434  1.00  0.00     0.037 A 
ATOM     41  C   UNL A   1      44.740  30.531  31.398  1.00  0.00     0.049 A 
ATOM     42  C   UNL A   1      44.185  25.505  29.030  1.00  0.00     0.074 A 
ATOM     43  C   UNL A   1      45.959  30.814  31.991  1.00  0.00     0.029 A 
ATOM     44  N   UNL A   1      44.843  29.253  30.870  1.00  0.00    -0.354 N 
ATOM     45  N   UNL A   1      44.469  26.638  29.628  1.00  0.00    -0.248 NA
ATOM     46  C   UNL A   1      45.317  24.570  28.950  1.00  0.00     0.031 C 
ATOM     47  C   UNL A   1      46.813  29.726  31.780  1.00  0.00     0.029 A 
ATOM     48  C   UNL A   1      46.112  28.746  31.098  1.00  0.00     0.049 A 
ATOM     49  H   UNL A   1      44.119  28.776  30.402  1.00  0.00     0.167 HD
ATOM     50  C   UNL A   1      45.801  26.537  30.023  1.00  0.00     0.074 A 
ATOM     51  C   UNL A   1      46.264  25.233  29.599  1.00  0.00     0.031 C 
ATOM     52  C   UNL A   1      46.567  27.443  30.679  1.00  0.00     0.037 A 
BRANCH  39  53
ATOM     53  C   UNL A   1      43.651  32.755  31.882  1.00  0.00     0.058 A 
ATOM     54  C   UNL A   1      43.453  32.998  33.251  1.00  0.00     0.135 A 
ATOM     55  C   UNL A   1      43.958  33.851  31.058  1.00  0.00     0.135 A 
ATOM     56  F   UNL A   1      43.143  31.988  34.079  1.00  0.00    -0.206 F 
ATOM     57  C   UNL A   1      43.532  34.283  33.778  1.00  0.00     0.059 A 
ATOM     58  C   UNL A   1      44.065  35.140  31.569  1.00  0.00     0.059 A 
ATOM     59  F   UNL A   1      44.155  33.672  29.743  1.00  0.00    -0.206 F 
ATOM     60  C   UNL A   1      43.835  35.347  32.929  1.00  0.00     0.060 A 
BRANCH  60  61
ATOM     61  S   UNL A   1      43.929  37.010  33.627  1.00  0.00     0.124 S 
ATOM     62  O   UNL A   1      44.324  37.793  32.461  1.00  0.00    -0.237 OA
ATOM     63  O   UNL A   1      42.567  37.227  34.104  1.00  0.00    -0.237 OA
ATOM     64  O   UNL A   1      44.943  36.883  34.670  1.00  0.00    -0.744 OA
ENDBRANCH  60  61
ENDBRANCH  39  53
BRANCH  40  65
ATOM     65  C   UNL A   1      42.766  23.709  27.801  1.00  0.00     0.058 A 
ATOM     66  C   UNL A   1      42.913  23.545  26.416  1.00  0.00     0.135 A 
ATOM     67  C   UNL A   1      42.500  22.567  28.572  1.00  0.00     0.135 A 
ATOM     68  F   UNL A   1      43.158  24.610  25.637  1.00  0.00    -0.206 F 
ATOM     69  C   UNL A   1      42.785  22.298  25.813  1.00  0.00     0.059 A 
ATOM     70  C   UNL A   1      42.389  21.306  27.995  1.00  0.00     0.059 A 
ATOM     71  F   UNL A   1      42.364  22.669  29.904  1.00  0.00    -0.206 F 
ATOM     72  C   UNL A   1      42.522  21.184  26.612  1.00  0.00     0.060 A 
BRANCH  72  73
ATOM     73  S   UNL A   1      42.399  19.561  25.829  1.00  0.00     0.124 S 
ATOM     74  O   UNL A   1      42.777  18.678  26.924  1.00  0.00    -0.237 OA
ATOM     75  O   UNL A   1      40.996  19.521  25.427  1.00  0.00    -0.237 OA
ATOM     76  O   UNL A   1      43.354  19.650  24.728  1.00  0.00    -0.744 OA
ENDBRANCH  72  73
ENDBRANCH  40  65
BRANCH  52  77
ATOM     77  C   UNL A   1      47.981  27.054  31.014  1.00  0.00     0.058 A 
ATOM     78  C   UNL A   1      48.298  26.364  32.194  1.00  0.00     0.135 A 
ATOM     79  C   UNL A   1      49.026  27.322  30.113  1.00  0.00     0.135 A 
ATOM     80  F   UNL A   1      47.341  26.087  33.093  1.00  0.00    -0.206 F 
ATOM     81  C   UNL A   1      49.603  25.967  32.478  1.00  0.00     0.059 A 
ATOM     82  C   UNL A   1      50.333  26.913  30.365  1.00  0.00     0.059 A 
ATOM     83  F   UNL A   1      48.777  27.972  28.965  1.00  0.00    -0.206 F 
ATOM     84  C   UNL A   1      50.613  26.246  31.555  1.00  0.00     0.060 A 
BRANCH  84  85
ATOM     85  S   UNL A   1      52.294  25.691  31.915  1.00  0.00     0.124 S 
ATOM     86  O   UNL A   1      52.638  26.524  33.062  1.00  0.00    -0.237 OA
ATOM     87  O   UNL A   1      52.102  24.272  32.198  1.00  0.00    -0.237 OA
ATOM     88  O   UNL A   1      53.021  25.985  30.684  1.00  0.00    -0.744 OA
ENDBRANCH  84  85
ENDBRANCH  52  77
ENDBRANCH  26  27
ENDBRANCH  19  21
ENDBRANCH  18  19
ENDBRANCH   1  18
TORSDOF 17
ENDMDL
MODEL 2
REMARK VINA RESULT:     -10.5      5.835     11.560
REMARK SMILES O=C(/C=C/c1ccc(O)c(O)c1)OCCOC(=O)c1ccc(-c2c3nc(c(-c4c(F)cc(S(=O)(=O)[O-])cc4F)c4ccc([nH]4)c(-c4c(F)cc(S(=O)(=O)[O-])cc4F)c4nc(c(-c5c(F)cc(S(=O)(=O)[O-])cc5F)c5ccc2[nH]5)C=C4)C=C3)cc1
REMARK SMILES IDX 15 1 14 2 13 3 2 4 1 5 3 6 4 7 5 8 6 9 12 10 7 11 10 12 8 13
REMARK SMILES IDX 11 14 9 16 16 18 17 19 18 20 19 21 20 22 84 23 21 24 83 25
REMARK SMILES IDX 22 26 23 27 24 28 77 29 25 30 82 31 76 32 78 33 26 34 81 35
REMARK SMILES IDX 75 36 74 37 27 39 61 40 40 41 60 42 41 43 44 44 59 45 79 46
REMARK SMILES IDX 42 47 43 48 58 50 80 51 45 52 28 53 29 54 38 55 30 56 31 57
REMARK SMILES IDX 37 58 39 59 32 60 33 61 34 62 35 63 36 64 62 65 63 66 72 67
REMARK SMILES IDX 64 68 65 69 71 70 73 71 66 72 67 73 68 74 69 75 70 76 46 77
REMARK SMILES IDX 47 78 56 79 48 80 49 81 55 82 57 83 50 84 51 85 52 86 53 87
REMARK SMILES IDX 54 88
REMARK H PARENT 11 15 9 17 78 38 44 49
REMARK Flexibility Score: inf
ROOT
ATOM      1  C   UNL A   1      41.499  22.483  26.150  1.00  0.00     0.275 C 
ENDROOT
BRANCH   1   2
ATOM      2  C   UNL A   1      40.212  21.885  26.724  1.00  0.00     0.275 C 
BRANCH   2   3
ATOM      3  O   UNL A   1      39.146  21.681  25.775  1.00  0.00    -0.459 OA
BRANCH   3   4
ATOM      4  C   UNL A   1      37.927  22.272  25.746  1.00  0.00     0.330 C 
ATOM      5  O   UNL A   1      37.794  23.449  26.072  1.00  0.00    -0.247 OA
BRANCH   4   6
ATOM      6  C   UNL A   1      36.718  21.470  25.506  1.00  0.00     0.094 C 
ATOM      7  C   UNL A   1      36.633  20.286  24.885  1.00  0.00     0.016 C 
BRANCH   7   8
ATOM      8  C   UNL A   1      35.395  19.499  24.877  1.00  0.00    -0.021 A 
ATOM      9  C   UNL A   1      35.379  18.119  24.623  1.00  0.00     0.012 A 
ATOM     10  C   UNL A   1      34.189  20.165  25.133  1.00  0.00     0.058 A 
ATOM     11  C   UNL A   1      34.172  17.409  24.622  1.00  0.00     0.051 A 
ATOM     12  C   UNL A   1      32.998  19.453  25.129  1.00  0.00     0.157 A 
ATOM     13  C   UNL A   1      32.986  18.084  24.880  1.00  0.00     0.157 A 
BRANCH  12  14
ATOM     14  O   UNL A   1      31.826  20.113  25.372  1.00  0.00    -0.504 OA
ATOM     15  H   UNL A   1      31.491  20.166  26.245  1.00  0.00     0.293 HD
ENDBRANCH  12  14
BRANCH  13  16
ATOM     16  O   UNL A   1      31.778  17.446  24.904  1.00  0.00    -0.504 OA
ATOM     17  H   UNL A   1      31.339  17.244  24.101  1.00  0.00     0.293 HD
ENDBRANCH  13  16
ENDBRANCH   7   8
ENDBRANCH   4   6
ENDBRANCH   3   4
ENDBRANCH   2   3
ENDBRANCH   1   2
BRANCH   1  18
ATOM     18  O   UNL A   1      41.484  23.916  26.125  1.00  0.00    -0.458 OA
BRANCH  18  19
ATOM     19  C   UNL A   1      42.564  24.506  26.698  1.00  0.00     0.338 C 
ATOM     20  O   UNL A   1      43.730  24.342  26.380  1.00  0.00    -0.246 OA
BRANCH  19  21
ATOM     21  C   UNL A   1      42.131  25.514  27.692  1.00  0.00     0.060 A 
ATOM     22  C   UNL A   1      42.997  26.586  27.944  1.00  0.00     0.016 A 
ATOM     23  C   UNL A   1      40.906  25.429  28.362  1.00  0.00     0.016 A 
ATOM     24  C   UNL A   1      42.652  27.560  28.883  1.00  0.00     0.010 A 
ATOM     25  C   UNL A   1      40.565  26.406  29.305  1.00  0.00     0.010 A 
ATOM     26  C   UNL A   1      41.445  27.465  29.588  1.00  0.00    -0.014 A 
BRANCH  26  27
ATOM     27  C   UNL A   1      41.154  28.421  30.686  1.00  0.00     0.031 A 
ATOM     28  C   UNL A   1      41.965  28.359  31.952  1.00  0.00     0.074 A 
ATOM     29  C   UNL A   1      40.193  29.353  30.551  1.00  0.00     0.049 A 
ATOM     30  N   UNL A   1      41.885  29.108  33.022  1.00  0.00    -0.248 NA
ATOM     31  C   UNL A   1      42.999  27.316  32.021  1.00  0.00     0.031 C 
ATOM     32  C   UNL A   1      39.351  29.534  29.370  1.00  0.00     0.029 A 
ATOM     33  N   UNL A   1      39.761  30.322  31.424  1.00  0.00    -0.354 N 
ATOM     34  C   UNL A   1      42.862  28.635  33.889  1.00  0.00     0.074 A 
ATOM     35  C   UNL A   1      43.495  27.509  33.235  1.00  0.00     0.031 C 
ATOM     36  C   UNL A   1      38.499  30.550  29.594  1.00  0.00     0.029 A 
ATOM     37  C   UNL A   1      38.720  31.078  30.940  1.00  0.00     0.049 A 
ATOM     38  H   UNL A   1      40.161  30.462  32.312  1.00  0.00     0.167 HD
ATOM     39  C   UNL A   1      43.210  29.101  35.112  1.00  0.00     0.037 A 
ATOM     40  C   UNL A   1      38.021  32.074  31.520  1.00  0.00     0.037 A 
ATOM     41  C   UNL A   1      42.581  30.217  35.769  1.00  0.00     0.049 A 
ATOM     42  C   UNL A   1      38.386  32.538  32.907  1.00  0.00     0.074 A 
ATOM     43  C   UNL A   1      42.887  30.776  36.998  1.00  0.00     0.029 A 
ATOM     44  N   UNL A   1      41.512  30.938  35.259  1.00  0.00    -0.354 N 
ATOM     45  N   UNL A   1      39.343  32.109  33.695  1.00  0.00    -0.248 NA
ATOM     46  C   UNL A   1      37.579  33.624  33.482  1.00  0.00     0.031 C 
ATOM     47  C   UNL A   1      41.972  31.804  37.253  1.00  0.00     0.029 A 
ATOM     48  C   UNL A   1      41.127  31.917  36.161  1.00  0.00     0.049 A 
ATOM     49  H   UNL A   1      41.089  30.778  34.385  1.00  0.00     0.167 HD
ATOM     50  C   UNL A   1      39.273  32.893  34.844  1.00  0.00     0.074 A 
ATOM     51  C   UNL A   1      38.182  33.825  34.646  1.00  0.00     0.031 C 
ATOM     52  C   UNL A   1      40.044  32.847  35.957  1.00  0.00     0.037 A 
BRANCH  39  53
ATOM     53  C   UNL A   1      44.320  28.390  35.833  1.00  0.00     0.058 A 
ATOM     54  C   UNL A   1      45.665  28.747  35.649  1.00  0.00     0.135 A 
ATOM     55  C   UNL A   1      44.033  27.359  36.743  1.00  0.00     0.135 A 
ATOM     56  F   UNL A   1      45.994  29.716  34.779  1.00  0.00    -0.206 F 
ATOM     57  C   UNL A   1      46.689  28.090  36.321  1.00  0.00     0.059 A 
ATOM     58  C   UNL A   1      45.040  26.704  37.444  1.00  0.00     0.059 A 
ATOM     59  F   UNL A   1      42.764  26.979  36.955  1.00  0.00    -0.206 F 
ATOM     60  C   UNL A   1      46.367  27.067  37.215  1.00  0.00     0.060 A 
BRANCH  60  61
ATOM     61  S   UNL A   1      47.708  26.220  38.078  1.00  0.00     0.124 S 
ATOM     62  O   UNL A   1      48.090  25.208  37.098  1.00  0.00    -0.237 OA
ATOM     63  O   UNL A   1      48.673  27.294  38.289  1.00  0.00    -0.237 OA
ATOM     64  O   UNL A   1      47.065  25.711  39.287  1.00  0.00    -0.744 OA
ENDBRANCH  60  61
ENDBRANCH  39  53
BRANCH  40  65
ATOM     65  C   UNL A   1      36.890  32.706  30.790  1.00  0.00     0.058 A 
ATOM     66  C   UNL A   1      35.563  32.336  31.045  1.00  0.00     0.135 A 
ATOM     67  C   UNL A   1      37.121  33.688  29.813  1.00  0.00     0.135 A 
ATOM     68  F   UNL A   1      35.294  31.394  31.962  1.00  0.00    -0.206 F 
ATOM     69  C   UNL A   1      34.501  32.904  30.348  1.00  0.00     0.059 A 
ATOM     70  C   UNL A   1      36.075  34.286  29.118  1.00  0.00     0.059 A 
ATOM     71  F   UNL A   1      38.374  34.088  29.541  1.00  0.00    -0.206 F 
ATOM     72  C   UNL A   1      34.768  33.879  29.385  1.00  0.00     0.060 A 
BRANCH  72  73
ATOM     73  S   UNL A   1      33.384  34.642  28.513  1.00  0.00     0.124 S 
ATOM     74  O   UNL A   1      32.890  33.527  27.715  1.00  0.00    -0.237 OA
ATOM     75  O   UNL A   1      32.528  35.073  29.614  1.00  0.00    -0.237 OA
ATOM     76  O   UNL A   1      34.019  35.724  27.765  1.00  0.00    -0.744 OA
ENDBRANCH  72  73
ENDBRANCH  40  65
BRANCH  52  77
ATOM     77  C   UNL A   1      39.767  33.848  37.046  1.00  0.00     0.058 A 
ATOM     78  C   UNL A   1      38.931  33.547  38.132  1.00  0.00     0.135 A 
ATOM     79  C   UNL A   1      40.394  35.106  37.033  1.00  0.00     0.135 A 
ATOM     80  F   UNL A   1      38.303  32.362  38.192  1.00  0.00    -0.206 F 
ATOM     81  C   UNL A   1      38.714  34.461  39.159  1.00  0.00     0.059 A 
ATOM     82  C   UNL A   1      40.210  36.026  38.061  1.00  0.00     0.059 A 
ATOM     83  F   UNL A   1      41.210  35.444  36.022  1.00  0.00    -0.206 F 
ATOM     84  C   UNL A   1      39.360  35.699  39.115  1.00  0.00     0.060 A 
BRANCH  84  85
ATOM     85  S   UNL A   1      39.101  36.861  40.473  1.00  0.00     0.124 S 
ATOM     86  O   UNL A   1      38.406  37.952  39.799  1.00  0.00    -0.237 OA
ATOM     87  O   UNL A   1      38.296  36.078  41.407  1.00  0.00    -0.237 OA
ATOM     88  O   UNL A   1      40.456  37.162  40.926  1.00  0.00    -0.744 OA
ENDBRANCH  84  85
ENDBRANCH  52  77
ENDBRANCH  26  27
ENDBRANCH  19  21
ENDBRANCH  18  19
ENDBRANCH   1  18
TORSDOF 17
ENDMDL
MODEL 3
REMARK VINA RESULT:     -10.5      2.987      5.723
REMARK SMILES O=C(/C=C/c1ccc(O)c(O)c1)OCCOC(=O)c1ccc(-c2c3nc(c(-c4c(F)cc(S(=O)(=O)[O-])cc4F)c4ccc([nH]4)c(-c4c(F)cc(S(=O)(=O)[O-])cc4F)c4nc(c(-c5c(F)cc(S(=O)(=O)[O-])cc5F)c5ccc2[nH]5)C=C4)C=C3)cc1
REMARK SMILES IDX 15 1 14 2 13 3 2 4 1 5 3 6 4 7 5 8 6 9 12 10 7 11 10 12 8 13
REMARK SMILES IDX 11 14 9 16 16 18 17 19 18 20 19 21 20 22 84 23 21 24 83 25
REMARK SMILES IDX 22 26 23 27 24 28 77 29 25 30 82 31 76 32 78 33 26 34 81 35
REMARK SMILES IDX 75 36 74 37 27 39 61 40 40 41 60 42 41 43 44 44 59 45 79 46
REMARK SMILES IDX 42 47 43 48 58 50 80 51 45 52 28 53 29 54 38 55 30 56 31 57
REMARK SMILES IDX 37 58 39 59 32 60 33 61 34 62 35 63 36 64 62 65 63 66 72 67
REMARK SMILES IDX 64 68 65 69 71 70 73 71 66 72 67 73 68 74 69 75 70 76 46 77
REMARK SMILES IDX 47 78 56 79 48 80 49 81 55 82 57 83 50 84 51 85 52 86 53 87
REMARK SMILES IDX 54 88
REMARK H PARENT 11 15 9 17 78 38 44 49
REMARK Flexibility Score: inf
ROOT
ATOM      1  C   UNL A   1      33.806  32.139  28.296  1.00  0.00     0.275 C 
ENDROOT
BRANCH   1   2
ATOM      2  C   UNL A   1      34.330  33.559  28.072  1.00  0.00     0.275 C 
BRANCH   2   3
ATOM      3  O   UNL A   1      34.801  34.240  29.253  1.00  0.00    -0.459 OA
BRANCH   3   4
ATOM      4  C   UNL A   1      34.732  33.827  30.541  1.00  0.00     0.330 C 
ATOM      5  O   UNL A   1      33.886  34.289  31.302  1.00  0.00    -0.247 OA
BRANCH   4   6
ATOM      6  C   UNL A   1      35.781  32.961  31.101  1.00  0.00     0.094 C 
ATOM      7  C   UNL A   1      36.591  33.223  32.135  1.00  0.00     0.016 C 
BRANCH   7   8
ATOM      8  C   UNL A   1      37.467  32.200  32.715  1.00  0.00    -0.021 A 
ATOM      9  C   UNL A   1      38.759  32.488  33.182  1.00  0.00     0.012 A 
ATOM     10  C   UNL A   1      36.984  30.887  32.796  1.00  0.00     0.058 A 
ATOM     11  C   UNL A   1      39.562  31.478  33.725  1.00  0.00     0.051 A 
ATOM     12  C   UNL A   1      37.787  29.892  33.335  1.00  0.00     0.157 A 
ATOM     13  C   UNL A   1      39.066  30.183  33.801  1.00  0.00     0.157 A 
BRANCH  12  14
ATOM     14  O   UNL A   1      37.310  28.614  33.403  1.00  0.00    -0.504 OA
ATOM     15  H   UNL A   1      36.599  28.409  33.978  1.00  0.00     0.293 HD
ENDBRANCH  12  14
BRANCH  13  16
ATOM     16  O   UNL A   1      39.796  29.155  34.330  1.00  0.00    -0.504 OA
ATOM     17  H   UNL A   1      40.705  29.277  34.522  1.00  0.00     0.293 HD
ENDBRANCH  13  16
ENDBRANCH   7   8
ENDBRANCH   4   6
ENDBRANCH   3   4
ENDBRANCH   2   3
ENDBRANCH   1   2
BRANCH   1  18
ATOM     18  O   UNL A   1      34.206  31.227  27.266  1.00  0.00    -0.458 OA
BRANCH  18  19
ATOM     19  C   UNL A   1      34.386  29.946  27.679  1.00  0.00     0.338 C 
ATOM     20  O   UNL A   1      33.564  29.047  27.621  1.00  0.00    -0.246 OA
BRANCH  19  21
ATOM     21  C   UNL A   1      35.793  29.731  28.085  1.00  0.00     0.060 A 
ATOM     22  C   UNL A   1      36.784  29.936  27.115  1.00  0.00     0.016 A 
ATOM     23  C   UNL A   1      36.150  29.345  29.381  1.00  0.00     0.016 A 
ATOM     24  C   UNL A   1      38.128  29.733  27.433  1.00  0.00     0.010 A 
ATOM     25  C   UNL A   1      37.499  29.139  29.695  1.00  0.00     0.010 A 
ATOM     26  C   UNL A   1      38.494  29.309  28.717  1.00  0.00    -0.014 A 
BRANCH  26  27
ATOM     27  C   UNL A   1      39.908  28.955  29.003  1.00  0.00     0.031 A 
ATOM     28  C   UNL A   1      40.802  29.969  29.665  1.00  0.00     0.074 A 
ATOM     29  C   UNL A   1      40.387  27.736  28.699  1.00  0.00     0.049 A 
ATOM     30  N   UNL A   1      42.058  29.859  30.015  1.00  0.00    -0.248 NA
ATOM     31  C   UNL A   1      40.202  31.277  29.969  1.00  0.00     0.031 C 
ATOM     32  C   UNL A   1      39.621  26.657  28.078  1.00  0.00     0.029 A 
ATOM     33  N   UNL A   1      41.641  27.202  28.872  1.00  0.00    -0.354 N 
ATOM     34  C   UNL A   1      42.399  31.077  30.589  1.00  0.00     0.074 A 
ATOM     35  C   UNL A   1      41.228  31.925  30.503  1.00  0.00     0.031 C 
ATOM     36  C   UNL A   1      40.424  25.590  27.915  1.00  0.00     0.029 A 
ATOM     37  C   UNL A   1      41.765  25.917  28.402  1.00  0.00     0.049 A 
ATOM     38  H   UNL A   1      42.382  27.694  29.293  1.00  0.00     0.167 HD
ATOM     39  C   UNL A   1      43.574  31.454  31.147  1.00  0.00     0.037 A 
ATOM     40  C   UNL A   1      42.836  25.101  28.361  1.00  0.00     0.037 A 
ATOM     41  C   UNL A   1      44.742  30.617  31.231  1.00  0.00     0.049 A 
ATOM     42  C   UNL A   1      44.153  25.562  28.933  1.00  0.00     0.074 A 
ATOM     43  C   UNL A   1      45.969  30.906  31.804  1.00  0.00     0.029 A 
ATOM     44  N   UNL A   1      44.837  29.332  30.718  1.00  0.00    -0.354 N 
ATOM     45  N   UNL A   1      44.445  26.702  29.513  1.00  0.00    -0.248 NA
ATOM     46  C   UNL A   1      45.283  24.625  28.850  1.00  0.00     0.031 C 
ATOM     47  C   UNL A   1      46.820  29.815  31.595  1.00  0.00     0.029 A 
ATOM     48  C   UNL A   1      46.108  28.827  30.935  1.00  0.00     0.049 A 
ATOM     49  H   UNL A   1      44.107  28.850  30.266  1.00  0.00     0.167 HD
ATOM     50  C   UNL A   1      45.782  26.606  29.892  1.00  0.00     0.074 A 
ATOM     51  C   UNL A   1      46.239  25.296  29.479  1.00  0.00     0.031 C 
ATOM     52  C   UNL A   1      46.557  27.519  30.527  1.00  0.00     0.037 A 
BRANCH  39  53
ATOM     53  C   UNL A   1      43.660  32.847  31.702  1.00  0.00     0.058 A 
ATOM     54  C   UNL A   1      43.423  33.116  33.059  1.00  0.00     0.135 A 
ATOM     55  C   UNL A   1      44.016  33.924  30.872  1.00  0.00     0.135 A 
ATOM     56  F   UNL A   1      43.065  32.125  33.891  1.00  0.00    -0.206 F 
ATOM     57  C   UNL A   1      43.509  34.406  33.570  1.00  0.00     0.059 A 
ATOM     58  C   UNL A   1      44.132  35.218  31.367  1.00  0.00     0.059 A 
ATOM     59  F   UNL A   1      44.254  33.721  29.567  1.00  0.00    -0.206 F 
ATOM     60  C   UNL A   1      43.861  35.452  32.715  1.00  0.00     0.060 A 
BRANCH  60  61
ATOM     61  S   UNL A   1      43.965  37.123  33.392  1.00  0.00     0.124 S 
ATOM     62  O   UNL A   1      45.090  36.994  34.312  1.00  0.00    -0.237 OA
ATOM     63  O   UNL A   1      44.210  37.928  32.200  1.00  0.00    -0.237 OA
ATOM     64  O   UNL A   1      42.661  37.317  34.019  1.00  0.00    -0.744 OA
ENDBRANCH  60  61
ENDBRANCH  39  53
BRANCH  40  65
ATOM     65  C   UNL A   1      42.717  23.752  27.746  1.00  0.00     0.058 A 
ATOM     66  C   UNL A   1      42.510  22.610  28.532  1.00  0.00     0.135 A 
ATOM     67  C   UNL A   1      42.818  23.581  26.356  1.00  0.00     0.135 A 
ATOM     68  F   UNL A   1      42.417  22.723  29.866  1.00  0.00    -0.206 F 
ATOM     69  C   UNL A   1      42.423  21.342  27.967  1.00  0.00     0.059 A 
ATOM     70  C   UNL A   1      42.713  22.327  25.765  1.00  0.00     0.059 A 
ATOM     71  F   UNL A   1      43.003  24.645  25.557  1.00  0.00    -0.206 F 
ATOM     72  C   UNL A   1      42.527  21.211  26.581  1.00  0.00     0.060 A 
BRANCH  72  73
ATOM     73  S   UNL A   1      42.372  19.567  25.849  1.00  0.00     0.124 S 
ATOM     74  O   UNL A   1      42.698  18.711  26.981  1.00  0.00    -0.237 OA
ATOM     75  O   UNL A   1      40.977  19.555  25.416  1.00  0.00    -0.237 OA
ATOM     76  O   UNL A   1      43.353  19.591  24.768  1.00  0.00    -0.744 OA
ENDBRANCH  72  73
ENDBRANCH  40  65
BRANCH  52  77
ATOM     77  C   UNL A   1      47.976  27.133  30.848  1.00  0.00     0.058 A 
ATOM     78  C   UNL A   1      49.044  27.482  30.009  1.00  0.00     0.135 A 
ATOM     79  C   UNL A   1      48.277  26.459  32.044  1.00  0.00     0.135 A 
ATOM     80  F   UNL A   1      48.814  28.122  28.852  1.00  0.00    -0.206 F 
ATOM     81  C   UNL A   1      50.360  27.162  30.333  1.00  0.00     0.059 A 
ATOM     82  C   UNL A   1      49.587  26.150  32.400  1.00  0.00     0.059 A 
ATOM     83  F   UNL A   1      47.294  26.109  32.888  1.00  0.00    -0.206 F 
ATOM     84  C   UNL A   1      50.621  26.496  31.534  1.00  0.00     0.060 A 
BRANCH  84  85
ATOM     85  S   UNL A   1      52.335  26.122  31.962  1.00  0.00     0.124 S 
ATOM     86  O   UNL A   1      52.190  24.859  32.678  1.00  0.00    -0.237 OA
ATOM     87  O   UNL A   1      52.976  26.039  30.653  1.00  0.00    -0.237 OA
ATOM     88  O   UNL A   1      52.738  27.264  32.779  1.00  0.00    -0.744 OA
ENDBRANCH  84  85
ENDBRANCH  52  77
ENDBRANCH  26  27
ENDBRANCH  19  21
ENDBRANCH  18  19
ENDBRANCH   1  18
TORSDOF 17
ENDMDL
