MODEL 1
REMARK VINA RESULT:     -11.7      0.000      0.000
REMARK SMILES COc1cccc(Cn2c(=O)c(=O)n(CC(=O)OCCOC(=O)c3ccc(-c4c5nc(c(-c6c(F)cc(S(=O)(=O)[O-])cc6F)c6ccc([nH]6)c(-c6c(F)cc(S(=O)(=O)[O-])cc6F)c6nc(c(-c7c(F)cc(S(=O)(=O)[O-])cc7F)c7ccc4[nH]7)C=C6)C=C5)cc3)c3ccccc32)c1
REMARK SMILES IDX 19 1 18 2 16 3 17 4 15 5 14 6 9 7 10 8 95 9 11 10 12 11
REMARK SMILES IDX 90 12 94 13 13 14 91 15 93 16 92 17 8 18 7 19 3 20 4 21
REMARK SMILES IDX 96 22 5 23 6 24 2 25 1 26 20 27 21 28 22 29 23 30 24 31
REMARK SMILES IDX 25 32 89 33 26 34 88 35 27 36 28 37 29 38 82 39 30 40 87 41
REMARK SMILES IDX 81 42 83 43 31 44 86 45 80 46 79 47 32 49 66 50 45 51 65 52
REMARK SMILES IDX 46 53 49 54 64 55 84 56 47 57 48 58 63 60 85 61 50 62 33 63
REMARK SMILES IDX 34 64 43 65 35 66 36 67 42 68 44 69 37 70 38 71 39 72 40 73
REMARK SMILES IDX 41 74 67 75 68 76 77 77 69 78 70 79 76 80 78 81 71 82 72 83
REMARK SMILES IDX 73 84 74 85 75 86 51 87 52 88 61 89 53 90 54 91 60 92 62 93
REMARK SMILES IDX 55 94 56 95 57 96 58 97 59 98
REMARK H PARENT 83 48 49 59
REMARK Flexibility Score: inf
ROOT
ATOM      1  C   UNL A   1      38.612  21.473  25.466  1.00  0.00     0.274 C 
ENDROOT
BRANCH   1   2
ATOM      2  O   UNL A   1      37.298  22.038  25.377  1.00  0.00    -0.461 OA
BRANCH   2   3
ATOM      3  C   UNL A   1      36.309  21.107  25.404  1.00  0.00     0.326 C 
ATOM      4  O   UNL A   1      36.415  19.953  24.998  1.00  0.00    -0.250 OA
BRANCH   3   5
ATOM      5  C   UNL A   1      35.172  21.535  26.313  1.00  0.00     0.248 C 
BRANCH   5   6
ATOM      6  N   UNL A   1      33.931  21.955  25.715  1.00  0.00    -0.291 N 
ATOM      7  N   UNL A   1      33.236  22.769  23.117  1.00  0.00    -0.298 N 
ATOM      8  C   UNL A   1      34.276  23.354  23.818  1.00  0.00     0.317 A 
ATOM      9  C   UNL A   1      32.866  21.461  23.539  1.00  0.00     0.068 A 
ATOM     10  O   UNL A   1      35.300  23.836  23.357  1.00  0.00    -0.263 OA
ATOM     11  C   UNL A   1      34.051  23.274  25.315  1.00  0.00     0.317 A 
ATOM     12  C   UNL A   1      33.277  21.031  24.832  1.00  0.00     0.069 A 
ATOM     13  C   UNL A   1      32.286  20.534  22.667  1.00  0.00     0.028 A 
ATOM     14  O   UNL A   1      34.183  24.243  26.046  1.00  0.00    -0.263 OA
ATOM     15  C   UNL A   1      33.051  19.709  25.239  1.00  0.00     0.028 A 
ATOM     16  C   UNL A   1      32.128  19.199  23.068  1.00  0.00     0.002 A 
ATOM     17  C   UNL A   1      32.495  18.793  24.351  1.00  0.00     0.002 A 
BRANCH   7  18
ATOM     18  C   UNL A   1      32.684  23.524  22.002  1.00  0.00     0.162 C 
BRANCH  18  19
ATOM     19  C   UNL A   1      31.882  24.701  22.592  1.00  0.00    -0.024 A 
ATOM     20  C   UNL A   1      32.133  26.938  23.522  1.00  0.00     0.119 A 
ATOM     21  C   UNL A   1      31.171  26.635  24.482  1.00  0.00     0.046 A 
ATOM     22  C   UNL A   1      32.429  26.005  22.525  1.00  0.00     0.052 A 
ATOM     23  C   UNL A   1      30.503  25.412  24.456  1.00  0.00     0.004 A 
ATOM     24  C   UNL A   1      30.871  24.435  23.529  1.00  0.00     0.006 A 
BRANCH  20  25
ATOM     25  O   UNL A   1      32.878  28.054  23.792  1.00  0.00    -0.497 OA
ATOM     26  C   UNL A   1      33.737  28.511  22.761  1.00  0.00     0.278 C 
ENDBRANCH  20  25
ENDBRANCH  18  19
ENDBRANCH   7  18
ENDBRANCH   5   6
ENDBRANCH   3   5
ENDBRANCH   2   3
ENDBRANCH   1   2
BRANCH   1  27
ATOM     27  C   UNL A   1      39.396  22.189  26.574  1.00  0.00     0.275 C 
BRANCH  27  28
ATOM     28  O   UNL A   1      39.454  23.622  26.365  1.00  0.00    -0.458 OA
BRANCH  28  29
ATOM     29  C   UNL A   1      40.652  24.209  26.597  1.00  0.00     0.338 C 
ATOM     30  O   UNL A   1      41.735  23.868  26.145  1.00  0.00    -0.246 OA
BRANCH  29  31
ATOM     31  C   UNL A   1      40.515  25.412  27.439  1.00  0.00     0.060 A 
ATOM     32  C   UNL A   1      41.437  26.458  27.331  1.00  0.00     0.016 A 
ATOM     33  C   UNL A   1      39.589  25.414  28.480  1.00  0.00     0.016 A 
ATOM     34  C   UNL A   1      41.494  27.460  28.296  1.00  0.00     0.010 A 
ATOM     35  C   UNL A   1      39.591  26.468  29.400  1.00  0.00     0.010 A 
ATOM     36  C   UNL A   1      40.558  27.487  29.332  1.00  0.00    -0.014 A 
BRANCH  36  37
ATOM     37  C   UNL A   1      40.581  28.574  30.343  1.00  0.00     0.031 A 
ATOM     38  C   UNL A   1      41.558  28.519  31.484  1.00  0.00     0.074 A 
ATOM     39  C   UNL A   1      39.707  29.595  30.251  1.00  0.00     0.049 A 
ATOM     40  N   UNL A   1      41.579  29.218  32.588  1.00  0.00    -0.248 NA
ATOM     41  C   UNL A   1      42.649  27.537  31.369  1.00  0.00     0.031 C 
ATOM     42  C   UNL A   1      38.751  29.802  29.159  1.00  0.00     0.029 A 
ATOM     43  N   UNL A   1      39.469  30.645  31.101  1.00  0.00    -0.354 N 
ATOM     44  C   UNL A   1      42.651  28.729  33.326  1.00  0.00     0.074 A 
ATOM     45  C   UNL A   1      43.261  27.677  32.539  1.00  0.00     0.031 C 
ATOM     46  C   UNL A   1      38.035  30.909  29.405  1.00  0.00     0.029 A 
ATOM     47  C   UNL A   1      38.421  31.443  30.705  1.00  0.00     0.049 A 
ATOM     48  H   UNL A   1      39.996  30.812  31.915  1.00  0.00     0.167 HD
ATOM     49  C   UNL A   1      43.076  29.119  34.552  1.00  0.00     0.037 A 
ATOM     50  C   UNL A   1      37.802  32.456  31.339  1.00  0.00     0.037 A 
ATOM     51  C   UNL A   1      42.477  30.188  35.309  1.00  0.00     0.049 A 
ATOM     52  C   UNL A   1      38.261  32.844  32.714  1.00  0.00     0.074 A 
ATOM     53  C   UNL A   1      42.821  30.656  36.565  1.00  0.00     0.029 A 
ATOM     54  N   UNL A   1      41.414  30.967  34.872  1.00  0.00    -0.354 N 
ATOM     55  N   UNL A   1      39.227  32.326  33.436  1.00  0.00    -0.248 NA
ATOM     56  C   UNL A   1      37.538  33.940  33.370  1.00  0.00     0.031 C 
ATOM     57  C   UNL A   1      41.951  31.702  36.897  1.00  0.00     0.029 A 
ATOM     58  C   UNL A   1      41.088  31.908  35.833  1.00  0.00     0.049 A 
ATOM     59  H   UNL A   1      40.959  30.865  34.004  1.00  0.00     0.167 HD
ATOM     60  C   UNL A   1      39.238  33.044  34.624  1.00  0.00     0.074 A 
ATOM     61  C   UNL A   1      38.189  34.039  34.522  1.00  0.00     0.031 C 
ATOM     62  C   UNL A   1      40.043  32.892  35.705  1.00  0.00     0.037 A 
BRANCH  49  63
ATOM     63  C   UNL A   1      44.216  28.356  35.167  1.00  0.00     0.058 A 
ATOM     64  C   UNL A   1      45.551  28.757  35.004  1.00  0.00     0.135 A 
ATOM     65  C   UNL A   1      43.964  27.218  35.951  1.00  0.00     0.135 A 
ATOM     66  F   UNL A   1      45.848  29.826  34.250  1.00  0.00    -0.206 F 
ATOM     67  C   UNL A   1      46.599  28.039  35.573  1.00  0.00     0.059 A 
ATOM     68  C   UNL A   1      44.994  26.497  36.547  1.00  0.00     0.059 A 
ATOM     69  F   UNL A   1      42.706  26.791  36.137  1.00  0.00    -0.206 F 
ATOM     70  C   UNL A   1      46.311  26.907  36.339  1.00  0.00     0.060 A 
BRANCH  70  71
ATOM     71  S   UNL A   1      47.680  25.976  37.062  1.00  0.00     0.124 S 
ATOM     72  O   UNL A   1      48.606  25.901  35.936  1.00  0.00    -0.237 OA
ATOM     73  O   UNL A   1      48.096  26.833  38.167  1.00  0.00    -0.237 OA
ATOM     74  O   UNL A   1      47.061  24.713  37.451  1.00  0.00    -0.744 OA
ENDBRANCH  70  71
ENDBRANCH  49  63
BRANCH  50  75
ATOM     75  C   UNL A   1      36.657  33.142  30.687  1.00  0.00     0.058 A 
ATOM     76  C   UNL A   1      35.342  32.896  31.102  1.00  0.00     0.135 A 
ATOM     77  C   UNL A   1      36.859  34.086  29.667  1.00  0.00     0.135 A 
ATOM     78  F   UNL A   1      35.102  31.995  32.068  1.00  0.00    -0.206 F 
ATOM     79  C   UNL A   1      34.262  33.560  30.530  1.00  0.00     0.059 A 
ATOM     80  C   UNL A   1      35.797  34.780  29.096  1.00  0.00     0.059 A 
ATOM     81  F   UNL A   1      38.101  34.366  29.245  1.00  0.00    -0.206 F 
ATOM     82  C   UNL A   1      34.502  34.504  29.529  1.00  0.00     0.060 A 
BRANCH  82  83
ATOM     83  S   UNL A   1      33.101  35.413  28.838  1.00  0.00     0.124 S 
ATOM     84  O   UNL A   1      33.778  36.434  28.048  1.00  0.00    -0.237 OA
ATOM     85  O   UNL A   1      32.403  34.378  28.081  1.00  0.00    -0.237 OA
ATOM     86  O   UNL A   1      32.398  35.892  30.024  1.00  0.00    -0.744 OA
ENDBRANCH  82  83
ENDBRANCH  50  75
BRANCH  62  87
ATOM     87  C   UNL A   1      39.841  33.852  36.842  1.00  0.00     0.058 A 
ATOM     88  C   UNL A   1      40.525  35.075  36.900  1.00  0.00     0.135 A 
ATOM     89  C   UNL A   1      38.933  33.552  37.869  1.00  0.00     0.135 A 
ATOM     90  F   UNL A   1      41.410  35.401  35.945  1.00  0.00    -0.206 F 
ATOM     91  C   UNL A   1      40.332  35.963  37.954  1.00  0.00     0.059 A 
ATOM     92  C   UNL A   1      38.710  34.434  38.921  1.00  0.00     0.059 A 
ATOM     93  F   UNL A   1      38.250  32.397  37.852  1.00  0.00    -0.206 F 
ATOM     94  C   UNL A   1      39.425  35.631  38.962  1.00  0.00     0.060 A 
BRANCH  94  95
ATOM     95  S   UNL A   1      39.163  36.796  40.316  1.00  0.00     0.124 S 
ATOM     96  O   UNL A   1      38.272  36.037  41.187  1.00  0.00    -0.237 OA
ATOM     97  O   UNL A   1      40.517  37.004  40.820  1.00  0.00    -0.237 OA
ATOM     98  O   UNL A   1      38.564  37.952  39.656  1.00  0.00    -0.744 OA
ENDBRANCH  94  95
ENDBRANCH  62  87
ENDBRANCH  36  37
ENDBRANCH  29  31
ENDBRANCH  28  29
ENDBRANCH  27  28
ENDBRANCH   1  27
TORSDOF 18
ENDMDL
MODEL 2
REMARK VINA RESULT:     -11.6      1.032      2.043
REMARK SMILES COc1cccc(Cn2c(=O)c(=O)n(CC(=O)OCCOC(=O)c3ccc(-c4c5nc(c(-c6c(F)cc(S(=O)(=O)[O-])cc6F)c6ccc([nH]6)c(-c6c(F)cc(S(=O)(=O)[O-])cc6F)c6nc(c(-c7c(F)cc(S(=O)(=O)[O-])cc7F)c7ccc4[nH]7)C=C6)C=C5)cc3)c3ccccc32)c1
REMARK SMILES IDX 19 1 18 2 16 3 17 4 15 5 14 6 9 7 10 8 95 9 11 10 12 11
REMARK SMILES IDX 90 12 94 13 13 14 91 15 93 16 92 17 8 18 7 19 3 20 4 21
REMARK SMILES IDX 96 22 5 23 6 24 2 25 1 26 20 27 21 28 22 29 23 30 24 31
REMARK SMILES IDX 25 32 89 33 26 34 88 35 27 36 28 37 29 38 82 39 30 40 87 41
REMARK SMILES IDX 81 42 83 43 31 44 86 45 80 46 79 47 32 49 66 50 45 51 65 52
REMARK SMILES IDX 46 53 49 54 64 55 84 56 47 57 48 58 63 60 85 61 50 62 33 63
REMARK SMILES IDX 34 64 43 65 35 66 36 67 42 68 44 69 37 70 38 71 39 72 40 73
REMARK SMILES IDX 41 74 67 75 68 76 77 77 69 78 70 79 76 80 78 81 71 82 72 83
REMARK SMILES IDX 73 84 74 85 75 86 51 87 52 88 61 89 53 90 54 91 60 92 62 93
REMARK SMILES IDX 55 94 56 95 57 96 58 97 59 98
REMARK H PARENT 83 48 49 59
REMARK Flexibility Score: inf
ROOT
ATOM      1  C   UNL A   1      38.122  22.050  25.262  1.00  0.00     0.274 C 
ENDROOT
BRANCH   1   2
ATOM      2  O   UNL A   1      36.888  21.571  25.813  1.00  0.00    -0.461 OA
BRANCH   2   3
ATOM      3  C   UNL A   1      36.280  20.635  25.039  1.00  0.00     0.326 C 
ATOM      4  O   UNL A   1      36.610  19.455  24.969  1.00  0.00    -0.250 OA
BRANCH   3   5
ATOM      5  C   UNL A   1      34.931  21.121  24.542  1.00  0.00     0.248 C 
BRANCH   5   6
ATOM      6  N   UNL A   1      34.615  22.522  24.659  1.00  0.00    -0.291 N 
ATOM      7  N   UNL A   1      32.595  24.128  23.550  1.00  0.00    -0.298 N 
ATOM      8  C   UNL A   1      33.414  23.332  22.769  1.00  0.00     0.317 A 
ATOM      9  C   UNL A   1      32.481  23.744  24.916  1.00  0.00     0.068 A 
ATOM     10  O   UNL A   1      33.128  22.791  21.711  1.00  0.00    -0.263 OA
ATOM     11  C   UNL A   1      34.766  23.119  23.421  1.00  0.00     0.317 A 
ATOM     12  C   UNL A   1      33.474  22.877  25.454  1.00  0.00     0.069 A 
ATOM     13  C   UNL A   1      31.346  24.033  25.680  1.00  0.00     0.028 A 
ATOM     14  O   UNL A   1      35.814  23.267  22.811  1.00  0.00    -0.263 OA
ATOM     15  C   UNL A   1      33.334  22.367  26.752  1.00  0.00     0.028 A 
ATOM     16  C   UNL A   1      31.192  23.460  26.951  1.00  0.00     0.002 A 
ATOM     17  C   UNL A   1      32.186  22.644  27.489  1.00  0.00     0.002 A 
BRANCH   7  18
ATOM     18  C   UNL A   1      31.901  25.219  22.883  1.00  0.00     0.162 C 
BRANCH  18  19
ATOM     19  C   UNL A   1      32.269  26.522  23.622  1.00  0.00    -0.024 A 
ATOM     20  C   UNL A   1      31.496  28.794  24.036  1.00  0.00     0.119 A 
ATOM     21  C   UNL A   1      32.805  29.251  23.908  1.00  0.00     0.046 A 
ATOM     22  C   UNL A   1      31.237  27.423  23.978  1.00  0.00     0.052 A 
ATOM     23  C   UNL A   1      33.856  28.354  23.723  1.00  0.00     0.004 A 
ATOM     24  C   UNL A   1      33.590  26.993  23.557  1.00  0.00     0.006 A 
BRANCH  20  25
ATOM     25  O   UNL A   1      30.541  29.773  23.972  1.00  0.00    -0.497 OA
ATOM     26  C   UNL A   1      29.382  29.481  23.211  1.00  0.00     0.278 C 
ENDBRANCH  20  25
ENDBRANCH  18  19
ENDBRANCH   7  18
ENDBRANCH   5   6
ENDBRANCH   3   5
ENDBRANCH   2   3
ENDBRANCH   1   2
BRANCH   1  27
ATOM     27  C   UNL A   1      39.079  22.413  26.405  1.00  0.00     0.275 C 
BRANCH  27  28
ATOM     28  O   UNL A   1      39.500  23.798  26.348  1.00  0.00    -0.458 OA
BRANCH  28  29
ATOM     29  C   UNL A   1      40.668  24.092  26.966  1.00  0.00     0.338 C 
ATOM     30  O   UNL A   1      41.716  23.471  26.884  1.00  0.00    -0.246 OA
BRANCH  29  31
ATOM     31  C   UNL A   1      40.575  25.345  27.739  1.00  0.00     0.060 A 
ATOM     32  C   UNL A   1      41.649  26.240  27.765  1.00  0.00     0.016 A 
ATOM     33  C   UNL A   1      39.499  25.535  28.603  1.00  0.00     0.016 A 
ATOM     34  C   UNL A   1      41.694  27.272  28.698  1.00  0.00     0.010 A 
ATOM     35  C   UNL A   1      39.505  26.624  29.481  1.00  0.00     0.010 A 
ATOM     36  C   UNL A   1      40.612  27.487  29.555  1.00  0.00    -0.014 A 
BRANCH  36  37
ATOM     37  C   UNL A   1      40.629  28.611  30.524  1.00  0.00     0.031 A 
ATOM     38  C   UNL A   1      41.608  28.604  31.666  1.00  0.00     0.074 A 
ATOM     39  C   UNL A   1      39.749  29.623  30.396  1.00  0.00     0.049 A 
ATOM     40  N   UNL A   1      41.626  29.344  32.743  1.00  0.00    -0.248 NA
ATOM     41  C   UNL A   1      42.705  27.626  31.586  1.00  0.00     0.031 C 
ATOM     42  C   UNL A   1      38.791  29.783  29.299  1.00  0.00     0.029 A 
ATOM     43  N   UNL A   1      39.505  30.702  31.208  1.00  0.00    -0.354 N 
ATOM     44  C   UNL A   1      42.701  28.888  33.497  1.00  0.00     0.074 A 
ATOM     45  C   UNL A   1      43.317  27.813  32.749  1.00  0.00     0.031 C 
ATOM     46  C   UNL A   1      38.068  30.895  29.504  1.00  0.00     0.029 A 
ATOM     47  C   UNL A   1      38.453  31.479  30.783  1.00  0.00     0.049 A 
ATOM     48  H   UNL A   1      40.033  30.902  32.014  1.00  0.00     0.167 HD
ATOM     49  C   UNL A   1      43.125  29.326  34.708  1.00  0.00     0.037 A 
ATOM     50  C   UNL A   1      37.828  32.511  31.380  1.00  0.00     0.037 A 
ATOM     51  C   UNL A   1      42.520  30.419  35.426  1.00  0.00     0.049 A 
ATOM     52  C   UNL A   1      38.286  32.952  32.740  1.00  0.00     0.074 A 
ATOM     53  C   UNL A   1      42.863  30.935  36.664  1.00  0.00     0.029 A 
ATOM     54  N   UNL A   1      41.452  31.175  34.961  1.00  0.00    -0.354 N 
ATOM     55  N   UNL A   1      39.256  32.467  33.478  1.00  0.00    -0.248 NA
ATOM     56  C   UNL A   1      37.556  34.067  33.355  1.00  0.00     0.031 C 
ATOM     57  C   UNL A   1      41.987  31.987  36.958  1.00  0.00     0.029 A 
ATOM     58  C   UNL A   1      41.121  32.149  35.888  1.00  0.00     0.049 A 
ATOM     59  H   UNL A   1      40.996  31.038  34.099  1.00  0.00     0.167 HD
ATOM     60  C   UNL A   1      39.263  33.228  34.640  1.00  0.00     0.074 A 
ATOM     61  C   UNL A   1      38.208  34.212  34.502  1.00  0.00     0.031 C 
ATOM     62  C   UNL A   1      40.070  33.121  35.725  1.00  0.00     0.037 A 
BRANCH  49  63
ATOM     63  C   UNL A   1      44.270  28.594  35.350  1.00  0.00     0.058 A 
ATOM     64  C   UNL A   1      44.067  27.501  36.205  1.00  0.00     0.135 A 
ATOM     65  C   UNL A   1      45.595  28.981  35.084  1.00  0.00     0.135 A 
ATOM     66  F   UNL A   1      42.822  27.101  36.507  1.00  0.00    -0.206 F 
ATOM     67  C   UNL A   1      45.136  26.834  36.798  1.00  0.00     0.059 A 
ATOM     68  C   UNL A   1      46.678  28.316  35.648  1.00  0.00     0.059 A 
ATOM     69  F   UNL A   1      45.844  30.021  34.274  1.00  0.00    -0.206 F 
ATOM     70  C   UNL A   1      46.438  27.253  36.518  1.00  0.00     0.060 A 
BRANCH  70  71
ATOM     71  S   UNL A   1      47.816  26.388  37.303  1.00  0.00     0.124 S 
ATOM     72  O   UNL A   1      47.840  25.138  36.549  1.00  0.00    -0.237 OA
ATOM     73  O   UNL A   1      48.935  27.293  37.061  1.00  0.00    -0.237 OA
ATOM     74  O   UNL A   1      47.395  26.274  38.696  1.00  0.00    -0.744 OA
ENDBRANCH  70  71
ENDBRANCH  49  63
BRANCH  50  75
ATOM     75  C   UNL A   1      36.678  33.165  30.705  1.00  0.00     0.058 A 
ATOM     76  C   UNL A   1      35.362  32.890  31.100  1.00  0.00     0.135 A 
ATOM     77  C   UNL A   1      36.874  34.107  29.682  1.00  0.00     0.135 A 
ATOM     78  F   UNL A   1      35.127  31.991  32.067  1.00  0.00    -0.206 F 
ATOM     79  C   UNL A   1      34.277  33.525  30.505  1.00  0.00     0.059 A 
ATOM     80  C   UNL A   1      35.807  34.772  29.088  1.00  0.00     0.059 A 
ATOM     81  F   UNL A   1      38.117  34.414  29.278  1.00  0.00    -0.206 F 
ATOM     82  C   UNL A   1      34.511  34.468  29.502  1.00  0.00     0.060 A 
BRANCH  82  83
ATOM     83  S   UNL A   1      33.101  35.340  28.781  1.00  0.00     0.124 S 
ATOM     84  O   UNL A   1      32.346  35.707  29.972  1.00  0.00    -0.237 OA
ATOM     85  O   UNL A   1      33.747  36.439  28.069  1.00  0.00    -0.237 OA
ATOM     86  O   UNL A   1      32.486  34.327  27.928  1.00  0.00    -0.744 OA
ENDBRANCH  82  83
ENDBRANCH  50  75
BRANCH  62  87
ATOM     87  C   UNL A   1      39.863  34.121  36.825  1.00  0.00     0.058 A 
ATOM     88  C   UNL A   1      38.964  33.880  37.876  1.00  0.00     0.135 A 
ATOM     89  C   UNL A   1      40.591  35.319  36.839  1.00  0.00     0.135 A 
ATOM     90  F   UNL A   1      38.239  32.751  37.900  1.00  0.00    -0.206 F 
ATOM     91  C   UNL A   1      38.779  34.808  38.896  1.00  0.00     0.059 A 
ATOM     92  C   UNL A   1      40.436  36.252  37.860  1.00  0.00     0.059 A 
ATOM     93  F   UNL A   1      41.468  35.590  35.860  1.00  0.00    -0.206 F 
ATOM     94  C   UNL A   1      39.516  35.993  38.877  1.00  0.00     0.060 A 
BRANCH  94  95
ATOM     95  S   UNL A   1      39.286  37.185  40.213  1.00  0.00     0.124 S 
ATOM     96  O   UNL A   1      38.623  36.367  41.223  1.00  0.00    -0.237 OA
ATOM     97  O   UNL A   1      40.657  37.584  40.520  1.00  0.00    -0.237 OA
ATOM     98  O   UNL A   1      38.462  38.223  39.602  1.00  0.00    -0.744 OA
ENDBRANCH  94  95
ENDBRANCH  62  87
ENDBRANCH  36  37
ENDBRANCH  29  31
ENDBRANCH  28  29
ENDBRANCH  27  28
ENDBRANCH   1  27
TORSDOF 18
ENDMDL
MODEL 3
REMARK VINA RESULT:     -11.5      2.246      3.188
REMARK SMILES COc1cccc(Cn2c(=O)c(=O)n(CC(=O)OCCOC(=O)c3ccc(-c4c5nc(c(-c6c(F)cc(S(=O)(=O)[O-])cc6F)c6ccc([nH]6)c(-c6c(F)cc(S(=O)(=O)[O-])cc6F)c6nc(c(-c7c(F)cc(S(=O)(=O)[O-])cc7F)c7ccc4[nH]7)C=C6)C=C5)cc3)c3ccccc32)c1
REMARK SMILES IDX 19 1 18 2 16 3 17 4 15 5 14 6 9 7 10 8 95 9 11 10 12 11
REMARK SMILES IDX 90 12 94 13 13 14 91 15 93 16 92 17 8 18 7 19 3 20 4 21
REMARK SMILES IDX 96 22 5 23 6 24 2 25 1 26 20 27 21 28 22 29 23 30 24 31
REMARK SMILES IDX 25 32 89 33 26 34 88 35 27 36 28 37 29 38 82 39 30 40 87 41
REMARK SMILES IDX 81 42 83 43 31 44 86 45 80 46 79 47 32 49 66 50 45 51 65 52
REMARK SMILES IDX 46 53 49 54 64 55 84 56 47 57 48 58 63 60 85 61 50 62 33 63
REMARK SMILES IDX 34 64 43 65 35 66 36 67 42 68 44 69 37 70 38 71 39 72 40 73
REMARK SMILES IDX 41 74 67 75 68 76 77 77 69 78 70 79 76 80 78 81 71 82 72 83
REMARK SMILES IDX 73 84 74 85 75 86 51 87 52 88 61 89 53 90 54 91 60 92 62 93
REMARK SMILES IDX 55 94 56 95 57 96 58 97 59 98
REMARK H PARENT 83 48 49 59
REMARK Flexibility Score: inf
ROOT
ATOM      1  C   UNL A   1      36.094  21.190  25.688  1.00  0.00     0.274 C 
ENDROOT
BRANCH   1   2
ATOM      2  O   UNL A   1      35.366  20.865  24.497  1.00  0.00    -0.461 OA
BRANCH   2   3
ATOM      3  C   UNL A   1      34.019  20.862  24.673  1.00  0.00     0.326 C 
ATOM      4  O   UNL A   1      33.413  20.142  25.461  1.00  0.00    -0.250 OA
BRANCH   3   5
ATOM      5  C   UNL A   1      33.376  22.088  24.051  1.00  0.00     0.248 C 
BRANCH   5   6
ATOM      6  N   UNL A   1      33.462  23.343  24.753  1.00  0.00    -0.291 N 
ATOM      7  N   UNL A   1      32.634  25.951  24.118  1.00  0.00    -0.298 N 
ATOM      8  C   UNL A   1      33.432  25.205  23.268  1.00  0.00     0.317 A 
ATOM      9  C   UNL A   1      31.865  25.206  25.056  1.00  0.00     0.068 A 
ATOM     10  O   UNL A   1      33.461  25.254  22.047  1.00  0.00    -0.263 OA
ATOM     11  C   UNL A   1      34.272  24.202  24.034  1.00  0.00     0.317 A 
ATOM     12  C   UNL A   1      32.252  23.863  25.324  1.00  0.00     0.069 A 
ATOM     13  C   UNL A   1      30.654  25.681  25.570  1.00  0.00     0.028 A 
ATOM     14  O   UNL A   1      35.471  24.075  23.840  1.00  0.00    -0.263 OA
ATOM     15  C   UNL A   1      31.452  23.050  26.138  1.00  0.00     0.028 A 
ATOM     16  C   UNL A   1      29.834  24.831  26.327  1.00  0.00     0.002 A 
ATOM     17  C   UNL A   1      30.237  23.529  26.622  1.00  0.00     0.002 A 
BRANCH   7  18
ATOM     18  C   UNL A   1      32.624  27.393  23.919  1.00  0.00     0.162 C 
BRANCH  18  19
ATOM     19  C   UNL A   1      32.848  28.050  25.296  1.00  0.00    -0.024 A 
ATOM     20  C   UNL A   1      32.708  30.182  26.465  1.00  0.00     0.119 A 
ATOM     21  C   UNL A   1      33.896  29.885  27.128  1.00  0.00     0.046 A 
ATOM     22  C   UNL A   1      32.138  29.233  25.614  1.00  0.00     0.052 A 
ATOM     23  C   UNL A   1      34.518  28.650  26.950  1.00  0.00     0.004 A 
ATOM     24  C   UNL A   1      34.010  27.741  26.019  1.00  0.00     0.006 A 
BRANCH  20  25
ATOM     25  O   UNL A   1      32.330  31.496  26.535  1.00  0.00    -0.497 OA
ATOM     26  C   UNL A   1      30.958  31.775  26.316  1.00  0.00     0.278 C 
ENDBRANCH  20  25
ENDBRANCH  18  19
ENDBRANCH   7  18
ENDBRANCH   5   6
ENDBRANCH   3   5
ENDBRANCH   2   3
ENDBRANCH   1   2
BRANCH   1  27
ATOM     27  C   UNL A   1      37.556  21.479  25.323  1.00  0.00     0.275 C 
BRANCH  27  28
ATOM     28  O   UNL A   1      37.945  22.835  25.656  1.00  0.00    -0.458 OA
BRANCH  28  29
ATOM     29  C   UNL A   1      39.231  23.007  26.043  1.00  0.00     0.338 C 
ATOM     30  O   UNL A   1      40.173  22.267  25.805  1.00  0.00    -0.246 OA
BRANCH  29  31
ATOM     31  C   UNL A   1      39.417  24.281  26.762  1.00  0.00     0.060 A 
ATOM     32  C   UNL A   1      40.269  25.264  26.249  1.00  0.00     0.016 A 
ATOM     33  C   UNL A   1      38.904  24.418  28.050  1.00  0.00     0.016 A 
ATOM     34  C   UNL A   1      40.675  26.337  27.037  1.00  0.00     0.010 A 
ATOM     35  C   UNL A   1      39.244  25.542  28.811  1.00  0.00     0.010 A 
ATOM     36  C   UNL A   1      40.151  26.499  28.322  1.00  0.00    -0.014 A 
BRANCH  36  37
ATOM     37  C   UNL A   1      40.543  27.663  29.156  1.00  0.00     0.031 A 
ATOM     38  C   UNL A   1      41.817  27.621  29.953  1.00  0.00     0.074 A 
ATOM     39  C   UNL A   1      39.742  28.744  29.220  1.00  0.00     0.049 A 
ATOM     40  N   UNL A   1      42.214  28.408  30.918  1.00  0.00    -0.248 NA
ATOM     41  C   UNL A   1      42.764  26.544  29.625  1.00  0.00     0.031 C 
ATOM     42  C   UNL A   1      38.511  28.938  28.448  1.00  0.00     0.029 A 
ATOM     43  N   UNL A   1      39.834  29.880  29.984  1.00  0.00    -0.354 N 
ATOM     44  C   UNL A   1      43.431  27.894  31.351  1.00  0.00     0.074 A 
ATOM     45  C   UNL A   1      43.711  26.730  30.536  1.00  0.00     0.031 C 
ATOM     46  C   UNL A   1      37.968  30.120  28.774  1.00  0.00     0.029 A 
ATOM     47  C   UNL A   1      38.762  30.728  29.835  1.00  0.00     0.049 A 
ATOM     48  H   UNL A   1      40.594  30.069  30.581  1.00  0.00     0.167 HD
ATOM     49  C   UNL A   1      44.231  28.349  32.345  1.00  0.00     0.037 A 
ATOM     50  C   UNL A   1      38.424  31.841  30.511  1.00  0.00     0.037 A 
ATOM     51  C   UNL A   1      43.953  29.528  33.126  1.00  0.00     0.049 A 
ATOM     52  C   UNL A   1      39.303  32.305  31.637  1.00  0.00     0.074 A 
ATOM     53  C   UNL A   1      44.690  30.070  34.164  1.00  0.00     0.029 A 
ATOM     54  N   UNL A   1      42.853  30.355  32.944  1.00  0.00    -0.354 N 
ATOM     55  N   UNL A   1      40.412  31.769  32.088  1.00  0.00    -0.248 NA
ATOM     56  C   UNL A   1      38.877  33.511  32.357  1.00  0.00     0.031 C 
ATOM     57  C   UNL A   1      44.024  31.211  34.626  1.00  0.00     0.029 A 
ATOM     58  C   UNL A   1      42.889  31.400  33.852  1.00  0.00     0.049 A 
ATOM     59  H   UNL A   1      42.149  30.218  32.269  1.00  0.00     0.167 HD
ATOM     60  C   UNL A   1      40.826  32.582  33.135  1.00  0.00     0.074 A 
ATOM     61  C   UNL A   1      39.853  33.652  33.244  1.00  0.00     0.031 C 
ATOM     62  C   UNL A   1      41.912  32.455  33.937  1.00  0.00     0.037 A 
BRANCH  49  63
ATOM     63  C   UNL A   1      45.460  27.547  32.670  1.00  0.00     0.058 A 
ATOM     64  C   UNL A   1      45.427  26.469  33.568  1.00  0.00     0.135 A 
ATOM     65  C   UNL A   1      46.686  27.850  32.055  1.00  0.00     0.135 A 
ATOM     66  F   UNL A   1      44.286  26.148  34.197  1.00  0.00    -0.206 F 
ATOM     67  C   UNL A   1      46.573  25.737  33.866  1.00  0.00     0.059 A 
ATOM     68  C   UNL A   1      47.839  27.119  32.321  1.00  0.00     0.059 A 
ATOM     69  F   UNL A   1      46.772  28.873  31.190  1.00  0.00    -0.206 F 
ATOM     70  C   UNL A   1      47.776  26.073  33.241  1.00  0.00     0.060 A 
BRANCH  70  71
ATOM     71  S   UNL A   1      49.259  25.125  33.644  1.00  0.00     0.124 S 
ATOM     72  O   UNL A   1      49.976  26.060  34.505  1.00  0.00    -0.237 OA
ATOM     73  O   UNL A   1      48.711  23.947  34.309  1.00  0.00    -0.237 OA
ATOM     74  O   UNL A   1      49.868  24.878  32.341  1.00  0.00    -0.744 OA
ENDBRANCH  70  71
ENDBRANCH  49  63
BRANCH  50  75
ATOM     75  C   UNL A   1      37.175  32.565  30.161  1.00  0.00     0.058 A 
ATOM     76  C   UNL A   1      35.985  32.322  30.859  1.00  0.00     0.135 A 
ATOM     77  C   UNL A   1      37.158  33.542  29.152  1.00  0.00     0.135 A 
ATOM     78  F   UNL A   1      35.953  31.392  31.826  1.00  0.00    -0.206 F 
ATOM     79  C   UNL A   1      34.817  33.020  30.570  1.00  0.00     0.059 A 
ATOM     80  C   UNL A   1      36.009  34.269  28.860  1.00  0.00     0.059 A 
ATOM     81  F   UNL A   1      38.277  33.819  28.465  1.00  0.00    -0.206 F 
ATOM     82  C   UNL A   1      34.841  33.996  29.571  1.00  0.00     0.060 A 
BRANCH  82  83
ATOM     83  S   UNL A   1      33.340  34.947  29.247  1.00  0.00     0.124 S 
ATOM     84  O   UNL A   1      33.892  36.220  28.800  1.00  0.00    -0.237 OA
ATOM     85  O   UNL A   1      32.677  34.143  28.224  1.00  0.00    -0.237 OA
ATOM     86  O   UNL A   1      32.673  34.967  30.546  1.00  0.00    -0.744 OA
ENDBRANCH  82  83
ENDBRANCH  50  75
BRANCH  62  87
ATOM     87  C   UNL A   1      42.121  33.523  34.971  1.00  0.00     0.058 A 
ATOM     88  C   UNL A   1      42.892  34.664  34.703  1.00  0.00     0.135 A 
ATOM     89  C   UNL A   1      41.522  33.411  36.235  1.00  0.00     0.135 A 
ATOM     90  F   UNL A   1      43.491  34.810  33.511  1.00  0.00    -0.206 F 
ATOM     91  C   UNL A   1      43.080  35.652  35.664  1.00  0.00     0.059 A 
ATOM     92  C   UNL A   1      41.680  34.397  37.204  1.00  0.00     0.059 A 
ATOM     93  F   UNL A   1      40.770  32.341  36.535  1.00  0.00    -0.206 F 
ATOM     94  C   UNL A   1      42.473  35.507  36.913  1.00  0.00     0.060 A 
BRANCH  94  95
ATOM     95  S   UNL A   1      42.704  36.802  38.149  1.00  0.00     0.124 S 
ATOM     96  O   UNL A   1      41.324  37.179  38.440  1.00  0.00    -0.237 OA
ATOM     97  O   UNL A   1      43.407  36.098  39.218  1.00  0.00    -0.237 OA
ATOM     98  O   UNL A   1      43.495  37.806  37.444  1.00  0.00    -0.744 OA
ENDBRANCH  94  95
ENDBRANCH  62  87
ENDBRANCH  36  37
ENDBRANCH  29  31
ENDBRANCH  28  29
ENDBRANCH  27  28
ENDBRANCH   1  27
TORSDOF 18
ENDMDL
