MODEL 1
REMARK VINA RESULT:     -11.9      0.000      0.000
REMARK SMILES C[C@@H](C(=O)OCCOC(=O)c1ccc(-c2c3nc(c(-c4c(F)cc(S(=O)(=O)[O-])cc4F)c4ccc([nH]4)c(-c4c(F)cc(S(=O)(=O)[O-])cc4F)c4nc(c(-c5c(F)cc(S(=O)(=O)[O-])cc5F)c5ccc2[nH]5)C=C4)C=C3)cc1)c1ccc(C[C@H]2CCC[C@@H]2O)cc1F
REMARK SMILES IDX 6 1 5 2 3 3 4 4 2 5 1 6 77 7 78 8 89 9 79 10 88 11 90 12
REMARK SMILES IDX 80 13 81 14 82 15 83 16 86 17 84 18 85 19 87 20 7 22 8 23
REMARK SMILES IDX 9 24 10 25 11 26 12 27 76 28 13 29 75 30 14 31 15 32 16 33
REMARK SMILES IDX 69 34 17 35 74 36 68 37 70 38 18 39 73 40 67 41 66 42 19 44
REMARK SMILES IDX 53 45 32 46 52 47 33 48 36 49 51 50 71 51 34 52 35 53 50 55
REMARK SMILES IDX 72 56 37 57 20 58 21 59 30 60 22 61 23 62 29 63 31 64 24 65
REMARK SMILES IDX 25 66 26 67 27 68 28 69 54 70 55 71 64 72 56 73 57 74 63 75
REMARK SMILES IDX 65 76 58 77 59 78 60 79 61 80 62 81 38 82 39 83 48 84 40 85
REMARK SMILES IDX 41 86 47 87 49 88 42 89 43 90 44 91 45 92 46 93
REMARK H PARENT 87 21 70 43 36 54
REMARK Flexibility Score: inf
ROOT
ATOM      1  C   UNL A   1      33.389  30.050  27.020  1.00  0.00     0.274 C 
ENDROOT
BRANCH   1   2
ATOM      2  O   UNL A   1      33.493  28.630  27.254  1.00  0.00    -0.462 OA
BRANCH   2   3
ATOM      3  C   UNL A   1      32.336  27.915  27.160  1.00  0.00     0.313 C 
ATOM      4  O   UNL A   1      31.515  27.850  28.070  1.00  0.00    -0.252 OA
BRANCH   3   5
ATOM      5  C   UNL A   1      32.212  27.134  25.834  1.00  0.00     0.129 C 
ATOM      6  C   UNL A   1      33.572  26.965  25.144  1.00  0.00     0.025 C 
BRANCH   5   7
ATOM      7  C   UNL A   1      31.090  27.682  24.947  1.00  0.00     0.002 A 
ATOM      8  C   UNL A   1      31.181  29.002  24.473  1.00  0.00     0.008 A 
ATOM      9  C   UNL A   1      29.970  26.951  24.533  1.00  0.00     0.127 A 
ATOM     10  C   UNL A   1      30.255  29.526  23.561  1.00  0.00     0.004 A 
ATOM     11  C   UNL A   1      29.020  27.484  23.652  1.00  0.00     0.043 A 
ATOM     12  F   UNL A   1      29.780  25.691  24.946  1.00  0.00    -0.207 F 
ATOM     13  C   UNL A   1      29.158  28.777  23.130  1.00  0.00    -0.045 A 
BRANCH  13  14
ATOM     14  C   UNL A   1      28.218  29.251  22.036  1.00  0.00     0.041 C 
BRANCH  14  15
ATOM     15  C   UNL A   1      27.658  30.683  22.078  1.00  0.00     0.022 C 
ATOM     16  C   UNL A   1      27.764  31.383  23.441  1.00  0.00     0.007 C 
ATOM     17  C   UNL A   1      28.260  31.653  21.049  1.00  0.00     0.117 C 
ATOM     18  C   UNL A   1      28.553  32.660  23.185  1.00  0.00     0.003 C 
ATOM     19  C   UNL A   1      28.231  33.008  21.742  1.00  0.00     0.032 C 
BRANCH  17  20
ATOM     20  O   UNL A   1      27.493  31.664  19.862  1.00  0.00    -0.393 OA
ATOM     21  H   UNL A   1      28.060  31.903  19.112  1.00  0.00     0.210 HD
ENDBRANCH  17  20
ENDBRANCH  14  15
ENDBRANCH  13  14
ENDBRANCH   5   7
ENDBRANCH   3   5
ENDBRANCH   2   3
ENDBRANCH   1   2
BRANCH   1  22
ATOM     22  C   UNL A   1      34.519  30.781  27.738  1.00  0.00     0.275 C 
BRANCH  22  23
ATOM     23  O   UNL A   1      35.458  29.815  28.238  1.00  0.00    -0.458 OA
BRANCH  23  24
ATOM     24  C   UNL A   1      36.179  30.189  29.320  1.00  0.00     0.338 C 
ATOM     25  O   UNL A   1      35.751  30.648  30.368  1.00  0.00    -0.246 OA
BRANCH  24  26
ATOM     26  C   UNL A   1      37.612  29.980  29.046  1.00  0.00     0.060 A 
ATOM     27  C   UNL A   1      38.048  29.751  27.744  1.00  0.00     0.016 A 
ATOM     28  C   UNL A   1      38.522  29.932  30.104  1.00  0.00     0.016 A 
ATOM     29  C   UNL A   1      39.377  29.404  27.512  1.00  0.00     0.010 A 
ATOM     30  C   UNL A   1      39.872  29.651  29.852  1.00  0.00     0.010 A 
ATOM     31  C   UNL A   1      40.312  29.340  28.554  1.00  0.00    -0.014 A 
BRANCH  31  32
ATOM     32  C   UNL A   1      41.708  28.869  28.292  1.00  0.00     0.031 A 
ATOM     33  C   UNL A   1      42.874  29.811  28.484  1.00  0.00     0.074 A 
ATOM     34  C   UNL A   1      41.963  27.590  27.944  1.00  0.00     0.049 A 
ATOM     35  N   UNL A   1      44.132  29.650  28.159  1.00  0.00    -0.248 NA
ATOM     36  C   UNL A   1      42.584  31.107  29.117  1.00  0.00     0.031 C 
ATOM     37  C   UNL A   1      40.962  26.533  27.795  1.00  0.00     0.029 A 
ATOM     38  N   UNL A   1      43.154  26.950  27.688  1.00  0.00    -0.354 N 
ATOM     39  C   UNL A   1      44.766  30.847  28.474  1.00  0.00     0.074 A 
ATOM     40  C   UNL A   1      43.757  31.720  29.036  1.00  0.00     0.031 C 
ATOM     41  C   UNL A   1      41.583  25.367  27.554  1.00  0.00     0.029 A 
ATOM     42  C   UNL A   1      43.018  25.606  27.428  1.00  0.00     0.049 A 
ATOM     43  H   UNL A   1      44.023  27.411  27.690  1.00  0.00     0.167 HD
ATOM     44  C   UNL A   1      46.064  31.193  28.300  1.00  0.00     0.037 A 
ATOM     45  C   UNL A   1      43.933  24.673  27.092  1.00  0.00     0.037 A 
ATOM     46  C   UNL A   1      47.087  30.305  27.815  1.00  0.00     0.049 A 
ATOM     47  C   UNL A   1      45.367  25.081  26.896  1.00  0.00     0.074 A 
ATOM     48  C   UNL A   1      48.427  30.575  27.587  1.00  0.00     0.029 A 
ATOM     49  N   UNL A   1      46.895  28.967  27.507  1.00  0.00    -0.354 N 
ATOM     50  N   UNL A   1      45.927  26.252  27.081  1.00  0.00    -0.248 NA
ATOM     51  C   UNL A   1      46.289  24.047  26.401  1.00  0.00     0.031 C 
ATOM     52  C   UNL A   1      49.039  29.407  27.119  1.00  0.00     0.029 A 
ATOM     53  C   UNL A   1      48.088  28.401  27.088  1.00  0.00     0.049 A 
ATOM     54  H   UNL A   1      46.037  28.489  27.579  1.00  0.00     0.167 HD
ATOM     55  C   UNL A   1      47.262  26.096  26.724  1.00  0.00     0.074 A 
ATOM     56  C   UNL A   1      47.434  24.712  26.336  1.00  0.00     0.031 C 
ATOM     57  C   UNL A   1      48.250  27.023  26.701  1.00  0.00     0.037 A 
BRANCH  44  58
ATOM     58  C   UNL A   1      46.446  32.619  28.584  1.00  0.00     0.058 A 
ATOM     59  C   UNL A   1      46.427  33.612  27.595  1.00  0.00     0.135 A 
ATOM     60  C   UNL A   1      46.810  32.996  29.887  1.00  0.00     0.135 A 
ATOM     61  F   UNL A   1      46.104  33.300  26.329  1.00  0.00    -0.206 F 
ATOM     62  C   UNL A   1      46.778  34.929  27.883  1.00  0.00     0.059 A 
ATOM     63  C   UNL A   1      47.143  34.309  30.203  1.00  0.00     0.059 A 
ATOM     64  F   UNL A   1      46.844  32.083  30.870  1.00  0.00    -0.206 F 
ATOM     65  C   UNL A   1      47.138  35.266  29.189  1.00  0.00     0.060 A 
BRANCH  65  66
ATOM     66  S   UNL A   1      47.595  36.975  29.554  1.00  0.00     0.124 S 
ATOM     67  O   UNL A   1      48.247  36.831  30.851  1.00  0.00    -0.237 OA
ATOM     68  O   UNL A   1      48.472  37.312  28.437  1.00  0.00    -0.237 OA
ATOM     69  O   UNL A   1      46.313  37.672  29.570  1.00  0.00    -0.744 OA
ENDBRANCH  65  66
ENDBRANCH  44  58
BRANCH  45  70
ATOM     70  C   UNL A   1      43.515  23.262  26.865  1.00  0.00     0.058 A 
ATOM     71  C   UNL A   1      43.459  22.726  25.570  1.00  0.00     0.135 A 
ATOM     72  C   UNL A   1      43.162  22.424  27.934  1.00  0.00     0.135 A 
ATOM     73  F   UNL A   1      43.761  23.490  24.510  1.00  0.00    -0.206 F 
ATOM     74  C   UNL A   1      43.070  21.410  25.342  1.00  0.00     0.059 A 
ATOM     75  C   UNL A   1      42.796  21.096  27.733  1.00  0.00     0.059 A 
ATOM     76  F   UNL A   1      43.195  22.886  29.193  1.00  0.00    -0.206 F 
ATOM     77  C   UNL A   1      42.746  20.601  26.432  1.00  0.00     0.060 A 
BRANCH  77  78
ATOM     78  S   UNL A   1      42.316  18.871  26.138  1.00  0.00     0.124 S 
ATOM     79  O   UNL A   1      43.225  18.524  25.053  1.00  0.00    -0.237 OA
ATOM     80  O   UNL A   1      42.600  18.258  27.432  1.00  0.00    -0.237 OA
ATOM     81  O   UNL A   1      40.901  18.937  25.784  1.00  0.00    -0.744 OA
ENDBRANCH  77  78
ENDBRANCH  45  70
BRANCH  57  82
ATOM     82  C   UNL A   1      49.610  26.574  26.247  1.00  0.00     0.058 A 
ATOM     83  C   UNL A   1      50.060  26.817  24.940  1.00  0.00     0.135 A 
ATOM     84  C   UNL A   1      50.489  25.937  27.137  1.00  0.00     0.135 A 
ATOM     85  F   UNL A   1      49.254  27.416  24.049  1.00  0.00    -0.206 F 
ATOM     86  C   UNL A   1      51.329  26.429  24.524  1.00  0.00     0.059 A 
ATOM     87  C   UNL A   1      51.771  25.559  26.748  1.00  0.00     0.059 A 
ATOM     88  F   UNL A   1      50.111  25.689  28.401  1.00  0.00    -0.206 F 
ATOM     89  C   UNL A   1      52.178  25.800  25.437  1.00  0.00     0.060 A 
BRANCH  89  90
ATOM     90  S   UNL A   1      53.837  25.332  24.897  1.00  0.00     0.124 S 
ATOM     91  O   UNL A   1      54.662  25.895  25.962  1.00  0.00    -0.237 OA
ATOM     92  O   UNL A   1      53.760  23.875  24.859  1.00  0.00    -0.237 OA
ATOM     93  O   UNL A   1      53.965  25.980  23.595  1.00  0.00    -0.744 OA
ENDBRANCH  89  90
ENDBRANCH  57  82
ENDBRANCH  31  32
ENDBRANCH  24  26
ENDBRANCH  23  24
ENDBRANCH  22  23
ENDBRANCH   1  22
TORSDOF 18
ENDMDL
MODEL 2
REMARK VINA RESULT:     -11.7      6.845     12.250
REMARK SMILES C[C@@H](C(=O)OCCOC(=O)c1ccc(-c2c3nc(c(-c4c(F)cc(S(=O)(=O)[O-])cc4F)c4ccc([nH]4)c(-c4c(F)cc(S(=O)(=O)[O-])cc4F)c4nc(c(-c5c(F)cc(S(=O)(=O)[O-])cc5F)c5ccc2[nH]5)C=C4)C=C3)cc1)c1ccc(C[C@H]2CCC[C@@H]2O)cc1F
REMARK SMILES IDX 6 1 5 2 3 3 4 4 2 5 1 6 77 7 78 8 89 9 79 10 88 11 90 12
REMARK SMILES IDX 80 13 81 14 82 15 83 16 86 17 84 18 85 19 87 20 7 22 8 23
REMARK SMILES IDX 9 24 10 25 11 26 12 27 76 28 13 29 75 30 14 31 15 32 16 33
REMARK SMILES IDX 69 34 17 35 74 36 68 37 70 38 18 39 73 40 67 41 66 42 19 44
REMARK SMILES IDX 53 45 32 46 52 47 33 48 36 49 51 50 71 51 34 52 35 53 50 55
REMARK SMILES IDX 72 56 37 57 20 58 21 59 30 60 22 61 23 62 29 63 31 64 24 65
REMARK SMILES IDX 25 66 26 67 27 68 28 69 54 70 55 71 64 72 56 73 57 74 63 75
REMARK SMILES IDX 65 76 58 77 59 78 60 79 61 80 62 81 38 82 39 83 48 84 40 85
REMARK SMILES IDX 41 86 47 87 49 88 42 89 43 90 44 91 45 92 46 93
REMARK H PARENT 87 21 70 43 36 54
REMARK Flexibility Score: inf
ROOT
ATOM      1  C   UNL A   1      38.601  21.498  25.674  1.00  0.00     0.274 C 
ENDROOT
BRANCH   1   2
ATOM      2  O   UNL A   1      37.459  22.377  25.582  1.00  0.00    -0.462 OA
BRANCH   2   3
ATOM      3  C   UNL A   1      36.285  21.803  25.193  1.00  0.00     0.313 C 
ATOM      4  O   UNL A   1      35.835  20.786  25.710  1.00  0.00    -0.252 OA
BRANCH   3   5
ATOM      5  C   UNL A   1      35.634  22.515  23.988  1.00  0.00     0.129 C 
ATOM      6  C   UNL A   1      36.673  23.248  23.129  1.00  0.00     0.025 C 
BRANCH   5   7
ATOM      7  C   UNL A   1      34.418  23.351  24.401  1.00  0.00     0.002 A 
ATOM      8  C   UNL A   1      33.178  23.094  23.790  1.00  0.00     0.008 A 
ATOM      9  C   UNL A   1      34.431  24.351  25.379  1.00  0.00     0.127 A 
ATOM     10  C   UNL A   1      32.003  23.734  24.205  1.00  0.00     0.004 A 
ATOM     11  C   UNL A   1      33.265  25.022  25.770  1.00  0.00     0.043 A 
ATOM     12  F   UNL A   1      35.567  24.686  26.005  1.00  0.00    -0.207 F 
ATOM     13  C   UNL A   1      32.022  24.708  25.205  1.00  0.00    -0.045 A 
BRANCH  13  14
ATOM     14  C   UNL A   1      30.757  25.317  25.784  1.00  0.00     0.041 C 
BRANCH  14  15
ATOM     15  C   UNL A   1      30.156  26.580  25.144  1.00  0.00     0.022 C 
ATOM     16  C   UNL A   1      31.144  27.737  24.936  1.00  0.00     0.007 C 
ATOM     17  C   UNL A   1      29.459  26.362  23.791  1.00  0.00     0.117 C 
ATOM     18  C   UNL A   1      31.099  28.051  23.446  1.00  0.00     0.003 C 
ATOM     19  C   UNL A   1      29.692  27.659  23.031  1.00  0.00     0.032 C 
BRANCH  17  20
ATOM     20  O   UNL A   1      28.080  26.110  23.974  1.00  0.00    -0.393 OA
ATOM     21  H   UNL A   1      27.710  26.764  24.587  1.00  0.00     0.210 HD
ENDBRANCH  17  20
ENDBRANCH  14  15
ENDBRANCH  13  14
ENDBRANCH   5   7
ENDBRANCH   3   5
ENDBRANCH   2   3
ENDBRANCH   1   2
BRANCH   1  22
ATOM     22  C   UNL A   1      39.662  22.115  26.580  1.00  0.00     0.275 C 
BRANCH  22  23
ATOM     23  O   UNL A   1      39.524  23.545  26.557  1.00  0.00    -0.458 OA
BRANCH  23  24
ATOM     24  C   UNL A   1      40.667  24.257  26.673  1.00  0.00     0.338 C 
ATOM     25  O   UNL A   1      41.743  24.015  26.145  1.00  0.00    -0.246 OA
BRANCH  24  26
ATOM     26  C   UNL A   1      40.441  25.399  27.576  1.00  0.00     0.060 A 
ATOM     27  C   UNL A   1      41.269  26.515  27.509  1.00  0.00     0.016 A 
ATOM     28  C   UNL A   1      39.446  25.327  28.552  1.00  0.00     0.016 A 
ATOM     29  C   UNL A   1      41.148  27.523  28.464  1.00  0.00     0.010 A 
ATOM     30  C   UNL A   1      39.285  26.379  29.465  1.00  0.00     0.010 A 
ATOM     31  C   UNL A   1      40.164  27.475  29.461  1.00  0.00    -0.014 A 
BRANCH  31  32
ATOM     32  C   UNL A   1      40.119  28.519  30.532  1.00  0.00     0.031 A 
ATOM     33  C   UNL A   1      41.151  28.517  31.636  1.00  0.00     0.074 A 
ATOM     34  C   UNL A   1      39.207  29.514  30.505  1.00  0.00     0.049 A 
ATOM     35  N   UNL A   1      41.193  29.228  32.734  1.00  0.00    -0.248 NA
ATOM     36  C   UNL A   1      42.282  27.587  31.486  1.00  0.00     0.031 C 
ATOM     37  C   UNL A   1      38.192  29.709  29.468  1.00  0.00     0.029 A 
ATOM     38  N   UNL A   1      39.009  30.574  31.359  1.00  0.00    -0.354 N 
ATOM     39  C   UNL A   1      42.303  28.778  33.441  1.00  0.00     0.074 A 
ATOM     40  C   UNL A   1      42.921  27.746  32.637  1.00  0.00     0.031 C 
ATOM     41  C   UNL A   1      37.536  30.857  29.703  1.00  0.00     0.029 A 
ATOM     42  C   UNL A   1      38.010  31.431  30.960  1.00  0.00     0.049 A 
ATOM     43  H   UNL A   1      39.535  30.707  32.181  1.00  0.00     0.167 HD
ATOM     44  C   UNL A   1      42.758  29.178  34.653  1.00  0.00     0.037 A 
ATOM     45  C   UNL A   1      37.502  32.533  31.549  1.00  0.00     0.037 A 
ATOM     46  C   UNL A   1      42.193  30.256  35.422  1.00  0.00     0.049 A 
ATOM     47  C   UNL A   1      38.016  32.954  32.899  1.00  0.00     0.074 A 
ATOM     48  C   UNL A   1      42.577  30.718  36.670  1.00  0.00     0.029 A 
ATOM     49  N   UNL A   1      41.143  31.060  35.007  1.00  0.00    -0.354 N 
ATOM     50  N   UNL A   1      38.989  32.439  33.610  1.00  0.00    -0.248 NA
ATOM     51  C   UNL A   1      37.332  34.083  33.547  1.00  0.00     0.031 C 
ATOM     52  C   UNL A   1      41.743  31.785  37.021  1.00  0.00     0.029 A 
ATOM     53  C   UNL A   1      40.862  32.010  35.975  1.00  0.00     0.049 A 
ATOM     54  H   UNL A   1      40.668  30.970  34.149  1.00  0.00     0.167 HD
ATOM     55  C   UNL A   1      39.031  33.177  34.788  1.00  0.00     0.074 A 
ATOM     56  C   UNL A   1      38.004  34.192  34.685  1.00  0.00     0.031 C 
ATOM     57  C   UNL A   1      39.837  33.015  35.866  1.00  0.00     0.037 A 
BRANCH  44  58
ATOM     58  C   UNL A   1      43.897  28.404  35.256  1.00  0.00     0.058 A 
ATOM     59  C   UNL A   1      45.235  28.786  35.087  1.00  0.00     0.135 A 
ATOM     60  C   UNL A   1      43.630  27.273  36.045  1.00  0.00     0.135 A 
ATOM     61  F   UNL A   1      45.545  29.848  34.327  1.00  0.00    -0.206 F 
ATOM     62  C   UNL A   1      46.274  28.058  35.661  1.00  0.00     0.059 A 
ATOM     63  C   UNL A   1      44.650  26.544  36.647  1.00  0.00     0.059 A 
ATOM     64  F   UNL A   1      42.366  26.867  36.237  1.00  0.00    -0.206 F 
ATOM     65  C   UNL A   1      45.971  26.936  36.437  1.00  0.00     0.060 A 
BRANCH  65  66
ATOM     66  S   UNL A   1      47.325  25.996  37.175  1.00  0.00     0.124 S 
ATOM     67  O   UNL A   1      46.599  24.926  37.854  1.00  0.00    -0.237 OA
ATOM     68  O   UNL A   1      48.102  25.592  36.008  1.00  0.00    -0.237 OA
ATOM     69  O   UNL A   1      47.974  26.967  38.051  1.00  0.00    -0.744 OA
ENDBRANCH  65  66
ENDBRANCH  44  58
BRANCH  45  70
ATOM     70  C   UNL A   1      36.405  33.295  30.893  1.00  0.00     0.058 A 
ATOM     71  C   UNL A   1      35.091  33.234  31.382  1.00  0.00     0.135 A 
ATOM     72  C   UNL A   1      36.643  34.095  29.764  1.00  0.00     0.135 A 
ATOM     73  F   UNL A   1      34.801  32.466  32.442  1.00  0.00    -0.206 F 
ATOM     74  C   UNL A   1      34.055  33.940  30.779  1.00  0.00     0.059 A 
ATOM     75  C   UNL A   1      35.629  34.831  29.160  1.00  0.00     0.059 A 
ATOM     76  F   UNL A   1      37.880  34.187  29.253  1.00  0.00    -0.206 F 
ATOM     77  C   UNL A   1      34.336  34.741  29.671  1.00  0.00     0.060 A 
BRANCH  77  78
ATOM     78  S   UNL A   1      33.003  35.715  28.938  1.00  0.00     0.124 S 
ATOM     79  O   UNL A   1      32.252  36.119  30.120  1.00  0.00    -0.237 OA
ATOM     80  O   UNL A   1      33.736  36.775  28.253  1.00  0.00    -0.237 OA
ATOM     81  O   UNL A   1      32.337  34.758  28.059  1.00  0.00    -0.744 OA
ENDBRANCH  77  78
ENDBRANCH  45  70
BRANCH  57  82
ATOM     82  C   UNL A   1      39.646  33.957  37.020  1.00  0.00     0.058 A 
ATOM     83  C   UNL A   1      38.856  33.606  38.126  1.00  0.00     0.135 A 
ATOM     84  C   UNL A   1      40.295  35.201  37.045  1.00  0.00     0.135 A 
ATOM     85  F   UNL A   1      38.210  32.430  38.147  1.00  0.00    -0.206 F 
ATOM     86  C   UNL A   1      38.702  34.463  39.210  1.00  0.00     0.059 A 
ATOM     87  C   UNL A   1      40.170  36.067  38.128  1.00  0.00     0.059 A 
ATOM     88  F   UNL A   1      41.069  35.582  36.016  1.00  0.00    -0.206 F 
ATOM     89  C   UNL A   1      39.363  35.693  39.202  1.00  0.00     0.060 A 
BRANCH  89  90
ATOM     90  S   UNL A   1      39.184  36.784  40.630  1.00  0.00     0.124 S 
ATOM     91  O   UNL A   1      38.483  37.922  40.045  1.00  0.00    -0.237 OA
ATOM     92  O   UNL A   1      38.405  35.968  41.556  1.00  0.00    -0.237 OA
ATOM     93  O   UNL A   1      40.563  37.037  41.038  1.00  0.00    -0.744 OA
ENDBRANCH  89  90
ENDBRANCH  57  82
ENDBRANCH  31  32
ENDBRANCH  24  26
ENDBRANCH  23  24
ENDBRANCH  22  23
ENDBRANCH   1  22
TORSDOF 18
ENDMDL
MODEL 3
REMARK VINA RESULT:     -11.5      2.690      4.892
REMARK SMILES C[C@@H](C(=O)OCCOC(=O)c1ccc(-c2c3nc(c(-c4c(F)cc(S(=O)(=O)[O-])cc4F)c4ccc([nH]4)c(-c4c(F)cc(S(=O)(=O)[O-])cc4F)c4nc(c(-c5c(F)cc(S(=O)(=O)[O-])cc5F)c5ccc2[nH]5)C=C4)C=C3)cc1)c1ccc(C[C@H]2CCC[C@@H]2O)cc1F
REMARK SMILES IDX 6 1 5 2 3 3 4 4 2 5 1 6 77 7 78 8 89 9 79 10 88 11 90 12
REMARK SMILES IDX 80 13 81 14 82 15 83 16 86 17 84 18 85 19 87 20 7 22 8 23
REMARK SMILES IDX 9 24 10 25 11 26 12 27 76 28 13 29 75 30 14 31 15 32 16 33
REMARK SMILES IDX 69 34 17 35 74 36 68 37 70 38 18 39 73 40 67 41 66 42 19 44
REMARK SMILES IDX 53 45 32 46 52 47 33 48 36 49 51 50 71 51 34 52 35 53 50 55
REMARK SMILES IDX 72 56 37 57 20 58 21 59 30 60 22 61 23 62 29 63 31 64 24 65
REMARK SMILES IDX 25 66 26 67 27 68 28 69 54 70 55 71 64 72 56 73 57 74 63 75
REMARK SMILES IDX 65 76 58 77 59 78 60 79 61 80 62 81 38 82 39 83 48 84 40 85
REMARK SMILES IDX 41 86 47 87 49 88 42 89 43 90 44 91 45 92 46 93
REMARK H PARENT 87 21 70 43 36 54
REMARK Flexibility Score: inf
ROOT
ATOM      1  C   UNL A   1      31.629  30.145  26.436  1.00  0.00     0.274 C 
ENDROOT
BRANCH   1   2
ATOM      2  O   UNL A   1      31.348  28.871  25.819  1.00  0.00    -0.462 OA
BRANCH   2   3
ATOM      3  C   UNL A   1      30.924  28.906  24.524  1.00  0.00     0.313 C 
ATOM      4  O   UNL A   1      30.330  29.864  24.042  1.00  0.00    -0.252 OA
BRANCH   3   5
ATOM      5  C   UNL A   1      31.191  27.589  23.764  1.00  0.00     0.129 C 
ATOM      6  C   UNL A   1      29.890  26.940  23.274  1.00  0.00     0.025 C 
BRANCH   5   7
ATOM      7  C   UNL A   1      32.138  26.662  24.533  1.00  0.00     0.002 A 
ATOM      8  C   UNL A   1      31.615  25.502  25.131  1.00  0.00     0.008 A 
ATOM      9  C   UNL A   1      33.516  26.861  24.669  1.00  0.00     0.127 A 
ATOM     10  C   UNL A   1      32.441  24.550  25.744  1.00  0.00     0.004 A 
ATOM     11  C   UNL A   1      34.341  25.932  25.316  1.00  0.00     0.043 A 
ATOM     12  F   UNL A   1      34.108  27.947  24.154  1.00  0.00    -0.207 F 
ATOM     13  C   UNL A   1      33.820  24.743  25.846  1.00  0.00    -0.045 A 
BRANCH  13  14
ATOM     14  C   UNL A   1      34.764  23.675  26.368  1.00  0.00     0.041 C 
BRANCH  14  15
ATOM     15  C   UNL A   1      35.806  23.051  25.426  1.00  0.00     0.022 C 
ATOM     16  C   UNL A   1      37.210  23.669  25.507  1.00  0.00     0.007 C 
ATOM     17  C   UNL A   1      35.996  21.532  25.572  1.00  0.00     0.117 C 
ATOM     18  C   UNL A   1      38.146  22.516  25.846  1.00  0.00     0.003 C 
ATOM     19  C   UNL A   1      37.464  21.301  25.243  1.00  0.00     0.032 C 
BRANCH  17  20
ATOM     20  O   UNL A   1      35.151  20.834  24.680  1.00  0.00    -0.393 OA
ATOM     21  H   UNL A   1      35.308  19.880  24.764  1.00  0.00     0.210 HD
ENDBRANCH  17  20
ENDBRANCH  14  15
ENDBRANCH  13  14
ENDBRANCH   5   7
ENDBRANCH   3   5
ENDBRANCH   2   3
ENDBRANCH   1   2
BRANCH   1  22
ATOM     22  C   UNL A   1      33.131  30.409  26.428  1.00  0.00     0.275 C 
BRANCH  22  23
ATOM     23  O   UNL A   1      33.703  29.899  27.643  1.00  0.00    -0.458 OA
BRANCH  23  24
ATOM     24  C   UNL A   1      34.505  30.746  28.327  1.00  0.00     0.338 C 
ATOM     25  O   UNL A   1      34.198  31.830  28.802  1.00  0.00    -0.246 OA
BRANCH  24  26
ATOM     26  C   UNL A   1      35.861  30.175  28.407  1.00  0.00     0.060 A 
ATOM     27  C   UNL A   1      36.333  29.667  29.614  1.00  0.00     0.016 A 
ATOM     28  C   UNL A   1      36.700  30.219  27.293  1.00  0.00     0.016 A 
ATOM     29  C   UNL A   1      37.665  29.271  29.722  1.00  0.00     0.010 A 
ATOM     30  C   UNL A   1      38.019  29.752  27.392  1.00  0.00     0.010 A 
ATOM     31  C   UNL A   1      38.534  29.310  28.622  1.00  0.00    -0.014 A 
BRANCH  31  32
ATOM     32  C   UNL A   1      39.982  28.973  28.789  1.00  0.00     0.031 A 
ATOM     33  C   UNL A   1      40.920  29.965  29.438  1.00  0.00     0.074 A 
ATOM     34  C   UNL A   1      40.469  27.767  28.429  1.00  0.00     0.049 A 
ATOM     35  N   UNL A   1      42.226  29.933  29.531  1.00  0.00    -0.248 NA
ATOM     36  C   UNL A   1      40.309  31.151  30.059  1.00  0.00     0.031 C 
ATOM     37  C   UNL A   1      39.684  26.668  27.863  1.00  0.00     0.029 A 
ATOM     38  N   UNL A   1      41.740  27.249  28.519  1.00  0.00    -0.354 N 
ATOM     39  C   UNL A   1      42.596  31.125  30.145  1.00  0.00     0.074 A 
ATOM     40  C   UNL A   1      41.375  31.850  30.423  1.00  0.00     0.031 C 
ATOM     41  C   UNL A   1      40.470  25.587  27.732  1.00  0.00     0.029 A 
ATOM     42  C   UNL A   1      41.837  25.939  28.106  1.00  0.00     0.049 A 
ATOM     43  H   UNL A   1      42.510  27.766  28.848  1.00  0.00     0.167 HD
ATOM     44  C   UNL A   1      43.838  31.580  30.439  1.00  0.00     0.037 A 
ATOM     45  C   UNL A   1      42.904  25.121  28.004  1.00  0.00     0.037 A 
ATOM     46  C   UNL A   1      45.051  30.831  30.235  1.00  0.00     0.049 A 
ATOM     47  C   UNL A   1      44.275  25.649  28.327  1.00  0.00     0.074 A 
ATOM     48  C   UNL A   1      46.357  31.220  30.485  1.00  0.00     0.029 A 
ATOM     49  N   UNL A   1      45.109  29.530  29.760  1.00  0.00    -0.354 N 
ATOM     50  N   UNL A   1      44.620  26.826  28.793  1.00  0.00    -0.248 NA
ATOM     51  C   UNL A   1      45.411  24.751  28.069  1.00  0.00     0.031 C 
ATOM     52  C   UNL A   1      47.206  30.164  30.138  1.00  0.00     0.029 A 
ATOM     53  C   UNL A   1      46.426  29.104  29.704  1.00  0.00     0.049 A 
ATOM     54  H   UNL A   1      44.328  28.988  29.502  1.00  0.00     0.167 HD
ATOM     55  C   UNL A   1      46.007  26.809  28.879  1.00  0.00     0.074 A 
ATOM     56  C   UNL A   1      46.440  25.498  28.444  1.00  0.00     0.031 C 
ATOM     57  C   UNL A   1      46.848  27.798  29.267  1.00  0.00     0.037 A 
BRANCH  44  58
ATOM     58  C   UNL A   1      43.957  32.984  30.962  1.00  0.00     0.058 A 
ATOM     59  C   UNL A   1      44.019  34.098  30.113  1.00  0.00     0.135 A 
ATOM     60  C   UNL A   1      43.978  33.211  32.347  1.00  0.00     0.135 A 
ATOM     61  F   UNL A   1      44.021  33.935  28.780  1.00  0.00    -0.206 F 
ATOM     62  C   UNL A   1      44.122  35.391  30.621  1.00  0.00     0.059 A 
ATOM     63  C   UNL A   1      44.058  34.495  32.878  1.00  0.00     0.059 A 
ATOM     64  F   UNL A   1      43.921  32.178  33.202  1.00  0.00    -0.206 F 
ATOM     65  C   UNL A   1      44.144  35.578  32.005  1.00  0.00     0.060 A 
BRANCH  65  66
ATOM     66  S   UNL A   1      44.280  37.258  32.655  1.00  0.00     0.124 S 
ATOM     67  O   UNL A   1      44.169  38.051  31.434  1.00  0.00    -0.237 OA
ATOM     68  O   UNL A   1      43.143  37.336  33.566  1.00  0.00    -0.237 OA
ATOM     69  O   UNL A   1      45.592  37.269  33.294  1.00  0.00    -0.744 OA
ENDBRANCH  65  66
ENDBRANCH  44  58
BRANCH  45  70
ATOM     70  C   UNL A   1      42.733  23.722  27.524  1.00  0.00     0.058 A 
ATOM     71  C   UNL A   1      42.671  22.652  28.429  1.00  0.00     0.135 A 
ATOM     72  C   UNL A   1      42.630  23.426  26.156  1.00  0.00     0.135 A 
ATOM     73  F   UNL A   1      42.789  22.874  29.746  1.00  0.00    -0.206 F 
ATOM     74  C   UNL A   1      42.511  21.339  27.996  1.00  0.00     0.059 A 
ATOM     75  C   UNL A   1      42.443  22.125  25.700  1.00  0.00     0.059 A 
ATOM     76  F   UNL A   1      42.686  24.411  25.247  1.00  0.00    -0.206 F 
ATOM     77  C   UNL A   1      42.393  21.087  26.629  1.00  0.00     0.060 A 
BRANCH  77  78
ATOM     78  S   UNL A   1      42.109  19.391  26.076  1.00  0.00     0.124 S 
ATOM     79  O   UNL A   1      42.564  18.627  27.231  1.00  0.00    -0.237 OA
ATOM     80  O   UNL A   1      40.670  19.383  25.829  1.00  0.00    -0.237 OA
ATOM     81  O   UNL A   1      42.941  19.289  24.880  1.00  0.00    -0.744 OA
ENDBRANCH  77  78
ENDBRANCH  45  70
BRANCH  57  82
ATOM     82  C   UNL A   1      48.321  27.505  29.244  1.00  0.00     0.058 A 
ATOM     83  C   UNL A   1      49.096  27.749  28.100  1.00  0.00     0.135 A 
ATOM     84  C   UNL A   1      48.973  27.020  30.388  1.00  0.00     0.135 A 
ATOM     85  F   UNL A   1      48.518  28.206  26.978  1.00  0.00    -0.206 F 
ATOM     86  C   UNL A   1      50.465  27.506  28.084  1.00  0.00     0.059 A 
ATOM     87  C   UNL A   1      50.346  26.788  30.402  1.00  0.00     0.059 A 
ATOM     88  F   UNL A   1      48.279  26.778  31.512  1.00  0.00    -0.206 F 
ATOM     89  C   UNL A   1      51.082  27.025  29.241  1.00  0.00     0.060 A 
BRANCH  89  90
ATOM     90  S   UNL A   1      52.866  26.746  29.221  1.00  0.00     0.124 S 
ATOM     91  O   UNL A   1      53.059  25.990  30.454  1.00  0.00    -0.237 OA
ATOM     92  O   UNL A   1      53.057  25.999  27.983  1.00  0.00    -0.237 OA
ATOM     93  O   UNL A   1      53.420  28.098  29.220  1.00  0.00    -0.744 OA
ENDBRANCH  89  90
ENDBRANCH  57  82
ENDBRANCH  31  32
ENDBRANCH  24  26
ENDBRANCH  23  24
ENDBRANCH  22  23
ENDBRANCH   1  22
TORSDOF 18
ENDMDL
