MODEL 1
REMARK VINA RESULT:     -12.6      0.000      0.000
REMARK SMILES CCc1ccnc(C(=O)c2[nH]c3ccc(OC(F)(F)F)cc3c2CC(=O)OCCOC(=O)c2ccc(-c3c4nc(c(-c5c(F)cc(S(=O)(=O)[O-])cc5F)c5ccc([nH]5)c(-c5c(F)cc(S(=O)(=O)[O-])cc5F)c5nc(c(-c6c(F)cc(S(=O)(=O)[O-])cc6F)c6ccc3[nH]6)C=C5)C=C4)cc2)c1
REMARK SMILES IDX 28 1 27 2 25 3 26 4 24 5 23 6 10 7 11 8 12 9 22 11 13 12
REMARK SMILES IDX 21 13 14 14 15 15 8 16 9 17 7 18 3 19 4 20 99 21 5 22 6 23
REMARK SMILES IDX 2 24 1 25 16 26 17 27 18 28 19 29 20 30 29 31 30 32 31 33
REMARK SMILES IDX 32 34 33 35 34 36 98 37 35 38 97 39 36 40 37 41 38 42 91 43
REMARK SMILES IDX 39 44 96 45 90 46 92 47 40 48 95 49 89 50 88 51 41 53 75 54
REMARK SMILES IDX 54 55 74 56 55 57 58 58 73 59 93 60 56 61 57 62 72 64 94 65
REMARK SMILES IDX 59 66 42 67 43 68 52 69 44 70 45 71 51 72 53 73 46 74 47 75
REMARK SMILES IDX 48 76 49 77 50 78 76 79 77 80 86 81 78 82 79 83 85 84 87 85
REMARK SMILES IDX 80 86 81 87 82 88 83 89 84 90 60 91 61 92 70 93 62 94 63 95
REMARK SMILES IDX 69 96 71 97 64 98 65 99 66 100 67 101 68 102
REMARK H PARENT 11 10 92 52 58 63
REMARK Flexibility Score: inf
ROOT
ATOM      1  C   UNL A   1      33.194  30.513  27.219  1.00  0.00     0.274 C 
ENDROOT
BRANCH   1   2
ATOM      2  O   UNL A   1      33.584  29.126  27.325  1.00  0.00    -0.462 OA
BRANCH   2   3
ATOM      3  C   UNL A   1      32.596  28.207  27.184  1.00  0.00     0.310 C 
ATOM      4  O   UNL A   1      31.670  28.067  27.981  1.00  0.00    -0.252 OA
BRANCH   3   5
ATOM      5  C   UNL A   1      32.619  27.454  25.869  1.00  0.00     0.161 C 
BRANCH   5   6
ATOM      6  C   UNL A   1      31.316  26.997  25.287  1.00  0.00     0.000 A 
ATOM      7  C   UNL A   1      30.751  25.722  25.320  1.00  0.00     0.093 A 
ATOM      8  N   UNL A   1      29.563  25.787  24.634  1.00  0.00    -0.352 N 
ATOM      9  C   UNL A   1      29.396  27.012  24.050  1.00  0.00     0.046 A 
ATOM     10  H   UNL A   1      28.915  25.048  24.570  1.00  0.00     0.167 HD
ATOM     11  C   UNL A   1      30.441  27.817  24.488  1.00  0.00     0.008 A 
ATOM     12  C   UNL A   1      28.397  27.457  23.186  1.00  0.00     0.030 A 
ATOM     13  C   UNL A   1      30.452  29.168  24.073  1.00  0.00     0.057 A 
ATOM     14  C   UNL A   1      28.444  28.791  22.770  1.00  0.00     0.049 A 
ATOM     15  C   UNL A   1      29.446  29.651  23.219  1.00  0.00     0.130 A 
BRANCH   7  16
ATOM     16  C   UNL A   1      31.122  24.466  25.957  1.00  0.00     0.227 C 
ATOM     17  O   UNL A   1      30.987  24.335  27.174  1.00  0.00    -0.285 OA
BRANCH  16  18
ATOM     18  C   UNL A   1      31.384  23.242  25.110  1.00  0.00     0.113 A 
ATOM     19  C   UNL A   1      32.336  21.031  24.867  1.00  0.00    -0.044 A 
ATOM     20  C   UNL A   1      32.326  21.237  23.486  1.00  0.00     0.024 A 
ATOM     21  C   UNL A   1      31.820  22.048  25.688  1.00  0.00     0.036 A 
ATOM     22  C   UNL A   1      31.840  22.437  22.990  1.00  0.00     0.112 A 
ATOM     23  N   UNL A   1      31.385  23.441  23.765  1.00  0.00    -0.253 NA
BRANCH  19  24
ATOM     24  C   UNL A   1      32.905  19.786  25.509  1.00  0.00     0.032 C 
ATOM     25  C   UNL A   1      32.832  18.501  24.690  1.00  0.00     0.009 C 
ENDBRANCH  19  24
ENDBRANCH  16  18
ENDBRANCH   7  16
BRANCH  15  26
ATOM     26  O   UNL A   1      29.565  30.977  22.901  1.00  0.00    -0.406 OA
BRANCH  26  27
ATOM     27  C   UNL A   1      28.457  31.817  23.169  1.00  0.00     0.573 C 
ATOM     28  F   UNL A   1      28.857  33.065  23.498  1.00  0.00    -0.132 F 
ATOM     29  F   UNL A   1      27.615  31.881  22.113  1.00  0.00    -0.132 F 
ATOM     30  F   UNL A   1      27.767  31.311  24.216  1.00  0.00    -0.132 F 
ENDBRANCH  26  27
ENDBRANCH  15  26
ENDBRANCH   5   6
ENDBRANCH   3   5
ENDBRANCH   2   3
ENDBRANCH   1   2
BRANCH   1  31
ATOM     31  C   UNL A   1      34.277  31.441  27.789  1.00  0.00     0.275 C 
BRANCH  31  32
ATOM     32  O   UNL A   1      35.598  30.865  27.711  1.00  0.00    -0.458 OA
BRANCH  32  33
ATOM     33  C   UNL A   1      36.164  30.661  28.918  1.00  0.00     0.338 C 
ATOM     34  O   UNL A   1      35.676  30.918  30.008  1.00  0.00    -0.246 OA
BRANCH  33  35
ATOM     35  C   UNL A   1      37.453  29.987  28.842  1.00  0.00     0.060 A 
ATOM     36  C   UNL A   1      38.199  29.848  30.016  1.00  0.00     0.016 A 
ATOM     37  C   UNL A   1      38.018  29.743  27.591  1.00  0.00     0.016 A 
ATOM     38  C   UNL A   1      39.541  29.492  29.936  1.00  0.00     0.010 A 
ATOM     39  C   UNL A   1      39.351  29.345  27.518  1.00  0.00     0.010 A 
ATOM     40  C   UNL A   1      40.123  29.234  28.687  1.00  0.00    -0.014 A 
BRANCH  40  41
ATOM     41  C   UNL A   1      41.534  28.807  28.585  1.00  0.00     0.031 A 
ATOM     42  C   UNL A   1      42.644  29.806  28.702  1.00  0.00     0.074 A 
ATOM     43  C   UNL A   1      41.797  27.513  28.335  1.00  0.00     0.049 A 
ATOM     44  N   UNL A   1      43.910  29.676  28.405  1.00  0.00    -0.248 NA
ATOM     45  C   UNL A   1      42.278  31.133  29.217  1.00  0.00     0.031 C 
ATOM     46  C   UNL A   1      40.795  26.450  28.256  1.00  0.00     0.029 A 
ATOM     47  N   UNL A   1      42.983  26.880  28.076  1.00  0.00    -0.354 N 
ATOM     48  C   UNL A   1      44.490  30.911  28.665  1.00  0.00     0.074 A 
ATOM     49  C   UNL A   1      43.436  31.778  29.150  1.00  0.00     0.031 C 
ATOM     50  C   UNL A   1      41.406  25.294  27.958  1.00  0.00     0.029 A 
ATOM     51  C   UNL A   1      42.827  25.553  27.758  1.00  0.00     0.049 A 
ATOM     52  H   UNL A   1      43.858  27.329  28.114  1.00  0.00     0.167 HD
ATOM     53  C   UNL A   1      45.783  31.280  28.500  1.00  0.00     0.037 A 
ATOM     54  C   UNL A   1      43.722  24.659  27.303  1.00  0.00     0.037 A 
ATOM     55  C   UNL A   1      46.814  30.394  28.022  1.00  0.00     0.049 A 
ATOM     56  C   UNL A   1      45.137  25.098  27.077  1.00  0.00     0.074 A 
ATOM     57  C   UNL A   1      48.151  30.665  27.789  1.00  0.00     0.029 A 
ATOM     58  N   UNL A   1      46.617  29.055  27.712  1.00  0.00    -0.354 N 
ATOM     59  N   UNL A   1      45.665  26.287  27.256  1.00  0.00    -0.248 NA
ATOM     60  C   UNL A   1      46.073  24.087  26.573  1.00  0.00     0.031 C 
ATOM     61  C   UNL A   1      48.759  29.493  27.320  1.00  0.00     0.029 A 
ATOM     62  C   UNL A   1      47.806  28.486  27.288  1.00  0.00     0.049 A 
ATOM     63  H   UNL A   1      45.759  28.579  27.782  1.00  0.00     0.167 HD
ATOM     64  C   UNL A   1      47.000  26.165  26.899  1.00  0.00     0.074 A 
ATOM     65  C   UNL A   1      47.200  24.785  26.497  1.00  0.00     0.031 C 
ATOM     66  C   UNL A   1      47.974  27.107  26.902  1.00  0.00     0.037 A 
BRANCH  53  67
ATOM     67  C   UNL A   1      46.141  32.708  28.802  1.00  0.00     0.058 A 
ATOM     68  C   UNL A   1      46.585  33.105  30.072  1.00  0.00     0.135 A 
ATOM     69  C   UNL A   1      46.048  33.690  27.803  1.00  0.00     0.135 A 
ATOM     70  F   UNL A   1      46.673  32.210  31.068  1.00  0.00    -0.206 F 
ATOM     71  C   UNL A   1      46.897  34.433  30.351  1.00  0.00     0.059 A 
ATOM     72  C   UNL A   1      46.370  35.021  28.054  1.00  0.00     0.059 A 
ATOM     73  F   UNL A   1      45.626  33.364  26.572  1.00  0.00    -0.206 F 
ATOM     74  C   UNL A   1      46.775  35.386  29.337  1.00  0.00     0.060 A 
BRANCH  74  75
ATOM     75  S   UNL A   1      47.146  37.111  29.719  1.00  0.00     0.124 S 
ATOM     76  O   UNL A   1      47.681  37.577  28.443  1.00  0.00    -0.237 OA
ATOM     77  O   UNL A   1      45.838  37.643  30.087  1.00  0.00    -0.237 OA
ATOM     78  O   UNL A   1      48.111  37.016  30.810  1.00  0.00    -0.744 OA
ENDBRANCH  74  75
ENDBRANCH  53  67
BRANCH  54  79
ATOM     79  C   UNL A   1      43.273  23.276  27.010  1.00  0.00     0.058 A 
ATOM     80  C   UNL A   1      43.165  22.826  25.689  1.00  0.00     0.135 A 
ATOM     81  C   UNL A   1      43.039  22.356  28.044  1.00  0.00     0.135 A 
ATOM     82  F   UNL A   1      43.380  23.672  24.671  1.00  0.00    -0.206 F 
ATOM     83  C   UNL A   1      42.847  21.503  25.398  1.00  0.00     0.059 A 
ATOM     84  C   UNL A   1      42.739  21.025  27.778  1.00  0.00     0.059 A 
ATOM     85  F   UNL A   1      43.153  22.740  29.325  1.00  0.00    -0.206 F 
ATOM     86  C   UNL A   1      42.645  20.608  26.451  1.00  0.00     0.060 A 
BRANCH  86  87
ATOM     87  S   UNL A   1      42.335  18.870  26.070  1.00  0.00     0.124 S 
ATOM     88  O   UNL A   1      43.277  18.639  24.981  1.00  0.00    -0.237 OA
ATOM     89  O   UNL A   1      42.646  18.213  27.334  1.00  0.00    -0.237 OA
ATOM     90  O   UNL A   1      40.922  18.858  25.700  1.00  0.00    -0.744 OA
ENDBRANCH  86  87
ENDBRANCH  54  79
BRANCH  66  91
ATOM     91  C   UNL A   1      49.345  26.665  26.490  1.00  0.00     0.058 A 
ATOM     92  C   UNL A   1      50.231  26.078  27.405  1.00  0.00     0.135 A 
ATOM     93  C   UNL A   1      49.757  26.789  25.154  1.00  0.00     0.135 A 
ATOM     94  F   UNL A   1      49.880  25.946  28.694  1.00  0.00    -0.206 F 
ATOM     95  C   UNL A   1      51.489  25.638  27.012  1.00  0.00     0.059 A 
ATOM     96  C   UNL A   1      51.006  26.344  24.736  1.00  0.00     0.059 A 
ATOM     97  F   UNL A   1      48.941  27.342  24.244  1.00  0.00    -0.206 F 
ATOM     98  C   UNL A   1      51.867  25.776  25.675  1.00  0.00     0.060 A 
BRANCH  98  99
ATOM     99  S   UNL A   1      53.489  25.168  25.161  1.00  0.00     0.124 S 
ATOM    100  O   UNL A   1      53.543  25.615  23.773  1.00  0.00    -0.237 OA
ATOM    101  O   UNL A   1      54.390  25.852  26.084  1.00  0.00    -0.237 OA
ATOM    102  O   UNL A   1      53.383  23.725  25.355  1.00  0.00    -0.744 OA
ENDBRANCH  98  99
ENDBRANCH  66  91
ENDBRANCH  40  41
ENDBRANCH  33  35
ENDBRANCH  32  33
ENDBRANCH  31  32
ENDBRANCH   1  31
TORSDOF 20
ENDMDL
MODEL 2
REMARK VINA RESULT:     -12.5      1.662      2.217
REMARK SMILES CCc1ccnc(C(=O)c2[nH]c3ccc(OC(F)(F)F)cc3c2CC(=O)OCCOC(=O)c2ccc(-c3c4nc(c(-c5c(F)cc(S(=O)(=O)[O-])cc5F)c5ccc([nH]5)c(-c5c(F)cc(S(=O)(=O)[O-])cc5F)c5nc(c(-c6c(F)cc(S(=O)(=O)[O-])cc6F)c6ccc3[nH]6)C=C5)C=C4)cc2)c1
REMARK SMILES IDX 28 1 27 2 25 3 26 4 24 5 23 6 10 7 11 8 12 9 22 11 13 12
REMARK SMILES IDX 21 13 14 14 15 15 8 16 9 17 7 18 3 19 4 20 99 21 5 22 6 23
REMARK SMILES IDX 2 24 1 25 16 26 17 27 18 28 19 29 20 30 29 31 30 32 31 33
REMARK SMILES IDX 32 34 33 35 34 36 98 37 35 38 97 39 36 40 37 41 38 42 91 43
REMARK SMILES IDX 39 44 96 45 90 46 92 47 40 48 95 49 89 50 88 51 41 53 75 54
REMARK SMILES IDX 54 55 74 56 55 57 58 58 73 59 93 60 56 61 57 62 72 64 94 65
REMARK SMILES IDX 59 66 42 67 43 68 52 69 44 70 45 71 51 72 53 73 46 74 47 75
REMARK SMILES IDX 48 76 49 77 50 78 76 79 77 80 86 81 78 82 79 83 85 84 87 85
REMARK SMILES IDX 80 86 81 87 82 88 83 89 84 90 60 91 61 92 70 93 62 94 63 95
REMARK SMILES IDX 69 96 71 97 64 98 65 99 66 100 67 101 68 102
REMARK H PARENT 11 10 92 52 58 63
REMARK Flexibility Score: inf
ROOT
ATOM      1  C   UNL A   1      33.274  29.805  25.655  1.00  0.00     0.274 C 
ENDROOT
BRANCH   1   2
ATOM      2  O   UNL A   1      33.834  28.477  25.557  1.00  0.00    -0.462 OA
BRANCH   2   3
ATOM      3  C   UNL A   1      33.802  27.896  24.331  1.00  0.00     0.310 C 
ATOM      4  O   UNL A   1      34.235  28.426  23.310  1.00  0.00    -0.252 OA
BRANCH   3   5
ATOM      5  C   UNL A   1      33.333  26.455  24.330  1.00  0.00     0.161 C 
BRANCH   5   6
ATOM      6  C   UNL A   1      31.890  26.176  24.624  1.00  0.00     0.000 A 
ATOM      7  C   UNL A   1      31.345  25.149  25.395  1.00  0.00     0.093 A 
ATOM      8  N   UNL A   1      29.980  25.292  25.353  1.00  0.00    -0.352 N 
ATOM      9  C   UNL A   1      29.613  26.284  24.486  1.00  0.00     0.046 A 
ATOM     10  H   UNL A   1      29.346  24.750  25.877  1.00  0.00     0.167 HD
ATOM     11  C   UNL A   1      30.782  26.904  24.059  1.00  0.00     0.008 A 
ATOM     12  C   UNL A   1      28.342  26.677  24.069  1.00  0.00     0.030 A 
ATOM     13  C   UNL A   1      30.662  28.019  23.201  1.00  0.00     0.057 A 
ATOM     14  C   UNL A   1      28.251  27.768  23.200  1.00  0.00     0.049 A 
ATOM     15  C   UNL A   1      29.393  28.452  22.779  1.00  0.00     0.130 A 
BRANCH   7  16
ATOM     16  C   UNL A   1      31.912  24.095  26.224  1.00  0.00     0.227 C 
ATOM     17  O   UNL A   1      31.446  23.881  27.343  1.00  0.00    -0.285 OA
BRANCH  16  18
ATOM     18  C   UNL A   1      32.853  23.082  25.613  1.00  0.00     0.113 A 
ATOM     19  C   UNL A   1      33.238  20.892  24.659  1.00  0.00    -0.044 A 
ATOM     20  C   UNL A   1      34.586  21.046  24.987  1.00  0.00     0.024 A 
ATOM     21  C   UNL A   1      32.364  21.954  24.951  1.00  0.00     0.036 A 
ATOM     22  C   UNL A   1      34.997  22.215  25.608  1.00  0.00     0.112 A 
ATOM     23  N   UNL A   1      34.165  23.222  25.938  1.00  0.00    -0.253 NA
BRANCH  19  24
ATOM     24  C   UNL A   1      32.679  19.631  24.041  1.00  0.00     0.032 C 
ATOM     25  C   UNL A   1      33.514  18.364  24.202  1.00  0.00     0.009 C 
ENDBRANCH  19  24
ENDBRANCH  16  18
ENDBRANCH   7  16
BRANCH  15  26
ATOM     26  O   UNL A   1      29.413  29.548  21.960  1.00  0.00    -0.406 OA
BRANCH  26  27
ATOM     27  C   UNL A   1      28.824  30.741  22.446  1.00  0.00     0.573 C 
ATOM     28  F   UNL A   1      29.288  31.821  21.781  1.00  0.00    -0.132 F 
ATOM     29  F   UNL A   1      27.476  30.702  22.354  1.00  0.00    -0.132 F 
ATOM     30  F   UNL A   1      29.144  30.886  23.753  1.00  0.00    -0.132 F 
ENDBRANCH  26  27
ENDBRANCH  15  26
ENDBRANCH   5   6
ENDBRANCH   3   5
ENDBRANCH   2   3
ENDBRANCH   1   2
BRANCH   1  31
ATOM     31  C   UNL A   1      32.861  30.130  27.098  1.00  0.00     0.275 C 
BRANCH  31  32
ATOM     32  O   UNL A   1      33.796  29.619  28.071  1.00  0.00    -0.458 OA
BRANCH  32  33
ATOM     33  C   UNL A   1      34.754  30.506  28.410  1.00  0.00     0.338 C 
ATOM     34  O   UNL A   1      34.591  31.680  28.707  1.00  0.00    -0.246 OA
BRANCH  33  35
ATOM     35  C   UNL A   1      36.082  29.916  28.491  1.00  0.00     0.060 A 
ATOM     36  C   UNL A   1      36.547  29.493  29.740  1.00  0.00     0.016 A 
ATOM     37  C   UNL A   1      36.942  30.029  27.399  1.00  0.00     0.016 A 
ATOM     38  C   UNL A   1      37.898  29.212  29.909  1.00  0.00     0.010 A 
ATOM     39  C   UNL A   1      38.287  29.705  27.562  1.00  0.00     0.010 A 
ATOM     40  C   UNL A   1      38.774  29.313  28.820  1.00  0.00    -0.014 A 
BRANCH  40  41
ATOM     41  C   UNL A   1      40.205  28.971  28.968  1.00  0.00     0.031 A 
ATOM     42  C   UNL A   1      41.203  30.018  29.357  1.00  0.00     0.074 A 
ATOM     43  C   UNL A   1      40.597  27.714  28.696  1.00  0.00     0.049 A 
ATOM     44  N   UNL A   1      42.508  29.977  29.304  1.00  0.00    -0.248 NA
ATOM     45  C   UNL A   1      40.658  31.282  29.871  1.00  0.00     0.031 C 
ATOM     46  C   UNL A   1      39.701  26.606  28.361  1.00  0.00     0.029 A 
ATOM     47  N   UNL A   1      41.850  27.166  28.634  1.00  0.00    -0.354 N 
ATOM     48  C   UNL A   1      42.945  31.220  29.745  1.00  0.00     0.074 A 
ATOM     49  C   UNL A   1      41.762  31.992  30.068  1.00  0.00     0.031 C 
ATOM     50  C   UNL A   1      40.433  25.510  28.118  1.00  0.00     0.029 A 
ATOM     51  C   UNL A   1      41.846  25.859  28.213  1.00  0.00     0.049 A 
ATOM     52  H   UNL A   1      42.669  27.659  28.868  1.00  0.00     0.167 HD
ATOM     53  C   UNL A   1      44.217  31.670  29.856  1.00  0.00     0.037 A 
ATOM     54  C   UNL A   1      42.869  25.050  27.888  1.00  0.00     0.037 A 
ATOM     55  C   UNL A   1      45.377  30.877  29.535  1.00  0.00     0.049 A 
ATOM     56  C   UNL A   1      44.268  25.580  27.967  1.00  0.00     0.074 A 
ATOM     57  C   UNL A   1      46.713  31.236  29.582  1.00  0.00     0.029 A 
ATOM     58  N   UNL A   1      45.333  29.555  29.113  1.00  0.00    -0.354 N 
ATOM     59  N   UNL A   1      44.672  26.780  28.315  1.00  0.00    -0.248 NA
ATOM     60  C   UNL A   1      45.349  24.660  27.594  1.00  0.00     0.031 C 
ATOM     61  C   UNL A   1      47.476  30.136  29.170  1.00  0.00     0.029 A 
ATOM     62  C   UNL A   1      46.616  29.084  28.894  1.00  0.00     0.049 A 
ATOM     63  H   UNL A   1      44.511  29.030  28.986  1.00  0.00     0.167 HD
ATOM     64  C   UNL A   1      46.056  26.756  28.217  1.00  0.00     0.074 A 
ATOM     65  C   UNL A   1      46.420  25.421  27.780  1.00  0.00     0.031 C 
ATOM     66  C   UNL A   1      46.947  27.748  28.465  1.00  0.00     0.037 A 
BRANCH  53  67
ATOM     67  C   UNL A   1      44.415  33.089  30.307  1.00  0.00     0.058 A 
ATOM     68  C   UNL A   1      44.547  33.422  31.663  1.00  0.00     0.135 A 
ATOM     69  C   UNL A   1      44.483  34.131  29.367  1.00  0.00     0.135 A 
ATOM     70  F   UNL A   1      44.469  32.469  32.605  1.00  0.00    -0.206 F 
ATOM     71  C   UNL A   1      44.711  34.742  32.076  1.00  0.00     0.059 A 
ATOM     72  C   UNL A   1      44.663  35.456  29.755  1.00  0.00     0.059 A 
ATOM     73  F   UNL A   1      44.360  33.867  28.057  1.00  0.00    -0.206 F 
ATOM     74  C   UNL A   1      44.757  35.753  31.114  1.00  0.00     0.060 A 
BRANCH  74  75
ATOM     75  S   UNL A   1      44.932  37.464  31.661  1.00  0.00     0.124 S 
ATOM     76  O   UNL A   1      46.169  37.853  30.990  1.00  0.00    -0.237 OA
ATOM     77  O   UNL A   1      43.714  38.087  31.152  1.00  0.00    -0.237 OA
ATOM     78  O   UNL A   1      45.013  37.348  33.113  1.00  0.00    -0.744 OA
ENDBRANCH  74  75
ENDBRANCH  53  67
BRANCH  54  79
ATOM     79  C   UNL A   1      42.578  23.669  27.431  1.00  0.00     0.058 A 
ATOM     80  C   UNL A   1      42.562  23.358  26.066  1.00  0.00     0.135 A 
ATOM     81  C   UNL A   1      42.405  22.623  28.350  1.00  0.00     0.135 A 
ATOM     82  F   UNL A   1      42.722  24.328  25.153  1.00  0.00    -0.206 F 
ATOM     83  C   UNL A   1      42.395  22.049  25.624  1.00  0.00     0.059 A 
ATOM     84  C   UNL A   1      42.256  21.305  27.933  1.00  0.00     0.059 A 
ATOM     85  F   UNL A   1      42.435  22.874  29.668  1.00  0.00    -0.206 F 
ATOM     86  C   UNL A   1      42.251  21.029  26.566  1.00  0.00     0.060 A 
BRANCH  86  87
ATOM     87  S   UNL A   1      42.137  19.321  25.991  1.00  0.00     0.124 S 
ATOM     88  O   UNL A   1      42.984  19.357  24.803  1.00  0.00    -0.237 OA
ATOM     89  O   UNL A   1      42.664  18.573  27.127  1.00  0.00    -0.237 OA
ATOM     90  O   UNL A   1      40.708  19.147  25.745  1.00  0.00    -0.744 OA
ENDBRANCH  86  87
ENDBRANCH  54  79
BRANCH  66  91
ATOM     91  C   UNL A   1      48.397  27.410  28.301  1.00  0.00     0.058 A 
ATOM     92  C   UNL A   1      49.090  27.715  27.121  1.00  0.00     0.135 A 
ATOM     93  C   UNL A   1      49.109  26.817  29.354  1.00  0.00     0.135 A 
ATOM     94  F   UNL A   1      48.446  28.277  26.085  1.00  0.00    -0.206 F 
ATOM     95  C   UNL A   1      50.444  27.432  26.985  1.00  0.00     0.059 A 
ATOM     96  C   UNL A   1      50.467  26.536  29.245  1.00  0.00     0.059 A 
ATOM     97  F   UNL A   1      48.486  26.511  30.503  1.00  0.00    -0.206 F 
ATOM     98  C   UNL A   1      51.123  26.841  28.052  1.00  0.00     0.060 A 
BRANCH  98  99
ATOM     99  S   UNL A   1      52.890  26.509  27.884  1.00  0.00     0.124 S 
ATOM    100  O   UNL A   1      53.277  26.273  29.271  1.00  0.00    -0.237 OA
ATOM    101  O   UNL A   1      52.910  25.339  27.011  1.00  0.00    -0.237 OA
ATOM    102  O   UNL A   1      53.407  27.737  27.286  1.00  0.00    -0.744 OA
ENDBRANCH  98  99
ENDBRANCH  66  91
ENDBRANCH  40  41
ENDBRANCH  33  35
ENDBRANCH  32  33
ENDBRANCH  31  32
ENDBRANCH   1  31
TORSDOF 20
ENDMDL
MODEL 3
REMARK VINA RESULT:     -12.4      6.488     11.389
REMARK SMILES CCc1ccnc(C(=O)c2[nH]c3ccc(OC(F)(F)F)cc3c2CC(=O)OCCOC(=O)c2ccc(-c3c4nc(c(-c5c(F)cc(S(=O)(=O)[O-])cc5F)c5ccc([nH]5)c(-c5c(F)cc(S(=O)(=O)[O-])cc5F)c5nc(c(-c6c(F)cc(S(=O)(=O)[O-])cc6F)c6ccc3[nH]6)C=C5)C=C4)cc2)c1
REMARK SMILES IDX 28 1 27 2 25 3 26 4 24 5 23 6 10 7 11 8 12 9 22 11 13 12
REMARK SMILES IDX 21 13 14 14 15 15 8 16 9 17 7 18 3 19 4 20 99 21 5 22 6 23
REMARK SMILES IDX 2 24 1 25 16 26 17 27 18 28 19 29 20 30 29 31 30 32 31 33
REMARK SMILES IDX 32 34 33 35 34 36 98 37 35 38 97 39 36 40 37 41 38 42 91 43
REMARK SMILES IDX 39 44 96 45 90 46 92 47 40 48 95 49 89 50 88 51 41 53 75 54
REMARK SMILES IDX 54 55 74 56 55 57 58 58 73 59 93 60 56 61 57 62 72 64 94 65
REMARK SMILES IDX 59 66 42 67 43 68 52 69 44 70 45 71 51 72 53 73 46 74 47 75
REMARK SMILES IDX 48 76 49 77 50 78 76 79 77 80 86 81 78 82 79 83 85 84 87 85
REMARK SMILES IDX 80 86 81 87 82 88 83 89 84 90 60 91 61 92 70 93 62 94 63 95
REMARK SMILES IDX 69 96 71 97 64 98 65 99 66 100 67 101 68 102
REMARK H PARENT 11 10 92 52 58 63
REMARK Flexibility Score: inf
ROOT
ATOM      1  C   UNL A   1      37.177  23.737  25.954  1.00  0.00     0.274 C 
ENDROOT
BRANCH   1   2
ATOM      2  O   UNL A   1      36.070  22.813  26.039  1.00  0.00    -0.462 OA
BRANCH   2   3
ATOM      3  C   UNL A   1      34.895  23.315  26.496  1.00  0.00     0.310 C 
ATOM      4  O   UNL A   1      34.356  22.956  27.540  1.00  0.00    -0.252 OA
BRANCH   3   5
ATOM      5  C   UNL A   1      34.358  24.486  25.697  1.00  0.00     0.161 C 
BRANCH   5   6
ATOM      6  C   UNL A   1      33.121  25.174  26.188  1.00  0.00     0.000 A 
ATOM      7  C   UNL A   1      31.860  24.626  26.425  1.00  0.00     0.093 A 
ATOM      8  N   UNL A   1      31.045  25.650  26.843  1.00  0.00    -0.352 N 
ATOM      9  C   UNL A   1      31.686  26.855  26.762  1.00  0.00     0.046 A 
ATOM     10  H   UNL A   1      30.120  25.533  27.159  1.00  0.00     0.167 HD
ATOM     11  C   UNL A   1      33.006  26.592  26.417  1.00  0.00     0.008 A 
ATOM     12  C   UNL A   1      31.194  28.142  26.981  1.00  0.00     0.030 A 
ATOM     13  C   UNL A   1      33.899  27.685  26.338  1.00  0.00     0.057 A 
ATOM     14  C   UNL A   1      32.091  29.208  26.872  1.00  0.00     0.049 A 
ATOM     15  C   UNL A   1      33.437  28.991  26.574  1.00  0.00     0.130 A 
BRANCH   7  16
ATOM     16  C   UNL A   1      31.319  23.274  26.389  1.00  0.00     0.227 C 
ATOM     17  O   UNL A   1      30.487  22.926  27.226  1.00  0.00    -0.285 OA
BRANCH  16  18
ATOM     18  C   UNL A   1      31.545  22.408  25.172  1.00  0.00     0.113 A 
ATOM     19  C   UNL A   1      32.527  20.444  24.154  1.00  0.00    -0.044 A 
ATOM     20  C   UNL A   1      32.407  21.090  22.921  1.00  0.00     0.024 A 
ATOM     21  C   UNL A   1      32.051  21.112  25.295  1.00  0.00     0.036 A 
ATOM     22  C   UNL A   1      31.857  22.361  22.880  1.00  0.00     0.112 A 
ATOM     23  N   UNL A   1      31.440  23.034  23.970  1.00  0.00    -0.253 NA
BRANCH  19  24
ATOM     24  C   UNL A   1      33.172  19.086  24.313  1.00  0.00     0.032 C 
ATOM     25  C   UNL A   1      32.850  18.048  23.242  1.00  0.00     0.009 C 
ENDBRANCH  19  24
ENDBRANCH  16  18
ENDBRANCH   7  16
BRANCH  15  26
ATOM     26  O   UNL A   1      34.401  29.957  26.478  1.00  0.00    -0.406 OA
BRANCH  26  27
ATOM     27  C   UNL A   1      34.869  30.538  27.682  1.00  0.00     0.573 C 
ATOM     28  F   UNL A   1      33.890  31.232  28.303  1.00  0.00    -0.132 F 
ATOM     29  F   UNL A   1      35.360  29.603  28.526  1.00  0.00    -0.132 F 
ATOM     30  F   UNL A   1      35.871  31.399  27.392  1.00  0.00    -0.132 F 
ENDBRANCH  26  27
ENDBRANCH  15  26
ENDBRANCH   5   6
ENDBRANCH   3   5
ENDBRANCH   2   3
ENDBRANCH   1   2
BRANCH   1  31
ATOM     31  C   UNL A   1      38.523  23.004  26.035  1.00  0.00     0.275 C 
BRANCH  31  32
ATOM     32  O   UNL A   1      39.293  23.384  27.195  1.00  0.00    -0.458 OA
BRANCH  32  33
ATOM     33  C   UNL A   1      40.208  24.341  26.939  1.00  0.00     0.338 C 
ATOM     34  O   UNL A   1      40.814  24.512  25.892  1.00  0.00    -0.246 OA
BRANCH  33  35
ATOM     35  C   UNL A   1      40.381  25.280  28.038  1.00  0.00     0.060 A 
ATOM     36  C   UNL A   1      39.309  25.486  28.911  1.00  0.00     0.016 A 
ATOM     37  C   UNL A   1      41.487  26.129  28.036  1.00  0.00     0.016 A 
ATOM     38  C   UNL A   1      39.327  26.577  29.772  1.00  0.00     0.010 A 
ATOM     39  C   UNL A   1      41.521  27.197  28.930  1.00  0.00     0.010 A 
ATOM     40  C   UNL A   1      40.435  27.436  29.789  1.00  0.00    -0.014 A 
BRANCH  40  41
ATOM     41  C   UNL A   1      40.494  28.573  30.732  1.00  0.00     0.031 A 
ATOM     42  C   UNL A   1      41.446  28.558  31.888  1.00  0.00     0.074 A 
ATOM     43  C   UNL A   1      39.640  29.596  30.559  1.00  0.00     0.049 A 
ATOM     44  N   UNL A   1      41.481  29.328  32.942  1.00  0.00    -0.248 NA
ATOM     45  C   UNL A   1      42.498  27.532  31.854  1.00  0.00     0.031 C 
ATOM     46  C   UNL A   1      38.709  29.736  29.438  1.00  0.00     0.029 A 
ATOM     47  N   UNL A   1      39.399  30.697  31.337  1.00  0.00    -0.354 N 
ATOM     48  C   UNL A   1      42.536  28.864  33.717  1.00  0.00     0.074 A 
ATOM     49  C   UNL A   1      43.120  27.745  33.007  1.00  0.00     0.031 C 
ATOM     50  C   UNL A   1      37.990  30.855  29.604  1.00  0.00     0.029 A 
ATOM     51  C   UNL A   1      38.361  31.468  30.874  1.00  0.00     0.049 A 
ATOM     52  H   UNL A   1      39.917  30.913  32.145  1.00  0.00     0.167 HD
ATOM     53  C   UNL A   1      42.963  29.329  34.916  1.00  0.00     0.037 A 
ATOM     54  C   UNL A   1      37.743  32.519  31.439  1.00  0.00     0.037 A 
ATOM     55  C   UNL A   1      42.368  30.450  35.597  1.00  0.00     0.049 A 
ATOM     56  C   UNL A   1      38.194  32.988  32.789  1.00  0.00     0.074 A 
ATOM     57  C   UNL A   1      42.698  30.992  36.827  1.00  0.00     0.029 A 
ATOM     58  N   UNL A   1      41.318  31.208  35.096  1.00  0.00    -0.354 N 
ATOM     59  N   UNL A   1      39.145  32.500  33.551  1.00  0.00    -0.248 NA
ATOM     60  C   UNL A   1      37.483  34.134  33.366  1.00  0.00     0.031 C 
ATOM     61  C   UNL A   1      41.835  32.067  37.077  1.00  0.00     0.029 A 
ATOM     62  C   UNL A   1      40.986  32.211  35.990  1.00  0.00     0.049 A 
ATOM     63  H   UNL A   1      40.873  31.054  34.231  1.00  0.00     0.167 HD
ATOM     64  C   UNL A   1      39.157  33.288  34.693  1.00  0.00     0.074 A 
ATOM     65  C   UNL A   1      38.119  34.288  34.520  1.00  0.00     0.031 C 
ATOM     66  C   UNL A   1      39.952  33.195  35.786  1.00  0.00     0.037 A 
BRANCH  53  67
ATOM     67  C   UNL A   1      44.100  28.602  35.577  1.00  0.00     0.058 A 
ATOM     68  C   UNL A   1      43.879  27.542  36.469  1.00  0.00     0.135 A 
ATOM     69  C   UNL A   1      45.429  28.967  35.308  1.00  0.00     0.135 A 
ATOM     70  F   UNL A   1      42.629  27.166  36.777  1.00  0.00    -0.206 F 
ATOM     71  C   UNL A   1      44.936  26.885  37.093  1.00  0.00     0.059 A 
ATOM     72  C   UNL A   1      46.503  28.315  35.908  1.00  0.00     0.059 A 
ATOM     73  F   UNL A   1      45.695  29.977  34.465  1.00  0.00    -0.206 F 
ATOM     74  C   UNL A   1      46.245  27.287  36.814  1.00  0.00     0.060 A 
BRANCH  74  75
ATOM     75  S   UNL A   1      47.607  26.454  37.658  1.00  0.00     0.124 S 
ATOM     76  O   UNL A   1      47.172  26.535  39.049  1.00  0.00    -0.237 OA
ATOM     77  O   UNL A   1      47.581  25.122  37.064  1.00  0.00    -0.237 OA
ATOM     78  O   UNL A   1      48.767  27.269  37.312  1.00  0.00    -0.744 OA
ENDBRANCH  74  75
ENDBRANCH  53  67
BRANCH  54  79
ATOM     79  C   UNL A   1      36.614  33.161  30.723  1.00  0.00     0.058 A 
ATOM     80  C   UNL A   1      35.297  32.985  31.163  1.00  0.00     0.135 A 
ATOM     81  C   UNL A   1      36.841  34.035  29.648  1.00  0.00     0.135 A 
ATOM     82  F   UNL A   1      35.035  32.158  32.187  1.00  0.00    -0.206 F 
ATOM     83  C   UNL A   1      34.237  33.662  30.568  1.00  0.00     0.059 A 
ATOM     84  C   UNL A   1      35.801  34.737  29.050  1.00  0.00     0.059 A 
ATOM     85  F   UNL A   1      38.090  34.249  29.208  1.00  0.00    -0.206 F 
ATOM     86  C   UNL A   1      34.501  34.543  29.517  1.00  0.00     0.060 A 
BRANCH  86  87
ATOM     87  S   UNL A   1      33.137  35.497  28.816  1.00  0.00     0.124 S 
ATOM     88  O   UNL A   1      33.854  36.501  28.039  1.00  0.00    -0.237 OA
ATOM     89  O   UNL A   1      32.416  34.489  28.046  1.00  0.00    -0.237 OA
ATOM     90  O   UNL A   1      32.435  35.991  29.997  1.00  0.00    -0.744 OA
ENDBRANCH  86  87
ENDBRANCH  54  79
BRANCH  66  91
ATOM     91  C   UNL A   1      39.750  34.220  36.860  1.00  0.00     0.058 A 
ATOM     92  C   UNL A   1      38.959  33.955  37.986  1.00  0.00     0.135 A 
ATOM     93  C   UNL A   1      40.392  35.466  36.778  1.00  0.00     0.135 A 
ATOM     94  F   UNL A   1      38.320  32.779  38.100  1.00  0.00    -0.206 F 
ATOM     95  C   UNL A   1      38.800  34.896  38.996  1.00  0.00     0.059 A 
ATOM     96  C   UNL A   1      40.258  36.417  37.783  1.00  0.00     0.059 A 
ATOM     97  F   UNL A   1      41.161  35.761  35.719  1.00  0.00    -0.206 F 
ATOM     98  C   UNL A   1      39.454  36.125  38.884  1.00  0.00     0.060 A 
BRANCH  98  99
ATOM     99  S   UNL A   1      39.275  37.331  40.217  1.00  0.00     0.124 S 
ATOM    100  O   UNL A   1      40.667  37.667  40.496  1.00  0.00    -0.237 OA
ATOM    101  O   UNL A   1      38.481  38.382  39.588  1.00  0.00    -0.237 OA
ATOM    102  O   UNL A   1      38.587  36.577  41.262  1.00  0.00    -0.744 OA
ENDBRANCH  98  99
ENDBRANCH  66  91
ENDBRANCH  40  41
ENDBRANCH  33  35
ENDBRANCH  32  33
ENDBRANCH  31  32
ENDBRANCH   1  31
TORSDOF 20
ENDMDL
