MODEL 1
REMARK VINA RESULT:     -10.9      0.000      0.000
REMARK SMILES O=C(CSc1nc2[nH]cnc2c(=O)[nH]1)NCCC(=O)OCCOC(=O)c1ccc(-c2c3nc(c(-c4c(F)cc(S(=O)(=O)[O-])cc4F)c4ccc([nH]4)c(-c4c(F)cc(S(=O)(=O)[O-])cc4F)c4nc(c(-c5c(F)cc(S(=O)(=O)[O-])cc5F)c5ccc2[nH]5)C=C4)C=C3)cc1
REMARK SMILES IDX 21 1 20 2 18 3 19 4 17 5 16 6 15 7 1 8 2 9 3 11 4 12 5 13
REMARK SMILES IDX 6 14 14 15 7 16 12 17 8 19 11 20 13 21 9 22 10 24 22 25
REMARK SMILES IDX 23 26 24 27 25 28 26 29 27 30 91 31 28 32 90 33 29 34 30 35
REMARK SMILES IDX 31 36 84 37 32 38 89 39 83 40 85 41 33 42 88 43 82 44 81 45
REMARK SMILES IDX 34 47 68 48 47 49 67 50 48 51 51 52 66 53 86 54 49 55 50 56
REMARK SMILES IDX 65 58 87 59 52 60 35 61 36 62 45 63 37 64 38 65 44 66 46 67
REMARK SMILES IDX 39 68 40 69 41 70 42 71 43 72 69 73 70 74 79 75 71 76 72 77
REMARK SMILES IDX 78 78 80 79 73 80 74 81 75 82 76 83 77 84 53 85 54 86 63 87
REMARK SMILES IDX 55 88 56 89 62 90 64 91 57 92 58 93 59 94 60 95 61 96
REMARK H PARENT 15 10 14 18 8 23 85 46 51 57
REMARK Flexibility Score: inf
ROOT
ATOM      1  C   UNL A   1      41.900  21.040  26.709  1.00  0.00     0.274 C 
ENDROOT
BRANCH   1   2
ATOM      2  O   UNL A   1      42.388  20.389  25.517  1.00  0.00    -0.462 OA
BRANCH   2   3
ATOM      3  C   UNL A   1      42.775  19.092  25.655  1.00  0.00     0.307 C 
ATOM      4  O   UNL A   1      42.050  18.188  26.052  1.00  0.00    -0.252 OA
BRANCH   3   5
ATOM      5  C   UNL A   1      44.238  18.879  25.347  1.00  0.00     0.144 C 
BRANCH   5   6
ATOM      6  C   UNL A   1      44.653  19.267  23.934  1.00  0.00     0.127 C 
BRANCH   6   7
ATOM      7  N   UNL A   1      44.800  20.705  23.805  1.00  0.00    -0.355 N 
ATOM      8  O   UNL A   1      46.799  20.892  24.919  1.00  0.00    -0.274 OA
ATOM      9  C   UNL A   1      45.840  21.411  24.355  1.00  0.00     0.230 C 
ATOM     10  H   UNL A   1      44.118  21.199  23.295  1.00  0.00     0.163 HD
BRANCH   9  11
ATOM     11  C   UNL A   1      45.663  22.913  24.339  1.00  0.00     0.178 C 
BRANCH  11  12
ATOM     12  S   UNL A   1      43.962  23.442  24.626  1.00  0.00    -0.078 SA
BRANCH  12  13
ATOM     13  C   UNL A   1      44.175  25.071  25.200  1.00  0.00     0.170 A 
ATOM     14  N   UNL A   1      45.236  25.369  25.891  1.00  0.00    -0.204 NA
ATOM     15  N   UNL A   1      43.208  25.967  24.793  1.00  0.00    -0.299 N 
ATOM     16  C   UNL A   1      45.303  26.688  26.181  1.00  0.00     0.165 A 
ATOM     17  C   UNL A   1      43.253  27.325  25.070  1.00  0.00     0.279 A 
ATOM     18  H   UNL A   1      42.444  25.623  24.276  1.00  0.00     0.172 HD
ATOM     19  N   UNL A   1      46.303  27.308  26.867  1.00  0.00    -0.329 N 
ATOM     20  C   UNL A   1      44.427  27.691  25.834  1.00  0.00     0.172 A 
ATOM     21  O   UNL A   1      42.389  28.095  24.661  1.00  0.00    -0.267 OA
ATOM     22  C   UNL A   1      46.005  28.647  26.886  1.00  0.00     0.199 A 
ATOM     23  H   UNL A   1      47.091  26.878  27.272  1.00  0.00     0.169 HD
ATOM     24  N   UNL A   1      44.875  28.914  26.263  1.00  0.00    -0.229 NA
ENDBRANCH  12  13
ENDBRANCH  11  12
ENDBRANCH   9  11
ENDBRANCH   6   7
ENDBRANCH   5   6
ENDBRANCH   3   5
ENDBRANCH   2   3
ENDBRANCH   1   2
BRANCH   1  25
ATOM     25  C   UNL A   1      40.870  22.124  26.383  1.00  0.00     0.275 C 
BRANCH  25  26
ATOM     26  O   UNL A   1      41.130  23.333  27.116  1.00  0.00    -0.458 OA
BRANCH  26  27
ATOM     27  C   UNL A   1      40.288  24.356  26.849  1.00  0.00     0.338 C 
ATOM     28  O   UNL A   1      39.494  24.438  25.928  1.00  0.00    -0.246 OA
BRANCH  27  29
ATOM     29  C   UNL A   1      40.393  25.363  27.912  1.00  0.00     0.060 A 
ATOM     30  C   UNL A   1      39.291  25.588  28.745  1.00  0.00     0.016 A 
ATOM     31  C   UNL A   1      41.549  26.135  28.025  1.00  0.00     0.016 A 
ATOM     32  C   UNL A   1      39.340  26.604  29.698  1.00  0.00     0.010 A 
ATOM     33  C   UNL A   1      41.597  27.146  28.986  1.00  0.00     0.010 A 
ATOM     34  C   UNL A   1      40.490  27.396  29.817  1.00  0.00    -0.014 A 
BRANCH  34  35
ATOM     35  C   UNL A   1      40.544  28.526  30.772  1.00  0.00     0.031 A 
ATOM     36  C   UNL A   1      41.460  28.445  31.957  1.00  0.00     0.074 A 
ATOM     37  C   UNL A   1      39.725  29.580  30.613  1.00  0.00     0.049 A 
ATOM     38  N   UNL A   1      41.518  29.213  33.012  1.00  0.00    -0.248 NA
ATOM     39  C   UNL A   1      42.430  27.340  31.956  1.00  0.00     0.031 C 
ATOM     40  C   UNL A   1      38.815  29.778  29.486  1.00  0.00     0.029 A 
ATOM     41  N   UNL A   1      39.499  30.664  31.424  1.00  0.00    -0.354 N 
ATOM     42  C   UNL A   1      42.506  28.665  33.822  1.00  0.00     0.074 A 
ATOM     43  C   UNL A   1      43.014  27.496  33.136  1.00  0.00     0.031 C 
ATOM     44  C   UNL A   1      38.103  30.897  29.692  1.00  0.00     0.029 A 
ATOM     45  C   UNL A   1      38.472  31.464  30.988  1.00  0.00     0.049 A 
ATOM     46  H   UNL A   1      40.021  30.850  32.238  1.00  0.00     0.167 HD
ATOM     47  C   UNL A   1      42.941  29.098  35.029  1.00  0.00     0.037 A 
ATOM     48  C   UNL A   1      37.861  32.505  31.586  1.00  0.00     0.037 A 
ATOM     49  C   UNL A   1      42.430  30.268  35.693  1.00  0.00     0.049 A 
ATOM     50  C   UNL A   1      38.331  32.954  32.942  1.00  0.00     0.074 A 
ATOM     51  C   UNL A   1      42.821  30.812  36.903  1.00  0.00     0.029 A 
ATOM     52  N   UNL A   1      41.409  31.071  35.205  1.00  0.00    -0.354 N 
ATOM     53  N   UNL A   1      39.274  32.441  33.695  1.00  0.00    -0.248 NA
ATOM     54  C   UNL A   1      37.659  34.121  33.531  1.00  0.00     0.031 C 
ATOM     55  C   UNL A   1      42.007  31.920  37.166  1.00  0.00     0.029 A 
ATOM     56  C   UNL A   1      41.140  32.094  36.098  1.00  0.00     0.049 A 
ATOM     57  H   UNL A   1      40.942  30.933  34.348  1.00  0.00     0.167 HD
ATOM     58  C   UNL A   1      39.326  33.231  34.837  1.00  0.00     0.074 A 
ATOM     59  C   UNL A   1      38.317  34.259  34.676  1.00  0.00     0.031 C 
ATOM     60  C   UNL A   1      40.140  33.118  35.915  1.00  0.00     0.037 A 
BRANCH  47  61
ATOM     61  C   UNL A   1      43.983  28.267  35.722  1.00  0.00     0.058 A 
ATOM     62  C   UNL A   1      43.644  27.251  36.630  1.00  0.00     0.135 A 
ATOM     63  C   UNL A   1      45.348  28.505  35.488  1.00  0.00     0.135 A 
ATOM     64  F   UNL A   1      42.354  26.991  36.901  1.00  0.00    -0.206 F 
ATOM     65  C   UNL A   1      44.619  26.537  37.321  1.00  0.00     0.059 A 
ATOM     66  C   UNL A   1      46.340  27.786  36.147  1.00  0.00     0.059 A 
ATOM     67  F   UNL A   1      45.729  29.462  34.627  1.00  0.00    -0.206 F 
ATOM     68  C   UNL A   1      45.964  26.822  37.083  1.00  0.00     0.060 A 
BRANCH  68  69
ATOM     69  S   UNL A   1      47.221  25.932  38.025  1.00  0.00     0.124 S 
ATOM     70  O   UNL A   1      46.725  24.560  37.941  1.00  0.00    -0.237 OA
ATOM     71  O   UNL A   1      48.438  26.212  37.272  1.00  0.00    -0.237 OA
ATOM     72  O   UNL A   1      47.150  26.544  39.348  1.00  0.00    -0.744 OA
ENDBRANCH  68  69
ENDBRANCH  47  61
BRANCH  48  73
ATOM     73  C   UNL A   1      36.721  33.164  30.898  1.00  0.00     0.058 A 
ATOM     74  C   UNL A   1      35.397  32.906  31.281  1.00  0.00     0.135 A 
ATOM     75  C   UNL A   1      36.940  34.129  29.902  1.00  0.00     0.135 A 
ATOM     76  F   UNL A   1      35.140  31.984  32.221  1.00  0.00    -0.206 F 
ATOM     77  C   UNL A   1      34.330  33.593  30.713  1.00  0.00     0.059 A 
ATOM     78  C   UNL A   1      35.890  34.844  29.334  1.00  0.00     0.059 A 
ATOM     79  F   UNL A   1      38.190  34.420  29.511  1.00  0.00    -0.206 F 
ATOM     80  C   UNL A   1      34.588  34.571  29.749  1.00  0.00     0.060 A 
BRANCH  80  81
ATOM     81  S   UNL A   1      33.204  35.533  29.099  1.00  0.00     0.124 S 
ATOM     82  O   UNL A   1      33.892  36.506  28.258  1.00  0.00    -0.237 OA
ATOM     83  O   UNL A   1      32.426  34.518  28.396  1.00  0.00    -0.237 OA
ATOM     84  O   UNL A   1      32.575  36.070  30.303  1.00  0.00    -0.744 OA
ENDBRANCH  80  81
ENDBRANCH  48  73
BRANCH  60  85
ATOM     85  C   UNL A   1      40.013  34.150  37.000  1.00  0.00     0.058 A 
ATOM     86  C   UNL A   1      40.550  35.438  36.857  1.00  0.00     0.135 A 
ATOM     87  C   UNL A   1      39.248  33.877  38.146  1.00  0.00     0.135 A 
ATOM     88  F   UNL A   1      41.296  35.744  35.784  1.00  0.00    -0.206 F 
ATOM     89  C   UNL A   1      40.327  36.425  37.811  1.00  0.00     0.059 A 
ATOM     90  C   UNL A   1      38.996  34.855  39.102  1.00  0.00     0.059 A 
ATOM     91  F   UNL A   1      38.708  32.662  38.324  1.00  0.00    -0.206 F 
ATOM     92  C   UNL A   1      39.539  36.127  38.926  1.00  0.00     0.060 A 
BRANCH  92  93
ATOM     93  S   UNL A   1      39.184  37.440  40.114  1.00  0.00     0.124 S 
ATOM     94  O   UNL A   1      38.449  36.714  41.145  1.00  0.00    -0.237 OA
ATOM     95  O   UNL A   1      40.521  37.893  40.488  1.00  0.00    -0.237 OA
ATOM     96  O   UNL A   1      38.400  38.397  39.339  1.00  0.00    -0.744 OA
ENDBRANCH  92  93
ENDBRANCH  60  85
ENDBRANCH  34  35
ENDBRANCH  27  29
ENDBRANCH  26  27
ENDBRANCH  25  26
ENDBRANCH   1  25
TORSDOF 19
ENDMDL
MODEL 2
REMARK VINA RESULT:     -10.9      4.424      6.429
REMARK SMILES O=C(CSc1nc2[nH]cnc2c(=O)[nH]1)NCCC(=O)OCCOC(=O)c1ccc(-c2c3nc(c(-c4c(F)cc(S(=O)(=O)[O-])cc4F)c4ccc([nH]4)c(-c4c(F)cc(S(=O)(=O)[O-])cc4F)c4nc(c(-c5c(F)cc(S(=O)(=O)[O-])cc5F)c5ccc2[nH]5)C=C4)C=C3)cc1
REMARK SMILES IDX 21 1 20 2 18 3 19 4 17 5 16 6 15 7 1 8 2 9 3 11 4 12 5 13
REMARK SMILES IDX 6 14 14 15 7 16 12 17 8 19 11 20 13 21 9 22 10 24 22 25
REMARK SMILES IDX 23 26 24 27 25 28 26 29 27 30 91 31 28 32 90 33 29 34 30 35
REMARK SMILES IDX 31 36 84 37 32 38 89 39 83 40 85 41 33 42 88 43 82 44 81 45
REMARK SMILES IDX 34 47 68 48 47 49 67 50 48 51 51 52 66 53 86 54 49 55 50 56
REMARK SMILES IDX 65 58 87 59 52 60 35 61 36 62 45 63 37 64 38 65 44 66 46 67
REMARK SMILES IDX 39 68 40 69 41 70 42 71 43 72 69 73 70 74 79 75 71 76 72 77
REMARK SMILES IDX 78 78 80 79 73 80 74 81 75 82 76 83 77 84 53 85 54 86 63 87
REMARK SMILES IDX 55 88 56 89 62 90 64 91 57 92 58 93 59 94 60 95 61 96
REMARK H PARENT 15 10 14 18 8 23 85 46 51 57
REMARK Flexibility Score: inf
ROOT
ATOM      1  C   UNL A   1      38.344  22.877  26.073  1.00  0.00     0.274 C 
ENDROOT
BRANCH   1   2
ATOM      2  O   UNL A   1      37.433  21.919  25.494  1.00  0.00    -0.462 OA
BRANCH   2   3
ATOM      3  C   UNL A   1      36.228  22.403  25.090  1.00  0.00     0.307 C 
ATOM      4  O   UNL A   1      35.482  21.840  24.299  1.00  0.00    -0.252 OA
BRANCH   3   5
ATOM      5  C   UNL A   1      35.924  23.770  25.657  1.00  0.00     0.144 C 
BRANCH   5   6
ATOM      6  C   UNL A   1      34.689  23.830  26.545  1.00  0.00     0.127 C 
BRANCH   6   7
ATOM      7  N   UNL A   1      33.509  23.371  25.838  1.00  0.00    -0.355 N 
ATOM      8  O   UNL A   1      32.068  23.408  27.625  1.00  0.00    -0.274 OA
ATOM      9  C   UNL A   1      32.301  23.147  26.448  1.00  0.00     0.230 C 
ATOM     10  H   UNL A   1      33.578  23.214  24.869  1.00  0.00     0.163 HD
BRANCH   9  11
ATOM     11  C   UNL A   1      31.286  22.418  25.595  1.00  0.00     0.178 C 
BRANCH  11  12
ATOM     12  S   UNL A   1      31.884  22.031  23.937  1.00  0.00    -0.078 SA
BRANCH  12  13
ATOM     13  C   UNL A   1      32.289  20.344  24.077  1.00  0.00     0.170 A 
ATOM     14  N   UNL A   1      32.534  19.844  25.252  1.00  0.00    -0.204 NA
ATOM     15  N   UNL A   1      32.236  19.630  22.898  1.00  0.00    -0.299 N 
ATOM     16  C   UNL A   1      32.739  18.508  25.206  1.00  0.00     0.165 A 
ATOM     17  C   UNL A   1      32.435  18.259  22.821  1.00  0.00     0.279 A 
ATOM     18  H   UNL A   1      32.045  20.119  22.066  1.00  0.00     0.172 HD
ATOM     19  N   UNL A   1      32.992  17.698  26.272  1.00  0.00    -0.329 N 
ATOM     20  C   UNL A   1      32.704  17.669  24.115  1.00  0.00     0.172 A 
ATOM     21  O   UNL A   1      32.346  17.655  21.756  1.00  0.00    -0.267 OA
ATOM     22  C   UNL A   1      33.077  16.416  25.790  1.00  0.00     0.199 A 
ATOM     23  H   UNL A   1      33.095  17.979  27.210  1.00  0.00     0.169 HD
ATOM     24  N   UNL A   1      32.902  16.363  24.484  1.00  0.00    -0.229 NA
ENDBRANCH  12  13
ENDBRANCH  11  12
ENDBRANCH   9  11
ENDBRANCH   6   7
ENDBRANCH   5   6
ENDBRANCH   3   5
ENDBRANCH   2   3
ENDBRANCH   1   2
BRANCH   1  25
ATOM     25  C   UNL A   1      39.654  22.220  26.517  1.00  0.00     0.275 C 
BRANCH  25  26
ATOM     26  O   UNL A   1      40.373  23.054  27.441  1.00  0.00    -0.458 OA
BRANCH  26  27
ATOM     27  C   UNL A   1      41.081  24.057  26.874  1.00  0.00     0.338 C 
ATOM     28  O   UNL A   1      41.636  24.047  25.789  1.00  0.00    -0.246 OA
BRANCH  27  29
ATOM     29  C   UNL A   1      41.015  25.245  27.733  1.00  0.00     0.060 A 
ATOM     30  C   UNL A   1      42.128  26.090  27.810  1.00  0.00     0.016 A 
ATOM     31  C   UNL A   1      39.886  25.470  28.521  1.00  0.00     0.016 A 
ATOM     32  C   UNL A   1      42.119  27.169  28.692  1.00  0.00     0.010 A 
ATOM     33  C   UNL A   1      39.877  26.557  29.397  1.00  0.00     0.010 A 
ATOM     34  C   UNL A   1      40.997  27.402  29.498  1.00  0.00    -0.014 A 
BRANCH  34  35
ATOM     35  C   UNL A   1      40.985  28.499  30.493  1.00  0.00     0.031 A 
ATOM     36  C   UNL A   1      41.910  28.433  31.672  1.00  0.00     0.074 A 
ATOM     37  C   UNL A   1      40.101  29.505  30.374  1.00  0.00     0.049 A 
ATOM     38  N   UNL A   1      41.926  29.164  32.753  1.00  0.00    -0.248 NA
ATOM     39  C   UNL A   1      42.947  27.391  31.628  1.00  0.00     0.031 C 
ATOM     40  C   UNL A   1      39.175  29.686  29.257  1.00  0.00     0.029 A 
ATOM     41  N   UNL A   1      39.813  30.543  31.224  1.00  0.00    -0.354 N 
ATOM     42  C   UNL A   1      42.950  28.650  33.540  1.00  0.00     0.074 A 
ATOM     43  C   UNL A   1      43.526  27.541  32.811  1.00  0.00     0.031 C 
ATOM     44  C   UNL A   1      38.396  30.750  29.505  1.00  0.00     0.029 A 
ATOM     45  C   UNL A   1      38.735  31.293  30.820  1.00  0.00     0.049 A 
ATOM     46  H   UNL A   1      40.326  30.731  32.042  1.00  0.00     0.167 HD
ATOM     47  C   UNL A   1      43.362  29.066  34.761  1.00  0.00     0.037 A 
ATOM     48  C   UNL A   1      38.064  32.272  31.457  1.00  0.00     0.037 A 
ATOM     49  C   UNL A   1      42.784  30.178  35.468  1.00  0.00     0.049 A 
ATOM     50  C   UNL A   1      38.512  32.701  32.826  1.00  0.00     0.074 A 
ATOM     51  C   UNL A   1      43.146  30.701  36.696  1.00  0.00     0.029 A 
ATOM     52  N   UNL A   1      41.711  30.933  35.012  1.00  0.00    -0.354 N 
ATOM     53  N   UNL A   1      39.489  32.220  33.558  1.00  0.00    -0.248 NA
ATOM     54  C   UNL A   1      37.772  33.801  33.460  1.00  0.00     0.031 C 
ATOM     55  C   UNL A   1      42.266  31.747  37.002  1.00  0.00     0.029 A 
ATOM     56  C   UNL A   1      41.384  31.905  35.942  1.00  0.00     0.049 A 
ATOM     57  H   UNL A   1      41.250  30.797  34.152  1.00  0.00     0.167 HD
ATOM     58  C   UNL A   1      39.497  32.971  34.727  1.00  0.00     0.074 A 
ATOM     59  C   UNL A   1      38.425  33.939  34.606  1.00  0.00     0.031 C 
ATOM     60  C   UNL A   1      40.321  32.870  35.799  1.00  0.00     0.037 A 
BRANCH  47  61
ATOM     61  C   UNL A   1      44.458  28.277  35.421  1.00  0.00     0.058 A 
ATOM     62  C   UNL A   1      45.816  28.551  35.190  1.00  0.00     0.135 A 
ATOM     63  C   UNL A   1      44.143  27.216  36.285  1.00  0.00     0.135 A 
ATOM     64  F   UNL A   1      46.172  29.547  34.362  1.00  0.00    -0.206 F 
ATOM     65  C   UNL A   1      46.821  27.769  35.750  1.00  0.00     0.059 A 
ATOM     66  C   UNL A   1      45.132  26.435  36.877  1.00  0.00     0.059 A 
ATOM     67  F   UNL A   1      42.862  26.912  36.544  1.00  0.00    -0.206 F 
ATOM     68  C   UNL A   1      46.468  26.704  36.581  1.00  0.00     0.060 A 
BRANCH  68  69
ATOM     69  S   UNL A   1      47.776  25.658  37.256  1.00  0.00     0.124 S 
ATOM     70  O   UNL A   1      48.169  24.892  36.077  1.00  0.00    -0.237 OA
ATOM     71  O   UNL A   1      48.751  26.636  37.729  1.00  0.00    -0.237 OA
ATOM     72  O   UNL A   1      47.097  24.899  38.301  1.00  0.00    -0.744 OA
ENDBRANCH  68  69
ENDBRANCH  47  61
BRANCH  48  73
ATOM     73  C   UNL A   1      36.882  32.882  30.796  1.00  0.00     0.058 A 
ATOM     74  C   UNL A   1      35.579  32.532  31.176  1.00  0.00     0.135 A 
ATOM     75  C   UNL A   1      37.036  33.891  29.831  1.00  0.00     0.135 A 
ATOM     76  F   UNL A   1      35.384  31.567  32.087  1.00  0.00    -0.206 F 
ATOM     77  C   UNL A   1      34.469  33.172  30.636  1.00  0.00     0.059 A 
ATOM     78  C   UNL A   1      35.941  34.559  29.292  1.00  0.00     0.059 A 
ATOM     79  F   UNL A   1      38.264  34.269  29.444  1.00  0.00    -0.206 F 
ATOM     80  C   UNL A   1      34.660  34.194  29.703  1.00  0.00     0.060 A 
BRANCH  80  81
ATOM     81  S   UNL A   1      33.217  35.092  29.092  1.00  0.00     0.124 S 
ATOM     82  O   UNL A   1      32.444  35.273  30.315  1.00  0.00    -0.237 OA
ATOM     83  O   UNL A   1      33.819  36.298  28.532  1.00  0.00    -0.237 OA
ATOM     84  O   UNL A   1      32.643  34.176  28.111  1.00  0.00    -0.744 OA
ENDBRANCH  80  81
ENDBRANCH  48  73
BRANCH  60  85
ATOM     85  C   UNL A   1      40.136  33.853  36.921  1.00  0.00     0.058 A 
ATOM     86  C   UNL A   1      40.819  35.077  36.947  1.00  0.00     0.135 A 
ATOM     87  C   UNL A   1      39.178  33.610  37.919  1.00  0.00     0.135 A 
ATOM     88  F   UNL A   1      41.751  35.352  36.020  1.00  0.00    -0.206 F 
ATOM     89  C   UNL A   1      40.555  36.033  37.923  1.00  0.00     0.059 A 
ATOM     90  C   UNL A   1      38.884  34.559  38.892  1.00  0.00     0.059 A 
ATOM     91  F   UNL A   1      38.494  32.455  37.932  1.00  0.00    -0.206 F 
ATOM     92  C   UNL A   1      39.578  35.769  38.885  1.00  0.00     0.060 A 
BRANCH  92  93
ATOM     93  S   UNL A   1      39.181  37.051  40.094  1.00  0.00     0.124 S 
ATOM     94  O   UNL A   1      38.495  38.036  39.264  1.00  0.00    -0.237 OA
ATOM     95  O   UNL A   1      38.343  36.331  41.049  1.00  0.00    -0.237 OA
ATOM     96  O   UNL A   1      40.489  37.457  40.600  1.00  0.00    -0.744 OA
ENDBRANCH  92  93
ENDBRANCH  60  85
ENDBRANCH  34  35
ENDBRANCH  27  29
ENDBRANCH  26  27
ENDBRANCH  25  26
ENDBRANCH   1  25
TORSDOF 19
ENDMDL
MODEL 3
REMARK VINA RESULT:     -10.7      6.842     13.761
REMARK SMILES O=C(CSc1nc2[nH]cnc2c(=O)[nH]1)NCCC(=O)OCCOC(=O)c1ccc(-c2c3nc(c(-c4c(F)cc(S(=O)(=O)[O-])cc4F)c4ccc([nH]4)c(-c4c(F)cc(S(=O)(=O)[O-])cc4F)c4nc(c(-c5c(F)cc(S(=O)(=O)[O-])cc5F)c5ccc2[nH]5)C=C4)C=C3)cc1
REMARK SMILES IDX 21 1 20 2 18 3 19 4 17 5 16 6 15 7 1 8 2 9 3 11 4 12 5 13
REMARK SMILES IDX 6 14 14 15 7 16 12 17 8 19 11 20 13 21 9 22 10 24 22 25
REMARK SMILES IDX 23 26 24 27 25 28 26 29 27 30 91 31 28 32 90 33 29 34 30 35
REMARK SMILES IDX 31 36 84 37 32 38 89 39 83 40 85 41 33 42 88 43 82 44 81 45
REMARK SMILES IDX 34 47 68 48 47 49 67 50 48 51 51 52 66 53 86 54 49 55 50 56
REMARK SMILES IDX 65 58 87 59 52 60 35 61 36 62 45 63 37 64 38 65 44 66 46 67
REMARK SMILES IDX 39 68 40 69 41 70 42 71 43 72 69 73 70 74 79 75 71 76 72 77
REMARK SMILES IDX 78 78 80 79 73 80 74 81 75 82 76 83 77 84 53 85 54 86 63 87
REMARK SMILES IDX 55 88 56 89 62 90 64 91 57 92 58 93 59 94 60 95 61 96
REMARK H PARENT 15 10 14 18 8 23 85 46 51 57
REMARK Flexibility Score: inf
ROOT
ATOM      1  C   UNL A   1      34.656  30.276  27.281  1.00  0.00     0.274 C 
ENDROOT
BRANCH   1   2
ATOM      2  O   UNL A   1      33.335  30.076  26.735  1.00  0.00    -0.462 OA
BRANCH   2   3
ATOM      3  C   UNL A   1      33.242  29.214  25.686  1.00  0.00     0.307 C 
ATOM      4  O   UNL A   1      32.887  29.528  24.557  1.00  0.00    -0.252 OA
BRANCH   3   5
ATOM      5  C   UNL A   1      33.542  27.785  26.072  1.00  0.00     0.144 C 
BRANCH   5   6
ATOM      6  C   UNL A   1      34.160  26.943  24.965  1.00  0.00     0.127 C 
BRANCH   6   7
ATOM      7  N   UNL A   1      33.137  26.321  24.143  1.00  0.00    -0.355 N 
ATOM      8  O   UNL A   1      33.922  27.043  22.110  1.00  0.00    -0.274 OA
ATOM      9  C   UNL A   1      33.072  26.465  22.781  1.00  0.00     0.230 C 
ATOM     10  H   UNL A   1      32.457  25.767  24.588  1.00  0.00     0.163 HD
BRANCH   9  11
ATOM     11  C   UNL A   1      31.787  25.969  22.154  1.00  0.00     0.178 C 
BRANCH  11  12
ATOM     12  S   UNL A   1      30.400  25.905  23.306  1.00  0.00    -0.078 SA
BRANCH  12  13
ATOM     13  C   UNL A   1      29.615  27.432  23.021  1.00  0.00     0.170 A 
ATOM     14  N   UNL A   1      30.272  28.384  22.426  1.00  0.00    -0.204 NA
ATOM     15  N   UNL A   1      28.286  27.484  23.387  1.00  0.00    -0.299 N 
ATOM     16  C   UNL A   1      29.499  29.469  22.193  1.00  0.00     0.165 A 
ATOM     17  C   UNL A   1      27.468  28.580  23.155  1.00  0.00     0.279 A 
ATOM     18  H   UNL A   1      27.896  26.700  23.836  1.00  0.00     0.172 HD
ATOM     19  N   UNL A   1      29.892  30.613  21.567  1.00  0.00    -0.329 N 
ATOM     20  C   UNL A   1      28.169  29.657  22.488  1.00  0.00     0.172 A 
ATOM     21  O   UNL A   1      26.281  28.575  23.467  1.00  0.00    -0.267 OA
ATOM     22  C   UNL A   1      28.790  31.427  21.491  1.00  0.00     0.199 A 
ATOM     23  H   UNL A   1      30.795  30.819  21.232  1.00  0.00     0.169 HD
ATOM     24  N   UNL A   1      27.725  30.874  22.037  1.00  0.00    -0.229 NA
ENDBRANCH  12  13
ENDBRANCH  11  12
ENDBRANCH   9  11
ENDBRANCH   6   7
ENDBRANCH   5   6
ENDBRANCH   3   5
ENDBRANCH   2   3
ENDBRANCH   1   2
BRANCH   1  25
ATOM     25  C   UNL A   1      34.726  31.532  28.152  1.00  0.00     0.275 C 
BRANCH  25  26
ATOM     26  O   UNL A   1      36.074  31.807  28.569  1.00  0.00    -0.458 OA
BRANCH  26  27
ATOM     27  C   UNL A   1      36.453  31.198  29.716  1.00  0.00     0.338 C 
ATOM     28  O   UNL A   1      35.812  31.101  30.747  1.00  0.00    -0.246 OA
BRANCH  27  29
ATOM     29  C   UNL A   1      37.761  30.561  29.519  1.00  0.00     0.060 A 
ATOM     30  C   UNL A   1      38.632  30.449  30.608  1.00  0.00     0.016 A 
ATOM     31  C   UNL A   1      38.150  30.154  28.243  1.00  0.00     0.016 A 
ATOM     32  C   UNL A   1      39.914  29.933  30.420  1.00  0.00     0.010 A 
ATOM     33  C   UNL A   1      39.430  29.631  28.060  1.00  0.00     0.010 A 
ATOM     34  C   UNL A   1      40.323  29.531  29.142  1.00  0.00    -0.014 A 
BRANCH  34  35
ATOM     35  C   UNL A   1      41.700  29.044  28.899  1.00  0.00     0.031 A 
ATOM     36  C   UNL A   1      42.833  30.027  28.865  1.00  0.00     0.074 A 
ATOM     37  C   UNL A   1      41.918  27.742  28.640  1.00  0.00     0.049 A 
ATOM     38  N   UNL A   1      44.067  29.855  28.473  1.00  0.00    -0.248 NA
ATOM     39  C   UNL A   1      42.525  31.391  29.321  1.00  0.00     0.031 C 
ATOM     40  C   UNL A   1      40.898  26.695  28.674  1.00  0.00     0.029 A 
ATOM     41  N   UNL A   1      43.063  27.089  28.259  1.00  0.00    -0.354 N 
ATOM     42  C   UNL A   1      44.678  31.097  28.599  1.00  0.00     0.074 A 
ATOM     43  C   UNL A   1      43.675  32.012  29.098  1.00  0.00     0.031 C 
ATOM     44  C   UNL A   1      41.455  25.534  28.294  1.00  0.00     0.029 A 
ATOM     45  C   UNL A   1      42.854  25.768  27.943  1.00  0.00     0.049 A 
ATOM     46  H   UNL A   1      43.945  27.522  28.216  1.00  0.00     0.167 HD
ATOM     47  C   UNL A   1      45.958  31.437  28.317  1.00  0.00     0.037 A 
ATOM     48  C   UNL A   1      43.681  24.862  27.386  1.00  0.00     0.037 A 
ATOM     49  C   UNL A   1      46.946  30.510  27.829  1.00  0.00     0.049 A 
ATOM     50  C   UNL A   1      45.090  25.263  27.046  1.00  0.00     0.074 A 
ATOM     51  C   UNL A   1      48.278  30.743  27.540  1.00  0.00     0.029 A 
ATOM     52  N   UNL A   1      46.704  29.172  27.550  1.00  0.00    -0.354 N 
ATOM     53  N   UNL A   1      45.665  26.434  27.181  1.00  0.00    -0.248 NA
ATOM     54  C   UNL A   1      45.963  24.226  26.479  1.00  0.00     0.031 C 
ATOM     55  C   UNL A   1      48.832  29.556  27.046  1.00  0.00     0.029 A 
ATOM     56  C   UNL A   1      47.856  28.571  27.072  1.00  0.00     0.049 A 
ATOM     57  H   UNL A   1      45.839  28.717  27.673  1.00  0.00     0.167 HD
ATOM     58  C   UNL A   1      46.972  26.272  26.737  1.00  0.00     0.074 A 
ATOM     59  C   UNL A   1      47.104  24.888  26.329  1.00  0.00     0.031 C 
ATOM     60  C   UNL A   1      47.972  27.186  26.681  1.00  0.00     0.037 A 
BRANCH  47  61
ATOM     61  C   UNL A   1      46.338  32.881  28.483  1.00  0.00     0.058 A 
ATOM     62  C   UNL A   1      46.200  33.812  27.440  1.00  0.00     0.135 A 
ATOM     63  C   UNL A   1      46.867  33.338  29.701  1.00  0.00     0.135 A 
ATOM     64  F   UNL A   1      45.712  33.425  26.250  1.00  0.00    -0.206 F 
ATOM     65  C   UNL A   1      46.622  35.130  27.582  1.00  0.00     0.059 A 
ATOM     66  C   UNL A   1      47.272  34.658  29.874  1.00  0.00     0.059 A 
ATOM     67  F   UNL A   1      47.018  32.492  30.732  1.00  0.00    -0.206 F 
ATOM     68  C   UNL A   1      47.170  35.540  28.798  1.00  0.00     0.060 A 
BRANCH  68  69
ATOM     69  S   UNL A   1      47.768  37.236  28.955  1.00  0.00     0.124 S 
ATOM     70  O   UNL A   1      47.451  37.525  30.351  1.00  0.00    -0.237 OA
ATOM     71  O   UNL A   1      49.188  37.101  28.643  1.00  0.00    -0.237 OA
ATOM     72  O   UNL A   1      46.979  37.967  27.968  1.00  0.00    -0.744 OA
ENDBRANCH  68  69
ENDBRANCH  47  61
BRANCH  48  73
ATOM     73  C   UNL A   1      43.167  23.498  27.099  1.00  0.00     0.058 A 
ATOM     74  C   UNL A   1      42.845  23.106  25.793  1.00  0.00     0.135 A 
ATOM     75  C   UNL A   1      43.070  22.536  28.117  1.00  0.00     0.135 A 
ATOM     76  F   UNL A   1      42.914  23.995  24.790  1.00  0.00    -0.206 F 
ATOM     77  C   UNL A   1      42.462  21.802  25.500  1.00  0.00     0.059 A 
ATOM     78  C   UNL A   1      42.709  21.220  27.846  1.00  0.00     0.059 A 
ATOM     79  F   UNL A   1      43.380  22.861  29.382  1.00  0.00    -0.206 F 
ATOM     80  C   UNL A   1      42.409  20.861  26.532  1.00  0.00     0.060 A 
BRANCH  80  81
ATOM     81  S   UNL A   1      42.017  19.146  26.123  1.00  0.00     0.124 S 
ATOM     82  O   UNL A   1      40.579  19.220  25.893  1.00  0.00    -0.237 OA
ATOM     83  O   UNL A   1      42.842  18.916  24.942  1.00  0.00    -0.237 OA
ATOM     84  O   UNL A   1      42.430  18.414  27.317  1.00  0.00    -0.744 OA
ENDBRANCH  80  81
ENDBRANCH  48  73
BRANCH  60  85
ATOM     85  C   UNL A   1      49.318  26.724  26.198  1.00  0.00     0.058 A 
ATOM     86  C   UNL A   1      49.757  26.977  24.890  1.00  0.00     0.135 A 
ATOM     87  C   UNL A   1      50.218  26.121  27.092  1.00  0.00     0.135 A 
ATOM     88  F   UNL A   1      48.930  27.542  23.997  1.00  0.00    -0.206 F 
ATOM     89  C   UNL A   1      51.047  26.652  24.485  1.00  0.00     0.059 A 
ATOM     90  C   UNL A   1      51.519  25.807  26.714  1.00  0.00     0.059 A 
ATOM     91  F   UNL A   1      49.846  25.866  28.356  1.00  0.00    -0.206 F 
ATOM     92  C   UNL A   1      51.926  26.078  25.407  1.00  0.00     0.060 A 
BRANCH  92  93
ATOM     93  S   UNL A   1      53.625  25.742  24.895  1.00  0.00     0.124 S 
ATOM     94  O   UNL A   1      54.359  26.779  25.613  1.00  0.00    -0.237 OA
ATOM     95  O   UNL A   1      53.830  24.376  25.369  1.00  0.00    -0.237 OA
ATOM     96  O   UNL A   1      53.579  25.895  23.444  1.00  0.00    -0.744 OA
ENDBRANCH  92  93
ENDBRANCH  60  85
ENDBRANCH  34  35
ENDBRANCH  27  29
ENDBRANCH  26  27
ENDBRANCH  25  26
ENDBRANCH   1  25
TORSDOF 19
ENDMDL
