MODEL 1
REMARK VINA RESULT:     -12.3      0.000      0.000
REMARK SMILES COc1ccc(C)cc1S(=O)(=O)N[C@@H](C)C(=O)OCCOC(=O)c1ccc(-c2c3nc(c(-c4c(F)cc(S(=O)(=O)[O-])cc4F)c4ccc([nH]4)c(-c4c(F)cc(S(=O)(=O)[O-])cc4F)c4nc(c(-c5c(F)cc(S(=O)(=O)[O-])cc5F)c5ccc2[nH]5)C=C4)C=C3)cc1
REMARK SMILES IDX 19 1 18 2 16 3 17 4 14 5 15 6 13 7 10 9 11 10 12 11 9 12
REMARK SMILES IDX 3 13 4 14 5 15 8 16 6 17 7 18 2 19 1 20 20 21 21 22 22 23
REMARK SMILES IDX 23 24 24 25 25 26 89 27 26 28 88 29 27 30 28 31 29 32 82 33
REMARK SMILES IDX 30 34 87 35 81 36 83 37 31 38 86 39 80 40 79 41 32 43 66 44
REMARK SMILES IDX 45 45 65 46 46 47 49 48 64 49 84 50 47 51 48 52 63 54 85 55
REMARK SMILES IDX 50 56 33 57 34 58 43 59 35 60 36 61 42 62 44 63 37 64 38 65
REMARK SMILES IDX 39 66 40 67 41 68 67 69 68 70 77 71 69 72 70 73 76 74 78 75
REMARK SMILES IDX 71 76 72 77 73 78 74 79 75 80 51 81 52 82 61 83 53 84 54 85
REMARK SMILES IDX 60 86 62 87 55 88 56 89 57 90 58 91 59 92
REMARK H PARENT 13 8 83 42 49 53
REMARK Flexibility Score: inf
ROOT
ATOM      1  C   UNL A   1      37.453  21.482  24.426  1.00  0.00     0.274 C 
ENDROOT
BRANCH   1   2
ATOM      2  O   UNL A   1      36.130  22.061  24.453  1.00  0.00    -0.461 OA
BRANCH   2   3
ATOM      3  C   UNL A   1      35.723  22.751  23.229  1.00  0.00     0.324 C 
ATOM      4  O   UNL A   1      36.816  23.176  22.748  1.00  0.00    -0.250 OA
BRANCH   3   5
ATOM      5  C   UNL A   1      33.654  22.947  22.501  1.00  0.00     0.176 C 
ATOM      6  C   UNL A   1      32.389  21.800  22.369  1.00  0.00     0.038 C 
BRANCH   5   7
ATOM      7  N   UNL A   1      33.108  24.007  21.213  1.00  0.00    -0.197 NA
ATOM      8  H   UNL A   1      33.926  24.112  20.610  1.00  0.00     0.142 HD
BRANCH   7   9
ATOM      9  S   UNL A   1      32.454  25.571  21.301  1.00  0.00     0.245 S 
ATOM     10  O   UNL A   1      31.776  25.901  20.065  1.00  0.00    -0.207 OA
ATOM     11  O   UNL A   1      33.642  26.353  21.617  1.00  0.00    -0.207 OA
BRANCH   9  12
ATOM     12  C   UNL A   1      31.326  26.013  22.617  1.00  0.00     0.124 A 
ATOM     13  C   UNL A   1      30.443  27.076  22.678  1.00  0.00     0.138 A 
ATOM     14  C   UNL A   1      29.499  27.162  23.723  1.00  0.00     0.048 A 
ATOM     15  C   UNL A   1      29.546  26.311  24.814  1.00  0.00     0.007 A 
ATOM     16  C   UNL A   1      31.358  25.142  23.736  1.00  0.00     0.029 A 
ATOM     17  C   UNL A   1      30.510  25.314  24.849  1.00  0.00    -0.050 A 
ATOM     18  C   UNL A   1      30.626  24.442  26.061  1.00  0.00     0.044 C 
BRANCH  13  19
ATOM     19  O   UNL A   1      30.496  28.085  21.780  1.00  0.00    -0.495 OA
ATOM     20  C   UNL A   1      30.504  29.360  22.435  1.00  0.00     0.278 C 
ENDBRANCH  13  19
ENDBRANCH   9  12
ENDBRANCH   7   9
ENDBRANCH   5   7
ENDBRANCH   3   5
ENDBRANCH   2   3
ENDBRANCH   1   2
BRANCH   1  21
ATOM     21  C   UNL A   1      38.003  21.436  25.864  1.00  0.00     0.275 C 
BRANCH  21  22
ATOM     22  O   UNL A   1      39.448  21.541  25.912  1.00  0.00    -0.458 OA
BRANCH  22  23
ATOM     23  C   UNL A   1      39.979  22.282  26.923  1.00  0.00     0.338 C 
ATOM     24  O   UNL A   1      40.915  21.973  27.640  1.00  0.00    -0.246 OA
BRANCH  23  25
ATOM     25  C   UNL A   1      39.627  23.693  26.622  1.00  0.00     0.060 A 
ATOM     26  C   UNL A   1      40.752  24.710  25.660  1.00  0.00     0.016 A 
ATOM     27  C   UNL A   1      38.743  24.420  28.000  1.00  0.00     0.016 A 
ATOM     28  C   UNL A   1      41.165  26.421  26.184  1.00  0.00     0.010 A 
ATOM     29  C   UNL A   1      39.199  26.044  28.573  1.00  0.00     0.010 A 
ATOM     30  C   UNL A   1      40.451  27.023  27.712  1.00  0.00    -0.014 A 
BRANCH  30  31
ATOM     31  C   UNL A   1      41.078  27.969  28.626  1.00  0.00     0.031 A 
ATOM     32  C   UNL A   1      40.279  29.184  28.917  1.00  0.00     0.074 A 
ATOM     33  C   UNL A   1      42.240  27.616  29.228  1.00  0.00     0.049 A 
ATOM     34  N   UNL A   1      40.765  30.381  28.936  1.00  0.00    -0.248 NA
ATOM     35  C   UNL A   1      38.797  29.221  28.960  1.00  0.00     0.031 C 
ATOM     36  C   UNL A   1      42.877  28.160  30.420  1.00  0.00     0.029 A 
ATOM     37  N   UNL A   1      43.178  26.686  28.802  1.00  0.00    -0.354 N 
ATOM     38  C   UNL A   1      39.741  31.135  29.479  1.00  0.00     0.074 A 
ATOM     39  C   UNL A   1      38.553  30.528  29.007  1.00  0.00     0.031 C 
ATOM     40  C   UNL A   1      44.170  27.775  30.457  1.00  0.00     0.029 A 
ATOM     41  C   UNL A   1      44.451  27.013  29.254  1.00  0.00     0.049 A 
ATOM     42  H   UNL A   1      42.968  25.898  28.250  1.00  0.00     0.167 HD
ATOM     43  C   UNL A   1      39.957  31.818  30.638  1.00  0.00     0.037 A 
ATOM     44  C   UNL A   1      45.431  27.314  28.351  1.00  0.00     0.037 A 
ATOM     45  C   UNL A   1      41.390  31.810  30.929  1.00  0.00     0.049 A 
ATOM     46  C   UNL A   1      45.627  28.818  28.263  1.00  0.00     0.074 A 
ATOM     47  C   UNL A   1      42.177  31.233  31.907  1.00  0.00     0.029 A 
ATOM     48  N   UNL A   1      42.255  32.172  29.904  1.00  0.00    -0.354 N 
ATOM     49  N   UNL A   1      44.757  29.680  28.729  1.00  0.00    -0.248 NA
ATOM     50  C   UNL A   1      46.837  29.477  27.776  1.00  0.00     0.031 C 
ATOM     51  C   UNL A   1      43.520  31.188  31.407  1.00  0.00     0.029 A 
ATOM     52  C   UNL A   1      43.543  31.753  30.140  1.00  0.00     0.049 A 
ATOM     53  H   UNL A   1      41.977  32.669  29.102  1.00  0.00     0.167 HD
ATOM     54  C   UNL A   1      45.264  30.951  28.672  1.00  0.00     0.074 A 
ATOM     55  C   UNL A   1      46.574  30.763  28.074  1.00  0.00     0.031 C 
ATOM     56  C   UNL A   1      44.576  32.040  29.143  1.00  0.00     0.037 A 
BRANCH  43  57
ATOM     57  C   UNL A   1      38.874  32.272  31.612  1.00  0.00     0.058 A 
ATOM     58  C   UNL A   1      38.306  33.550  31.441  1.00  0.00     0.135 A 
ATOM     59  C   UNL A   1      38.365  31.562  32.734  1.00  0.00     0.135 A 
ATOM     60  F   UNL A   1      38.708  34.353  30.446  1.00  0.00    -0.206 F 
ATOM     61  C   UNL A   1      37.309  34.063  32.279  1.00  0.00     0.059 A 
ATOM     62  C   UNL A   1      37.337  32.035  33.554  1.00  0.00     0.059 A 
ATOM     63  F   UNL A   1      38.860  30.393  33.151  1.00  0.00    -0.206 F 
ATOM     64  C   UNL A   1      36.815  33.291  33.323  1.00  0.00     0.060 A 
BRANCH  64  65
ATOM     65  S   UNL A   1      35.500  33.942  34.365  1.00  0.00     0.124 S 
ATOM     66  O   UNL A   1      35.477  35.348  33.977  1.00  0.00    -0.237 OA
ATOM     67  O   UNL A   1      34.354  33.144  33.943  1.00  0.00    -0.237 OA
ATOM     68  O   UNL A   1      35.974  33.678  35.721  1.00  0.00    -0.744 OA
ENDBRANCH  64  65
ENDBRANCH  43  57
BRANCH  44  69
ATOM     69  C   UNL A   1      45.544  26.258  27.302  1.00  0.00     0.058 A 
ATOM     70  C   UNL A   1      46.029  25.004  27.744  1.00  0.00     0.135 A 
ATOM     71  C   UNL A   1      44.825  26.256  26.105  1.00  0.00     0.135 A 
ATOM     72  F   UNL A   1      46.803  24.940  28.840  1.00  0.00    -0.206 F 
ATOM     73  C   UNL A   1      45.637  23.800  27.163  1.00  0.00     0.059 A 
ATOM     74  C   UNL A   1      44.490  25.051  25.460  1.00  0.00     0.059 A 
ATOM     75  F   UNL A   1      44.330  27.399  25.607  1.00  0.00    -0.206 F 
ATOM     76  C   UNL A   1      44.835  23.825  26.033  1.00  0.00     0.060 A 
BRANCH  76  77
ATOM     77  S   UNL A   1      44.226  22.239  25.389  1.00  0.00     0.124 S 
ATOM     78  O   UNL A   1      45.474  21.557  25.068  1.00  0.00    -0.237 OA
ATOM     79  O   UNL A   1      43.478  21.695  26.519  1.00  0.00    -0.237 OA
ATOM     80  O   UNL A   1      43.426  22.610  24.229  1.00  0.00    -0.744 OA
ENDBRANCH  76  77
ENDBRANCH  44  69
BRANCH  56  81
ATOM     81  C   UNL A   1      44.832  33.497  28.766  1.00  0.00     0.058 A 
ATOM     82  C   UNL A   1      45.353  34.466  29.639  1.00  0.00     0.135 A 
ATOM     83  C   UNL A   1      44.666  33.954  27.426  1.00  0.00     0.135 A 
ATOM     84  F   UNL A   1      45.758  34.169  30.878  1.00  0.00    -0.206 F 
ATOM     85  C   UNL A   1      45.542  35.795  29.263  1.00  0.00     0.059 A 
ATOM     86  C   UNL A   1      44.957  35.244  27.004  1.00  0.00     0.059 A 
ATOM     87  F   UNL A   1      44.225  33.163  26.440  1.00  0.00    -0.206 F 
ATOM     88  C   UNL A   1      45.338  36.177  27.945  1.00  0.00     0.060 A 
BRANCH  88  89
ATOM     89  S   UNL A   1      45.595  37.888  27.478  1.00  0.00     0.124 S 
ATOM     90  O   UNL A   1      44.238  38.295  27.126  1.00  0.00    -0.237 OA
ATOM     91  O   UNL A   1      46.132  38.465  28.706  1.00  0.00    -0.237 OA
ATOM     92  O   UNL A   1      46.536  37.804  26.366  1.00  0.00    -0.744 OA
ENDBRANCH  88  89
ENDBRANCH  56  81
ENDBRANCH  30  31
ENDBRANCH  23  25
ENDBRANCH  22  23
ENDBRANCH  21  22
ENDBRANCH   1  21
TORSDOF 18
ENDMDL
MODEL 2
REMARK VINA RESULT:     -12.1      4.050     10.167
REMARK SMILES COc1ccc(C)cc1S(=O)(=O)N[C@@H](C)C(=O)OCCOC(=O)c1ccc(-c2c3nc(c(-c4c(F)cc(S(=O)(=O)[O-])cc4F)c4ccc([nH]4)c(-c4c(F)cc(S(=O)(=O)[O-])cc4F)c4nc(c(-c5c(F)cc(S(=O)(=O)[O-])cc5F)c5ccc2[nH]5)C=C4)C=C3)cc1
REMARK SMILES IDX 19 1 18 2 16 3 17 4 14 5 15 6 13 7 10 9 11 10 12 11 9 12
REMARK SMILES IDX 3 13 4 14 5 15 8 16 6 17 7 18 2 19 1 20 20 21 21 22 22 23
REMARK SMILES IDX 23 24 24 25 25 26 89 27 26 28 88 29 27 30 28 31 29 32 82 33
REMARK SMILES IDX 30 34 87 35 81 36 83 37 31 38 86 39 80 40 79 41 32 43 66 44
REMARK SMILES IDX 45 45 65 46 46 47 49 48 64 49 84 50 47 51 48 52 63 54 85 55
REMARK SMILES IDX 50 56 33 57 34 58 43 59 35 60 36 61 42 62 44 63 37 64 38 65
REMARK SMILES IDX 39 66 40 67 41 68 67 69 68 70 77 71 69 72 70 73 76 74 78 75
REMARK SMILES IDX 71 76 72 77 73 78 74 79 75 80 51 81 52 82 61 83 53 84 54 85
REMARK SMILES IDX 60 86 62 87 55 88 56 89 57 90 58 91 59 92
REMARK H PARENT 13 8 83 42 49 53
REMARK Flexibility Score: inf
ROOT
ATOM      1  C   UNL A   1      31.979  30.367  26.816  1.00  0.00     0.274 C 
ENDROOT
BRANCH   1   2
ATOM      2  O   UNL A   1      31.511  29.075  27.260  1.00  0.00    -0.461 OA
BRANCH   2   3
ATOM      3  C   UNL A   1      31.655  27.989  26.290  1.00  0.00     0.324 C 
ATOM      4  O   UNL A   1      31.574  26.942  26.999  1.00  0.00    -0.250 OA
BRANCH   3   5
ATOM      5  C   UNL A   1      31.951  28.243  24.123  1.00  0.00     0.176 C 
ATOM      6  C   UNL A   1      30.951  28.941  22.919  1.00  0.00     0.038 C 
BRANCH   5   7
ATOM      7  N   UNL A   1      32.815  27.143  23.062  1.00  0.00    -0.197 NA
ATOM      8  H   UNL A   1      32.503  27.401  22.125  1.00  0.00     0.142 HD
BRANCH   7   9
ATOM      9  S   UNL A   1      32.831  25.445  23.043  1.00  0.00     0.245 S 
ATOM     10  O   UNL A   1      33.915  24.964  22.212  1.00  0.00    -0.207 OA
ATOM     11  O   UNL A   1      31.481  25.160  22.576  1.00  0.00    -0.207 OA
BRANCH   9  12
ATOM     12  C   UNL A   1      32.928  24.519  24.569  1.00  0.00     0.124 A 
ATOM     13  C   UNL A   1      34.049  24.190  25.311  1.00  0.00     0.138 A 
ATOM     14  C   UNL A   1      33.915  23.608  26.589  1.00  0.00     0.048 A 
ATOM     15  C   UNL A   1      32.690  23.170  27.060  1.00  0.00     0.007 A 
ATOM     16  C   UNL A   1      31.678  24.074  25.068  1.00  0.00     0.029 A 
ATOM     17  C   UNL A   1      31.559  23.362  26.279  1.00  0.00    -0.050 A 
ATOM     18  C   UNL A   1      30.242  22.818  26.740  1.00  0.00     0.044 C 
BRANCH  13  19
ATOM     19  O   UNL A   1      35.295  24.361  24.814  1.00  0.00    -0.495 OA
ATOM     20  C   UNL A   1      36.282  23.803  25.690  1.00  0.00     0.278 C 
ENDBRANCH  13  19
ENDBRANCH   9  12
ENDBRANCH   7   9
ENDBRANCH   5   7
ENDBRANCH   3   5
ENDBRANCH   2   3
ENDBRANCH   1   2
BRANCH   1  21
ATOM     21  C   UNL A   1      33.511  30.418  26.964  1.00  0.00     0.275 C 
BRANCH  21  22
ATOM     22  O   UNL A   1      33.959  31.560  27.736  1.00  0.00    -0.458 OA
BRANCH  22  23
ATOM     23  C   UNL A   1      35.303  31.763  27.811  1.00  0.00     0.338 C 
ATOM     24  O   UNL A   1      35.869  32.808  28.085  1.00  0.00    -0.246 OA
BRANCH  23  25
ATOM     25  C   UNL A   1      35.904  30.431  28.075  1.00  0.00     0.060 A 
ATOM     26  C   UNL A   1      35.913  29.768  29.744  1.00  0.00     0.016 A 
ATOM     27  C   UNL A   1      37.324  30.169  27.015  1.00  0.00     0.016 A 
ATOM     28  C   UNL A   1      37.427  29.006  30.451  1.00  0.00     0.010 A 
ATOM     29  C   UNL A   1      38.827  29.514  27.712  1.00  0.00     0.010 A 
ATOM     30  C   UNL A   1      38.906  28.991  29.441  1.00  0.00    -0.014 A 
BRANCH  30  31
ATOM     31  C   UNL A   1      40.273  29.074  29.938  1.00  0.00     0.031 A 
ATOM     32  C   UNL A   1      41.163  27.965  29.518  1.00  0.00     0.074 A 
ATOM     33  C   UNL A   1      40.652  30.191  30.607  1.00  0.00     0.049 A 
ATOM     34  N   UNL A   1      41.976  27.351  30.312  1.00  0.00    -0.248 NA
ATOM     35  C   UNL A   1      41.052  27.245  28.226  1.00  0.00     0.031 C 
ATOM     36  C   UNL A   1      41.987  30.708  30.880  1.00  0.00     0.029 A 
ATOM     37  N   UNL A   1      39.851  31.096  31.288  1.00  0.00    -0.354 N 
ATOM     38  C   UNL A   1      42.749  26.589  29.456  1.00  0.00     0.074 A 
ATOM     39  C   UNL A   1      41.872  26.214  28.411  1.00  0.00     0.031 C 
ATOM     40  C   UNL A   1      41.923  31.627  31.866  1.00  0.00     0.029 A 
ATOM     41  C   UNL A   1      40.548  31.703  32.326  1.00  0.00     0.049 A 
ATOM     42  H   UNL A   1      38.910  31.282  31.066  1.00  0.00     0.167 HD
ATOM     43  C   UNL A   1      44.097  26.788  29.420  1.00  0.00     0.037 A 
ATOM     44  C   UNL A   1      40.146  31.505  33.617  1.00  0.00     0.037 A 
ATOM     45  C   UNL A   1      44.480  27.631  30.551  1.00  0.00     0.049 A 
ATOM     46  C   UNL A   1      41.032  30.477  34.298  1.00  0.00     0.074 A 
ATOM     47  C   UNL A   1      44.969  28.916  30.680  1.00  0.00     0.029 A 
ATOM     48  N   UNL A   1      44.007  27.272  31.807  1.00  0.00    -0.354 N 
ATOM     49  N   UNL A   1      41.830  29.674  33.638  1.00  0.00    -0.248 NA
ATOM     50  C   UNL A   1      41.200  30.342  35.742  1.00  0.00     0.031 C 
ATOM     51  C   UNL A   1      44.705  29.344  32.023  1.00  0.00     0.029 A 
ATOM     52  C   UNL A   1      44.075  28.313  32.704  1.00  0.00     0.049 A 
ATOM     53  H   UNL A   1      43.662  26.378  32.029  1.00  0.00     0.167 HD
ATOM     54  C   UNL A   1      42.633  28.979  34.503  1.00  0.00     0.074 A 
ATOM     55  C   UNL A   1      42.200  29.444  35.809  1.00  0.00     0.031 C 
ATOM     56  C   UNL A   1      43.597  28.103  34.071  1.00  0.00     0.037 A 
BRANCH  43  57
ATOM     57  C   UNL A   1      45.012  26.431  28.252  1.00  0.00     0.058 A 
ATOM     58  C   UNL A   1      45.143  27.350  27.192  1.00  0.00     0.135 A 
ATOM     59  C   UNL A   1      45.754  25.233  28.069  1.00  0.00     0.135 A 
ATOM     60  F   UNL A   1      44.477  28.513  27.206  1.00  0.00    -0.206 F 
ATOM     61  C   UNL A   1      45.954  27.120  26.074  1.00  0.00     0.059 A 
ATOM     62  C   UNL A   1      46.607  25.002  26.986  1.00  0.00     0.059 A 
ATOM     63  F   UNL A   1      45.667  24.180  28.888  1.00  0.00    -0.206 F 
ATOM     64  C   UNL A   1      46.698  25.951  25.988  1.00  0.00     0.060 A 
BRANCH  64  65
ATOM     65  S   UNL A   1      47.775  25.686  24.569  1.00  0.00     0.124 S 
ATOM     66  O   UNL A   1      47.489  26.860  23.751  1.00  0.00    -0.237 OA
ATOM     67  O   UNL A   1      49.094  25.645  25.191  1.00  0.00    -0.237 OA
ATOM     68  O   UNL A   1      47.309  24.416  24.018  1.00  0.00    -0.744 OA
ENDBRANCH  64  65
ENDBRANCH  43  57
BRANCH  44  69
ATOM     69  C   UNL A   1      38.688  31.788  33.779  1.00  0.00     0.058 A 
ATOM     70  C   UNL A   1      38.332  33.157  33.830  1.00  0.00     0.135 A 
ATOM     71  C   UNL A   1      37.669  30.896  33.439  1.00  0.00     0.135 A 
ATOM     72  F   UNL A   1      39.237  34.064  34.236  1.00  0.00    -0.206 F 
ATOM     73  C   UNL A   1      37.112  33.634  33.358  1.00  0.00     0.059 A 
ATOM     74  C   UNL A   1      36.402  31.359  33.037  1.00  0.00     0.059 A 
ATOM     75  F   UNL A   1      37.914  29.579  33.368  1.00  0.00    -0.206 F 
ATOM     76  C   UNL A   1      36.154  32.729  32.928  1.00  0.00     0.060 A 
BRANCH  76  77
ATOM     77  S   UNL A   1      34.634  33.391  32.185  1.00  0.00     0.124 S 
ATOM     78  O   UNL A   1      33.679  33.216  33.272  1.00  0.00    -0.237 OA
ATOM     79  O   UNL A   1      34.998  34.770  31.873  1.00  0.00    -0.237 OA
ATOM     80  O   UNL A   1      34.399  32.531  31.033  1.00  0.00    -0.744 OA
ENDBRANCH  76  77
ENDBRANCH  44  69
BRANCH  56  81
ATOM     81  C   UNL A   1      44.238  26.991  34.899  1.00  0.00     0.058 A 
ATOM     82  C   UNL A   1      45.500  27.078  35.507  1.00  0.00     0.135 A 
ATOM     83  C   UNL A   1      43.521  25.802  35.219  1.00  0.00     0.135 A 
ATOM     84  F   UNL A   1      46.230  28.199  35.483  1.00  0.00    -0.206 F 
ATOM     85  C   UNL A   1      46.064  26.027  36.230  1.00  0.00     0.059 A 
ATOM     86  C   UNL A   1      44.019  24.791  36.031  1.00  0.00     0.059 A 
ATOM     87  F   UNL A   1      42.283  25.558  34.772  1.00  0.00    -0.206 F 
ATOM     88  C   UNL A   1      45.317  24.886  36.484  1.00  0.00     0.060 A 
BRANCH  88  89
ATOM     89  S   UNL A   1      46.054  23.547  37.421  1.00  0.00     0.124 S 
ATOM     90  O   UNL A   1      47.473  23.761  37.157  1.00  0.00    -0.237 OA
ATOM     91  O   UNL A   1      45.610  23.842  38.780  1.00  0.00    -0.237 OA
ATOM     92  O   UNL A   1      45.474  22.349  36.823  1.00  0.00    -0.744 OA
ENDBRANCH  88  89
ENDBRANCH  56  81
ENDBRANCH  30  31
ENDBRANCH  23  25
ENDBRANCH  22  23
ENDBRANCH  21  22
ENDBRANCH   1  21
TORSDOF 18
ENDMDL
MODEL 3
REMARK VINA RESULT:     -11.8     10.738     14.690
REMARK SMILES COc1ccc(C)cc1S(=O)(=O)N[C@@H](C)C(=O)OCCOC(=O)c1ccc(-c2c3nc(c(-c4c(F)cc(S(=O)(=O)[O-])cc4F)c4ccc([nH]4)c(-c4c(F)cc(S(=O)(=O)[O-])cc4F)c4nc(c(-c5c(F)cc(S(=O)(=O)[O-])cc5F)c5ccc2[nH]5)C=C4)C=C3)cc1
REMARK SMILES IDX 19 1 18 2 16 3 17 4 14 5 15 6 13 7 10 9 11 10 12 11 9 12
REMARK SMILES IDX 3 13 4 14 5 15 8 16 6 17 7 18 2 19 1 20 20 21 21 22 22 23
REMARK SMILES IDX 23 24 24 25 25 26 89 27 26 28 88 29 27 30 28 31 29 32 82 33
REMARK SMILES IDX 30 34 87 35 81 36 83 37 31 38 86 39 80 40 79 41 32 43 66 44
REMARK SMILES IDX 45 45 65 46 46 47 49 48 64 49 84 50 47 51 48 52 63 54 85 55
REMARK SMILES IDX 50 56 33 57 34 58 43 59 35 60 36 61 42 62 44 63 37 64 38 65
REMARK SMILES IDX 39 66 40 67 41 68 67 69 68 70 77 71 69 72 70 73 76 74 78 75
REMARK SMILES IDX 71 76 72 77 73 78 74 79 75 80 51 81 52 82 61 83 53 84 54 85
REMARK SMILES IDX 60 86 62 87 55 88 56 89 57 90 58 91 59 92
REMARK H PARENT 13 8 83 42 49 53
REMARK Flexibility Score: inf
ROOT
ATOM      1  C   UNL A   1      46.695  18.688  42.923  1.00  0.00     0.274 C 
ENDROOT
BRANCH   1   2
ATOM      2  O   UNL A   1      45.629  19.552  42.470  1.00  0.00    -0.461 OA
BRANCH   2   3
ATOM      3  C   UNL A   1      44.318  18.916  42.342  1.00  0.00     0.324 C 
ATOM      4  O   UNL A   1      43.554  19.672  43.013  1.00  0.00    -0.250 OA
BRANCH   3   5
ATOM      5  C   UNL A   1      43.899  17.068  41.222  1.00  0.00     0.176 C 
ATOM      6  C   UNL A   1      42.852  16.759  39.900  1.00  0.00     0.038 C 
BRANCH   5   7
ATOM      7  N   UNL A   1      43.886  15.441  41.880  1.00  0.00    -0.197 NA
ATOM      8  H   UNL A   1      43.513  14.867  41.124  1.00  0.00     0.142 HD
BRANCH   7   9
ATOM      9  S   UNL A   1      43.120  14.843  43.273  1.00  0.00     0.245 S 
ATOM     10  O   UNL A   1      41.804  15.430  43.413  1.00  0.00    -0.207 OA
ATOM     11  O   UNL A   1      44.097  15.189  44.298  1.00  0.00    -0.207 OA
BRANCH   9  12
ATOM     12  C   UNL A   1      42.905  13.084  43.509  1.00  0.00     0.124 A 
ATOM     13  C   UNL A   1      42.046  12.222  42.848  1.00  0.00     0.138 A 
ATOM     14  C   UNL A   1      42.143  10.828  43.042  1.00  0.00     0.048 A 
ATOM     15  C   UNL A   1      42.952  10.289  44.028  1.00  0.00     0.007 A 
ATOM     16  C   UNL A   1      43.735  12.517  44.508  1.00  0.00     0.029 A 
ATOM     17  C   UNL A   1      43.728  11.139  44.803  1.00  0.00    -0.050 A 
ATOM     18  C   UNL A   1      44.542  10.576  45.927  1.00  0.00     0.044 C 
BRANCH  13  19
ATOM     19  O   UNL A   1      41.059  12.689  42.051  1.00  0.00    -0.495 OA
ATOM     20  C   UNL A   1      41.465  12.695  40.676  1.00  0.00     0.278 C 
ENDBRANCH  13  19
ENDBRANCH   9  12
ENDBRANCH   7   9
ENDBRANCH   5   7
ENDBRANCH   3   5
ENDBRANCH   2   3
ENDBRANCH   1   2
BRANCH   1  21
ATOM     21  C   UNL A   1      47.898  18.845  41.975  1.00  0.00     0.275 C 
BRANCH  21  22
ATOM     22  O   UNL A   1      47.502  18.967  40.586  1.00  0.00    -0.458 OA
BRANCH  22  23
ATOM     23  C   UNL A   1      47.849  20.116  39.945  1.00  0.00     0.338 C 
ATOM     24  O   UNL A   1      48.978  20.490  39.677  1.00  0.00    -0.246 OA
BRANCH  23  25
ATOM     25  C   UNL A   1      46.660  20.514  39.149  1.00  0.00     0.060 A 
ATOM     26  C   UNL A   1      46.579  20.113  37.400  1.00  0.00     0.016 A 
ATOM     27  C   UNL A   1      46.029  22.090  39.720  1.00  0.00     0.016 A 
ATOM     28  C   UNL A   1      46.050  21.364  36.165  1.00  0.00     0.010 A 
ATOM     29  C   UNL A   1      45.598  23.344  38.530  1.00  0.00     0.010 A 
ATOM     30  C   UNL A   1      45.667  23.011  36.755  1.00  0.00    -0.014 A 
BRANCH  30  31
ATOM     31  C   UNL A   1      45.871  24.247  36.010  1.00  0.00     0.031 A 
ATOM     32  C   UNL A   1      44.657  24.802  35.366  1.00  0.00     0.074 A 
ATOM     33  C   UNL A   1      47.084  24.850  36.077  1.00  0.00     0.049 A 
ATOM     34  N   UNL A   1      44.623  25.257  34.157  1.00  0.00    -0.248 NA
ATOM     35  C   UNL A   1      43.284  24.666  35.911  1.00  0.00     0.031 C 
ATOM     36  C   UNL A   1      47.463  26.223  35.770  1.00  0.00     0.029 A 
ATOM     37  N   UNL A   1      48.311  24.277  36.378  1.00  0.00    -0.354 N 
ATOM     38  C   UNL A   1      43.389  25.874  34.080  1.00  0.00     0.074 A 
ATOM     39  C   UNL A   1      42.538  25.089  34.893  1.00  0.00     0.031 C 
ATOM     40  C   UNL A   1      48.802  26.301  35.624  1.00  0.00     0.029 A 
ATOM     41  C   UNL A   1      49.352  24.965  35.767  1.00  0.00     0.049 A 
ATOM     42  H   UNL A   1      48.429  23.483  36.950  1.00  0.00     0.167 HD
ATOM     43  C   UNL A   1      43.326  27.206  33.801  1.00  0.00     0.037 A 
ATOM     44  C   UNL A   1      50.121  24.334  34.830  1.00  0.00     0.037 A 
ATOM     45  C   UNL A   1      44.645  27.659  33.363  1.00  0.00     0.049 A 
ATOM     46  C   UNL A   1      49.698  24.748  33.431  1.00  0.00     0.074 A 
ATOM     47  C   UNL A   1      45.607  28.498  33.892  1.00  0.00     0.029 A 
ATOM     48  N   UNL A   1      45.283  26.917  32.377  1.00  0.00    -0.354 N 
ATOM     49  N   UNL A   1      48.561  25.346  33.176  1.00  0.00    -0.248 NA
ATOM     50  C   UNL A   1      50.539  24.649  32.240  1.00  0.00     0.031 C 
ATOM     51  C   UNL A   1      46.851  28.183  33.252  1.00  0.00     0.029 A 
ATOM     52  C   UNL A   1      46.634  27.171  32.329  1.00  0.00     0.049 A 
ATOM     53  H   UNL A   1      44.821  26.283  31.783  1.00  0.00     0.167 HD
ATOM     54  C   UNL A   1      48.517  25.756  31.870  1.00  0.00     0.074 A 
ATOM     55  C   UNL A   1      49.787  25.300  31.333  1.00  0.00     0.031 C 
ATOM     56  C   UNL A   1      47.455  26.454  31.353  1.00  0.00     0.037 A 
BRANCH  43  57
ATOM     57  C   UNL A   1      42.161  28.129  34.151  1.00  0.00     0.058 A 
ATOM     58  C   UNL A   1      42.093  28.664  35.452  1.00  0.00     0.135 A 
ATOM     59  C   UNL A   1      41.076  28.508  33.315  1.00  0.00     0.135 A 
ATOM     60  F   UNL A   1      43.028  28.371  36.366  1.00  0.00    -0.206 F 
ATOM     61  C   UNL A   1      41.067  29.518  35.876  1.00  0.00     0.059 A 
ATOM     62  C   UNL A   1      40.069  29.395  33.701  1.00  0.00     0.059 A 
ATOM     63  F   UNL A   1      40.880  28.006  32.092  1.00  0.00    -0.206 F 
ATOM     64  C   UNL A   1      40.068  29.895  34.988  1.00  0.00     0.060 A 
BRANCH  64  65
ATOM     65  S   UNL A   1      38.780  31.030  35.529  1.00  0.00     0.124 S 
ATOM     66  O   UNL A   1      39.558  32.196  35.933  1.00  0.00    -0.237 OA
ATOM     67  O   UNL A   1      37.980  31.183  34.318  1.00  0.00    -0.237 OA
ATOM     68  O   UNL A   1      38.124  30.311  36.618  1.00  0.00    -0.744 OA
ENDBRANCH  64  65
ENDBRANCH  43  57
BRANCH  44  69
ATOM     69  C   UNL A   1      50.636  23.029  35.342  1.00  0.00     0.058 A 
ATOM     70  C   UNL A   1      50.308  21.893  34.566  1.00  0.00     0.135 A 
ATOM     71  C   UNL A   1      51.729  22.897  36.202  1.00  0.00     0.135 A 
ATOM     72  F   UNL A   1      49.217  21.917  33.783  1.00  0.00    -0.206 F 
ATOM     73  C   UNL A   1      51.138  20.778  34.478  1.00  0.00     0.059 A 
ATOM     74  C   UNL A   1      52.532  21.742  36.184  1.00  0.00     0.059 A 
ATOM     75  F   UNL A   1      52.112  23.922  36.978  1.00  0.00    -0.206 F 
ATOM     76  C   UNL A   1      52.275  20.719  35.268  1.00  0.00     0.060 A 
BRANCH  76  77
ATOM     77  S   UNL A   1      53.408  19.321  35.021  1.00  0.00     0.124 S 
ATOM     78  O   UNL A   1      52.943  18.386  36.039  1.00  0.00    -0.237 OA
ATOM     79  O   UNL A   1      53.150  18.932  33.638  1.00  0.00    -0.237 OA
ATOM     80  O   UNL A   1      54.727  19.883  35.277  1.00  0.00    -0.744 OA
ENDBRANCH  76  77
ENDBRANCH  44  69
BRANCH  56  81
ATOM     81  C   UNL A   1      47.103  26.589  29.873  1.00  0.00     0.058 A 
ATOM     82  C   UNL A   1      46.334  25.664  29.149  1.00  0.00     0.135 A 
ATOM     83  C   UNL A   1      47.442  27.762  29.137  1.00  0.00     0.135 A 
ATOM     84  F   UNL A   1      45.760  24.603  29.727  1.00  0.00    -0.206 F 
ATOM     85  C   UNL A   1      46.062  25.809  27.789  1.00  0.00     0.059 A 
ATOM     86  C   UNL A   1      47.084  27.978  27.813  1.00  0.00     0.059 A 
ATOM     87  F   UNL A   1      48.133  28.778  29.669  1.00  0.00    -0.206 F 
ATOM     88  C   UNL A   1      46.444  26.968  27.129  1.00  0.00     0.060 A 
BRANCH  88  89
ATOM     89  S   UNL A   1      46.078  27.141  25.382  1.00  0.00     0.124 S 
ATOM     90  O   UNL A   1      44.914  26.273  25.246  1.00  0.00    -0.237 OA
ATOM     91  O   UNL A   1      45.820  28.573  25.262  1.00  0.00    -0.237 OA
ATOM     92  O   UNL A   1      47.295  26.671  24.728  1.00  0.00    -0.744 OA
ENDBRANCH  88  89
ENDBRANCH  56  81
ENDBRANCH  30  31
ENDBRANCH  23  25
ENDBRANCH  22  23
ENDBRANCH  21  22
ENDBRANCH   1  21
TORSDOF 18
ENDMDL
