MODEL 1
REMARK VINA RESULT:     -10.4      0.000      0.000
REMARK SMILES C[C@@H](CC[NH+](C)C)NC(=O)Cn1cccc1C(=O)OCCOC(=O)c1ccc(-c2c3nc(c(-c4c(F)cc(S(=O)(=O)[O-])cc4F)c4ccc([nH]4)c(-c4c(F)cc(S(=O)(=O)[O-])cc4F)c4nc(c(-c5c(F)cc(S(=O)(=O)[O-])cc5F)c5ccc2[nH]5)C=C4)C=C3)cc1
REMARK SMILES IDX 19 1 17 2 18 3 16 4 12 5 13 6 14 7 15 8 11 9 9 10 8 11 10 13
REMARK SMILES IDX 2 14 1 15 3 16 4 17 5 18 6 19 7 20 20 22 21 23 22 24 23 25
REMARK SMILES IDX 24 26 25 27 26 28 90 29 27 30 89 31 28 32 29 33 30 34 83 35
REMARK SMILES IDX 31 36 88 37 82 38 84 39 32 40 87 41 81 42 80 43 33 45 67 46
REMARK SMILES IDX 46 47 66 48 47 49 50 50 65 51 85 52 48 53 49 54 64 56 86 57
REMARK SMILES IDX 51 58 34 59 35 60 44 61 36 62 37 63 43 64 45 65 38 66 39 67
REMARK SMILES IDX 40 68 41 69 42 70 68 71 69 72 78 73 70 74 71 75 77 76 79 77
REMARK SMILES IDX 72 78 73 79 74 80 75 81 76 82 52 83 53 84 62 85 54 86 55 87
REMARK SMILES IDX 61 88 63 89 56 90 57 91 58 92 59 93 60 94
REMARK H PARENT 8 12 5 21 84 44 50 55
REMARK Flexibility Score: inf
ROOT
ATOM      1  O   UNL A   1      34.305  26.448  25.608  1.00  0.00    -0.457 OA
ENDROOT
BRANCH   1   2
ATOM      2  C   UNL A   1      33.658  25.610  24.747  1.00  0.00     0.355 C 
ATOM      3  O   UNL A   1      33.871  25.574  23.551  1.00  0.00    -0.244 OA
BRANCH   2   4
ATOM      4  C   UNL A   1      32.724  24.730  25.446  1.00  0.00     0.128 A 
ATOM      5  N   UNL A   1      31.394  24.429  25.186  1.00  0.00    -0.333 N 
ATOM      6  C   UNL A   1      30.902  23.611  26.185  1.00  0.00     0.087 A 
ATOM      7  C   UNL A   1      31.924  23.313  27.050  1.00  0.00     0.020 A 
ATOM      8  C   UNL A   1      33.062  24.002  26.586  1.00  0.00     0.035 A 
BRANCH   5   9
ATOM      9  C   UNL A   1      30.556  24.852  24.072  1.00  0.00     0.222 C 
BRANCH   9  10
ATOM     10  C   UNL A   1      29.648  26.026  24.396  1.00  0.00     0.240 C 
ATOM     11  N   UNL A   1      30.020  27.309  24.103  1.00  0.00    -0.352 N 
ATOM     12  H   UNL A   1      29.425  28.005  24.466  1.00  0.00     0.163 HD
ATOM     13  O   UNL A   1      28.594  25.866  25.017  1.00  0.00    -0.273 OA
BRANCH  11  14
ATOM     14  C   UNL A   1      31.154  27.812  23.338  1.00  0.00     0.084 C 
ATOM     15  C   UNL A   1      31.269  27.166  21.954  1.00  0.00     0.031 C 
BRANCH  14  16
ATOM     16  C   UNL A   1      31.148  29.344  23.267  1.00  0.00     0.086 C 
BRANCH  16  17
ATOM     17  C   UNL A   1      29.905  30.098  23.780  1.00  0.00     0.263 C 
BRANCH  17  18
ATOM     18  N   UNL A   1      29.314  31.022  22.796  1.00  0.00    -0.340 N 
ATOM     19  C   UNL A   1      28.861  30.271  21.617  1.00  0.00     0.332 C 
ATOM     20  C   UNL A   1      28.159  31.760  23.324  1.00  0.00     0.332 C 
ATOM     21  H   UNL A   1      30.045  31.693  22.559  1.00  0.00     0.347 HD
ENDBRANCH  17  18
ENDBRANCH  16  17
ENDBRANCH  14  16
ENDBRANCH  11  14
ENDBRANCH   9  10
ENDBRANCH   5   9
ENDBRANCH   2   4
ENDBRANCH   1   2
BRANCH   1  22
ATOM     22  C   UNL A   1      33.540  27.555  26.116  1.00  0.00     0.275 C 
BRANCH  22  23
ATOM     23  C   UNL A   1      34.410  28.797  26.308  1.00  0.00     0.275 C 
BRANCH  23  24
ATOM     24  O   UNL A   1      34.972  28.887  27.621  1.00  0.00    -0.458 OA
BRANCH  24  25
ATOM     25  C   UNL A   1      35.748  29.982  27.796  1.00  0.00     0.338 C 
ATOM     26  O   UNL A   1      35.505  31.125  27.438  1.00  0.00    -0.246 OA
BRANCH  25  27
ATOM     27  C   UNL A   1      37.037  29.616  28.373  1.00  0.00     0.060 A 
ATOM     28  C   UNL A   1      38.170  29.691  27.558  1.00  0.00     0.016 A 
ATOM     29  C   UNL A   1      37.047  28.956  29.607  1.00  0.00     0.016 A 
ATOM     30  C   UNL A   1      39.321  29.032  27.955  1.00  0.00     0.010 A 
ATOM     31  C   UNL A   1      38.184  28.265  29.983  1.00  0.00     0.010 A 
ATOM     32  C   UNL A   1      39.308  28.294  29.145  1.00  0.00    -0.014 A 
BRANCH  32  33
ATOM     33  C   UNL A   1      40.550  27.629  29.572  1.00  0.00     0.031 A 
ATOM     34  C   UNL A   1      40.792  26.334  28.781  1.00  0.00     0.074 A 
ATOM     35  C   UNL A   1      41.238  28.247  30.581  1.00  0.00     0.049 A 
ATOM     36  N   UNL A   1      41.509  25.296  29.080  1.00  0.00    -0.248 NA
ATOM     37  C   UNL A   1      40.067  26.125  27.492  1.00  0.00     0.031 C 
ATOM     38  C   UNL A   1      40.830  29.517  31.225  1.00  0.00     0.029 A 
ATOM     39  N   UNL A   1      42.398  27.959  31.270  1.00  0.00    -0.354 N 
ATOM     40  C   UNL A   1      41.508  24.444  27.953  1.00  0.00     0.074 A 
ATOM     41  C   UNL A   1      40.510  24.942  27.062  1.00  0.00     0.031 C 
ATOM     42  C   UNL A   1      41.664  29.838  32.237  1.00  0.00     0.029 A 
ATOM     43  C   UNL A   1      42.713  28.842  32.340  1.00  0.00     0.049 A 
ATOM     44  H   UNL A   1      42.970  27.192  31.038  1.00  0.00     0.167 HD
ATOM     45  C   UNL A   1      42.428  23.456  27.762  1.00  0.00     0.037 A 
ATOM     46  C   UNL A   1      43.726  28.757  33.260  1.00  0.00     0.037 A 
ATOM     47  C   UNL A   1      43.310  23.392  28.878  1.00  0.00     0.049 A 
ATOM     48  C   UNL A   1      44.565  27.643  32.794  1.00  0.00     0.074 A 
ATOM     49  C   UNL A   1      43.139  22.937  30.157  1.00  0.00     0.029 A 
ATOM     50  N   UNL A   1      44.442  24.169  28.819  1.00  0.00    -0.354 N 
ATOM     51  N   UNL A   1      45.341  27.682  31.754  1.00  0.00    -0.248 NA
ATOM     52  C   UNL A   1      44.476  26.356  33.497  1.00  0.00     0.031 C 
ATOM     53  C   UNL A   1      43.928  23.810  30.931  1.00  0.00     0.029 A 
ATOM     54  C   UNL A   1      44.679  24.639  30.088  1.00  0.00     0.049 A 
ATOM     55  H   UNL A   1      44.981  24.355  28.016  1.00  0.00     0.167 HD
ATOM     56  C   UNL A   1      45.557  26.351  31.494  1.00  0.00     0.074 A 
ATOM     57  C   UNL A   1      45.288  25.640  32.725  1.00  0.00     0.031 C 
ATOM     58  C   UNL A   1      45.401  25.883  30.230  1.00  0.00     0.037 A 
BRANCH  45  59
ATOM     59  C   UNL A   1      42.792  22.641  26.553  1.00  0.00     0.058 A 
ATOM     60  C   UNL A   1      42.359  21.293  26.512  1.00  0.00     0.135 A 
ATOM     61  C   UNL A   1      43.805  22.996  25.651  1.00  0.00     0.135 A 
ATOM     62  F   UNL A   1      41.344  20.874  27.286  1.00  0.00    -0.206 F 
ATOM     63  C   UNL A   1      42.999  20.326  25.747  1.00  0.00     0.059 A 
ATOM     64  C   UNL A   1      44.433  22.048  24.839  1.00  0.00     0.059 A 
ATOM     65  F   UNL A   1      44.274  24.250  25.595  1.00  0.00    -0.206 F 
ATOM     66  C   UNL A   1      44.067  20.707  24.944  1.00  0.00     0.060 A 
BRANCH  66  67
ATOM     67  S   UNL A   1      44.997  19.416  24.092  1.00  0.00     0.124 S 
ATOM     68  O   UNL A   1      44.541  18.217  24.785  1.00  0.00    -0.237 OA
ATOM     69  O   UNL A   1      44.539  19.563  22.713  1.00  0.00    -0.237 OA
ATOM     70  O   UNL A   1      46.387  19.796  24.324  1.00  0.00    -0.744 OA
ENDBRANCH  66  67
ENDBRANCH  45  59
BRANCH  46  71
ATOM     71  C   UNL A   1      44.129  29.379  34.587  1.00  0.00     0.058 A 
ATOM     72  C   UNL A   1      45.201  30.253  34.808  1.00  0.00     0.135 A 
ATOM     73  C   UNL A   1      43.273  29.222  35.719  1.00  0.00     0.135 A 
ATOM     74  F   UNL A   1      46.170  30.405  33.899  1.00  0.00    -0.206 F 
ATOM     75  C   UNL A   1      45.315  31.029  35.979  1.00  0.00     0.059 A 
ATOM     76  C   UNL A   1      43.331  30.017  36.860  1.00  0.00     0.059 A 
ATOM     77  F   UNL A   1      42.296  28.303  35.744  1.00  0.00    -0.206 F 
ATOM     78  C   UNL A   1      44.338  30.951  36.970  1.00  0.00     0.060 A 
BRANCH  78  79
ATOM     79  S   UNL A   1      44.285  32.141  38.327  1.00  0.00     0.124 S 
ATOM     80  O   UNL A   1      45.638  32.684  38.312  1.00  0.00    -0.237 OA
ATOM     81  O   UNL A   1      43.227  33.055  37.907  1.00  0.00    -0.237 OA
ATOM     82  O   UNL A   1      43.950  31.309  39.482  1.00  0.00    -0.744 OA
ENDBRANCH  78  79
ENDBRANCH  46  71
BRANCH  58  83
ATOM     83  C   UNL A   1      45.647  26.913  29.142  1.00  0.00     0.058 A 
ATOM     84  C   UNL A   1      46.939  27.428  28.947  1.00  0.00     0.135 A 
ATOM     85  C   UNL A   1      44.636  27.478  28.345  1.00  0.00     0.135 A 
ATOM     86  F   UNL A   1      47.964  26.948  29.670  1.00  0.00    -0.206 F 
ATOM     87  C   UNL A   1      47.212  28.433  28.015  1.00  0.00     0.059 A 
ATOM     88  C   UNL A   1      44.879  28.476  27.397  1.00  0.00     0.059 A 
ATOM     89  F   UNL A   1      43.372  27.075  28.471  1.00  0.00    -0.206 F 
ATOM     90  C   UNL A   1      46.176  28.952  27.238  1.00  0.00     0.060 A 
BRANCH  90  91
ATOM     91  S   UNL A   1      46.549  30.229  26.016  1.00  0.00     0.124 S 
ATOM     92  O   UNL A   1      47.853  30.715  26.458  1.00  0.00    -0.237 OA
ATOM     93  O   UNL A   1      46.549  29.470  24.769  1.00  0.00    -0.237 OA
ATOM     94  O   UNL A   1      45.453  31.184  26.163  1.00  0.00    -0.744 OA
ENDBRANCH  90  91
ENDBRANCH  58  83
ENDBRANCH  32  33
ENDBRANCH  25  27
ENDBRANCH  24  25
ENDBRANCH  23  24
ENDBRANCH  22  23
ENDBRANCH   1  22
TORSDOF 20
ENDMDL
MODEL 2
REMARK VINA RESULT:     -10.4      1.496      3.269
REMARK SMILES C[C@@H](CC[NH+](C)C)NC(=O)Cn1cccc1C(=O)OCCOC(=O)c1ccc(-c2c3nc(c(-c4c(F)cc(S(=O)(=O)[O-])cc4F)c4ccc([nH]4)c(-c4c(F)cc(S(=O)(=O)[O-])cc4F)c4nc(c(-c5c(F)cc(S(=O)(=O)[O-])cc5F)c5ccc2[nH]5)C=C4)C=C3)cc1
REMARK SMILES IDX 19 1 17 2 18 3 16 4 12 5 13 6 14 7 15 8 11 9 9 10 8 11 10 13
REMARK SMILES IDX 2 14 1 15 3 16 4 17 5 18 6 19 7 20 20 22 21 23 22 24 23 25
REMARK SMILES IDX 24 26 25 27 26 28 90 29 27 30 89 31 28 32 29 33 30 34 83 35
REMARK SMILES IDX 31 36 88 37 82 38 84 39 32 40 87 41 81 42 80 43 33 45 67 46
REMARK SMILES IDX 46 47 66 48 47 49 50 50 65 51 85 52 48 53 49 54 64 56 86 57
REMARK SMILES IDX 51 58 34 59 35 60 44 61 36 62 37 63 43 64 45 65 38 66 39 67
REMARK SMILES IDX 40 68 41 69 42 70 68 71 69 72 78 73 70 74 71 75 77 76 79 77
REMARK SMILES IDX 72 78 73 79 74 80 75 81 76 82 52 83 53 84 62 85 54 86 55 87
REMARK SMILES IDX 61 88 63 89 56 90 57 91 58 92 59 93 60 94
REMARK H PARENT 8 12 5 21 84 44 50 55
REMARK Flexibility Score: inf
ROOT
ATOM      1  O   UNL A   1      32.845  30.271  25.603  1.00  0.00    -0.457 OA
ENDROOT
BRANCH   1   2
ATOM      2  C   UNL A   1      31.938  29.495  24.943  1.00  0.00     0.355 C 
ATOM      3  O   UNL A   1      30.735  29.572  25.108  1.00  0.00    -0.244 OA
BRANCH   2   4
ATOM      4  C   UNL A   1      32.583  28.604  23.981  1.00  0.00     0.128 A 
ATOM      5  N   UNL A   1      32.372  27.259  23.707  1.00  0.00    -0.333 N 
ATOM      6  C   UNL A   1      33.295  26.829  22.773  1.00  0.00     0.087 A 
ATOM      7  C   UNL A   1      34.053  27.902  22.379  1.00  0.00     0.020 A 
ATOM      8  C   UNL A   1      33.604  29.011  23.124  1.00  0.00     0.035 A 
BRANCH   5   9
ATOM      9  C   UNL A   1      31.373  26.355  24.256  1.00  0.00     0.222 C 
BRANCH   9  10
ATOM     10  C   UNL A   1      31.563  26.048  25.732  1.00  0.00     0.240 C 
ATOM     11  N   UNL A   1      32.401  25.048  26.143  1.00  0.00    -0.352 N 
ATOM     12  H   UNL A   1      32.357  24.843  27.106  1.00  0.00     0.163 HD
ATOM     13  O   UNL A   1      30.897  26.626  26.595  1.00  0.00    -0.273 OA
BRANCH  11  14
ATOM     14  C   UNL A   1      33.348  24.240  25.388  1.00  0.00     0.084 C 
ATOM     15  C   UNL A   1      34.762  24.829  25.386  1.00  0.00     0.031 C 
BRANCH  14  16
ATOM     16  C   UNL A   1      33.328  22.776  25.847  1.00  0.00     0.086 C 
BRANCH  16  17
ATOM     17  C   UNL A   1      32.280  21.828  25.233  1.00  0.00     0.263 C 
BRANCH  17  18
ATOM     18  N   UNL A   1      32.782  21.029  24.100  1.00  0.00    -0.340 N 
ATOM     19  C   UNL A   1      32.510  19.604  24.338  1.00  0.00     0.332 C 
ATOM     20  C   UNL A   1      32.160  21.394  22.821  1.00  0.00     0.332 C 
ATOM     21  H   UNL A   1      33.782  21.218  24.039  1.00  0.00     0.347 HD
ENDBRANCH  17  18
ENDBRANCH  16  17
ENDBRANCH  14  16
ENDBRANCH  11  14
ENDBRANCH   9  10
ENDBRANCH   5   9
ENDBRANCH   2   4
ENDBRANCH   1   2
BRANCH   1  22
ATOM     22  C   UNL A   1      32.924  30.089  27.026  1.00  0.00     0.275 C 
BRANCH  22  23
ATOM     23  C   UNL A   1      34.198  29.345  27.427  1.00  0.00     0.275 C 
BRANCH  23  24
ATOM     24  O   UNL A   1      35.390  29.993  26.975  1.00  0.00    -0.458 OA
BRANCH  24  25
ATOM     25  C   UNL A   1      36.168  30.447  27.985  1.00  0.00     0.338 C 
ATOM     26  O   UNL A   1      36.078  31.521  28.562  1.00  0.00    -0.246 OA
BRANCH  25  27
ATOM     27  C   UNL A   1      37.269  29.527  28.244  1.00  0.00     0.060 A 
ATOM     28  C   UNL A   1      37.240  28.778  29.424  1.00  0.00     0.016 A 
ATOM     29  C   UNL A   1      38.420  29.631  27.456  1.00  0.00     0.016 A 
ATOM     30  C   UNL A   1      38.407  28.176  29.860  1.00  0.00     0.010 A 
ATOM     31  C   UNL A   1      39.595  29.064  27.914  1.00  0.00     0.010 A 
ATOM     32  C   UNL A   1      39.584  28.354  29.122  1.00  0.00    -0.014 A 
BRANCH  32  33
ATOM     33  C   UNL A   1      40.808  27.678  29.580  1.00  0.00     0.031 A 
ATOM     34  C   UNL A   1      41.055  26.378  28.799  1.00  0.00     0.074 A 
ATOM     35  C   UNL A   1      41.480  28.292  30.602  1.00  0.00     0.049 A 
ATOM     36  N   UNL A   1      41.754  25.334  29.118  1.00  0.00    -0.248 NA
ATOM     37  C   UNL A   1      40.358  26.171  27.494  1.00  0.00     0.031 C 
ATOM     38  C   UNL A   1      41.070  29.569  31.232  1.00  0.00     0.029 A 
ATOM     39  N   UNL A   1      42.621  27.995  31.319  1.00  0.00    -0.354 N 
ATOM     40  C   UNL A   1      41.770  24.478  27.994  1.00  0.00     0.074 A 
ATOM     41  C   UNL A   1      40.798  24.983  27.078  1.00  0.00     0.031 C 
ATOM     42  C   UNL A   1      41.884  29.885  32.262  1.00  0.00     0.029 A 
ATOM     43  C   UNL A   1      42.920  28.879  32.392  1.00  0.00     0.049 A 
ATOM     44  H   UNL A   1      43.190  27.222  31.102  1.00  0.00     0.167 HD
ATOM     45  C   UNL A   1      42.684  23.480  27.827  1.00  0.00     0.037 A 
ATOM     46  C   UNL A   1      43.911  28.786  33.336  1.00  0.00     0.037 A 
ATOM     47  C   UNL A   1      43.540  23.411  28.963  1.00  0.00     0.049 A 
ATOM     48  C   UNL A   1      44.748  27.662  32.893  1.00  0.00     0.074 A 
ATOM     49  C   UNL A   1      43.335  22.962  30.240  1.00  0.00     0.029 A 
ATOM     50  N   UNL A   1      44.681  24.176  28.928  1.00  0.00    -0.354 N 
ATOM     51  N   UNL A   1      45.549  27.690  31.871  1.00  0.00    -0.248 NA
ATOM     52  C   UNL A   1      44.630  26.379  33.598  1.00  0.00     0.031 C 
ATOM     53  C   UNL A   1      44.115  23.829  31.028  1.00  0.00     0.029 A 
ATOM     54  C   UNL A   1      44.893  24.648  30.200  1.00  0.00     0.049 A 
ATOM     55  H   UNL A   1      45.240  24.353  28.137  1.00  0.00     0.167 HD
ATOM     56  C   UNL A   1      45.757  26.356  31.621  1.00  0.00     0.074 A 
ATOM     57  C   UNL A   1      45.452  25.651  32.847  1.00  0.00     0.031 C 
ATOM     58  C   UNL A   1      45.625  25.885  30.355  1.00  0.00     0.037 A 
BRANCH  45  59
ATOM     59  C   UNL A   1      43.067  22.657  26.629  1.00  0.00     0.058 A 
ATOM     60  C   UNL A   1      42.557  21.339  26.544  1.00  0.00     0.135 A 
ATOM     61  C   UNL A   1      44.151  22.959  25.792  1.00  0.00     0.135 A 
ATOM     62  F   UNL A   1      41.475  20.975  27.253  1.00  0.00    -0.206 F 
ATOM     63  C   UNL A   1      43.180  20.343  25.803  1.00  0.00     0.059 A 
ATOM     64  C   UNL A   1      44.766  21.982  25.004  1.00  0.00     0.059 A 
ATOM     65  F   UNL A   1      44.698  24.181  25.780  1.00  0.00    -0.206 F 
ATOM     66  C   UNL A   1      44.314  20.665  25.069  1.00  0.00     0.060 A 
BRANCH  66  67
ATOM     67  S   UNL A   1      45.211  19.329  24.253  1.00  0.00     0.124 S 
ATOM     68  O   UNL A   1      44.640  19.366  22.911  1.00  0.00    -0.237 OA
ATOM     69  O   UNL A   1      46.598  19.774  24.362  1.00  0.00    -0.237 OA
ATOM     70  O   UNL A   1      44.872  18.159  25.056  1.00  0.00    -0.744 OA
ENDBRANCH  66  67
ENDBRANCH  45  59
BRANCH  46  71
ATOM     71  C   UNL A   1      44.289  29.409  34.670  1.00  0.00     0.058 A 
ATOM     72  C   UNL A   1      43.642  29.214  35.897  1.00  0.00     0.135 A 
ATOM     73  C   UNL A   1      45.509  30.144  34.774  1.00  0.00     0.135 A 
ATOM     74  F   UNL A   1      42.424  28.666  35.958  1.00  0.00    -0.206 F 
ATOM     75  C   UNL A   1      44.234  29.561  37.127  1.00  0.00     0.059 A 
ATOM     76  C   UNL A   1      46.140  30.446  35.978  1.00  0.00     0.059 A 
ATOM     77  F   UNL A   1      46.176  30.566  33.689  1.00  0.00    -0.206 F 
ATOM     78  C   UNL A   1      45.511  30.117  37.159  1.00  0.00     0.060 A 
BRANCH  78  79
ATOM     79  S   UNL A   1      46.419  30.287  38.711  1.00  0.00     0.124 S 
ATOM     80  O   UNL A   1      47.470  31.231  38.350  1.00  0.00    -0.237 OA
ATOM     81  O   UNL A   1      45.398  30.789  39.625  1.00  0.00    -0.237 OA
ATOM     82  O   UNL A   1      46.864  28.921  38.984  1.00  0.00    -0.744 OA
ENDBRANCH  78  79
ENDBRANCH  46  71
BRANCH  58  83
ATOM     83  C   UNL A   1      45.907  26.908  29.270  1.00  0.00     0.058 A 
ATOM     84  C   UNL A   1      47.204  27.421  29.113  1.00  0.00     0.135 A 
ATOM     85  C   UNL A   1      44.922  27.470  28.437  1.00  0.00     0.135 A 
ATOM     86  F   UNL A   1      48.206  26.944  29.870  1.00  0.00    -0.206 F 
ATOM     87  C   UNL A   1      47.508  28.421  28.184  1.00  0.00     0.059 A 
ATOM     88  C   UNL A   1      45.196  28.463  27.492  1.00  0.00     0.059 A 
ATOM     89  F   UNL A   1      43.654  27.069  28.525  1.00  0.00    -0.206 F 
ATOM     90  C   UNL A   1      46.497  28.936  27.372  1.00  0.00     0.060 A 
BRANCH  90  91
ATOM     91  S   UNL A   1      46.911  30.206  26.155  1.00  0.00     0.124 S 
ATOM     92  O   UNL A   1      48.282  30.554  26.517  1.00  0.00    -0.237 OA
ATOM     93  O   UNL A   1      46.755  29.486  24.895  1.00  0.00    -0.237 OA
ATOM     94  O   UNL A   1      45.924  31.256  26.397  1.00  0.00    -0.744 OA
ENDBRANCH  90  91
ENDBRANCH  58  83
ENDBRANCH  32  33
ENDBRANCH  25  27
ENDBRANCH  24  25
ENDBRANCH  23  24
ENDBRANCH  22  23
ENDBRANCH   1  22
TORSDOF 20
ENDMDL
MODEL 3
REMARK VINA RESULT:     -10.3      3.296      9.619
REMARK SMILES C[C@@H](CC[NH+](C)C)NC(=O)Cn1cccc1C(=O)OCCOC(=O)c1ccc(-c2c3nc(c(-c4c(F)cc(S(=O)(=O)[O-])cc4F)c4ccc([nH]4)c(-c4c(F)cc(S(=O)(=O)[O-])cc4F)c4nc(c(-c5c(F)cc(S(=O)(=O)[O-])cc5F)c5ccc2[nH]5)C=C4)C=C3)cc1
REMARK SMILES IDX 19 1 17 2 18 3 16 4 12 5 13 6 14 7 15 8 11 9 9 10 8 11 10 13
REMARK SMILES IDX 2 14 1 15 3 16 4 17 5 18 6 19 7 20 20 22 21 23 22 24 23 25
REMARK SMILES IDX 24 26 25 27 26 28 90 29 27 30 89 31 28 32 29 33 30 34 83 35
REMARK SMILES IDX 31 36 88 37 82 38 84 39 32 40 87 41 81 42 80 43 33 45 67 46
REMARK SMILES IDX 46 47 66 48 47 49 50 50 65 51 85 52 48 53 49 54 64 56 86 57
REMARK SMILES IDX 51 58 34 59 35 60 44 61 36 62 37 63 43 64 45 65 38 66 39 67
REMARK SMILES IDX 40 68 41 69 42 70 68 71 69 72 78 73 70 74 71 75 77 76 79 77
REMARK SMILES IDX 72 78 73 79 74 80 75 81 76 82 52 83 53 84 62 85 54 86 55 87
REMARK SMILES IDX 61 88 63 89 56 90 57 91 58 92 59 93 60 94
REMARK H PARENT 8 12 5 21 84 44 50 55
REMARK Flexibility Score: inf
ROOT
ATOM      1  O   UNL A   1      33.074  29.439  25.093  1.00  0.00    -0.457 OA
ENDROOT
BRANCH   1   2
ATOM      2  C   UNL A   1      32.858  28.381  24.259  1.00  0.00     0.355 C 
ATOM      3  O   UNL A   1      33.731  27.616  23.898  1.00  0.00    -0.244 OA
BRANCH   2   4
ATOM      4  C   UNL A   1      31.447  28.250  23.902  1.00  0.00     0.128 A 
ATOM      5  N   UNL A   1      30.594  27.156  23.960  1.00  0.00    -0.333 N 
ATOM      6  C   UNL A   1      29.367  27.498  23.423  1.00  0.00     0.087 A 
ATOM      7  C   UNL A   1      29.391  28.829  23.091  1.00  0.00     0.020 A 
ATOM      8  C   UNL A   1      30.683  29.301  23.397  1.00  0.00     0.035 A 
BRANCH   5   9
ATOM      9  C   UNL A   1      30.847  25.819  24.478  1.00  0.00     0.222 C 
BRANCH   9  10
ATOM     10  C   UNL A   1      31.127  25.780  25.971  1.00  0.00     0.240 C 
ATOM     11  N   UNL A   1      32.015  24.886  26.501  1.00  0.00    -0.352 N 
ATOM     12  H   UNL A   1      32.030  24.852  27.485  1.00  0.00     0.163 HD
ATOM     13  O   UNL A   1      30.491  26.487  26.758  1.00  0.00    -0.273 OA
BRANCH  11  14
ATOM     14  C   UNL A   1      32.944  23.976  25.844  1.00  0.00     0.084 C 
ATOM     15  C   UNL A   1      34.358  24.551  25.731  1.00  0.00     0.031 C 
BRANCH  14  16
ATOM     16  C   UNL A   1      32.929  22.589  26.499  1.00  0.00     0.086 C 
BRANCH  16  17
ATOM     17  C   UNL A   1      34.259  22.006  27.015  1.00  0.00     0.263 C 
BRANCH  17  18
ATOM     18  N   UNL A   1      34.741  20.839  26.254  1.00  0.00    -0.340 N 
ATOM     19  C   UNL A   1      33.610  20.182  25.583  1.00  0.00     0.332 C 
ATOM     20  C   UNL A   1      35.725  21.193  25.223  1.00  0.00     0.332 C 
ATOM     21  H   UNL A   1      35.190  20.223  26.931  1.00  0.00     0.347 HD
ENDBRANCH  17  18
ENDBRANCH  16  17
ENDBRANCH  14  16
ENDBRANCH  11  14
ENDBRANCH   9  10
ENDBRANCH   5   9
ENDBRANCH   2   4
ENDBRANCH   1   2
BRANCH   1  22
ATOM     22  C   UNL A   1      32.286  29.474  26.295  1.00  0.00     0.275 C 
BRANCH  22  23
ATOM     23  C   UNL A   1      32.806  30.526  27.276  1.00  0.00     0.275 C 
BRANCH  23  24
ATOM     24  O   UNL A   1      34.229  30.669  27.238  1.00  0.00    -0.458 OA
BRANCH  24  25
ATOM     25  C   UNL A   1      34.765  30.996  28.438  1.00  0.00     0.338 C 
ATOM     26  O   UNL A   1      34.334  31.809  29.242  1.00  0.00    -0.246 OA
BRANCH  25  27
ATOM     27  C   UNL A   1      36.052  30.337  28.626  1.00  0.00     0.060 A 
ATOM     28  C   UNL A   1      36.549  30.218  29.928  1.00  0.00     0.016 A 
ATOM     29  C   UNL A   1      36.848  30.103  27.500  1.00  0.00     0.016 A 
ATOM     30  C   UNL A   1      37.889  29.925  30.105  1.00  0.00     0.010 A 
ATOM     31  C   UNL A   1      38.196  29.850  27.678  1.00  0.00     0.010 A 
ATOM     32  C   UNL A   1      38.710  29.780  28.980  1.00  0.00    -0.014 A 
BRANCH  32  33
ATOM     33  C   UNL A   1      40.126  29.433  29.185  1.00  0.00     0.031 A 
ATOM     34  C   UNL A   1      40.957  30.669  29.562  1.00  0.00     0.074 A 
ATOM     35  C   UNL A   1      40.450  28.118  28.987  1.00  0.00     0.049 A 
ATOM     36  N   UNL A   1      42.231  30.882  29.455  1.00  0.00    -0.248 NA
ATOM     37  C   UNL A   1      40.257  31.887  30.069  1.00  0.00     0.031 C 
ATOM     38  C   UNL A   1      39.482  27.058  28.619  1.00  0.00     0.029 A 
ATOM     39  N   UNL A   1      41.625  27.397  29.051  1.00  0.00    -0.354 N 
ATOM     40  C   UNL A   1      42.505  32.122  30.074  1.00  0.00     0.074 A 
ATOM     41  C   UNL A   1      41.245  32.747  30.318  1.00  0.00     0.031 C 
ATOM     42  C   UNL A   1      40.108  25.878  28.419  1.00  0.00     0.029 A 
ATOM     43  C   UNL A   1      41.529  26.031  28.666  1.00  0.00     0.049 A 
ATOM     44  H   UNL A   1      42.474  27.801  29.343  1.00  0.00     0.167 HD
ATOM     45  C   UNL A   1      43.754  32.498  30.473  1.00  0.00     0.037 A 
ATOM     46  C   UNL A   1      42.527  25.102  28.525  1.00  0.00     0.037 A 
ATOM     47  C   UNL A   1      44.701  31.498  30.113  1.00  0.00     0.049 A 
ATOM     48  C   UNL A   1      43.732  25.761  29.051  1.00  0.00     0.074 A 
ATOM     49  C   UNL A   1      45.234  31.132  28.907  1.00  0.00     0.029 A 
ATOM     50  N   UNL A   1      44.934  30.505  31.034  1.00  0.00    -0.354 N 
ATOM     51  N   UNL A   1      43.959  26.001  30.307  1.00  0.00    -0.248 NA
ATOM     52  C   UNL A   1      44.731  26.262  28.098  1.00  0.00     0.031 C 
ATOM     53  C   UNL A   1      45.392  29.737  29.020  1.00  0.00     0.029 A 
ATOM     54  C   UNL A   1      45.119  29.338  30.334  1.00  0.00     0.049 A 
ATOM     55  H   UNL A   1      44.963  30.611  32.012  1.00  0.00     0.167 HD
ATOM     56  C   UNL A   1      44.938  26.962  30.253  1.00  0.00     0.074 A 
ATOM     57  C   UNL A   1      45.565  26.842  28.955  1.00  0.00     0.031 C 
ATOM     58  C   UNL A   1      44.809  28.090  30.997  1.00  0.00     0.037 A 
BRANCH  45  59
ATOM     59  C   UNL A   1      44.231  33.600  31.377  1.00  0.00     0.058 A 
ATOM     60  C   UNL A   1      43.897  33.516  32.751  1.00  0.00     0.135 A 
ATOM     61  C   UNL A   1      44.661  34.853  30.918  1.00  0.00     0.135 A 
ATOM     62  F   UNL A   1      43.545  32.342  33.301  1.00  0.00    -0.206 F 
ATOM     63  C   UNL A   1      43.836  34.634  33.574  1.00  0.00     0.059 A 
ATOM     64  C   UNL A   1      44.650  35.982  31.741  1.00  0.00     0.059 A 
ATOM     65  F   UNL A   1      45.018  35.037  29.639  1.00  0.00    -0.206 F 
ATOM     66  C   UNL A   1      44.173  35.873  33.046  1.00  0.00     0.060 A 
BRANCH  66  67
ATOM     67  S   UNL A   1      43.923  37.335  34.074  1.00  0.00     0.124 S 
ATOM     68  O   UNL A   1      44.953  37.161  35.091  1.00  0.00    -0.237 OA
ATOM     69  O   UNL A   1      44.147  38.423  33.126  1.00  0.00    -0.237 OA
ATOM     70  O   UNL A   1      42.545  37.190  34.532  1.00  0.00    -0.744 OA
ENDBRANCH  66  67
ENDBRANCH  45  59
BRANCH  46  71
ATOM     71  C   UNL A   1      42.738  23.723  27.921  1.00  0.00     0.058 A 
ATOM     72  C   UNL A   1      43.094  22.555  28.608  1.00  0.00     0.135 A 
ATOM     73  C   UNL A   1      42.397  23.503  26.552  1.00  0.00     0.135 A 
ATOM     74  F   UNL A   1      43.571  22.603  29.856  1.00  0.00    -0.206 F 
ATOM     75  C   UNL A   1      42.956  21.273  28.041  1.00  0.00     0.059 A 
ATOM     76  C   UNL A   1      42.198  22.246  25.987  1.00  0.00     0.059 A 
ATOM     77  F   UNL A   1      42.191  24.520  25.702  1.00  0.00    -0.206 F 
ATOM     78  C   UNL A   1      42.446  21.127  26.752  1.00  0.00     0.060 A 
BRANCH  78  79
ATOM     79  S   UNL A   1      41.969  19.506  26.113  1.00  0.00     0.124 S 
ATOM     80  O   UNL A   1      42.305  18.627  27.226  1.00  0.00    -0.237 OA
ATOM     81  O   UNL A   1      40.544  19.677  25.842  1.00  0.00    -0.237 OA
ATOM     82  O   UNL A   1      42.804  19.364  24.921  1.00  0.00    -0.744 OA
ENDBRANCH  78  79
ENDBRANCH  46  71
BRANCH  58  83
ATOM     83  C   UNL A   1      43.989  27.920  32.263  1.00  0.00     0.058 A 
ATOM     84  C   UNL A   1      44.491  27.147  33.321  1.00  0.00     0.135 A 
ATOM     85  C   UNL A   1      42.685  28.417  32.432  1.00  0.00     0.135 A 
ATOM     86  F   UNL A   1      45.727  26.629  33.241  1.00  0.00    -0.206 F 
ATOM     87  C   UNL A   1      43.750  26.890  34.479  1.00  0.00     0.059 A 
ATOM     88  C   UNL A   1      41.923  28.188  33.582  1.00  0.00     0.059 A 
ATOM     89  F   UNL A   1      42.108  29.143  31.475  1.00  0.00    -0.206 F 
ATOM     90  C   UNL A   1      42.465  27.418  34.605  1.00  0.00     0.060 A 
BRANCH  90  91
ATOM     91  S   UNL A   1      41.531  27.104  36.120  1.00  0.00     0.124 S 
ATOM     92  O   UNL A   1      40.769  28.338  36.282  1.00  0.00    -0.237 OA
ATOM     93  O   UNL A   1      40.752  25.923  35.760  1.00  0.00    -0.237 OA
ATOM     94  O   UNL A   1      42.566  26.880  37.127  1.00  0.00    -0.744 OA
ENDBRANCH  90  91
ENDBRANCH  58  83
ENDBRANCH  32  33
ENDBRANCH  25  27
ENDBRANCH  24  25
ENDBRANCH  23  24
ENDBRANCH  22  23
ENDBRANCH   1  22
TORSDOF 20
ENDMDL
