MODEL 1
REMARK VINA RESULT:     -11.8      0.000      0.000
REMARK SMILES CCC1(CC)CCN(C(=O)NC(CC)(CC)C(=O)OCCOC(=O)c2ccc(-c3c4nc(c(-c5c(F)cc(S(=O)(=O)[O-])cc5F)c5ccc([nH]5)c(-c5c(F)cc(S(=O)(=O)[O-])cc5F)c5nc(c(-c6c(F)cc(S(=O)(=O)[O-])cc6F)c6ccc3[nH]6)C=C5)C=C4)cc2)CC1
REMARK SMILES IDX 21 1 20 2 19 3 17 4 18 5 12 6 11 7 3 8 6 9 92 10 7 11 91 12
REMARK SMILES IDX 8 13 9 14 10 15 2 17 1 18 4 19 5 20 13 21 14 22 15 23 16 24
REMARK SMILES IDX 22 25 23 26 24 27 25 28 26 29 90 30 27 31 89 32 28 33 29 34
REMARK SMILES IDX 30 35 83 36 31 37 88 38 82 39 84 40 32 41 87 42 81 43 80 44
REMARK SMILES IDX 33 46 67 47 46 48 66 49 47 50 50 51 65 52 85 53 48 54 49 55
REMARK SMILES IDX 64 57 86 58 51 59 34 60 35 61 44 62 36 63 37 64 43 65 45 66
REMARK SMILES IDX 38 67 39 68 40 69 41 70 42 71 68 72 69 73 78 74 70 75 71 76
REMARK SMILES IDX 77 77 79 78 72 79 73 80 74 81 75 82 76 83 52 84 53 85 62 86
REMARK SMILES IDX 54 87 55 88 61 89 63 90 56 91 57 92 58 93 59 94 60 95
REMARK H PARENT 11 16 84 45 50 56
REMARK Flexibility Score: inf
ROOT
ATOM      1  C   UNL A   1      33.918  29.730  27.244  1.00  0.00     0.275 C 
ENDROOT
BRANCH   1   2
ATOM      2  C   UNL A   1      33.653  29.386  25.687  1.00  0.00     0.274 C 
BRANCH   2   3
ATOM      3  O   UNL A   1      32.380  28.975  25.186  1.00  0.00    -0.460 OA
BRANCH   3   4
ATOM      4  C   UNL A   1      32.116  27.646  25.106  1.00  0.00     0.332 C 
ATOM      5  O   UNL A   1      32.569  26.828  25.897  1.00  0.00    -0.249 OA
BRANCH   4   6
ATOM      6  C   UNL A   1      30.981  27.357  24.040  1.00  0.00     0.139 C 
BRANCH   6   7
ATOM      7  N   UNL A   1      31.650  26.900  22.802  1.00  0.00    -0.322 N 
ATOM      8  C   UNL A   1      33.288  21.479  25.023  1.00  0.00    -0.027 C 
ATOM      9  C   UNL A   1      34.760  22.449  24.198  1.00  0.00     0.028 C 
ATOM     10  C   UNL A   1      31.590  22.434  25.064  1.00  0.00     0.028 C 
ATOM     11  C   UNL A   1      34.457  24.101  23.217  1.00  0.00     0.122 C 
ATOM     12  C   UNL A   1      31.331  24.043  24.016  1.00  0.00     0.122 C 
ATOM     13  N   UNL A   1      32.821  24.938  23.390  1.00  0.00    -0.325 N 
ATOM     14  C   UNL A   1      32.757  26.125  22.706  1.00  0.00     0.318 C 
ATOM     15  O   UNL A   1      33.651  26.491  21.946  1.00  0.00    -0.249 OA
ATOM     16  H   UNL A   1      31.244  27.190  21.954  1.00  0.00     0.166 HD
BRANCH   8  17
ATOM     17  C   UNL A   1      33.419  20.982  26.535  1.00  0.00     0.004 C 
ATOM     18  C   UNL A   1      34.354  21.894  27.361  1.00  0.00     0.004 C 
ENDBRANCH   8  17
BRANCH   8  19
ATOM     19  C   UNL A   1      33.382  20.088  24.238  1.00  0.00     0.004 C 
ATOM     20  C   UNL A   1      32.710  18.913  24.982  1.00  0.00     0.004 C 
ENDBRANCH   8  19
ENDBRANCH   6   7
BRANCH   6  21
ATOM     21  C   UNL A   1      30.360  28.773  23.753  1.00  0.00     0.037 C 
ATOM     22  C   UNL A   1      30.413  29.262  22.300  1.00  0.00     0.007 C 
ENDBRANCH   6  21
BRANCH   6  23
ATOM     23  C   UNL A   1      29.803  26.433  24.527  1.00  0.00     0.037 C 
ATOM     24  C   UNL A   1      28.418  26.554  23.880  1.00  0.00     0.007 C 
ENDBRANCH   6  23
ENDBRANCH   4   6
ENDBRANCH   3   4
ENDBRANCH   2   3
ENDBRANCH   1   2
BRANCH   1  25
ATOM     25  O   UNL A   1      35.427  29.593  28.442  1.00  0.00    -0.458 OA
BRANCH  25  26
ATOM     26  C   UNL A   1      36.320  29.727  29.550  1.00  0.00     0.338 C 
ATOM     27  O   UNL A   1      36.034  29.757  30.748  1.00  0.00    -0.246 OA
BRANCH  26  28
ATOM     28  C   UNL A   1      37.758  29.645  29.299  1.00  0.00     0.060 A 
ATOM     29  C   UNL A   1      38.217  29.588  27.978  1.00  0.00     0.016 A 
ATOM     30  C   UNL A   1      38.593  29.293  30.362  1.00  0.00     0.016 A 
ATOM     31  C   UNL A   1      39.533  29.279  27.717  1.00  0.00     0.010 A 
ATOM     32  C   UNL A   1      39.912  28.966  30.106  1.00  0.00     0.010 A 
ATOM     33  C   UNL A   1      40.371  28.970  28.785  1.00  0.00    -0.014 A 
BRANCH  33  34
ATOM     34  C   UNL A   1      41.757  28.607  28.513  1.00  0.00     0.031 A 
ATOM     35  C   UNL A   1      42.799  29.667  28.612  1.00  0.00     0.074 A 
ATOM     36  C   UNL A   1      41.988  27.329  28.180  1.00  0.00     0.049 A 
ATOM     37  N   UNL A   1      44.054  29.614  28.279  1.00  0.00    -0.248 NA
ATOM     38  C   UNL A   1      42.363  30.974  29.142  1.00  0.00     0.031 C 
ATOM     39  C   UNL A   1      40.965  26.276  28.136  1.00  0.00     0.029 A 
ATOM     40  N   UNL A   1      43.138  26.694  27.827  1.00  0.00    -0.354 N 
ATOM     41  C   UNL A   1      44.557  30.885  28.522  1.00  0.00     0.074 A 
ATOM     42  C   UNL A   1      43.471  31.692  29.029  1.00  0.00     0.031 C 
ATOM     43  C   UNL A   1      41.545  25.115  27.796  1.00  0.00     0.029 A 
ATOM     44  C   UNL A   1      42.956  25.361  27.547  1.00  0.00     0.049 A 
ATOM     45  H   UNL A   1      44.012  27.144  27.777  1.00  0.00     0.167 HD
ATOM     46  C   UNL A   1      45.823  31.317  28.317  1.00  0.00     0.037 A 
ATOM     47  C   UNL A   1      43.856  24.461  27.116  1.00  0.00     0.037 A 
ATOM     48  C   UNL A   1      46.842  30.446  27.790  1.00  0.00     0.049 A 
ATOM     49  C   UNL A   1      45.256  24.965  26.909  1.00  0.00     0.074 A 
ATOM     50  C   UNL A   1      48.148  30.731  27.448  1.00  0.00     0.029 A 
ATOM     51  N   UNL A   1      46.645  29.088  27.540  1.00  0.00    -0.354 N 
ATOM     52  N   UNL A   1      45.720  26.186  27.073  1.00  0.00    -0.248 NA
ATOM     53  C   UNL A   1      46.252  23.994  26.456  1.00  0.00     0.031 C 
ATOM     54  C   UNL A   1      48.733  29.549  26.975  1.00  0.00     0.029 A 
ATOM     55  C   UNL A   1      47.806  28.517  27.060  1.00  0.00     0.049 A 
ATOM     56  H   UNL A   1      45.800  28.606  27.685  1.00  0.00     0.167 HD
ATOM     57  C   UNL A   1      47.068  26.130  26.758  1.00  0.00     0.074 A 
ATOM     58  C   UNL A   1      47.345  24.745  26.411  1.00  0.00     0.031 C 
ATOM     59  C   UNL A   1      47.997  27.119  26.744  1.00  0.00     0.037 A 
BRANCH  46  60
ATOM     60  C   UNL A   1      46.106  32.766  28.601  1.00  0.00     0.058 A 
ATOM     61  C   UNL A   1      46.458  33.212  29.887  1.00  0.00     0.135 A 
ATOM     62  C   UNL A   1      45.941  33.738  27.602  1.00  0.00     0.135 A 
ATOM     63  F   UNL A   1      46.605  32.333  30.891  1.00  0.00    -0.206 F 
ATOM     64  C   UNL A   1      46.585  34.568  30.182  1.00  0.00     0.059 A 
ATOM     65  C   UNL A   1      46.084  35.098  27.869  1.00  0.00     0.059 A 
ATOM     66  F   UNL A   1      45.594  33.375  26.357  1.00  0.00    -0.206 F 
ATOM     67  C   UNL A   1      46.381  35.505  29.168  1.00  0.00     0.060 A 
BRANCH  67  68
ATOM     68  S   UNL A   1      46.484  37.263  29.577  1.00  0.00     0.124 S 
ATOM     69  O   UNL A   1      46.880  37.838  28.295  1.00  0.00    -0.237 OA
ATOM     70  O   UNL A   1      45.123  37.566  30.012  1.00  0.00    -0.237 OA
ATOM     71  O   UNL A   1      47.497  37.309  30.626  1.00  0.00    -0.744 OA
ENDBRANCH  67  68
ENDBRANCH  46  60
BRANCH  47  72
ATOM     72  C   UNL A   1      43.452  23.050  26.884  1.00  0.00     0.058 A 
ATOM     73  C   UNL A   1      43.413  22.516  25.588  1.00  0.00     0.135 A 
ATOM     74  C   UNL A   1      43.155  22.185  27.950  1.00  0.00     0.135 A 
ATOM     75  F   UNL A   1      43.702  23.293  24.533  1.00  0.00    -0.206 F 
ATOM     76  C   UNL A   1      43.074  21.185  25.354  1.00  0.00     0.059 A 
ATOM     77  C   UNL A   1      42.839  20.845  27.745  1.00  0.00     0.059 A 
ATOM     78  F   UNL A   1      43.207  22.633  29.215  1.00  0.00    -0.206 F 
ATOM     79  C   UNL A   1      42.785  20.357  26.441  1.00  0.00     0.060 A 
BRANCH  79  80
ATOM     80  S   UNL A   1      42.365  18.628  26.130  1.00  0.00     0.124 S 
ATOM     81  O   UNL A   1      42.604  18.031  27.441  1.00  0.00    -0.237 OA
ATOM     82  O   UNL A   1      40.969  18.717  25.716  1.00  0.00    -0.237 OA
ATOM     83  O   UNL A   1      43.301  18.237  25.081  1.00  0.00    -0.744 OA
ENDBRANCH  79  80
ENDBRANCH  47  72
BRANCH  59  84
ATOM     84  C   UNL A   1      49.386  26.706  26.373  1.00  0.00     0.058 A 
ATOM     85  C   UNL A   1      50.259  26.154  27.322  1.00  0.00     0.135 A 
ATOM     86  C   UNL A   1      49.820  26.817  25.044  1.00  0.00     0.135 A 
ATOM     87  F   UNL A   1      49.883  26.041  28.605  1.00  0.00    -0.206 F 
ATOM     88  C   UNL A   1      51.534  25.739  26.965  1.00  0.00     0.059 A 
ATOM     89  C   UNL A   1      51.082  26.386  24.662  1.00  0.00     0.059 A 
ATOM     90  F   UNL A   1      49.010  27.335  24.108  1.00  0.00    -0.206 F 
ATOM     91  C   UNL A   1      51.935  25.857  25.631  1.00  0.00     0.060 A 
BRANCH  91  92
ATOM     92  S   UNL A   1      53.575  25.271  25.168  1.00  0.00     0.124 S 
ATOM     93  O   UNL A   1      54.416  25.962  26.138  1.00  0.00    -0.237 OA
ATOM     94  O   UNL A   1      53.454  23.827  25.347  1.00  0.00    -0.237 OA
ATOM     95  O   UNL A   1      53.713  25.714  23.784  1.00  0.00    -0.744 OA
ENDBRANCH  91  92
ENDBRANCH  59  84
ENDBRANCH  33  34
ENDBRANCH  26  28
ENDBRANCH  25  26
ENDBRANCH   1  25
TORSDOF 19
ENDMDL
MODEL 2
REMARK VINA RESULT:     -11.2      1.094      8.469
REMARK SMILES CCC1(CC)CCN(C(=O)NC(CC)(CC)C(=O)OCCOC(=O)c2ccc(-c3c4nc(c(-c5c(F)cc(S(=O)(=O)[O-])cc5F)c5ccc([nH]5)c(-c5c(F)cc(S(=O)(=O)[O-])cc5F)c5nc(c(-c6c(F)cc(S(=O)(=O)[O-])cc6F)c6ccc3[nH]6)C=C5)C=C4)cc2)CC1
REMARK SMILES IDX 21 1 20 2 19 3 17 4 18 5 12 6 11 7 3 8 6 9 92 10 7 11 91 12
REMARK SMILES IDX 8 13 9 14 10 15 2 17 1 18 4 19 5 20 13 21 14 22 15 23 16 24
REMARK SMILES IDX 22 25 23 26 24 27 25 28 26 29 90 30 27 31 89 32 28 33 29 34
REMARK SMILES IDX 30 35 83 36 31 37 88 38 82 39 84 40 32 41 87 42 81 43 80 44
REMARK SMILES IDX 33 46 67 47 46 48 66 49 47 50 50 51 65 52 85 53 48 54 49 55
REMARK SMILES IDX 64 57 86 58 51 59 34 60 35 61 44 62 36 63 37 64 43 65 45 66
REMARK SMILES IDX 38 67 39 68 40 69 41 70 42 71 68 72 69 73 78 74 70 75 71 76
REMARK SMILES IDX 77 77 79 78 72 79 73 80 74 81 75 82 76 83 52 84 53 85 62 86
REMARK SMILES IDX 54 87 55 88 61 89 63 90 56 91 57 92 58 93 59 94 60 95
REMARK H PARENT 11 16 84 45 50 56
REMARK Flexibility Score: inf
ROOT
ATOM      1  C   UNL A   1      34.328  29.565  27.620  1.00  0.00     0.275 C 
ENDROOT
BRANCH   1   2
ATOM      2  C   UNL A   1      33.112  30.405  26.967  1.00  0.00     0.274 C 
BRANCH   2   3
ATOM      3  O   UNL A   1      31.835  29.832  26.680  1.00  0.00    -0.460 OA
BRANCH   3   4
ATOM      4  C   UNL A   1      31.730  28.480  26.633  1.00  0.00     0.332 C 
ATOM      5  O   UNL A   1      31.488  27.796  27.620  1.00  0.00    -0.249 OA
BRANCH   4   6
ATOM      6  C   UNL A   1      31.712  27.964  25.136  1.00  0.00     0.139 C 
BRANCH   6   7
ATOM      7  N   UNL A   1      30.712  26.877  25.061  1.00  0.00    -0.322 N 
ATOM      8  C   UNL A   1      34.796  22.371  24.923  1.00  0.00    -0.027 C 
ATOM      9  C   UNL A   1      33.470  22.251  23.503  1.00  0.00     0.028 C 
ATOM     10  C   UNL A   1      34.633  23.934  26.074  1.00  0.00     0.028 C 
ATOM     11  C   UNL A   1      31.929  23.436  23.457  1.00  0.00     0.122 C 
ATOM     12  C   UNL A   1      33.044  25.042  26.024  1.00  0.00     0.122 C 
ATOM     13  N   UNL A   1      31.927  24.918  24.559  1.00  0.00    -0.325 N 
ATOM     14  C   UNL A   1      30.819  25.708  24.385  1.00  0.00     0.318 C 
ATOM     15  O   UNL A   1      29.875  25.364  23.676  1.00  0.00    -0.249 OA
ATOM     16  H   UNL A   1      29.875  27.018  25.559  1.00  0.00     0.166 HD
BRANCH   8  17
ATOM     17  C   UNL A   1      36.350  22.400  24.552  1.00  0.00     0.004 C 
ATOM     18  C   UNL A   1      36.591  22.953  23.130  1.00  0.00     0.004 C 
ENDBRANCH   8  17
BRANCH   8  19
ATOM     19  C   UNL A   1      34.665  20.912  25.565  1.00  0.00     0.004 C 
ATOM     20  C   UNL A   1      35.575  19.858  24.894  1.00  0.00     0.004 C 
ENDBRANCH   8  19
ENDBRANCH   6   7
BRANCH   6  21
ATOM     21  C   UNL A   1      33.134  27.320  24.940  1.00  0.00     0.037 C 
ATOM     22  C   UNL A   1      33.973  27.856  23.773  1.00  0.00     0.007 C 
ENDBRANCH   6  21
BRANCH   6  23
ATOM     23  C   UNL A   1      31.558  29.073  24.030  1.00  0.00     0.037 C 
ATOM     24  C   UNL A   1      30.161  29.492  23.556  1.00  0.00     0.007 C 
ENDBRANCH   6  23
ENDBRANCH   4   6
ENDBRANCH   3   4
ENDBRANCH   2   3
ENDBRANCH   1   2
BRANCH   1  25
ATOM     25  O   UNL A   1      35.546  29.834  29.096  1.00  0.00    -0.458 OA
BRANCH  25  26
ATOM     26  C   UNL A   1      36.567  29.674  30.082  1.00  0.00     0.338 C 
ATOM     27  O   UNL A   1      36.427  29.390  31.272  1.00  0.00    -0.246 OA
BRANCH  26  28
ATOM     28  C   UNL A   1      37.962  29.661  29.643  1.00  0.00     0.060 A 
ATOM     29  C   UNL A   1      38.245  29.626  28.273  1.00  0.00     0.016 A 
ATOM     30  C   UNL A   1      38.945  29.347  30.585  1.00  0.00     0.016 A 
ATOM     31  C   UNL A   1      39.528  29.380  27.839  1.00  0.00     0.010 A 
ATOM     32  C   UNL A   1      40.233  29.083  30.156  1.00  0.00     0.010 A 
ATOM     33  C   UNL A   1      40.513  29.110  28.786  1.00  0.00    -0.014 A 
BRANCH  33  34
ATOM     34  C   UNL A   1      41.867  28.813  28.331  1.00  0.00     0.031 A 
ATOM     35  C   UNL A   1      42.176  27.425  27.887  1.00  0.00     0.074 A 
ATOM     36  C   UNL A   1      42.743  29.828  28.356  1.00  0.00     0.049 A 
ATOM     37  N   UNL A   1      43.326  26.901  27.585  1.00  0.00    -0.248 NA
ATOM     38  C   UNL A   1      41.037  26.493  27.789  1.00  0.00     0.031 C 
ATOM     39  C   UNL A   1      42.419  31.206  28.743  1.00  0.00     0.029 A 
ATOM     40  N   UNL A   1      44.068  29.869  28.049  1.00  0.00    -0.354 N 
ATOM     41  C   UNL A   1      43.063  25.569  27.294  1.00  0.00     0.074 A 
ATOM     42  C   UNL A   1      41.642  25.362  27.458  1.00  0.00     0.031 C 
ATOM     43  C   UNL A   1      43.519  31.965  28.627  1.00  0.00     0.029 A 
ATOM     44  C   UNL A   1      44.624  31.113  28.215  1.00  0.00     0.049 A 
ATOM     45  H   UNL A   1      44.577  29.084  27.739  1.00  0.00     0.167 HD
ATOM     46  C   UNL A   1      43.956  24.618  26.934  1.00  0.00     0.037 A 
ATOM     47  C   UNL A   1      45.904  31.492  28.059  1.00  0.00     0.037 A 
ATOM     48  C   UNL A   1      45.360  24.908  26.811  1.00  0.00     0.049 A 
ATOM     49  C   UNL A   1      46.870  30.417  27.648  1.00  0.00     0.074 A 
ATOM     50  C   UNL A   1      46.411  24.057  26.535  1.00  0.00     0.029 A 
ATOM     51  N   UNL A   1      45.901  26.186  26.954  1.00  0.00    -0.354 N 
ATOM     52  N   UNL A   1      46.635  29.140  27.438  1.00  0.00    -0.248 NA
ATOM     53  C   UNL A   1      48.265  30.816  27.459  1.00  0.00     0.031 C 
ATOM     54  C   UNL A   1      47.587  24.819  26.529  1.00  0.00     0.029 A 
ATOM     55  C   UNL A   1      47.267  26.152  26.760  1.00  0.00     0.049 A 
ATOM     56  H   UNL A   1      45.383  26.996  27.163  1.00  0.00     0.167 HD
ATOM     57  C   UNL A   1      47.849  28.580  27.076  1.00  0.00     0.074 A 
ATOM     58  C   UNL A   1      48.814  29.669  27.079  1.00  0.00     0.031 C 
ATOM     59  C   UNL A   1      48.156  27.292  26.775  1.00  0.00     0.037 A 
BRANCH  46  60
ATOM     60  C   UNL A   1      43.427  23.225  26.732  1.00  0.00     0.058 A 
ATOM     61  C   UNL A   1      43.036  22.417  27.814  1.00  0.00     0.135 A 
ATOM     62  C   UNL A   1      43.390  22.651  25.451  1.00  0.00     0.135 A 
ATOM     63  F   UNL A   1      43.075  22.900  29.067  1.00  0.00    -0.206 F 
ATOM     64  C   UNL A   1      42.678  21.082  27.640  1.00  0.00     0.059 A 
ATOM     65  C   UNL A   1      43.013  21.325  25.250  1.00  0.00     0.059 A 
ATOM     66  F   UNL A   1      43.761  23.369  24.379  1.00  0.00    -0.206 F 
ATOM     67  C   UNL A   1      42.684  20.540  26.354  1.00  0.00     0.060 A 
BRANCH  67  68
ATOM     68  S   UNL A   1      42.281  18.790  26.147  1.00  0.00     0.124 S 
ATOM     69  O   UNL A   1      42.546  18.270  27.485  1.00  0.00    -0.237 OA
ATOM     70  O   UNL A   1      40.876  18.835  25.753  1.00  0.00    -0.237 OA
ATOM     71  O   UNL A   1      43.205  18.349  25.108  1.00  0.00    -0.744 OA
ENDBRANCH  67  68
ENDBRANCH  46  60
BRANCH  47  72
ATOM     72  C   UNL A   1      46.298  32.908  28.278  1.00  0.00     0.058 A 
ATOM     73  C   UNL A   1      46.816  33.330  29.511  1.00  0.00     0.135 A 
ATOM     74  C   UNL A   1      46.228  33.858  27.246  1.00  0.00     0.135 A 
ATOM     75  F   UNL A   1      46.920  32.460  30.527  1.00  0.00    -0.206 F 
ATOM     76  C   UNL A   1      47.226  34.643  29.722  1.00  0.00     0.059 A 
ATOM     77  C   UNL A   1      46.656  35.171  27.423  1.00  0.00     0.059 A 
ATOM     78  F   UNL A   1      45.770  33.504  26.034  1.00  0.00    -0.206 F 
ATOM     79  C   UNL A   1      47.140  35.559  28.671  1.00  0.00     0.060 A 
BRANCH  79  80
ATOM     80  S   UNL A   1      47.693  37.256  28.947  1.00  0.00     0.124 S 
ATOM     81  O   UNL A   1      48.997  37.040  29.569  1.00  0.00    -0.237 OA
ATOM     82  O   UNL A   1      47.716  37.799  27.593  1.00  0.00    -0.237 OA
ATOM     83  O   UNL A   1      46.664  37.809  29.821  1.00  0.00    -0.744 OA
ENDBRANCH  79  80
ENDBRANCH  47  72
BRANCH  59  84
ATOM     84  C   UNL A   1      49.579  27.030  26.399  1.00  0.00     0.058 A 
ATOM     85  C   UNL A   1      50.541  26.708  27.366  1.00  0.00     0.135 A 
ATOM     86  C   UNL A   1      49.963  27.054  25.050  1.00  0.00     0.135 A 
ATOM     87  F   UNL A   1      50.214  26.686  28.667  1.00  0.00    -0.206 F 
ATOM     88  C   UNL A   1      51.852  26.432  27.007  1.00  0.00     0.059 A 
ATOM     89  C   UNL A   1      51.264  26.757  24.667  1.00  0.00     0.059 A 
ATOM     90  F   UNL A   1      49.068  27.353  24.096  1.00  0.00    -0.206 F 
ATOM     91  C   UNL A   1      52.203  26.457  25.654  1.00  0.00     0.060 A 
BRANCH  91  92
ATOM     92  S   UNL A   1      53.898  26.049  25.194  1.00  0.00     0.124 S 
ATOM     93  O   UNL A   1      53.685  25.088  24.118  1.00  0.00    -0.237 OA
ATOM     94  O   UNL A   1      54.434  27.346  24.791  1.00  0.00    -0.237 OA
ATOM     95  O   UNL A   1      54.458  25.503  26.426  1.00  0.00    -0.744 OA
ENDBRANCH  91  92
ENDBRANCH  59  84
ENDBRANCH  33  34
ENDBRANCH  26  28
ENDBRANCH  25  26
ENDBRANCH   1  25
TORSDOF 19
ENDMDL
MODEL 3
REMARK VINA RESULT:     -11.2      2.427      3.436
REMARK SMILES CCC1(CC)CCN(C(=O)NC(CC)(CC)C(=O)OCCOC(=O)c2ccc(-c3c4nc(c(-c5c(F)cc(S(=O)(=O)[O-])cc5F)c5ccc([nH]5)c(-c5c(F)cc(S(=O)(=O)[O-])cc5F)c5nc(c(-c6c(F)cc(S(=O)(=O)[O-])cc6F)c6ccc3[nH]6)C=C5)C=C4)cc2)CC1
REMARK SMILES IDX 21 1 20 2 19 3 17 4 18 5 12 6 11 7 3 8 6 9 92 10 7 11 91 12
REMARK SMILES IDX 8 13 9 14 10 15 2 17 1 18 4 19 5 20 13 21 14 22 15 23 16 24
REMARK SMILES IDX 22 25 23 26 24 27 25 28 26 29 90 30 27 31 89 32 28 33 29 34
REMARK SMILES IDX 30 35 83 36 31 37 88 38 82 39 84 40 32 41 87 42 81 43 80 44
REMARK SMILES IDX 33 46 67 47 46 48 66 49 47 50 50 51 65 52 85 53 48 54 49 55
REMARK SMILES IDX 64 57 86 58 51 59 34 60 35 61 44 62 36 63 37 64 43 65 45 66
REMARK SMILES IDX 38 67 39 68 40 69 41 70 42 71 68 72 69 73 78 74 70 75 71 76
REMARK SMILES IDX 77 77 79 78 72 79 73 80 74 81 75 82 76 83 52 84 53 85 62 86
REMARK SMILES IDX 54 87 55 88 61 89 63 90 56 91 57 92 58 93 59 94 60 95
REMARK H PARENT 11 16 84 45 50 56
REMARK Flexibility Score: inf
ROOT
ATOM      1  C   UNL A   1      32.953  29.580  25.626  1.00  0.00     0.275 C 
ENDROOT
BRANCH   1   2
ATOM      2  C   UNL A   1      33.473  28.805  24.307  1.00  0.00     0.274 C 
BRANCH   2   3
ATOM      3  O   UNL A   1      33.302  27.400  24.111  1.00  0.00    -0.460 OA
BRANCH   3   4
ATOM      4  C   UNL A   1      33.780  26.552  25.056  1.00  0.00     0.332 C 
ATOM      5  O   UNL A   1      34.192  26.933  26.145  1.00  0.00    -0.249 OA
BRANCH   4   6
ATOM      6  C   UNL A   1      33.500  25.045  24.660  1.00  0.00     0.139 C 
BRANCH   6   7
ATOM      7  N   UNL A   1      34.653  24.584  23.854  1.00  0.00    -0.322 N 
ATOM      8  C   UNL A   1      33.529  18.655  24.611  1.00  0.00    -0.027 C 
ATOM      9  C   UNL A   1      35.367  19.147  25.018  1.00  0.00     0.028 C 
ATOM     10  C   UNL A   1      32.367  20.138  24.116  1.00  0.00     0.028 C 
ATOM     11  C   UNL A   1      36.041  20.932  24.644  1.00  0.00     0.122 C 
ATOM     12  C   UNL A   1      33.106  21.879  23.696  1.00  0.00     0.122 C 
ATOM     13  N   UNL A   1      34.826  22.264  24.245  1.00  0.00    -0.325 N 
ATOM     14  C   UNL A   1      35.420  23.488  24.069  1.00  0.00     0.318 C 
ATOM     15  O   UNL A   1      36.641  23.625  24.035  1.00  0.00    -0.249 OA
ATOM     16  H   UNL A   1      34.888  25.136  23.073  1.00  0.00     0.166 HD
BRANCH   8  17
ATOM     17  C   UNL A   1      32.649  17.905  25.713  1.00  0.00     0.004 C 
ATOM     18  C   UNL A   1      32.937  16.387  25.744  1.00  0.00     0.004 C 
ENDBRANCH   8  17
BRANCH   8  19
ATOM     19  C   UNL A   1      33.772  17.471  23.562  1.00  0.00     0.004 C 
ATOM     20  C   UNL A   1      32.876  17.564  22.307  1.00  0.00     0.004 C 
ENDBRANCH   8  19
ENDBRANCH   6   7
BRANCH   6  21
ATOM     21  C   UNL A   1      32.253  25.129  23.705  1.00  0.00     0.037 C 
ATOM     22  C   UNL A   1      32.540  25.087  22.199  1.00  0.00     0.007 C 
ENDBRANCH   6  21
BRANCH   6  23
ATOM     23  C   UNL A   1      33.105  24.086  25.844  1.00  0.00     0.037 C 
ATOM     24  C   UNL A   1      31.828  24.352  26.649  1.00  0.00     0.007 C 
ENDBRANCH   6  23
ENDBRANCH   4   6
ENDBRANCH   3   4
ENDBRANCH   2   3
ENDBRANCH   1   2
BRANCH   1  25
ATOM     25  O   UNL A   1      33.750  30.138  27.295  1.00  0.00    -0.458 OA
BRANCH  25  26
ATOM     26  C   UNL A   1      34.622  30.681  28.288  1.00  0.00     0.338 C 
ATOM     27  O   UNL A   1      34.349  31.505  29.162  1.00  0.00    -0.246 OA
BRANCH  26  28
ATOM     28  C   UNL A   1      35.953  30.095  28.441  1.00  0.00     0.060 A 
ATOM     29  C   UNL A   1      36.400  29.743  29.720  1.00  0.00     0.016 A 
ATOM     30  C   UNL A   1      36.851  30.214  27.378  1.00  0.00     0.016 A 
ATOM     31  C   UNL A   1      37.721  29.410  29.923  1.00  0.00     0.010 A 
ATOM     32  C   UNL A   1      38.182  29.896  27.577  1.00  0.00     0.010 A 
ATOM     33  C   UNL A   1      38.602  29.490  28.848  1.00  0.00    -0.014 A 
BRANCH  33  34
ATOM     34  C   UNL A   1      40.009  29.173  29.064  1.00  0.00     0.031 A 
ATOM     35  C   UNL A   1      40.894  30.230  29.628  1.00  0.00     0.074 A 
ATOM     36  C   UNL A   1      40.404  27.937  28.723  1.00  0.00     0.049 A 
ATOM     37  N   UNL A   1      42.187  30.225  29.768  1.00  0.00    -0.248 NA
ATOM     38  C   UNL A   1      40.237  31.470  30.080  1.00  0.00     0.031 C 
ATOM     39  C   UNL A   1      39.517  26.883  28.217  1.00  0.00     0.029 A 
ATOM     40  N   UNL A   1      41.633  27.355  28.754  1.00  0.00    -0.354 N 
ATOM     41  C   UNL A   1      42.509  31.471  30.291  1.00  0.00     0.074 A 
ATOM     42  C   UNL A   1      41.275  32.209  30.441  1.00  0.00     0.031 C 
ATOM     43  C   UNL A   1      40.234  25.769  28.006  1.00  0.00     0.029 A 
ATOM     44  C   UNL A   1      41.628  26.056  28.308  1.00  0.00     0.049 A 
ATOM     45  H   UNL A   1      42.445  27.818  29.065  1.00  0.00     0.167 HD
ATOM     46  C   UNL A   1      43.742  31.935  30.597  1.00  0.00     0.037 A 
ATOM     47  C   UNL A   1      42.663  25.214  28.153  1.00  0.00     0.037 A 
ATOM     48  C   UNL A   1      44.922  31.135  30.399  1.00  0.00     0.049 A 
ATOM     49  C   UNL A   1      44.019  25.753  28.513  1.00  0.00     0.074 A 
ATOM     50  C   UNL A   1      46.249  31.468  30.580  1.00  0.00     0.029 A 
ATOM     51  N   UNL A   1      44.892  29.807  29.974  1.00  0.00    -0.354 N 
ATOM     52  N   UNL A   1      44.335  26.956  28.943  1.00  0.00    -0.248 NA
ATOM     53  C   UNL A   1      45.156  24.844  28.365  1.00  0.00     0.031 C 
ATOM     54  C   UNL A   1      47.020  30.346  30.246  1.00  0.00     0.029 A 
ATOM     55  C   UNL A   1      46.174  29.300  29.897  1.00  0.00     0.049 A 
ATOM     56  H   UNL A   1      44.075  29.302  29.759  1.00  0.00     0.167 HD
ATOM     57  C   UNL A   1      45.707  26.948  29.134  1.00  0.00     0.074 A 
ATOM     58  C   UNL A   1      46.156  25.608  28.786  1.00  0.00     0.031 C 
ATOM     59  C   UNL A   1      46.532  27.944  29.546  1.00  0.00     0.037 A 
BRANCH  46  60
ATOM     60  C   UNL A   1      43.835  33.351  31.094  1.00  0.00     0.058 A 
ATOM     61  C   UNL A   1      43.965  34.438  30.212  1.00  0.00     0.135 A 
ATOM     62  C   UNL A   1      43.884  33.626  32.470  1.00  0.00     0.135 A 
ATOM     63  F   UNL A   1      43.953  34.236  28.884  1.00  0.00    -0.206 F 
ATOM     64  C   UNL A   1      44.191  35.734  30.674  1.00  0.00     0.059 A 
ATOM     65  C   UNL A   1      44.086  34.917  32.955  1.00  0.00     0.059 A 
ATOM     66  F   UNL A   1      43.776  32.629  33.363  1.00  0.00    -0.206 F 
ATOM     67  C   UNL A   1      44.264  35.960  32.049  1.00  0.00     0.060 A 
BRANCH  67  68
ATOM     68  S   UNL A   1      44.621  37.633  32.635  1.00  0.00     0.124 S 
ATOM     69  O   UNL A   1      46.078  37.665  32.554  1.00  0.00    -0.237 OA
ATOM     70  O   UNL A   1      43.916  38.464  31.664  1.00  0.00    -0.237 OA
ATOM     71  O   UNL A   1      44.067  37.645  33.984  1.00  0.00    -0.744 OA
ENDBRANCH  67  68
ENDBRANCH  46  60
BRANCH  47  72
ATOM     72  C   UNL A   1      42.437  23.829  27.664  1.00  0.00     0.058 A 
ATOM     73  C   UNL A   1      42.359  23.554  26.291  1.00  0.00     0.135 A 
ATOM     74  C   UNL A   1      42.356  22.741  28.548  1.00  0.00     0.135 A 
ATOM     75  F   UNL A   1      42.445  24.554  25.400  1.00  0.00    -0.206 F 
ATOM     76  C   UNL A   1      42.185  22.257  25.813  1.00  0.00     0.059 A 
ATOM     77  C   UNL A   1      42.209  21.433  28.095  1.00  0.00     0.059 A 
ATOM     78  F   UNL A   1      42.456  22.941  29.873  1.00  0.00    -0.206 F 
ATOM     79  C   UNL A   1      42.108  21.202  26.724  1.00  0.00     0.060 A 
BRANCH  79  80
ATOM     80  S   UNL A   1      41.903  19.522  26.096  1.00  0.00     0.124 S 
ATOM     81  O   UNL A   1      42.379  18.728  27.226  1.00  0.00    -0.237 OA
ATOM     82  O   UNL A   1      40.469  19.461  25.833  1.00  0.00    -0.237 OA
ATOM     83  O   UNL A   1      42.753  19.499  24.910  1.00  0.00    -0.744 OA
ENDBRANCH  79  80
ENDBRANCH  47  72
BRANCH  59  84
ATOM     84  C   UNL A   1      47.979  27.586  29.667  1.00  0.00     0.058 A 
ATOM     85  C   UNL A   1      48.873  27.797  28.608  1.00  0.00     0.135 A 
ATOM     86  C   UNL A   1      48.476  27.076  30.876  1.00  0.00     0.135 A 
ATOM     87  F   UNL A   1      48.432  28.273  27.433  1.00  0.00    -0.206 F 
ATOM     88  C   UNL A   1      50.220  27.495  28.739  1.00  0.00     0.059 A 
ATOM     89  C   UNL A   1      49.825  26.791  31.035  1.00  0.00     0.059 A 
ATOM     90  F   UNL A   1      47.651  26.868  31.914  1.00  0.00    -0.206 F 
ATOM     91  C   UNL A   1      50.687  26.995  29.958  1.00  0.00     0.060 A 
BRANCH  91  92
ATOM     92  S   UNL A   1      52.448  26.652  30.133  1.00  0.00     0.124 S 
ATOM     93  O   UNL A   1      52.437  25.553  31.091  1.00  0.00    -0.237 OA
ATOM     94  O   UNL A   1      52.836  26.303  28.769  1.00  0.00    -0.237 OA
ATOM     95  O   UNL A   1      52.989  27.914  30.627  1.00  0.00    -0.744 OA
ENDBRANCH  91  92
ENDBRANCH  59  84
ENDBRANCH  33  34
ENDBRANCH  26  28
ENDBRANCH  25  26
ENDBRANCH   1  25
TORSDOF 19
ENDMDL
