MODEL 1
REMARK VINA RESULT:     -13.3      0.000      0.000
REMARK SMILES Cc1cccc(NC(=O)C[C@@H]2CCCCO2)c1C(=O)OCCOC(=O)c1ccc(-c2c3nc(c(-c4c(F)cc(S(=O)(=O)[O-])cc4F)c4ccc([nH]4)c(-c4c(F)cc(S(=O)(=O)[O-])cc4F)c4nc(c(-c5c(F)cc(S(=O)(=O)[O-])cc5F)c5ccc2[nH]5)C=C4)C=C3)cc1
REMARK SMILES IDX 21 1 20 2 18 3 19 4 17 5 1 6 2 7 3 8 4 9 6 10 5 11 7 12 8 13
REMARK SMILES IDX 9 15 10 16 11 17 12 18 16 19 13 20 15 21 14 22 22 23 23 24
REMARK SMILES IDX 24 25 25 26 26 27 27 28 91 29 28 30 90 31 29 32 30 33 31 34
REMARK SMILES IDX 84 35 32 36 89 37 83 38 85 39 33 40 88 41 82 42 81 43 34 45
REMARK SMILES IDX 68 46 47 47 67 48 48 49 51 50 66 51 86 52 49 53 50 54 65 56
REMARK SMILES IDX 87 57 52 58 35 59 36 60 45 61 37 62 38 63 44 64 46 65 39 66
REMARK SMILES IDX 40 67 41 68 42 69 43 70 69 71 70 72 79 73 71 74 72 75 78 76
REMARK SMILES IDX 80 77 73 78 74 79 75 80 76 81 77 82 53 83 54 84 63 85 55 86
REMARK SMILES IDX 56 87 62 88 64 89 57 90 58 91 59 92 60 93 61 94
REMARK H PARENT 7 14 85 44 51 55
REMARK Flexibility Score: inf
ROOT
ATOM      1  C   UNL A   1      33.903  28.111  26.037  1.00  0.00     0.275 C 
ENDROOT
BRANCH   1   2
ATOM      2  O   UNL A   1      33.027  27.081  26.579  1.00  0.00    -0.458 OA
BRANCH   2   3
ATOM      3  C   UNL A   1      31.718  27.443  26.592  1.00  0.00     0.340 C 
ATOM      4  O   UNL A   1      31.112  27.807  27.593  1.00  0.00    -0.246 OA
BRANCH   3   5
ATOM      5  C   UNL A   1      30.891  27.021  25.439  1.00  0.00     0.086 A 
ATOM      6  C   UNL A   1      31.090  29.464  24.667  1.00  0.00     0.045 C 
ATOM      7  C   UNL A   1      30.883  27.994  24.397  1.00  0.00    -0.034 A 
ATOM      8  C   UNL A   1      30.735  27.588  23.064  1.00  0.00     0.004 A 
ATOM      9  C   UNL A   1      30.748  26.241  22.748  1.00  0.00     0.002 A 
ATOM     10  C   UNL A   1      30.678  25.656  25.121  1.00  0.00     0.056 A 
ATOM     11  C   UNL A   1      30.764  25.295  23.769  1.00  0.00     0.027 A 
BRANCH  10  12
ATOM     12  N   UNL A   1      30.353  24.653  26.075  1.00  0.00    -0.325 N 
ATOM     13  C   UNL A   1      31.114  23.594  26.536  1.00  0.00     0.227 C 
ATOM     14  H   UNL A   1      29.452  24.722  26.465  1.00  0.00     0.169 HD
ATOM     15  O   UNL A   1      30.861  23.053  27.613  1.00  0.00    -0.275 OA
BRANCH  13  16
ATOM     16  C   UNL A   1      32.244  22.993  25.727  1.00  0.00     0.132 C 
BRANCH  16  17
ATOM     17  C   UNL A   1      33.604  23.602  26.096  1.00  0.00     0.127 C 
ATOM     18  C   UNL A   1      34.210  24.365  24.910  1.00  0.00     0.033 C 
ATOM     19  O   UNL A   1      34.572  22.639  26.537  1.00  0.00    -0.378 OA
ATOM     20  C   UNL A   1      34.585  23.418  23.771  1.00  0.00     0.005 C 
ATOM     21  C   UNL A   1      34.925  21.655  25.575  1.00  0.00     0.160 C 
ATOM     22  C   UNL A   1      35.437  22.256  24.275  1.00  0.00     0.029 C 
ENDBRANCH  16  17
ENDBRANCH  13  16
ENDBRANCH  10  12
ENDBRANCH   3   5
ENDBRANCH   2   3
ENDBRANCH   1   2
BRANCH   1  23
ATOM     23  C   UNL A   1      34.023  29.369  26.919  1.00  0.00     0.275 C 
BRANCH  23  24
ATOM     24  O   UNL A   1      34.965  29.230  27.996  1.00  0.00    -0.458 OA
BRANCH  24  25
ATOM     25  C   UNL A   1      35.618  30.377  28.302  1.00  0.00     0.338 C 
ATOM     26  O   UNL A   1      35.048  31.417  28.637  1.00  0.00    -0.246 OA
BRANCH  25  27
ATOM     27  C   UNL A   1      37.017  29.997  28.629  1.00  0.00     0.060 A 
ATOM     28  C   UNL A   1      37.229  29.129  29.704  1.00  0.00     0.016 A 
ATOM     29  C   UNL A   1      38.027  30.189  27.678  1.00  0.00     0.016 A 
ATOM     30  C   UNL A   1      38.361  28.321  29.747  1.00  0.00     0.010 A 
ATOM     31  C   UNL A   1      39.140  29.371  27.699  1.00  0.00     0.010 A 
ATOM     32  C   UNL A   1      39.289  28.412  28.710  1.00  0.00    -0.014 A 
BRANCH  32  33
ATOM     33  C   UNL A   1      40.593  27.767  28.775  1.00  0.00     0.031 A 
ATOM     34  C   UNL A   1      40.848  26.358  28.388  1.00  0.00     0.074 A 
ATOM     35  C   UNL A   1      41.548  28.598  29.245  1.00  0.00     0.049 A 
ATOM     36  N   UNL A   1      41.888  25.683  28.752  1.00  0.00    -0.248 NA
ATOM     37  C   UNL A   1      39.930  25.556  27.586  1.00  0.00     0.031 C 
ATOM     38  C   UNL A   1      42.981  28.404  29.327  1.00  0.00     0.029 A 
ATOM     39  N   UNL A   1      41.311  29.746  30.021  1.00  0.00    -0.354 N 
ATOM     40  C   UNL A   1      41.903  24.481  28.064  1.00  0.00     0.074 A 
ATOM     41  C   UNL A   1      40.621  24.422  27.410  1.00  0.00     0.031 C 
ATOM     42  C   UNL A   1      43.434  29.149  30.354  1.00  0.00     0.029 A 
ATOM     43  C   UNL A   1      42.265  29.709  31.030  1.00  0.00     0.049 A 
ATOM     44  H   UNL A   1      40.616  30.429  29.879  1.00  0.00     0.167 HD
ATOM     45  C   UNL A   1      43.060  23.752  28.032  1.00  0.00     0.037 A 
ATOM     46  C   UNL A   1      41.928  29.518  32.339  1.00  0.00     0.037 A 
ATOM     47  C   UNL A   1      44.023  24.330  28.964  1.00  0.00     0.049 A 
ATOM     48  C   UNL A   1      42.649  28.315  32.889  1.00  0.00     0.074 A 
ATOM     49  C   UNL A   1      45.008  25.288  28.791  1.00  0.00     0.029 A 
ATOM     50  N   UNL A   1      43.797  24.229  30.332  1.00  0.00    -0.354 N 
ATOM     51  N   UNL A   1      42.945  27.251  32.190  1.00  0.00    -0.248 NA
ATOM     52  C   UNL A   1      43.175  28.274  34.248  1.00  0.00     0.031 C 
ATOM     53  C   UNL A   1      45.266  25.869  30.057  1.00  0.00     0.029 A 
ATOM     54  C   UNL A   1      44.484  25.222  31.000  1.00  0.00     0.049 A 
ATOM     55  H   UNL A   1      43.228  23.549  30.761  1.00  0.00     0.167 HD
ATOM     56  C   UNL A   1      43.776  26.454  32.935  1.00  0.00     0.074 A 
ATOM     57  C   UNL A   1      43.858  27.118  34.226  1.00  0.00     0.031 C 
ATOM     58  C   UNL A   1      44.407  25.347  32.444  1.00  0.00     0.037 A 
BRANCH  45  59
ATOM     59  C   UNL A   1      43.445  22.739  26.957  1.00  0.00     0.058 A 
ATOM     60  C   UNL A   1      42.779  21.489  26.890  1.00  0.00     0.135 A 
ATOM     61  C   UNL A   1      44.497  22.879  26.033  1.00  0.00     0.135 A 
ATOM     62  F   UNL A   1      41.696  21.230  27.635  1.00  0.00    -0.206 F 
ATOM     63  C   UNL A   1      43.199  20.433  26.072  1.00  0.00     0.059 A 
ATOM     64  C   UNL A   1      44.957  21.826  25.224  1.00  0.00     0.059 A 
ATOM     65  F   UNL A   1      45.103  24.057  25.839  1.00  0.00    -0.206 F 
ATOM     66  C   UNL A   1      44.317  20.596  25.270  1.00  0.00     0.060 A 
BRANCH  66  67
ATOM     67  S   UNL A   1      44.905  19.191  24.300  1.00  0.00     0.124 S 
ATOM     68  O   UNL A   1      44.169  18.079  24.894  1.00  0.00    -0.237 OA
ATOM     69  O   UNL A   1      44.510  19.562  22.945  1.00  0.00    -0.237 OA
ATOM     70  O   UNL A   1      46.345  19.183  24.547  1.00  0.00    -0.744 OA
ENDBRANCH  66  67
ENDBRANCH  45  59
BRANCH  46  71
ATOM     71  C   UNL A   1      40.576  30.001  32.772  1.00  0.00     0.058 A 
ATOM     72  C   UNL A   1      40.352  31.393  32.821  1.00  0.00     0.135 A 
ATOM     73  C   UNL A   1      39.441  29.180  32.872  1.00  0.00     0.135 A 
ATOM     74  F   UNL A   1      41.389  32.242  32.750  1.00  0.00    -0.206 F 
ATOM     75  C   UNL A   1      39.074  31.943  32.841  1.00  0.00     0.059 A 
ATOM     76  C   UNL A   1      38.141  29.716  32.909  1.00  0.00     0.059 A 
ATOM     77  F   UNL A   1      39.570  27.846  32.832  1.00  0.00    -0.206 F 
ATOM     78  C   UNL A   1      37.968  31.101  32.850  1.00  0.00     0.060 A 
BRANCH  78  79
ATOM     79  S   UNL A   1      36.335  31.857  32.584  1.00  0.00     0.124 S 
ATOM     80  O   UNL A   1      36.635  32.873  31.583  1.00  0.00    -0.237 OA
ATOM     81  O   UNL A   1      35.542  30.722  32.117  1.00  0.00    -0.237 OA
ATOM     82  O   UNL A   1      35.965  32.336  33.907  1.00  0.00    -0.744 OA
ENDBRANCH  78  79
ENDBRANCH  46  71
BRANCH  58  83
ATOM     83  C   UNL A   1      45.152  24.349  33.289  1.00  0.00     0.058 A 
ATOM     84  C   UNL A   1      44.627  23.090  33.622  1.00  0.00     0.135 A 
ATOM     85  C   UNL A   1      46.495  24.579  33.667  1.00  0.00     0.135 A 
ATOM     86  F   UNL A   1      43.407  22.715  33.211  1.00  0.00    -0.206 F 
ATOM     87  C   UNL A   1      45.352  22.153  34.354  1.00  0.00     0.059 A 
ATOM     88  C   UNL A   1      47.256  23.638  34.348  1.00  0.00     0.059 A 
ATOM     89  F   UNL A   1      47.121  25.729  33.373  1.00  0.00    -0.206 F 
ATOM     90  C   UNL A   1      46.665  22.438  34.718  1.00  0.00     0.060 A 
BRANCH  90  91
ATOM     91  S   UNL A   1      47.631  21.225  35.630  1.00  0.00     0.124 S 
ATOM     92  O   UNL A   1      47.717  20.137  34.662  1.00  0.00    -0.237 OA
ATOM     93  O   UNL A   1      48.881  21.933  35.894  1.00  0.00    -0.237 OA
ATOM     94  O   UNL A   1      46.807  20.967  36.806  1.00  0.00    -0.744 OA
ENDBRANCH  90  91
ENDBRANCH  58  83
ENDBRANCH  32  33
ENDBRANCH  25  27
ENDBRANCH  24  25
ENDBRANCH  23  24
ENDBRANCH   1  23
TORSDOF 17
ENDMDL
MODEL 2
REMARK VINA RESULT:     -13.1      4.496     11.074
REMARK SMILES Cc1cccc(NC(=O)C[C@@H]2CCCCO2)c1C(=O)OCCOC(=O)c1ccc(-c2c3nc(c(-c4c(F)cc(S(=O)(=O)[O-])cc4F)c4ccc([nH]4)c(-c4c(F)cc(S(=O)(=O)[O-])cc4F)c4nc(c(-c5c(F)cc(S(=O)(=O)[O-])cc5F)c5ccc2[nH]5)C=C4)C=C3)cc1
REMARK SMILES IDX 21 1 20 2 18 3 19 4 17 5 1 6 2 7 3 8 4 9 6 10 5 11 7 12 8 13
REMARK SMILES IDX 9 15 10 16 11 17 12 18 16 19 13 20 15 21 14 22 22 23 23 24
REMARK SMILES IDX 24 25 25 26 26 27 27 28 91 29 28 30 90 31 29 32 30 33 31 34
REMARK SMILES IDX 84 35 32 36 89 37 83 38 85 39 33 40 88 41 82 42 81 43 34 45
REMARK SMILES IDX 68 46 47 47 67 48 48 49 51 50 66 51 86 52 49 53 50 54 65 56
REMARK SMILES IDX 87 57 52 58 35 59 36 60 45 61 37 62 38 63 44 64 46 65 39 66
REMARK SMILES IDX 40 67 41 68 42 69 43 70 69 71 70 72 79 73 71 74 72 75 78 76
REMARK SMILES IDX 80 77 73 78 74 79 75 80 76 81 77 82 53 83 54 84 63 85 55 86
REMARK SMILES IDX 56 87 62 88 64 89 57 90 58 91 59 92 60 93 61 94
REMARK H PARENT 7 14 85 44 51 55
REMARK Flexibility Score: inf
ROOT
ATOM      1  C   UNL A   1      36.953  23.171  24.459  1.00  0.00     0.275 C 
ENDROOT
BRANCH   1   2
ATOM      2  O   UNL A   1      35.505  23.193  24.617  1.00  0.00    -0.458 OA
BRANCH   2   3
ATOM      3  C   UNL A   1      34.836  22.842  23.488  1.00  0.00     0.340 C 
ATOM      4  O   UNL A   1      35.262  23.012  22.353  1.00  0.00    -0.246 OA
BRANCH   3   5
ATOM      5  C   UNL A   1      33.382  22.595  23.617  1.00  0.00     0.086 A 
ATOM      6  C   UNL A   1      34.066  20.404  24.774  1.00  0.00     0.045 C 
ATOM      7  C   UNL A   1      33.094  21.530  24.520  1.00  0.00    -0.034 A 
ATOM      8  C   UNL A   1      31.898  21.538  25.250  1.00  0.00     0.004 A 
ATOM      9  C   UNL A   1      31.072  22.647  25.206  1.00  0.00     0.002 A 
ATOM     10  C   UNL A   1      32.421  23.616  23.413  1.00  0.00     0.056 A 
ATOM     11  C   UNL A   1      31.361  23.687  24.328  1.00  0.00     0.027 A 
BRANCH  10  12
ATOM     12  N   UNL A   1      32.449  24.538  22.331  1.00  0.00    -0.325 N 
ATOM     13  C   UNL A   1      33.139  25.730  22.205  1.00  0.00     0.227 C 
ATOM     14  H   UNL A   1      31.895  24.291  21.556  1.00  0.00     0.169 HD
ATOM     15  O   UNL A   1      33.372  26.215  21.097  1.00  0.00    -0.275 OA
BRANCH  13  16
ATOM     16  C   UNL A   1      33.583  26.543  23.404  1.00  0.00     0.132 C 
BRANCH  16  17
ATOM     17  C   UNL A   1      32.558  27.622  23.781  1.00  0.00     0.127 C 
ATOM     18  C   UNL A   1      33.252  28.886  24.305  1.00  0.00     0.033 C 
ATOM     19  O   UNL A   1      31.609  27.201  24.769  1.00  0.00    -0.378 OA
ATOM     20  C   UNL A   1      33.946  28.626  25.643  1.00  0.00     0.005 C 
ATOM     21  C   UNL A   1      32.164  26.849  26.029  1.00  0.00     0.160 C 
ATOM     22  C   UNL A   1      32.996  27.966  26.640  1.00  0.00     0.029 C 
ENDBRANCH  16  17
ENDBRANCH  13  16
ENDBRANCH  10  12
ENDBRANCH   3   5
ENDBRANCH   2   3
ENDBRANCH   1   2
BRANCH   1  23
ATOM     23  C   UNL A   1      37.734  23.045  25.781  1.00  0.00     0.275 C 
BRANCH  23  24
ATOM     24  O   UNL A   1      38.454  24.236  26.140  1.00  0.00    -0.458 OA
BRANCH  24  25
ATOM     25  C   UNL A   1      39.680  23.996  26.665  1.00  0.00     0.338 C 
ATOM     26  O   UNL A   1      40.450  23.136  26.232  1.00  0.00    -0.246 OA
BRANCH  25  27
ATOM     27  C   UNL A   1      40.061  25.210  27.433  1.00  0.00     0.060 A 
ATOM     28  C   UNL A   1      40.422  26.355  26.717  1.00  0.00     0.016 A 
ATOM     29  C   UNL A   1      39.703  25.316  28.783  1.00  0.00     0.016 A 
ATOM     30  C   UNL A   1      40.264  27.618  27.278  1.00  0.00     0.010 A 
ATOM     31  C   UNL A   1      39.518  26.567  29.337  1.00  0.00     0.010 A 
ATOM     32  C   UNL A   1      39.761  27.718  28.575  1.00  0.00    -0.014 A 
BRANCH  32  33
ATOM     33  C   UNL A   1      39.760  28.972  29.315  1.00  0.00     0.031 A 
ATOM     34  C   UNL A   1      38.714  30.015  29.188  1.00  0.00     0.074 A 
ATOM     35  C   UNL A   1      40.835  29.085  30.124  1.00  0.00     0.049 A 
ATOM     36  N   UNL A   1      38.866  31.244  29.559  1.00  0.00    -0.248 NA
ATOM     37  C   UNL A   1      37.403  29.785  28.587  1.00  0.00     0.031 C 
ATOM     38  C   UNL A   1      41.136  30.091  31.122  1.00  0.00     0.029 A 
ATOM     39  N   UNL A   1      42.041  28.381  29.969  1.00  0.00    -0.354 N 
ATOM     40  C   UNL A   1      37.643  31.889  29.476  1.00  0.00     0.074 A 
ATOM     41  C   UNL A   1      36.786  30.956  28.792  1.00  0.00     0.031 C 
ATOM     42  C   UNL A   1      42.476  30.172  31.226  1.00  0.00     0.029 A 
ATOM     43  C   UNL A   1      43.043  29.320  30.182  1.00  0.00     0.049 A 
ATOM     44  H   UNL A   1      42.152  27.426  29.756  1.00  0.00     0.167 HD
ATOM     45  C   UNL A   1      37.482  33.086  30.119  1.00  0.00     0.037 A 
ATOM     46  C   UNL A   1      43.878  29.726  29.181  1.00  0.00     0.037 A 
ATOM     47  C   UNL A   1      38.777  33.553  30.606  1.00  0.00     0.049 A 
ATOM     48  C   UNL A   1      43.798  31.221  29.015  1.00  0.00     0.074 A 
ATOM     49  C   UNL A   1      39.427  33.363  31.813  1.00  0.00     0.029 A 
ATOM     50  N   UNL A   1      39.737  33.978  29.695  1.00  0.00    -0.354 N 
ATOM     51  N   UNL A   1      42.713  31.925  29.206  1.00  0.00    -0.248 NA
ATOM     52  C   UNL A   1      44.968  32.037  28.715  1.00  0.00     0.031 C 
ATOM     53  C   UNL A   1      40.815  33.535  31.583  1.00  0.00     0.029 A 
ATOM     54  C   UNL A   1      40.995  33.887  30.256  1.00  0.00     0.049 A 
ATOM     55  H   UNL A   1      39.548  34.297  28.783  1.00  0.00     0.167 HD
ATOM     56  C   UNL A   1      43.044  33.256  29.176  1.00  0.00     0.074 A 
ATOM     57  C   UNL A   1      44.456  33.274  28.827  1.00  0.00     0.031 C 
ATOM     58  C   UNL A   1      42.180  34.261  29.505  1.00  0.00     0.037 A 
BRANCH  45  59
ATOM     59  C   UNL A   1      36.155  33.672  30.591  1.00  0.00     0.058 A 
ATOM     60  C   UNL A   1      35.246  34.220  29.649  1.00  0.00     0.135 A 
ATOM     61  C   UNL A   1      35.747  33.815  31.930  1.00  0.00     0.135 A 
ATOM     62  F   UNL A   1      35.438  34.084  28.330  1.00  0.00    -0.206 F 
ATOM     63  C   UNL A   1      34.108  34.949  30.008  1.00  0.00     0.059 A 
ATOM     64  C   UNL A   1      34.626  34.569  32.318  1.00  0.00     0.059 A 
ATOM     65  F   UNL A   1      36.393  33.195  32.926  1.00  0.00    -0.206 F 
ATOM     66  C   UNL A   1      33.826  35.156  31.349  1.00  0.00     0.060 A 
BRANCH  66  67
ATOM     67  S   UNL A   1      32.411  36.186  31.793  1.00  0.00     0.124 S 
ATOM     68  O   UNL A   1      31.859  36.528  30.486  1.00  0.00    -0.237 OA
ATOM     69  O   UNL A   1      31.608  35.278  32.604  1.00  0.00    -0.237 OA
ATOM     70  O   UNL A   1      33.014  37.301  32.520  1.00  0.00    -0.744 OA
ENDBRANCH  66  67
ENDBRANCH  45  59
BRANCH  46  71
ATOM     71  C   UNL A   1      44.166  28.739  28.091  1.00  0.00     0.058 A 
ATOM     72  C   UNL A   1      44.882  27.570  28.424  1.00  0.00     0.135 A 
ATOM     73  C   UNL A   1      43.549  28.756  26.829  1.00  0.00     0.135 A 
ATOM     74  F   UNL A   1      45.514  27.484  29.605  1.00  0.00    -0.206 F 
ATOM     75  C   UNL A   1      44.884  26.438  27.613  1.00  0.00     0.059 A 
ATOM     76  C   UNL A   1      43.552  27.630  25.987  1.00  0.00     0.059 A 
ATOM     77  F   UNL A   1      42.849  29.831  26.438  1.00  0.00    -0.206 F 
ATOM     78  C   UNL A   1      44.189  26.460  26.409  1.00  0.00     0.060 A 
BRANCH  78  79
ATOM     79  S   UNL A   1      43.981  24.879  25.532  1.00  0.00     0.124 S 
ATOM     80  O   UNL A   1      42.797  25.140  24.722  1.00  0.00    -0.237 OA
ATOM     81  O   UNL A   1      45.239  24.768  24.797  1.00  0.00    -0.237 OA
ATOM     82  O   UNL A   1      43.833  23.913  26.609  1.00  0.00    -0.744 OA
ENDBRANCH  78  79
ENDBRANCH  46  71
BRANCH  58  83
ATOM     83  C   UNL A   1      42.453  35.724  29.282  1.00  0.00     0.058 A 
ATOM     84  C   UNL A   1      43.349  36.461  30.072  1.00  0.00     0.135 A 
ATOM     85  C   UNL A   1      41.924  36.395  28.155  1.00  0.00     0.135 A 
ATOM     86  F   UNL A   1      44.004  35.892  31.095  1.00  0.00    -0.206 F 
ATOM     87  C   UNL A   1      43.637  37.799  29.816  1.00  0.00     0.059 A 
ATOM     88  C   UNL A   1      42.241  37.712  27.848  1.00  0.00     0.059 A 
ATOM     89  F   UNL A   1      41.086  35.787  27.303  1.00  0.00    -0.206 F 
ATOM     90  C   UNL A   1      43.075  38.419  28.704  1.00  0.00     0.060 A 
BRANCH  90  91
ATOM     91  S   UNL A   1      43.465  40.136  28.334  1.00  0.00     0.124 S 
ATOM     92  O   UNL A   1      43.366  40.745  29.657  1.00  0.00    -0.237 OA
ATOM     93  O   UNL A   1      44.812  40.053  27.779  1.00  0.00    -0.237 OA
ATOM     94  O   UNL A   1      42.425  40.511  27.382  1.00  0.00    -0.744 OA
ENDBRANCH  90  91
ENDBRANCH  58  83
ENDBRANCH  32  33
ENDBRANCH  25  27
ENDBRANCH  24  25
ENDBRANCH  23  24
ENDBRANCH   1  23
TORSDOF 17
ENDMDL
MODEL 3
REMARK VINA RESULT:     -12.9      0.992      1.241
REMARK SMILES Cc1cccc(NC(=O)C[C@@H]2CCCCO2)c1C(=O)OCCOC(=O)c1ccc(-c2c3nc(c(-c4c(F)cc(S(=O)(=O)[O-])cc4F)c4ccc([nH]4)c(-c4c(F)cc(S(=O)(=O)[O-])cc4F)c4nc(c(-c5c(F)cc(S(=O)(=O)[O-])cc5F)c5ccc2[nH]5)C=C4)C=C3)cc1
REMARK SMILES IDX 21 1 20 2 18 3 19 4 17 5 1 6 2 7 3 8 4 9 6 10 5 11 7 12 8 13
REMARK SMILES IDX 9 15 10 16 11 17 12 18 16 19 13 20 15 21 14 22 22 23 23 24
REMARK SMILES IDX 24 25 25 26 26 27 27 28 91 29 28 30 90 31 29 32 30 33 31 34
REMARK SMILES IDX 84 35 32 36 89 37 83 38 85 39 33 40 88 41 82 42 81 43 34 45
REMARK SMILES IDX 68 46 47 47 67 48 48 49 51 50 66 51 86 52 49 53 50 54 65 56
REMARK SMILES IDX 87 57 52 58 35 59 36 60 45 61 37 62 38 63 44 64 46 65 39 66
REMARK SMILES IDX 40 67 41 68 42 69 43 70 69 71 70 72 79 73 71 74 72 75 78 76
REMARK SMILES IDX 80 77 73 78 74 79 75 80 76 81 77 82 53 83 54 84 63 85 55 86
REMARK SMILES IDX 56 87 62 88 64 89 57 90 58 91 59 92 60 93 61 94
REMARK H PARENT 7 14 85 44 51 55
REMARK Flexibility Score: inf
ROOT
ATOM      1  C   UNL A   1      33.247  29.185  25.949  1.00  0.00     0.275 C 
ENDROOT
BRANCH   1   2
ATOM      2  O   UNL A   1      31.808  28.997  25.830  1.00  0.00    -0.458 OA
BRANCH   2   3
ATOM      3  C   UNL A   1      31.430  27.694  25.895  1.00  0.00     0.340 C 
ATOM      4  O   UNL A   1      31.078  27.128  26.923  1.00  0.00    -0.246 OA
BRANCH   3   5
ATOM      5  C   UNL A   1      31.818  26.823  24.762  1.00  0.00     0.086 A 
ATOM      6  C   UNL A   1      29.829  27.887  23.531  1.00  0.00     0.045 C 
ATOM      7  C   UNL A   1      31.170  27.197  23.548  1.00  0.00    -0.034 A 
ATOM      8  C   UNL A   1      31.808  26.975  22.320  1.00  0.00     0.004 A 
ATOM      9  C   UNL A   1      33.120  26.536  22.294  1.00  0.00     0.002 A 
ATOM     10  C   UNL A   1      33.072  26.165  24.711  1.00  0.00     0.056 A 
ATOM     11  C   UNL A   1      33.750  26.179  23.483  1.00  0.00     0.027 A 
BRANCH  10  12
ATOM     12  N   UNL A   1      33.660  25.473  25.805  1.00  0.00    -0.325 N 
ATOM     13  C   UNL A   1      33.906  24.121  25.964  1.00  0.00     0.227 C 
ATOM     14  H   UNL A   1      33.930  26.040  26.563  1.00  0.00     0.169 HD
ATOM     15  O   UNL A   1      34.747  23.720  26.768  1.00  0.00    -0.275 OA
BRANCH  13  16
ATOM     16  C   UNL A   1      33.120  23.059  25.224  1.00  0.00     0.132 C 
BRANCH  16  17
ATOM     17  C   UNL A   1      33.944  22.405  24.106  1.00  0.00     0.127 C 
ATOM     18  C   UNL A   1      33.088  22.161  22.856  1.00  0.00     0.033 C 
ATOM     19  O   UNL A   1      34.541  21.156  24.479  1.00  0.00    -0.378 OA
ATOM     20  C   UNL A   1      32.012  21.106  23.115  1.00  0.00     0.005 C 
ATOM     21  C   UNL A   1      33.622  20.129  24.827  1.00  0.00     0.160 C 
ATOM     22  C   UNL A   1      32.611  19.843  23.727  1.00  0.00     0.029 C 
ENDBRANCH  16  17
ENDBRANCH  13  16
ENDBRANCH  10  12
ENDBRANCH   3   5
ENDBRANCH   2   3
ENDBRANCH   1   2
BRANCH   1  23
ATOM     23  C   UNL A   1      33.746  29.370  27.395  1.00  0.00     0.275 C 
BRANCH  23  24
ATOM     24  O   UNL A   1      35.178  29.343  27.519  1.00  0.00    -0.458 OA
BRANCH  24  25
ATOM     25  C   UNL A   1      35.680  30.348  28.275  1.00  0.00     0.338 C 
ATOM     26  O   UNL A   1      34.979  31.157  28.886  1.00  0.00    -0.246 OA
BRANCH  25  27
ATOM     27  C   UNL A   1      37.082  29.977  28.603  1.00  0.00     0.060 A 
ATOM     28  C   UNL A   1      37.300  29.124  29.689  1.00  0.00     0.016 A 
ATOM     29  C   UNL A   1      38.087  30.158  27.645  1.00  0.00     0.016 A 
ATOM     30  C   UNL A   1      38.434  28.320  29.738  1.00  0.00     0.010 A 
ATOM     31  C   UNL A   1      39.203  29.344  27.673  1.00  0.00     0.010 A 
ATOM     32  C   UNL A   1      39.359  28.400  28.697  1.00  0.00    -0.014 A 
BRANCH  32  33
ATOM     33  C   UNL A   1      40.664  27.759  28.766  1.00  0.00     0.031 A 
ATOM     34  C   UNL A   1      40.927  26.353  28.374  1.00  0.00     0.074 A 
ATOM     35  C   UNL A   1      41.614  28.592  29.244  1.00  0.00     0.049 A 
ATOM     36  N   UNL A   1      41.968  25.680  28.741  1.00  0.00    -0.248 NA
ATOM     37  C   UNL A   1      40.016  25.551  27.564  1.00  0.00     0.031 C 
ATOM     38  C   UNL A   1      43.047  28.403  29.333  1.00  0.00     0.029 A 
ATOM     39  N   UNL A   1      41.368  29.735  30.024  1.00  0.00    -0.354 N 
ATOM     40  C   UNL A   1      41.991  24.481  28.048  1.00  0.00     0.074 A 
ATOM     41  C   UNL A   1      40.712  24.419  27.388  1.00  0.00     0.031 C 
ATOM     42  C   UNL A   1      43.492  29.145  30.365  1.00  0.00     0.029 A 
ATOM     43  C   UNL A   1      42.318  29.698  31.037  1.00  0.00     0.049 A 
ATOM     44  H   UNL A   1      40.672  30.417  29.881  1.00  0.00     0.167 HD
ATOM     45  C   UNL A   1      43.151  23.756  28.020  1.00  0.00     0.037 A 
ATOM     46  C   UNL A   1      41.974  29.500  32.344  1.00  0.00     0.037 A 
ATOM     47  C   UNL A   1      44.107  24.334  28.959  1.00  0.00     0.049 A 
ATOM     48  C   UNL A   1      42.698  28.298  32.892  1.00  0.00     0.074 A 
ATOM     49  C   UNL A   1      45.088  25.297  28.795  1.00  0.00     0.029 A 
ATOM     50  N   UNL A   1      43.874  24.227  30.325  1.00  0.00    -0.354 N 
ATOM     51  N   UNL A   1      43.000  27.238  32.190  1.00  0.00    -0.248 NA
ATOM     52  C   UNL A   1      43.217  28.254  34.254  1.00  0.00     0.031 C 
ATOM     53  C   UNL A   1      45.338  25.874  30.065  1.00  0.00     0.029 A 
ATOM     54  C   UNL A   1      44.554  25.220  31.001  1.00  0.00     0.049 A 
ATOM     55  H   UNL A   1      43.306  23.543  30.748  1.00  0.00     0.167 HD
ATOM     56  C   UNL A   1      43.831  26.442  32.937  1.00  0.00     0.074 A 
ATOM     57  C   UNL A   1      43.904  27.100  34.231  1.00  0.00     0.031 C 
ATOM     58  C   UNL A   1      44.469  25.339  32.445  1.00  0.00     0.037 A 
BRANCH  45  59
ATOM     59  C   UNL A   1      43.545  22.749  26.943  1.00  0.00     0.058 A 
ATOM     60  C   UNL A   1      42.835  21.528  26.819  1.00  0.00     0.135 A 
ATOM     61  C   UNL A   1      44.643  22.864  26.070  1.00  0.00     0.135 A 
ATOM     62  F   UNL A   1      41.709  21.299  27.509  1.00  0.00    -0.206 F 
ATOM     63  C   UNL A   1      43.250  20.472  26.000  1.00  0.00     0.059 A 
ATOM     64  C   UNL A   1      45.098  21.809  25.262  1.00  0.00     0.059 A 
ATOM     65  F   UNL A   1      45.303  24.021  25.928  1.00  0.00    -0.206 F 
ATOM     66  C   UNL A   1      44.410  20.605  25.253  1.00  0.00     0.060 A 
BRANCH  66  67
ATOM     67  S   UNL A   1      44.986  19.197  24.282  1.00  0.00     0.124 S 
ATOM     68  O   UNL A   1      44.385  18.070  24.989  1.00  0.00    -0.237 OA
ATOM     69  O   UNL A   1      44.436  19.484  22.961  1.00  0.00    -0.237 OA
ATOM     70  O   UNL A   1      46.441  19.284  24.382  1.00  0.00    -0.744 OA
ENDBRANCH  66  67
ENDBRANCH  45  59
BRANCH  46  71
ATOM     71  C   UNL A   1      40.619  29.976  32.772  1.00  0.00     0.058 A 
ATOM     72  C   UNL A   1      40.378  31.366  32.793  1.00  0.00     0.135 A 
ATOM     73  C   UNL A   1      39.494  29.145  32.894  1.00  0.00     0.135 A 
ATOM     74  F   UNL A   1      41.405  32.226  32.699  1.00  0.00    -0.206 F 
ATOM     75  C   UNL A   1      39.093  31.902  32.806  1.00  0.00     0.059 A 
ATOM     76  C   UNL A   1      38.188  29.666  32.925  1.00  0.00     0.059 A 
ATOM     77  F   UNL A   1      39.639  27.812  32.882  1.00  0.00    -0.206 F 
ATOM     78  C   UNL A   1      37.997  31.047  32.837  1.00  0.00     0.060 A 
BRANCH  78  79
ATOM     79  S   UNL A   1      36.355  31.778  32.561  1.00  0.00     0.124 S 
ATOM     80  O   UNL A   1      36.626  32.726  31.488  1.00  0.00    -0.237 OA
ATOM     81  O   UNL A   1      35.557  30.612  32.190  1.00  0.00    -0.237 OA
ATOM     82  O   UNL A   1      36.014  32.342  33.858  1.00  0.00    -0.744 OA
ENDBRANCH  78  79
ENDBRANCH  46  71
BRANCH  58  83
ATOM     83  C   UNL A   1      45.213  24.340  33.289  1.00  0.00     0.058 A 
ATOM     84  C   UNL A   1      44.690  23.079  33.617  1.00  0.00     0.135 A 
ATOM     85  C   UNL A   1      46.554  24.572  33.672  1.00  0.00     0.135 A 
ATOM     86  F   UNL A   1      43.472  22.702  33.201  1.00  0.00    -0.206 F 
ATOM     87  C   UNL A   1      45.415  22.142  34.349  1.00  0.00     0.059 A 
ATOM     88  C   UNL A   1      47.315  23.631  34.354  1.00  0.00     0.059 A 
ATOM     89  F   UNL A   1      47.179  25.724  33.385  1.00  0.00    -0.206 F 
ATOM     90  C   UNL A   1      46.726  22.428  34.718  1.00  0.00     0.060 A 
BRANCH  90  91
ATOM     91  S   UNL A   1      47.692  21.216  35.631  1.00  0.00     0.124 S 
ATOM     92  O   UNL A   1      46.719  20.140  35.800  1.00  0.00    -0.237 OA
ATOM     93  O   UNL A   1      48.797  20.926  34.722  1.00  0.00    -0.237 OA
ATOM     94  O   UNL A   1      48.061  21.936  36.844  1.00  0.00    -0.744 OA
ENDBRANCH  90  91
ENDBRANCH  58  83
ENDBRANCH  32  33
ENDBRANCH  25  27
ENDBRANCH  24  25
ENDBRANCH  23  24
ENDBRANCH   1  23
TORSDOF 17
ENDMDL
