MODEL 1
REMARK VINA RESULT:     -12.5      0.000      0.000
REMARK SMILES NS(=O)(=O)c1ccc(-n2nc(C(=O)OCCOC(=O)c3ccc(-c4c5nc(c(-c6c(F)cc(S(=O)(=O)[O-])cc6F)c6ccc([nH]6)c(-c6c(F)cc(S(=O)(=O)[O-])cc6F)c6nc(c(-c7c(F)cc(S(=O)(=O)[O-])cc7F)c7ccc4[nH]7)C=C6)C=C5)cc3)c(Cl)c2-c2ccc(Cl)cc2)cc1
REMARK SMILES IDX 15 1 14 2 12 3 13 4 11 5 9 6 10 7 88 8 86 9 87 10 8 11 5 12
REMARK SMILES IDX 6 13 97 14 7 15 96 16 2 17 3 18 4 19 1 20 89 23 90 24 95 25
REMARK SMILES IDX 91 26 94 27 92 28 93 29 16 30 17 31 18 32 19 33 20 34 21 35
REMARK SMILES IDX 85 36 22 37 84 38 23 39 24 40 25 41 78 42 26 43 83 44 77 45
REMARK SMILES IDX 79 46 27 47 82 48 76 49 75 50 28 52 62 53 41 54 61 55 42 56
REMARK SMILES IDX 45 57 60 58 80 59 43 60 44 61 59 63 81 64 46 65 29 66 30 67
REMARK SMILES IDX 39 68 31 69 32 70 38 71 40 72 33 73 34 74 35 75 36 76 37 77
REMARK SMILES IDX 63 78 64 79 73 80 65 81 66 82 72 83 74 84 67 85 68 86 69 87
REMARK SMILES IDX 70 88 71 89 47 90 48 91 57 92 49 93 50 94 56 95 58 96 51 97
REMARK SMILES IDX 52 98 53 99 54 100 55 101
REMARK H PARENT 1 21 1 22 79 51 45 62
REMARK Flexibility Score: inf
ROOT
ATOM      1  C   UNL A   1      41.929  19.804  26.496  1.00  0.00     0.275 C 
ENDROOT
BRANCH   1   2
ATOM      2  O   UNL A   1      41.212  20.838  25.810  1.00  0.00    -0.457 OA
BRANCH   2   3
ATOM      3  C   UNL A   1      40.509  21.769  26.526  1.00  0.00     0.360 C 
ATOM      4  O   UNL A   1      41.016  22.487  27.382  1.00  0.00    -0.244 OA
BRANCH   3   5
ATOM      5  C   UNL A   1      39.083  21.784  26.149  1.00  0.00     0.190 A 
ATOM      6  N   UNL A   1      37.157  21.108  25.466  1.00  0.00    -0.231 N 
ATOM      7  N   UNL A   1      38.360  20.661  25.911  1.00  0.00    -0.159 NA
ATOM      8  C   UNL A   1      37.083  22.491  25.445  1.00  0.00     0.094 A 
ATOM      9  C   UNL A   1      38.274  22.934  25.975  1.00  0.00     0.102 A 
ATOM     10  Cl  UNL A   1      38.672  24.570  26.276  1.00  0.00    -0.079 Cl
BRANCH   6  11
ATOM     11  C   UNL A   1      36.170  20.208  24.982  1.00  0.00     0.065 A 
ATOM     12  C   UNL A   1      34.158  18.354  24.461  1.00  0.00     0.082 A 
ATOM     13  C   UNL A   1      35.501  17.965  24.367  1.00  0.00     0.024 A 
ATOM     14  C   UNL A   1      33.818  19.679  24.739  1.00  0.00     0.024 A 
ATOM     15  C   UNL A   1      36.518  18.903  24.608  1.00  0.00     0.030 A 
ATOM     16  C   UNL A   1      34.824  20.603  25.009  1.00  0.00     0.030 A 
BRANCH  12  17
ATOM     17  S   UNL A   1      32.865  17.159  24.294  1.00  0.00     0.238 S 
ATOM     18  O   UNL A   1      31.775  17.547  25.174  1.00  0.00    -0.207 OA
ATOM     19  O   UNL A   1      33.417  15.837  24.269  1.00  0.00    -0.207 OA
BRANCH  17  20
ATOM     20  N   UNL A   1      32.282  17.424  22.734  1.00  0.00    -0.225 NA
ATOM     21  H   UNL A   1      31.542  16.752  22.528  1.00  0.00     0.137 HD
ATOM     22  H   UNL A   1      33.042  17.308  22.064  1.00  0.00     0.137 HD
ENDBRANCH  17  20
ENDBRANCH  12  17
ENDBRANCH   6  11
BRANCH   8  23
ATOM     23  C   UNL A   1      35.954  23.314  25.018  1.00  0.00     0.002 A 
ATOM     24  C   UNL A   1      35.671  23.395  23.646  1.00  0.00     0.012 A 
ATOM     25  C   UNL A   1      35.241  24.111  25.919  1.00  0.00     0.012 A 
ATOM     26  C   UNL A   1      34.726  24.297  23.170  1.00  0.00     0.021 A 
ATOM     27  C   UNL A   1      34.279  25.006  25.441  1.00  0.00     0.021 A 
ATOM     28  C   UNL A   1      34.039  25.108  24.070  1.00  0.00     0.041 A 
ATOM     29  Cl  UNL A   1      32.909  26.258  23.476  1.00  0.00    -0.084 Cl
ENDBRANCH   8  23
ENDBRANCH   3   5
ENDBRANCH   2   3
ENDBRANCH   1   2
BRANCH   1  30
ATOM     30  C   UNL A   1      43.092  19.305  25.658  1.00  0.00     0.275 C 
BRANCH  30  31
ATOM     31  O   UNL A   1      44.176  20.223  25.740  1.00  0.00    -0.458 OA
BRANCH  31  32
ATOM     32  C   UNL A   1      44.359  21.000  24.650  1.00  0.00     0.338 C 
ATOM     33  O   UNL A   1      44.554  20.632  23.503  1.00  0.00    -0.246 OA
BRANCH  32  34
ATOM     34  C   UNL A   1      44.494  22.385  25.093  1.00  0.00     0.060 A 
ATOM     35  C   UNL A   1      45.397  22.656  26.124  1.00  0.00     0.016 A 
ATOM     36  C   UNL A   1      43.529  23.313  24.677  1.00  0.00     0.016 A 
ATOM     37  C   UNL A   1      45.221  23.811  26.854  1.00  0.00     0.010 A 
ATOM     38  C   UNL A   1      43.339  24.446  25.421  1.00  0.00     0.010 A 
ATOM     39  C   UNL A   1      44.144  24.646  26.538  1.00  0.00    -0.014 A 
BRANCH  39  40
ATOM     40  C   UNL A   1      43.947  25.856  27.302  1.00  0.00     0.031 A 
ATOM     41  C   UNL A   1      44.990  26.866  27.011  1.00  0.00     0.074 A 
ATOM     42  C   UNL A   1      42.834  26.057  28.032  1.00  0.00     0.049 A 
ATOM     43  N   UNL A   1      45.910  27.291  27.809  1.00  0.00    -0.248 NA
ATOM     44  C   UNL A   1      45.180  27.284  25.608  1.00  0.00     0.031 C 
ATOM     45  C   UNL A   1      41.652  25.197  28.134  1.00  0.00     0.029 A 
ATOM     46  N   UNL A   1      42.474  27.148  28.756  1.00  0.00    -0.354 N 
ATOM     47  C   UNL A   1      46.618  28.238  27.079  1.00  0.00     0.074 A 
ATOM     48  C   UNL A   1      46.296  28.007  25.697  1.00  0.00     0.031 C 
ATOM     49  C   UNL A   1      40.632  25.901  28.678  1.00  0.00     0.029 A 
ATOM     50  C   UNL A   1      41.116  27.215  29.062  1.00  0.00     0.049 A 
ATOM     51  H   UNL A   1      43.119  27.836  29.041  1.00  0.00     0.167 HD
ATOM     52  C   UNL A   1      47.156  29.325  27.693  1.00  0.00     0.037 A 
ATOM     53  C   UNL A   1      40.454  28.317  29.505  1.00  0.00     0.037 A 
ATOM     54  C   UNL A   1      47.265  29.108  29.116  1.00  0.00     0.049 A 
ATOM     55  C   UNL A   1      41.485  29.241  30.064  1.00  0.00     0.074 A 
ATOM     56  C   UNL A   1      47.888  28.151  29.897  1.00  0.00     0.029 A 
ATOM     57  N   UNL A   1      46.330  29.706  29.927  1.00  0.00    -0.354 N 
ATOM     58  N   UNL A   1      42.184  28.973  31.135  1.00  0.00    -0.248 NA
ATOM     59  C   UNL A   1      42.095  30.200  29.152  1.00  0.00     0.031 C 
ATOM     60  C   UNL A   1      46.973  27.892  30.959  1.00  0.00     0.029 A 
ATOM     61  C   UNL A   1      45.893  28.764  30.823  1.00  0.00     0.049 A 
ATOM     62  H   UNL A   1      46.027  30.641  29.874  1.00  0.00     0.167 HD
ATOM     63  C   UNL A   1      43.479  29.365  30.823  1.00  0.00     0.074 A 
ATOM     64  C   UNL A   1      43.350  30.176  29.614  1.00  0.00     0.031 C 
ATOM     65  C   UNL A   1      44.562  28.751  31.389  1.00  0.00     0.037 A 
BRANCH  52  66
ATOM     66  C   UNL A   1      47.187  30.702  27.075  1.00  0.00     0.058 A 
ATOM     67  C   UNL A   1      48.400  31.419  27.076  1.00  0.00     0.135 A 
ATOM     68  C   UNL A   1      46.036  31.456  26.744  1.00  0.00     0.135 A 
ATOM     69  F   UNL A   1      49.554  30.808  27.383  1.00  0.00    -0.206 F 
ATOM     70  C   UNL A   1      48.454  32.793  26.842  1.00  0.00     0.059 A 
ATOM     71  C   UNL A   1      46.076  32.812  26.452  1.00  0.00     0.059 A 
ATOM     72  F   UNL A   1      44.800  30.946  26.780  1.00  0.00    -0.206 F 
ATOM     73  C   UNL A   1      47.282  33.482  26.545  1.00  0.00     0.060 A 
BRANCH  73  74
ATOM     74  S   UNL A   1      47.331  35.267  26.334  1.00  0.00     0.124 S 
ATOM     75  O   UNL A   1      45.999  35.535  25.804  1.00  0.00    -0.237 OA
ATOM     76  O   UNL A   1      47.584  35.723  27.697  1.00  0.00    -0.237 OA
ATOM     77  O   UNL A   1      48.435  35.464  25.399  1.00  0.00    -0.744 OA
ENDBRANCH  73  74
ENDBRANCH  52  66
BRANCH  53  78
ATOM     78  C   UNL A   1      39.083  28.771  29.128  1.00  0.00     0.058 A 
ATOM     79  C   UNL A   1      38.069  28.930  30.093  1.00  0.00     0.135 A 
ATOM     80  C   UNL A   1      38.811  29.324  27.859  1.00  0.00     0.135 A 
ATOM     81  F   UNL A   1      38.240  28.455  31.336  1.00  0.00    -0.206 F 
ATOM     82  C   UNL A   1      36.886  29.637  29.830  1.00  0.00     0.059 A 
ATOM     83  C   UNL A   1      37.637  30.019  27.572  1.00  0.00     0.059 A 
ATOM     84  F   UNL A   1      39.720  29.289  26.875  1.00  0.00    -0.206 F 
ATOM     85  C   UNL A   1      36.689  30.198  28.568  1.00  0.00     0.060 A 
BRANCH  85  86
ATOM     86  S   UNL A   1      35.263  31.270  28.269  1.00  0.00     0.124 S 
ATOM     87  O   UNL A   1      34.828  31.584  29.625  1.00  0.00    -0.237 OA
ATOM     88  O   UNL A   1      35.855  32.372  27.519  1.00  0.00    -0.237 OA
ATOM     89  O   UNL A   1      34.354  30.420  27.504  1.00  0.00    -0.744 OA
ENDBRANCH  85  86
ENDBRANCH  53  78
BRANCH  65  90
ATOM     90  C   UNL A   1      44.334  27.831  32.563  1.00  0.00     0.058 A 
ATOM     91  C   UNL A   1      44.155  28.254  33.895  1.00  0.00     0.135 A 
ATOM     92  C   UNL A   1      44.144  26.466  32.300  1.00  0.00     0.135 A 
ATOM     93  F   UNL A   1      44.200  29.553  34.218  1.00  0.00    -0.206 F 
ATOM     94  C   UNL A   1      43.862  27.353  34.921  1.00  0.00     0.059 A 
ATOM     95  C   UNL A   1      43.816  25.557  33.300  1.00  0.00     0.059 A 
ATOM     96  F   UNL A   1      44.231  26.007  31.040  1.00  0.00    -0.206 F 
ATOM     97  C   UNL A   1      43.699  26.002  34.613  1.00  0.00     0.060 A 
BRANCH  97  98
ATOM     98  S   UNL A   1      43.287  24.838  35.930  1.00  0.00     0.124 S 
ATOM     99  O   UNL A   1      41.978  24.352  35.509  1.00  0.00    -0.237 OA
ATOM    100  O   UNL A   1      44.378  23.869  35.852  1.00  0.00    -0.237 OA
ATOM    101  O   UNL A   1      43.288  25.668  37.132  1.00  0.00    -0.744 OA
ENDBRANCH  97  98
ENDBRANCH  65  90
ENDBRANCH  39  40
ENDBRANCH  32  34
ENDBRANCH  31  32
ENDBRANCH  30  31
ENDBRANCH   1  30
TORSDOF 18
ENDMDL
MODEL 2
REMARK VINA RESULT:     -12.2      1.674      2.496
REMARK SMILES NS(=O)(=O)c1ccc(-n2nc(C(=O)OCCOC(=O)c3ccc(-c4c5nc(c(-c6c(F)cc(S(=O)(=O)[O-])cc6F)c6ccc([nH]6)c(-c6c(F)cc(S(=O)(=O)[O-])cc6F)c6nc(c(-c7c(F)cc(S(=O)(=O)[O-])cc7F)c7ccc4[nH]7)C=C6)C=C5)cc3)c(Cl)c2-c2ccc(Cl)cc2)cc1
REMARK SMILES IDX 15 1 14 2 12 3 13 4 11 5 9 6 10 7 88 8 86 9 87 10 8 11 5 12
REMARK SMILES IDX 6 13 97 14 7 15 96 16 2 17 3 18 4 19 1 20 89 23 90 24 95 25
REMARK SMILES IDX 91 26 94 27 92 28 93 29 16 30 17 31 18 32 19 33 20 34 21 35
REMARK SMILES IDX 85 36 22 37 84 38 23 39 24 40 25 41 78 42 26 43 83 44 77 45
REMARK SMILES IDX 79 46 27 47 82 48 76 49 75 50 28 52 62 53 41 54 61 55 42 56
REMARK SMILES IDX 45 57 60 58 80 59 43 60 44 61 59 63 81 64 46 65 29 66 30 67
REMARK SMILES IDX 39 68 31 69 32 70 38 71 40 72 33 73 34 74 35 75 36 76 37 77
REMARK SMILES IDX 63 78 64 79 73 80 65 81 66 82 72 83 74 84 67 85 68 86 69 87
REMARK SMILES IDX 70 88 71 89 47 90 48 91 57 92 49 93 50 94 56 95 58 96 51 97
REMARK SMILES IDX 52 98 53 99 54 100 55 101
REMARK H PARENT 1 21 1 22 79 51 45 62
REMARK Flexibility Score: inf
ROOT
ATOM      1  C   UNL A   1      42.585  20.557  26.176  1.00  0.00     0.275 C 
ENDROOT
BRANCH   1   2
ATOM      2  O   UNL A   1      41.348  21.137  25.743  1.00  0.00    -0.457 OA
BRANCH   2   3
ATOM      3  C   UNL A   1      40.590  21.859  26.625  1.00  0.00     0.360 C 
ATOM      4  O   UNL A   1      41.049  22.400  27.626  1.00  0.00    -0.244 OA
BRANCH   3   5
ATOM      5  C   UNL A   1      39.169  21.885  26.228  1.00  0.00     0.190 A 
ATOM      6  N   UNL A   1      37.249  21.226  25.512  1.00  0.00    -0.231 N 
ATOM      7  N   UNL A   1      38.443  20.769  25.971  1.00  0.00    -0.159 NA
ATOM      8  C   UNL A   1      37.184  22.610  25.501  1.00  0.00     0.094 A 
ATOM      9  C   UNL A   1      38.370  23.042  26.052  1.00  0.00     0.102 A 
ATOM     10  Cl  UNL A   1      38.773  24.672  26.371  1.00  0.00    -0.079 Cl
BRANCH   6  11
ATOM     11  C   UNL A   1      36.263  20.337  25.007  1.00  0.00     0.065 A 
ATOM     12  C   UNL A   1      34.234  18.516  24.443  1.00  0.00     0.082 A 
ATOM     13  C   UNL A   1      35.570  18.093  24.421  1.00  0.00     0.024 A 
ATOM     14  C   UNL A   1      33.913  19.855  24.671  1.00  0.00     0.024 A 
ATOM     15  C   UNL A   1      36.597  19.015  24.684  1.00  0.00     0.030 A 
ATOM     16  C   UNL A   1      34.928  20.763  24.962  1.00  0.00     0.030 A 
BRANCH  12  17
ATOM     17  S   UNL A   1      32.921  17.346  24.248  1.00  0.00     0.238 S 
ATOM     18  O   UNL A   1      32.580  17.282  22.836  1.00  0.00    -0.207 OA
ATOM     19  O   UNL A   1      31.945  17.524  25.281  1.00  0.00    -0.207 OA
BRANCH  17  20
ATOM     20  N   UNL A   1      33.658  15.867  24.586  1.00  0.00    -0.225 NA
ATOM     21  H   UNL A   1      34.669  15.961  24.494  1.00  0.00     0.137 HD
ATOM     22  H   UNL A   1      33.320  15.162  23.930  1.00  0.00     0.137 HD
ENDBRANCH  17  20
ENDBRANCH  12  17
ENDBRANCH   6  11
BRANCH   8  23
ATOM     23  C   UNL A   1      36.067  23.443  25.065  1.00  0.00     0.002 A 
ATOM     24  C   UNL A   1      35.205  23.964  26.042  1.00  0.00     0.012 A 
ATOM     25  C   UNL A   1      35.767  23.626  23.711  1.00  0.00     0.012 A 
ATOM     26  C   UNL A   1      34.029  24.613  25.677  1.00  0.00     0.021 A 
ATOM     27  C   UNL A   1      34.594  24.293  23.344  1.00  0.00     0.021 A 
ATOM     28  C   UNL A   1      33.723  24.767  24.327  1.00  0.00     0.041 A 
ATOM     29  Cl  UNL A   1      32.247  25.523  23.878  1.00  0.00    -0.084 Cl
ENDBRANCH   8  23
ENDBRANCH   3   5
ENDBRANCH   2   3
ENDBRANCH   1   2
BRANCH   1  30
ATOM     30  C   UNL A   1      43.764  21.220  25.486  1.00  0.00     0.275 C 
BRANCH  30  31
ATOM     31  O   UNL A   1      43.311  22.321  24.706  1.00  0.00    -0.458 OA
BRANCH  31  32
ATOM     32  C   UNL A   1      44.043  23.451  24.822  1.00  0.00     0.338 C 
ATOM     33  O   UNL A   1      45.125  23.687  24.310  1.00  0.00    -0.246 OA
BRANCH  32  34
ATOM     34  C   UNL A   1      43.426  24.292  25.844  1.00  0.00     0.060 A 
ATOM     35  C   UNL A   1      42.481  25.234  25.432  1.00  0.00     0.016 A 
ATOM     36  C   UNL A   1      44.003  24.317  27.122  1.00  0.00     0.016 A 
ATOM     37  C   UNL A   1      42.234  26.311  26.256  1.00  0.00     0.010 A 
ATOM     38  C   UNL A   1      43.778  25.400  27.927  1.00  0.00     0.010 A 
ATOM     39  C   UNL A   1      42.949  26.414  27.454  1.00  0.00    -0.014 A 
BRANCH  39  40
ATOM     40  C   UNL A   1      42.703  27.542  28.323  1.00  0.00     0.031 A 
ATOM     41  C   UNL A   1      43.796  28.539  28.251  1.00  0.00     0.074 A 
ATOM     42  C   UNL A   1      41.525  27.705  28.953  1.00  0.00     0.049 A 
ATOM     43  N   UNL A   1      44.637  28.844  29.181  1.00  0.00    -0.248 NA
ATOM     44  C   UNL A   1      44.143  29.098  26.929  1.00  0.00     0.031 C 
ATOM     45  C   UNL A   1      40.318  26.881  28.840  1.00  0.00     0.029 A 
ATOM     46  N   UNL A   1      41.118  28.725  29.751  1.00  0.00    -0.354 N 
ATOM     47  C   UNL A   1      45.441  29.837  28.634  1.00  0.00     0.074 A 
ATOM     48  C   UNL A   1      45.261  29.766  27.210  1.00  0.00     0.031 C 
ATOM     49  C   UNL A   1      39.265  27.560  29.350  1.00  0.00     0.029 A 
ATOM     50  C   UNL A   1      39.738  28.807  29.924  1.00  0.00     0.049 A 
ATOM     51  H   UNL A   1      41.746  29.354  30.175  1.00  0.00     0.167 HD
ATOM     52  C   UNL A   1      45.938  30.833  29.416  1.00  0.00     0.037 A 
ATOM     53  C   UNL A   1      39.060  29.879  30.416  1.00  0.00     0.037 A 
ATOM     54  C   UNL A   1      45.892  30.461  30.810  1.00  0.00     0.049 A 
ATOM     55  C   UNL A   1      40.049  30.700  31.174  1.00  0.00     0.074 A 
ATOM     56  C   UNL A   1      46.405  29.404  31.540  1.00  0.00     0.029 A 
ATOM     57  N   UNL A   1      44.892  31.003  31.582  1.00  0.00    -0.354 N 
ATOM     58  N   UNL A   1      40.625  30.294  32.275  1.00  0.00    -0.248 NA
ATOM     59  C   UNL A   1      40.775  31.729  30.440  1.00  0.00     0.031 C 
ATOM     60  C   UNL A   1      45.379  29.067  32.469  1.00  0.00     0.029 A 
ATOM     61  C   UNL A   1      44.340  29.986  32.321  1.00  0.00     0.049 A 
ATOM     62  H   UNL A   1      44.620  31.949  31.601  1.00  0.00     0.167 HD
ATOM     63  C   UNL A   1      41.955  30.670  32.141  1.00  0.00     0.074 A 
ATOM     64  C   UNL A   1      41.974  31.610  31.021  1.00  0.00     0.031 C 
ATOM     65  C   UNL A   1      42.957  29.961  32.744  1.00  0.00     0.037 A 
BRANCH  52  66
ATOM     66  C   UNL A   1      46.068  32.265  28.959  1.00  0.00     0.058 A 
ATOM     67  C   UNL A   1      44.934  32.917  28.435  1.00  0.00     0.135 A 
ATOM     68  C   UNL A   1      47.302  32.927  28.748  1.00  0.00     0.135 A 
ATOM     69  F   UNL A   1      43.714  32.377  28.568  1.00  0.00    -0.206 F 
ATOM     70  C   UNL A   1      45.028  34.094  27.692  1.00  0.00     0.059 A 
ATOM     71  C   UNL A   1      47.409  34.129  28.061  1.00  0.00     0.059 A 
ATOM     72  F   UNL A   1      48.477  32.402  29.107  1.00  0.00    -0.206 F 
ATOM     73  C   UNL A   1      46.274  34.684  27.500  1.00  0.00     0.060 A 
BRANCH  73  74
ATOM     74  S   UNL A   1      46.412  36.149  26.467  1.00  0.00     0.124 S 
ATOM     75  O   UNL A   1      45.514  35.815  25.368  1.00  0.00    -0.237 OA
ATOM     76  O   UNL A   1      45.957  37.198  27.372  1.00  0.00    -0.237 OA
ATOM     77  O   UNL A   1      47.832  36.191  26.131  1.00  0.00    -0.744 OA
ENDBRANCH  73  74
ENDBRANCH  52  66
BRANCH  53  78
ATOM     78  C   UNL A   1      37.748  30.419  29.953  1.00  0.00     0.058 A 
ATOM     79  C   UNL A   1      36.839  31.014  30.850  1.00  0.00     0.135 A 
ATOM     80  C   UNL A   1      37.472  30.615  28.583  1.00  0.00     0.135 A 
ATOM     81  F   UNL A   1      37.027  30.901  32.174  1.00  0.00    -0.206 F 
ATOM     82  C   UNL A   1      35.758  31.796  30.416  1.00  0.00     0.059 A 
ATOM     83  C   UNL A   1      36.396  31.378  28.130  1.00  0.00     0.059 A 
ATOM     84  F   UNL A   1      38.293  30.149  27.633  1.00  0.00    -0.206 F 
ATOM     85  C   UNL A   1      35.558  31.991  29.050  1.00  0.00     0.060 A 
BRANCH  85  86
ATOM     86  S   UNL A   1      34.288  33.146  28.478  1.00  0.00     0.124 S 
ATOM     87  O   UNL A   1      33.357  32.259  27.792  1.00  0.00    -0.237 OA
ATOM     88  O   UNL A   1      33.812  33.727  29.730  1.00  0.00    -0.237 OA
ATOM     89  O   UNL A   1      35.028  34.063  27.614  1.00  0.00    -0.744 OA
ENDBRANCH  85  86
ENDBRANCH  53  78
BRANCH  65  90
ATOM     90  C   UNL A   1      42.584  28.930  33.780  1.00  0.00     0.058 A 
ATOM     91  C   UNL A   1      42.432  27.553  33.528  1.00  0.00     0.135 A 
ATOM     92  C   UNL A   1      42.521  29.341  35.120  1.00  0.00     0.135 A 
ATOM     93  F   UNL A   1      42.594  27.055  32.295  1.00  0.00    -0.206 F 
ATOM     94  C   UNL A   1      42.170  26.641  34.554  1.00  0.00     0.059 A 
ATOM     95  C   UNL A   1      42.297  28.446  36.161  1.00  0.00     0.059 A 
ATOM     96  F   UNL A   1      42.727  30.631  35.437  1.00  0.00    -0.206 F 
ATOM     97  C   UNL A   1      42.099  27.100  35.869  1.00  0.00     0.060 A 
BRANCH  97  98
ATOM     98  S   UNL A   1      41.793  25.921  37.202  1.00  0.00     0.124 S 
ATOM     99  O   UNL A   1      40.412  26.220  37.563  1.00  0.00    -0.237 OA
ATOM    100  O   UNL A   1      42.013  24.634  36.545  1.00  0.00    -0.237 OA
ATOM    101  O   UNL A   1      42.792  26.276  38.207  1.00  0.00    -0.744 OA
ENDBRANCH  97  98
ENDBRANCH  65  90
ENDBRANCH  39  40
ENDBRANCH  32  34
ENDBRANCH  31  32
ENDBRANCH  30  31
ENDBRANCH   1  30
TORSDOF 18
ENDMDL
MODEL 3
REMARK VINA RESULT:     -12.1      2.243      3.262
REMARK SMILES NS(=O)(=O)c1ccc(-n2nc(C(=O)OCCOC(=O)c3ccc(-c4c5nc(c(-c6c(F)cc(S(=O)(=O)[O-])cc6F)c6ccc([nH]6)c(-c6c(F)cc(S(=O)(=O)[O-])cc6F)c6nc(c(-c7c(F)cc(S(=O)(=O)[O-])cc7F)c7ccc4[nH]7)C=C6)C=C5)cc3)c(Cl)c2-c2ccc(Cl)cc2)cc1
REMARK SMILES IDX 15 1 14 2 12 3 13 4 11 5 9 6 10 7 88 8 86 9 87 10 8 11 5 12
REMARK SMILES IDX 6 13 97 14 7 15 96 16 2 17 3 18 4 19 1 20 89 23 90 24 95 25
REMARK SMILES IDX 91 26 94 27 92 28 93 29 16 30 17 31 18 32 19 33 20 34 21 35
REMARK SMILES IDX 85 36 22 37 84 38 23 39 24 40 25 41 78 42 26 43 83 44 77 45
REMARK SMILES IDX 79 46 27 47 82 48 76 49 75 50 28 52 62 53 41 54 61 55 42 56
REMARK SMILES IDX 45 57 60 58 80 59 43 60 44 61 59 63 81 64 46 65 29 66 30 67
REMARK SMILES IDX 39 68 31 69 32 70 38 71 40 72 33 73 34 74 35 75 36 76 37 77
REMARK SMILES IDX 63 78 64 79 73 80 65 81 66 82 72 83 74 84 67 85 68 86 69 87
REMARK SMILES IDX 70 88 71 89 47 90 48 91 57 92 49 93 50 94 56 95 58 96 51 97
REMARK SMILES IDX 52 98 53 99 54 100 55 101
REMARK H PARENT 1 21 1 22 79 51 45 62
REMARK Flexibility Score: inf
ROOT
ATOM      1  C   UNL A   1      41.034  20.663  27.096  1.00  0.00     0.275 C 
ENDROOT
BRANCH   1   2
ATOM      2  O   UNL A   1      40.112  21.168  26.121  1.00  0.00    -0.457 OA
BRANCH   2   3
ATOM      3  C   UNL A   1      39.508  22.380  26.321  1.00  0.00     0.360 C 
ATOM      4  O   UNL A   1      40.087  23.355  26.788  1.00  0.00    -0.244 OA
BRANCH   3   5
ATOM      5  C   UNL A   1      38.087  22.353  25.921  1.00  0.00     0.190 A 
ATOM      6  N   UNL A   1      36.021  22.925  25.735  1.00  0.00    -0.231 N 
ATOM      7  N   UNL A   1      37.240  23.398  26.098  1.00  0.00    -0.159 NA
ATOM      8  C   UNL A   1      36.073  21.611  25.299  1.00  0.00     0.094 A 
ATOM      9  C   UNL A   1      37.407  21.267  25.319  1.00  0.00     0.102 A 
ATOM     10  Cl  UNL A   1      38.049  19.778  24.777  1.00  0.00    -0.079 Cl
BRANCH   6  11
ATOM     11  C   UNL A   1      34.845  23.701  25.914  1.00  0.00     0.065 A 
ATOM     12  C   UNL A   1      32.349  24.933  25.992  1.00  0.00     0.082 A 
ATOM     13  C   UNL A   1      33.345  25.439  25.146  1.00  0.00     0.024 A 
ATOM     14  C   UNL A   1      32.617  23.865  26.850  1.00  0.00     0.024 A 
ATOM     15  C   UNL A   1      34.612  24.833  25.121  1.00  0.00     0.030 A 
ATOM     16  C   UNL A   1      33.862  23.244  26.804  1.00  0.00     0.030 A 
BRANCH  12  17
ATOM     17  S   UNL A   1      30.709  25.596  25.941  1.00  0.00     0.238 S 
ATOM     18  O   UNL A   1      29.858  24.758  26.769  1.00  0.00    -0.207 OA
ATOM     19  O   UNL A   1      30.371  25.971  24.600  1.00  0.00    -0.207 OA
BRANCH  17  20
ATOM     20  N   UNL A   1      30.845  27.049  26.785  1.00  0.00    -0.225 NA
ATOM     21  H   UNL A   1      29.934  27.506  26.825  1.00  0.00     0.137 HD
ATOM     22  H   UNL A   1      31.509  27.658  26.307  1.00  0.00     0.137 HD
ENDBRANCH  17  20
ENDBRANCH  12  17
ENDBRANCH   6  11
BRANCH   8  23
ATOM     23  C   UNL A   1      34.962  20.780  24.844  1.00  0.00     0.002 A 
ATOM     24  C   UNL A   1      35.080  19.387  24.963  1.00  0.00     0.012 A 
ATOM     25  C   UNL A   1      33.855  21.325  24.186  1.00  0.00     0.012 A 
ATOM     26  C   UNL A   1      34.135  18.544  24.387  1.00  0.00     0.021 A 
ATOM     27  C   UNL A   1      32.896  20.478  23.622  1.00  0.00     0.021 A 
ATOM     28  C   UNL A   1      33.050  19.094  23.709  1.00  0.00     0.041 A 
ATOM     29  Cl  UNL A   1      31.911  18.051  22.955  1.00  0.00    -0.084 Cl
ENDBRANCH   8  23
ENDBRANCH   3   5
ENDBRANCH   2   3
ENDBRANCH   1   2
BRANCH   1  30
ATOM     30  C   UNL A   1      42.361  20.308  26.450  1.00  0.00     0.275 C 
BRANCH  30  31
ATOM     31  O   UNL A   1      42.687  21.270  25.454  1.00  0.00    -0.458 OA
BRANCH  31  32
ATOM     32  C   UNL A   1      43.991  21.616  25.389  1.00  0.00     0.338 C 
ATOM     33  O   UNL A   1      44.936  20.892  25.123  1.00  0.00    -0.246 OA
BRANCH  32  34
ATOM     34  C   UNL A   1      44.128  22.978  25.899  1.00  0.00     0.060 A 
ATOM     35  C   UNL A   1      44.875  23.168  27.064  1.00  0.00     0.016 A 
ATOM     36  C   UNL A   1      43.288  23.971  25.375  1.00  0.00     0.016 A 
ATOM     37  C   UNL A   1      44.650  24.310  27.801  1.00  0.00     0.010 A 
ATOM     38  C   UNL A   1      43.046  25.092  26.122  1.00  0.00     0.010 A 
ATOM     39  C   UNL A   1      43.678  25.213  27.356  1.00  0.00    -0.014 A 
BRANCH  39  40
ATOM     40  C   UNL A   1      43.429  26.410  28.125  1.00  0.00     0.031 A 
ATOM     41  C   UNL A   1      44.499  27.416  27.938  1.00  0.00     0.074 A 
ATOM     42  C   UNL A   1      42.264  26.607  28.768  1.00  0.00     0.049 A 
ATOM     43  N   UNL A   1      45.356  27.819  28.815  1.00  0.00    -0.248 NA
ATOM     44  C   UNL A   1      44.804  27.860  26.563  1.00  0.00     0.031 C 
ATOM     45  C   UNL A   1      41.071  25.754  28.759  1.00  0.00     0.029 A 
ATOM     46  N   UNL A   1      41.854  27.687  29.482  1.00  0.00    -0.354 N 
ATOM     47  C   UNL A   1      46.126  28.774  28.161  1.00  0.00     0.074 A 
ATOM     48  C   UNL A   1      45.914  28.571  26.754  1.00  0.00     0.031 C 
ATOM     49  C   UNL A   1      40.016  26.457  29.234  1.00  0.00     0.029 A 
ATOM     50  C   UNL A   1      40.477  27.760  29.681  1.00  0.00     0.049 A 
ATOM     51  H   UNL A   1      42.479  28.364  29.831  1.00  0.00     0.167 HD
ATOM     52  C   UNL A   1      46.620  29.845  28.837  1.00  0.00     0.037 A 
ATOM     53  C   UNL A   1      39.789  28.859  30.091  1.00  0.00     0.037 A 
ATOM     54  C   UNL A   1      46.615  29.600  30.261  1.00  0.00     0.049 A 
ATOM     55  C   UNL A   1      40.778  29.763  30.747  1.00  0.00     0.074 A 
ATOM     56  C   UNL A   1      47.166  28.623  31.069  1.00  0.00     0.029 A 
ATOM     57  N   UNL A   1      45.622  30.190  31.006  1.00  0.00    -0.354 N 
ATOM     58  N   UNL A   1      41.388  29.469  31.866  1.00  0.00    -0.248 NA
ATOM     59  C   UNL A   1      41.465  30.734  29.906  1.00  0.00     0.031 C 
ATOM     60  C   UNL A   1      46.169  28.352  32.050  1.00  0.00     0.029 A 
ATOM     61  C   UNL A   1      45.109  29.235  31.846  1.00  0.00     0.049 A 
ATOM     62  H   UNL A   1      45.331  31.129  30.947  1.00  0.00     0.167 HD
ATOM     63  C   UNL A   1      42.706  29.856  31.666  1.00  0.00     0.074 A 
ATOM     64  C   UNL A   1      42.680  30.691  30.466  1.00  0.00     0.031 C 
ATOM     65  C   UNL A   1      43.737  29.222  32.304  1.00  0.00     0.037 A 
BRANCH  52  66
ATOM     66  C   UNL A   1      46.711  31.233  28.251  1.00  0.00     0.058 A 
ATOM     67  C   UNL A   1      45.537  31.843  27.767  1.00  0.00     0.135 A 
ATOM     68  C   UNL A   1      47.922  31.868  27.884  1.00  0.00     0.135 A 
ATOM     69  F   UNL A   1      44.332  31.323  28.045  1.00  0.00    -0.206 F 
ATOM     70  C   UNL A   1      45.567  32.952  26.921  1.00  0.00     0.059 A 
ATOM     71  C   UNL A   1      47.971  33.005  27.090  1.00  0.00     0.059 A 
ATOM     72  F   UNL A   1      49.124  31.368  28.190  1.00  0.00    -0.206 F 
ATOM     73  C   UNL A   1      46.793  33.516  26.578  1.00  0.00     0.060 A 
BRANCH  73  74
ATOM     74  S   UNL A   1      46.843  34.887  25.416  1.00  0.00     0.124 S 
ATOM     75  O   UNL A   1      48.190  34.757  24.871  1.00  0.00    -0.237 OA
ATOM     76  O   UNL A   1      45.749  34.553  24.511  1.00  0.00    -0.237 OA
ATOM     77  O   UNL A   1      46.614  36.054  26.263  1.00  0.00    -0.744 OA
ENDBRANCH  73  74
ENDBRANCH  52  66
BRANCH  53  78
ATOM     78  C   UNL A   1      38.455  29.331  29.614  1.00  0.00     0.058 A 
ATOM     79  C   UNL A   1      37.390  29.549  30.509  1.00  0.00     0.135 A 
ATOM     80  C   UNL A   1      38.275  29.842  28.312  1.00  0.00     0.135 A 
ATOM     81  F   UNL A   1      37.473  29.118  31.777  1.00  0.00    -0.206 F 
ATOM     82  C   UNL A   1      36.243  30.274  30.150  1.00  0.00     0.059 A 
ATOM     83  C   UNL A   1      37.139  30.555  27.929  1.00  0.00     0.059 A 
ATOM     84  F   UNL A   1      39.240  29.749  27.388  1.00  0.00    -0.206 F 
ATOM     85  C   UNL A   1      36.138  30.793  28.859  1.00  0.00     0.060 A 
BRANCH  85  86
ATOM     86  S   UNL A   1      34.761  31.888  28.436  1.00  0.00     0.124 S 
ATOM     87  O   UNL A   1      33.816  30.963  27.821  1.00  0.00    -0.237 OA
ATOM     88  O   UNL A   1      34.377  32.420  29.739  1.00  0.00    -0.237 OA
ATOM     89  O   UNL A   1      35.365  32.858  27.526  1.00  0.00    -0.744 OA
ENDBRANCH  85  86
ENDBRANCH  53  78
BRANCH  65  90
ATOM     90  C   UNL A   1      43.410  28.283  33.438  1.00  0.00     0.058 A 
ATOM     91  C   UNL A   1      43.090  28.684  34.750  1.00  0.00     0.135 A 
ATOM     92  C   UNL A   1      43.273  26.918  33.141  1.00  0.00     0.135 A 
ATOM     93  F   UNL A   1      43.078  29.979  35.091  1.00  0.00    -0.206 F 
ATOM     94  C   UNL A   1      42.713  27.764  35.731  1.00  0.00     0.059 A 
ATOM     95  C   UNL A   1      42.864  25.989  34.091  1.00  0.00     0.059 A 
ATOM     96  F   UNL A   1      43.495  26.478  31.891  1.00  0.00    -0.206 F 
ATOM     97  C   UNL A   1      42.607  26.415  35.391  1.00  0.00     0.060 A 
BRANCH  97  98
ATOM     98  S   UNL A   1      42.087  25.225  36.646  1.00  0.00     0.124 S 
ATOM     99  O   UNL A   1      41.103  25.991  37.404  1.00  0.00    -0.237 OA
ATOM    100  O   UNL A   1      41.555  24.127  35.843  1.00  0.00    -0.237 OA
ATOM    101  O   UNL A   1      43.324  24.920  37.361  1.00  0.00    -0.744 OA
ENDBRANCH  97  98
ENDBRANCH  65  90
ENDBRANCH  39  40
ENDBRANCH  32  34
ENDBRANCH  31  32
ENDBRANCH  30  31
ENDBRANCH   1  30
TORSDOF 18
ENDMDL
