MODEL 1
REMARK VINA RESULT:     -10.5      0.000      0.000
REMARK SMILES O=C(OCCOC(=O)c1ccc(-c2c3nc(c(-c4c(F)cc(S(=O)(=O)[O-])cc4F)c4ccc([nH]4)c(-c4c(F)cc(S(=O)(=O)[O-])cc4F)c4nc(c(-c5c(F)cc(S(=O)(=O)[O-])cc5F)c5ccc2[nH]5)C=C4)C=C3)cc1)C1=Cc2cc(Cl)cc(-c3ccc(CO)cc3)c2O[C@@H]1C(F)(F)F
REMARK SMILES IDX 4 1 3 2 2 3 1 4 75 5 76 6 93 7 77 8 92 9 78 10 91 11 79 12
REMARK SMILES IDX 82 13 80 14 81 15 94 16 95 17 96 18 97 19 83 20 84 21 90 22
REMARK SMILES IDX 85 23 89 24 86 25 87 26 88 27 5 29 6 30 7 31 8 32 9 33 10 34
REMARK SMILES IDX 74 35 11 36 73 37 12 38 13 39 14 40 67 41 15 42 72 43 66 44
REMARK SMILES IDX 68 45 16 46 71 47 65 48 64 49 17 51 51 52 30 53 50 54 31 55
REMARK SMILES IDX 34 56 49 57 69 58 32 59 33 60 48 62 70 63 35 64 18 65 19 66
REMARK SMILES IDX 28 67 20 68 21 69 27 70 29 71 22 72 23 73 24 74 25 75 26 76
REMARK SMILES IDX 52 77 53 78 62 79 54 80 55 81 61 82 63 83 56 84 57 85 58 86
REMARK SMILES IDX 59 87 60 88 36 89 37 90 46 91 38 92 39 93 45 94 47 95 40 96
REMARK SMILES IDX 41 97 42 98 43 99 44 100
REMARK H PARENT 88 28 68 50 34 61
REMARK Flexibility Score: inf
ROOT
ATOM      1  C   UNL A   1      34.837  23.561  23.730  1.00  0.00     0.275 C 
ENDROOT
BRANCH   1   2
ATOM      2  O   UNL A   1      34.615  24.624  22.766  1.00  0.00    -0.459 OA
BRANCH   2   3
ATOM      3  C   UNL A   1      33.570  25.478  22.990  1.00  0.00     0.338 C 
ATOM      4  O   UNL A   1      33.015  26.101  22.099  1.00  0.00    -0.246 OA
BRANCH   3   5
ATOM      5  C   UNL A   1      33.195  25.563  24.427  1.00  0.00     0.087 C 
ATOM      6  C   UNL A   1      33.919  26.307  25.283  1.00  0.00     0.027 C 
ATOM      7  C   UNL A   1      31.760  25.426  24.782  1.00  0.00     0.316 C 
ATOM      8  C   UNL A   1      33.201  27.498  25.789  1.00  0.00     0.019 A 
ATOM      9  O   UNL A   1      31.132  26.740  24.798  1.00  0.00    -0.475 OA
ATOM     10  C   UNL A   1      33.858  28.471  26.539  1.00  0.00     0.032 A 
ATOM     11  C   UNL A   1      31.921  27.775  25.257  1.00  0.00     0.135 A 
ATOM     12  C   UNL A   1      33.274  29.729  26.681  1.00  0.00     0.042 A 
ATOM     13  C   UNL A   1      31.479  29.113  25.150  1.00  0.00     0.026 A 
ATOM     14  Cl  UNL A   1      34.058  30.937  27.621  1.00  0.00    -0.084 Cl
ATOM     15  C   UNL A   1      32.133  30.064  25.953  1.00  0.00     0.033 A 
BRANCH   7  16
ATOM     16  C   UNL A   1      31.589  24.503  26.012  1.00  0.00     0.430 C 
ATOM     17  F   UNL A   1      30.299  24.077  26.088  1.00  0.00    -0.167 F 
ATOM     18  F   UNL A   1      32.357  23.392  25.975  1.00  0.00    -0.167 F 
ATOM     19  F   UNL A   1      31.861  25.148  27.167  1.00  0.00    -0.167 F 
ENDBRANCH   7  16
BRANCH  13  20
ATOM     20  C   UNL A   1      30.694  29.653  24.002  1.00  0.00    -0.015 A 
ATOM     21  C   UNL A   1      29.846  30.762  24.251  1.00  0.00     0.009 A 
ATOM     22  C   UNL A   1      30.667  29.116  22.713  1.00  0.00     0.009 A 
ATOM     23  C   UNL A   1      29.006  31.301  23.269  1.00  0.00     0.007 A 
ATOM     24  C   UNL A   1      29.831  29.669  21.714  1.00  0.00     0.007 A 
ATOM     25  C   UNL A   1      28.991  30.762  21.983  1.00  0.00    -0.023 A 
BRANCH  25  26
ATOM     26  C   UNL A   1      28.085  31.359  20.933  1.00  0.00     0.191 C 
BRANCH  26  27
ATOM     27  O   UNL A   1      27.666  32.664  21.314  1.00  0.00    -0.392 OA
ATOM     28  H   UNL A   1      27.661  33.243  20.537  1.00  0.00     0.211 HD
ENDBRANCH  26  27
ENDBRANCH  25  26
ENDBRANCH  13  20
ENDBRANCH   3   5
ENDBRANCH   2   3
ENDBRANCH   1   2
BRANCH   1  29
ATOM     29  C   UNL A   1      36.328  23.347  24.109  1.00  0.00     0.275 C 
BRANCH  29  30
ATOM     30  O   UNL A   1      36.661  23.784  25.431  1.00  0.00    -0.458 OA
BRANCH  30  31
ATOM     31  C   UNL A   1      37.740  23.171  25.958  1.00  0.00     0.338 C 
ATOM     32  O   UNL A   1      38.039  21.992  25.811  1.00  0.00    -0.246 OA
BRANCH  31  33
ATOM     33  C   UNL A   1      38.642  24.198  26.521  1.00  0.00     0.060 A 
ATOM     34  C   UNL A   1      38.536  24.426  27.894  1.00  0.00     0.016 A 
ATOM     35  C   UNL A   1      39.605  24.883  25.767  1.00  0.00     0.016 A 
ATOM     36  C   UNL A   1      39.332  25.389  28.504  1.00  0.00     0.010 A 
ATOM     37  C   UNL A   1      40.429  25.833  26.391  1.00  0.00     0.010 A 
ATOM     38  C   UNL A   1      40.259  26.129  27.755  1.00  0.00    -0.014 A 
BRANCH  38  39
ATOM     39  C   UNL A   1      40.876  27.318  28.403  1.00  0.00     0.031 A 
ATOM     40  C   UNL A   1      42.374  27.475  28.346  1.00  0.00     0.074 A 
ATOM     41  C   UNL A   1      40.113  28.318  28.886  1.00  0.00     0.049 A 
ATOM     42  N   UNL A   1      43.107  28.525  28.612  1.00  0.00    -0.248 NA
ATOM     43  C   UNL A   1      43.150  26.295  27.925  1.00  0.00     0.031 C 
ATOM     44  C   UNL A   1      38.656  28.289  29.009  1.00  0.00     0.029 A 
ATOM     45  N   UNL A   1      40.460  29.571  29.333  1.00  0.00    -0.354 N 
ATOM     46  C   UNL A   1      44.418  28.147  28.346  1.00  0.00     0.074 A 
ATOM     47  C   UNL A   1      44.392  26.748  27.986  1.00  0.00     0.031 C 
ATOM     48  C   UNL A   1      38.232  29.476  29.481  1.00  0.00     0.029 A 
ATOM     49  C   UNL A   1      39.384  30.350  29.693  1.00  0.00     0.049 A 
ATOM     50  H   UNL A   1      41.392  29.882  29.391  1.00  0.00     0.167 HD
ATOM     51  C   UNL A   1      45.541  28.902  28.353  1.00  0.00     0.037 A 
ATOM     52  C   UNL A   1      39.335  31.626  30.128  1.00  0.00     0.037 A 
ATOM     53  C   UNL A   1      45.577  30.289  28.732  1.00  0.00     0.049 A 
ATOM     54  C   UNL A   1      40.613  32.430  30.194  1.00  0.00     0.074 A 
ATOM     55  C   UNL A   1      46.666  31.139  28.784  1.00  0.00     0.029 A 
ATOM     56  N   UNL A   1      44.473  31.027  29.132  1.00  0.00    -0.354 N 
ATOM     57  N   UNL A   1      41.834  32.077  29.866  1.00  0.00    -0.248 NA
ATOM     58  C   UNL A   1      40.501  33.819  30.668  1.00  0.00     0.031 C 
ATOM     59  C   UNL A   1      46.229  32.380  29.263  1.00  0.00     0.029 A 
ATOM     60  C   UNL A   1      44.859  32.318  29.454  1.00  0.00     0.049 A 
ATOM     61  H   UNL A   1      43.551  30.684  29.180  1.00  0.00     0.167 HD
ATOM     62  C   UNL A   1      42.626  33.206  30.065  1.00  0.00     0.074 A 
ATOM     63  C   UNL A   1      41.742  34.259  30.515  1.00  0.00     0.031 C 
ATOM     64  C   UNL A   1      43.964  33.358  29.895  1.00  0.00     0.037 A 
BRANCH  51  65
ATOM     65  C   UNL A   1      46.819  28.236  27.926  1.00  0.00     0.058 A 
ATOM     66  C   UNL A   1      47.207  28.202  26.576  1.00  0.00     0.135 A 
ATOM     67  C   UNL A   1      47.672  27.642  28.869  1.00  0.00     0.135 A 
ATOM     68  F   UNL A   1      46.417  28.734  25.630  1.00  0.00    -0.206 F 
ATOM     69  C   UNL A   1      48.382  27.576  26.172  1.00  0.00     0.059 A 
ATOM     70  C   UNL A   1      48.866  27.034  28.490  1.00  0.00     0.059 A 
ATOM     71  F   UNL A   1      47.345  27.640  30.170  1.00  0.00    -0.206 F 
ATOM     72  C   UNL A   1      49.205  26.997  27.138  1.00  0.00     0.060 A 
BRANCH  72  73
ATOM     73  S   UNL A   1      50.730  26.198  26.596  1.00  0.00     0.124 S 
ATOM     74  O   UNL A   1      50.525  24.831  27.068  1.00  0.00    -0.237 OA
ATOM     75  O   UNL A   1      50.681  26.382  25.149  1.00  0.00    -0.237 OA
ATOM     76  O   UNL A   1      51.773  26.949  27.288  1.00  0.00    -0.744 OA
ENDBRANCH  72  73
ENDBRANCH  51  65
BRANCH  52  77
ATOM     77  C   UNL A   1      38.039  32.240  30.541  1.00  0.00     0.058 A 
ATOM     78  C   UNL A   1      37.267  33.004  29.651  1.00  0.00     0.135 A 
ATOM     79  C   UNL A   1      37.582  32.127  31.863  1.00  0.00     0.135 A 
ATOM     80  F   UNL A   1      37.662  33.154  28.378  1.00  0.00    -0.206 F 
ATOM     81  C   UNL A   1      36.114  33.666  30.067  1.00  0.00     0.059 A 
ATOM     82  C   UNL A   1      36.418  32.753  32.295  1.00  0.00     0.059 A 
ATOM     83  F   UNL A   1      38.274  31.399  32.755  1.00  0.00    -0.206 F 
ATOM     84  C   UNL A   1      35.701  33.539  31.394  1.00  0.00     0.060 A 
BRANCH  84  85
ATOM     85  S   UNL A   1      34.207  34.405  31.928  1.00  0.00     0.124 S 
ATOM     86  O   UNL A   1      34.764  35.617  32.516  1.00  0.00    -0.237 OA
ATOM     87  O   UNL A   1      33.489  34.578  30.669  1.00  0.00    -0.237 OA
ATOM     88  O   UNL A   1      33.595  33.470  32.867  1.00  0.00    -0.744 OA
ENDBRANCH  84  85
ENDBRANCH  52  77
BRANCH  64  89
ATOM     89  C   UNL A   1      44.550  34.720  30.166  1.00  0.00     0.058 A 
ATOM     90  C   UNL A   1      45.055  35.071  31.429  1.00  0.00     0.135 A 
ATOM     91  C   UNL A   1      44.638  35.676  29.140  1.00  0.00     0.135 A 
ATOM     92  F   UNL A   1      44.999  34.197  32.447  1.00  0.00    -0.206 F 
ATOM     93  C   UNL A   1      45.584  36.334  31.676  1.00  0.00     0.059 A 
ATOM     94  C   UNL A   1      45.196  36.932  29.355  1.00  0.00     0.059 A 
ATOM     95  F   UNL A   1      44.189  35.389  27.908  1.00  0.00    -0.206 F 
ATOM     96  C   UNL A   1      45.647  37.259  30.633  1.00  0.00     0.060 A 
BRANCH  96  97
ATOM     97  S   UNL A   1      46.340  38.893  30.965  1.00  0.00     0.124 S 
ATOM     98  O   UNL A   1      47.260  39.054  29.844  1.00  0.00    -0.237 OA
ATOM     99  O   UNL A   1      45.156  39.746  30.942  1.00  0.00    -0.237 OA
ATOM    100  O   UNL A   1      46.967  38.737  32.274  1.00  0.00    -0.744 OA
ENDBRANCH  96  97
ENDBRANCH  64  89
ENDBRANCH  38  39
ENDBRANCH  31  33
ENDBRANCH  30  31
ENDBRANCH  29  30
ENDBRANCH   1  29
TORSDOF 18
ENDMDL
MODEL 2
REMARK VINA RESULT:     -10.5      4.830     10.390
REMARK SMILES O=C(OCCOC(=O)c1ccc(-c2c3nc(c(-c4c(F)cc(S(=O)(=O)[O-])cc4F)c4ccc([nH]4)c(-c4c(F)cc(S(=O)(=O)[O-])cc4F)c4nc(c(-c5c(F)cc(S(=O)(=O)[O-])cc5F)c5ccc2[nH]5)C=C4)C=C3)cc1)C1=Cc2cc(Cl)cc(-c3ccc(CO)cc3)c2O[C@@H]1C(F)(F)F
REMARK SMILES IDX 4 1 3 2 2 3 1 4 75 5 76 6 93 7 77 8 92 9 78 10 91 11 79 12
REMARK SMILES IDX 82 13 80 14 81 15 94 16 95 17 96 18 97 19 83 20 84 21 90 22
REMARK SMILES IDX 85 23 89 24 86 25 87 26 88 27 5 29 6 30 7 31 8 32 9 33 10 34
REMARK SMILES IDX 74 35 11 36 73 37 12 38 13 39 14 40 67 41 15 42 72 43 66 44
REMARK SMILES IDX 68 45 16 46 71 47 65 48 64 49 17 51 51 52 30 53 50 54 31 55
REMARK SMILES IDX 34 56 49 57 69 58 32 59 33 60 48 62 70 63 35 64 18 65 19 66
REMARK SMILES IDX 28 67 20 68 21 69 27 70 29 71 22 72 23 73 24 74 25 75 26 76
REMARK SMILES IDX 52 77 53 78 62 79 54 80 55 81 61 82 63 83 56 84 57 85 58 86
REMARK SMILES IDX 59 87 60 88 36 89 37 90 46 91 38 92 39 93 45 94 47 95 40 96
REMARK SMILES IDX 41 97 42 98 43 99 44 100
REMARK H PARENT 88 28 68 50 34 61
REMARK Flexibility Score: inf
ROOT
ATOM      1  C   UNL A   1      34.075  32.274  28.032  1.00  0.00     0.275 C 
ENDROOT
BRANCH   1   2
ATOM      2  O   UNL A   1      34.121  32.613  29.443  1.00  0.00    -0.459 OA
BRANCH   2   3
ATOM      3  C   UNL A   1      35.125  33.441  29.866  1.00  0.00     0.338 C 
ATOM      4  O   UNL A   1      35.825  34.085  29.101  1.00  0.00    -0.246 OA
BRANCH   3   5
ATOM      5  C   UNL A   1      35.268  33.462  31.347  1.00  0.00     0.087 C 
ATOM      6  C   UNL A   1      35.592  32.343  32.021  1.00  0.00     0.027 C 
ATOM      7  C   UNL A   1      35.715  34.725  31.986  1.00  0.00     0.316 C 
ATOM      8  C   UNL A   1      36.938  32.386  32.632  1.00  0.00     0.019 A 
ATOM      9  O   UNL A   1      37.167  34.731  32.095  1.00  0.00    -0.475 OA
ATOM     10  C   UNL A   1      37.505  31.253  33.210  1.00  0.00     0.032 A 
ATOM     11  C   UNL A   1      37.753  33.510  32.361  1.00  0.00     0.135 A 
ATOM     12  C   UNL A   1      38.879  31.219  33.436  1.00  0.00     0.042 A 
ATOM     13  C   UNL A   1      39.157  33.365  32.312  1.00  0.00     0.026 A 
ATOM     14  Cl  UNL A   1      39.595  29.838  34.170  1.00  0.00    -0.084 Cl
ATOM     15  C   UNL A   1      39.701  32.232  32.944  1.00  0.00     0.033 A 
BRANCH   7  16
ATOM     16  C   UNL A   1      34.870  35.026  33.247  1.00  0.00     0.430 C 
ATOM     17  F   UNL A   1      33.659  34.417  33.142  1.00  0.00    -0.167 F 
ATOM     18  F   UNL A   1      35.423  34.582  34.397  1.00  0.00    -0.167 F 
ATOM     19  F   UNL A   1      34.637  36.348  33.392  1.00  0.00    -0.167 F 
ENDBRANCH   7  16
BRANCH  13  20
ATOM     20  C   UNL A   1      40.044  34.058  31.333  1.00  0.00    -0.015 A 
ATOM     21  C   UNL A   1      39.495  34.390  30.070  1.00  0.00     0.009 A 
ATOM     22  C   UNL A   1      41.397  34.346  31.528  1.00  0.00     0.009 A 
ATOM     23  C   UNL A   1      40.256  34.971  29.048  1.00  0.00     0.007 A 
ATOM     24  C   UNL A   1      42.165  34.947  30.502  1.00  0.00     0.007 A 
ATOM     25  C   UNL A   1      41.605  35.261  29.253  1.00  0.00    -0.023 A 
BRANCH  25  26
ATOM     26  C   UNL A   1      42.410  35.894  28.144  1.00  0.00     0.191 C 
BRANCH  26  27
ATOM     27  O   UNL A   1      41.764  35.716  26.889  1.00  0.00    -0.392 OA
ATOM     28  H   UNL A   1      41.980  36.458  26.306  1.00  0.00     0.211 HD
ENDBRANCH  26  27
ENDBRANCH  25  26
ENDBRANCH  13  20
ENDBRANCH   3   5
ENDBRANCH   2   3
ENDBRANCH   1   2
BRANCH   1  29
ATOM     29  C   UNL A   1      34.613  30.856  27.699  1.00  0.00     0.275 C 
BRANCH  29  30
ATOM     30  O   UNL A   1      36.037  30.737  27.792  1.00  0.00    -0.458 OA
BRANCH  30  31
ATOM     31  C   UNL A   1      36.469  30.172  28.938  1.00  0.00     0.338 C 
ATOM     32  O   UNL A   1      35.766  29.623  29.777  1.00  0.00    -0.246 OA
BRANCH  31  33
ATOM     33  C   UNL A   1      37.944  30.086  28.898  1.00  0.00     0.060 A 
ATOM     34  C   UNL A   1      38.502  29.613  27.709  1.00  0.00     0.016 A 
ATOM     35  C   UNL A   1      38.775  30.502  29.948  1.00  0.00     0.016 A 
ATOM     36  C   UNL A   1      39.881  29.481  27.591  1.00  0.00     0.010 A 
ATOM     37  C   UNL A   1      40.168  30.396  29.814  1.00  0.00     0.010 A 
ATOM     38  C   UNL A   1      40.727  29.834  28.653  1.00  0.00    -0.014 A 
BRANCH  38  39
ATOM     39  C   UNL A   1      42.153  29.415  28.566  1.00  0.00     0.031 A 
ATOM     40  C   UNL A   1      42.463  27.970  28.268  1.00  0.00     0.074 A 
ATOM     41  C   UNL A   1      43.145  30.326  28.587  1.00  0.00     0.049 A 
ATOM     42  N   UNL A   1      43.595  27.426  27.904  1.00  0.00    -0.248 NA
ATOM     43  C   UNL A   1      41.350  27.014  28.385  1.00  0.00     0.031 C 
ATOM     44  C   UNL A   1      42.982  31.751  28.877  1.00  0.00     0.029 A 
ATOM     45  N   UNL A   1      44.488  30.191  28.327  1.00  0.00    -0.354 N 
ATOM     46  C   UNL A   1      43.318  26.079  27.705  1.00  0.00     0.074 A 
ATOM     47  C   UNL A   1      41.937  25.870  28.075  1.00  0.00     0.031 C 
ATOM     48  C   UNL A   1      44.175  32.361  28.758  1.00  0.00     0.029 A 
ATOM     49  C   UNL A   1      45.187  31.375  28.385  1.00  0.00     0.049 A 
ATOM     50  H   UNL A   1      44.911  29.327  28.119  1.00  0.00     0.167 HD
ATOM     51  C   UNL A   1      44.122  25.106  27.215  1.00  0.00     0.037 A 
ATOM     52  C   UNL A   1      46.490  31.633  28.149  1.00  0.00     0.037 A 
ATOM     53  C   UNL A   1      45.504  25.303  26.866  1.00  0.00     0.049 A 
ATOM     54  C   UNL A   1      47.387  30.515  27.668  1.00  0.00     0.074 A 
ATOM     55  C   UNL A   1      46.407  24.379  26.374  1.00  0.00     0.029 A 
ATOM     56  N   UNL A   1      46.184  26.505  26.983  1.00  0.00    -0.354 N 
ATOM     57  N   UNL A   1      47.087  29.263  27.414  1.00  0.00    -0.248 NA
ATOM     58  C   UNL A   1      48.796  30.854  27.418  1.00  0.00     0.031 C 
ATOM     59  C   UNL A   1      47.648  25.011  26.237  1.00  0.00     0.029 A 
ATOM     60  C   UNL A   1      47.502  26.343  26.591  1.00  0.00     0.049 A 
ATOM     61  H   UNL A   1      45.788  27.351  27.297  1.00  0.00     0.167 HD
ATOM     62  C   UNL A   1      48.261  28.676  26.947  1.00  0.00     0.074 A 
ATOM     63  C   UNL A   1      49.266  29.717  26.929  1.00  0.00     0.031 C 
ATOM     64  C   UNL A   1      48.491  27.392  26.571  1.00  0.00     0.037 A 
BRANCH  51  65
ATOM     65  C   UNL A   1      43.514  23.745  27.021  1.00  0.00     0.058 A 
ATOM     66  C   UNL A   1      43.063  23.322  25.759  1.00  0.00     0.135 A 
ATOM     67  C   UNL A   1      43.394  22.850  28.094  1.00  0.00     0.135 A 
ATOM     68  F   UNL A   1      43.132  24.149  24.703  1.00  0.00    -0.206 F 
ATOM     69  C   UNL A   1      42.488  22.070  25.574  1.00  0.00     0.059 A 
ATOM     70  C   UNL A   1      42.847  21.581  27.926  1.00  0.00     0.059 A 
ATOM     71  F   UNL A   1      43.802  23.206  29.321  1.00  0.00    -0.206 F 
ATOM     72  C   UNL A   1      42.386  21.205  26.664  1.00  0.00     0.060 A 
BRANCH  72  73
ATOM     73  S   UNL A   1      41.645  19.581  26.404  1.00  0.00     0.124 S 
ATOM     74  O   UNL A   1      42.368  19.117  25.223  1.00  0.00    -0.237 OA
ATOM     75  O   UNL A   1      41.961  18.891  27.651  1.00  0.00    -0.237 OA
ATOM     76  O   UNL A   1      40.232  19.880  26.195  1.00  0.00    -0.744 OA
ENDBRANCH  72  73
ENDBRANCH  51  65
BRANCH  52  77
ATOM     77  C   UNL A   1      47.044  33.003  28.358  1.00  0.00     0.058 A 
ATOM     78  C   UNL A   1      47.526  33.422  29.609  1.00  0.00     0.135 A 
ATOM     79  C   UNL A   1      47.037  33.945  27.318  1.00  0.00     0.135 A 
ATOM     80  F   UNL A   1      47.546  32.566  30.641  1.00  0.00    -0.206 F 
ATOM     81  C   UNL A   1      47.940  34.734  29.831  1.00  0.00     0.059 A 
ATOM     82  C   UNL A   1      47.474  35.252  27.506  1.00  0.00     0.059 A 
ATOM     83  F   UNL A   1      46.598  33.597  26.098  1.00  0.00    -0.206 F 
ATOM     84  C   UNL A   1      47.904  35.644  28.773  1.00  0.00     0.060 A 
BRANCH  84  85
ATOM     85  S   UNL A   1      48.439  37.344  29.069  1.00  0.00     0.124 S 
ATOM     86  O   UNL A   1      49.051  37.687  27.790  1.00  0.00    -0.237 OA
ATOM     87  O   UNL A   1      47.178  38.013  29.373  1.00  0.00    -0.237 OA
ATOM     88  O   UNL A   1      49.359  37.215  30.195  1.00  0.00    -0.744 OA
ENDBRANCH  84  85
ENDBRANCH  52  77
BRANCH  64  89
ATOM     89  C   UNL A   1      49.872  27.046  26.079  1.00  0.00     0.058 A 
ATOM     90  C   UNL A   1      50.224  27.152  24.723  1.00  0.00     0.135 A 
ATOM     91  C   UNL A   1      50.868  26.635  26.980  1.00  0.00     0.135 A 
ATOM     92  F   UNL A   1      49.313  27.542  23.817  1.00  0.00    -0.206 F 
ATOM     93  C   UNL A   1      51.498  26.820  24.273  1.00  0.00     0.059 A 
ATOM     94  C   UNL A   1      52.159  26.333  26.558  1.00  0.00     0.059 A 
ATOM     95  F   UNL A   1      50.595  26.534  28.291  1.00  0.00    -0.206 F 
ATOM     96  C   UNL A   1      52.459  26.409  25.199  1.00  0.00     0.060 A 
BRANCH  96  97
ATOM     97  S   UNL A   1      54.109  25.986  24.603  1.00  0.00     0.124 S 
ATOM     98  O   UNL A   1      54.131  24.541  24.802  1.00  0.00    -0.237 OA
ATOM     99  O   UNL A   1      54.065  26.435  23.215  1.00  0.00    -0.237 OA
ATOM    100  O   UNL A   1      54.993  26.753  25.475  1.00  0.00    -0.744 OA
ENDBRANCH  96  97
ENDBRANCH  64  89
ENDBRANCH  38  39
ENDBRANCH  31  33
ENDBRANCH  30  31
ENDBRANCH  29  30
ENDBRANCH   1  29
TORSDOF 18
ENDMDL
MODEL 3
REMARK VINA RESULT:     -10.5      1.992      3.025
REMARK SMILES O=C(OCCOC(=O)c1ccc(-c2c3nc(c(-c4c(F)cc(S(=O)(=O)[O-])cc4F)c4ccc([nH]4)c(-c4c(F)cc(S(=O)(=O)[O-])cc4F)c4nc(c(-c5c(F)cc(S(=O)(=O)[O-])cc5F)c5ccc2[nH]5)C=C4)C=C3)cc1)C1=Cc2cc(Cl)cc(-c3ccc(CO)cc3)c2O[C@@H]1C(F)(F)F
REMARK SMILES IDX 4 1 3 2 2 3 1 4 75 5 76 6 93 7 77 8 92 9 78 10 91 11 79 12
REMARK SMILES IDX 82 13 80 14 81 15 94 16 95 17 96 18 97 19 83 20 84 21 90 22
REMARK SMILES IDX 85 23 89 24 86 25 87 26 88 27 5 29 6 30 7 31 8 32 9 33 10 34
REMARK SMILES IDX 74 35 11 36 73 37 12 38 13 39 14 40 67 41 15 42 72 43 66 44
REMARK SMILES IDX 68 45 16 46 71 47 65 48 64 49 17 51 51 52 30 53 50 54 31 55
REMARK SMILES IDX 34 56 49 57 69 58 32 59 33 60 48 62 70 63 35 64 18 65 19 66
REMARK SMILES IDX 28 67 20 68 21 69 27 70 29 71 22 72 23 73 24 74 25 75 26 76
REMARK SMILES IDX 52 77 53 78 62 79 54 80 55 81 61 82 63 83 56 84 57 85 58 86
REMARK SMILES IDX 59 87 60 88 36 89 37 90 46 91 38 92 39 93 45 94 47 95 40 96
REMARK SMILES IDX 41 97 42 98 43 99 44 100
REMARK H PARENT 88 28 68 50 34 61
REMARK Flexibility Score: inf
ROOT
ATOM      1  C   UNL A   1      35.476  21.535  26.267  1.00  0.00     0.275 C 
ENDROOT
BRANCH   1   2
ATOM      2  O   UNL A   1      35.049  22.799  26.842  1.00  0.00    -0.459 OA
BRANCH   2   3
ATOM      3  C   UNL A   1      33.732  23.144  26.712  1.00  0.00     0.338 C 
ATOM      4  O   UNL A   1      32.977  23.266  27.663  1.00  0.00    -0.246 OA
BRANCH   3   5
ATOM      5  C   UNL A   1      33.328  23.347  25.294  1.00  0.00     0.087 C 
ATOM      6  C   UNL A   1      32.027  23.404  24.953  1.00  0.00     0.027 C 
ATOM      7  C   UNL A   1      34.236  24.125  24.415  1.00  0.00     0.316 C 
ATOM      8  C   UNL A   1      31.591  24.741  24.494  1.00  0.00     0.019 A 
ATOM      9  O   UNL A   1      33.874  25.534  24.460  1.00  0.00    -0.475 OA
ATOM     10  C   UNL A   1      30.245  25.025  24.274  1.00  0.00     0.032 A 
ATOM     11  C   UNL A   1      32.524  25.802  24.564  1.00  0.00     0.135 A 
ATOM     12  C   UNL A   1      29.833  26.355  24.209  1.00  0.00     0.042 A 
ATOM     13  C   UNL A   1      32.073  27.121  24.794  1.00  0.00     0.026 A 
ATOM     14  Cl  UNL A   1      28.179  26.727  23.915  1.00  0.00    -0.084 Cl
ATOM     15  C   UNL A   1      30.719  27.385  24.519  1.00  0.00     0.033 A 
BRANCH   7  16
ATOM     16  C   UNL A   1      34.383  23.435  23.037  1.00  0.00     0.430 C 
ATOM     17  F   UNL A   1      33.936  22.153  23.118  1.00  0.00    -0.167 F 
ATOM     18  F   UNL A   1      33.675  24.026  22.050  1.00  0.00    -0.167 F 
ATOM     19  F   UNL A   1      35.672  23.380  22.637  1.00  0.00    -0.167 F 
ENDBRANCH   7  16
BRANCH  13  20
ATOM     20  C   UNL A   1      32.772  28.114  25.660  1.00  0.00    -0.015 A 
ATOM     21  C   UNL A   1      32.285  29.445  25.657  1.00  0.00     0.009 A 
ATOM     22  C   UNL A   1      33.913  27.862  26.424  1.00  0.00     0.009 A 
ATOM     23  C   UNL A   1      32.910  30.476  26.370  1.00  0.00     0.007 A 
ATOM     24  C   UNL A   1      34.538  28.898  27.158  1.00  0.00     0.007 A 
ATOM     25  C   UNL A   1      34.046  30.214  27.135  1.00  0.00    -0.023 A 
BRANCH  25  26
ATOM     26  C   UNL A   1      34.704  31.334  27.904  1.00  0.00     0.191 C 
BRANCH  26  27
ATOM     27  O   UNL A   1      33.772  32.374  28.174  1.00  0.00    -0.392 OA
ATOM     28  H   UNL A   1      33.396  32.696  27.340  1.00  0.00     0.211 HD
ENDBRANCH  26  27
ENDBRANCH  25  26
ENDBRANCH  13  20
ENDBRANCH   3   5
ENDBRANCH   2   3
ENDBRANCH   1   2
BRANCH   1  29
ATOM     29  C   UNL A   1      36.841  21.599  25.529  1.00  0.00     0.275 C 
BRANCH  29  30
ATOM     30  O   UNL A   1      37.527  22.847  25.682  1.00  0.00    -0.458 OA
BRANCH  30  31
ATOM     31  C   UNL A   1      38.790  22.728  26.138  1.00  0.00     0.338 C 
ATOM     32  O   UNL A   1      39.579  21.838  25.845  1.00  0.00    -0.246 OA
BRANCH  31  33
ATOM     33  C   UNL A   1      39.161  23.976  26.838  1.00  0.00     0.060 A 
ATOM     34  C   UNL A   1      39.841  24.930  26.078  1.00  0.00     0.016 A 
ATOM     35  C   UNL A   1      38.816  24.253  28.168  1.00  0.00     0.016 A 
ATOM     36  C   UNL A   1      40.246  26.126  26.661  1.00  0.00     0.010 A 
ATOM     37  C   UNL A   1      39.199  25.474  28.745  1.00  0.00     0.010 A 
ATOM     38  C   UNL A   1      39.964  26.396  28.008  1.00  0.00    -0.014 A 
BRANCH  38  39
ATOM     39  C   UNL A   1      40.655  27.554  28.638  1.00  0.00     0.031 A 
ATOM     40  C   UNL A   1      42.161  27.610  28.589  1.00  0.00     0.074 A 
ATOM     41  C   UNL A   1      39.957  28.613  29.094  1.00  0.00     0.049 A 
ATOM     42  N   UNL A   1      42.960  28.614  28.840  1.00  0.00    -0.248 NA
ATOM     43  C   UNL A   1      42.859  26.373  28.197  1.00  0.00     0.031 C 
ATOM     44  C   UNL A   1      38.500  28.683  29.207  1.00  0.00     0.029 A 
ATOM     45  N   UNL A   1      40.384  29.848  29.520  1.00  0.00    -0.354 N 
ATOM     46  C   UNL A   1      44.244  28.144  28.591  1.00  0.00     0.074 A 
ATOM     47  C   UNL A   1      44.127  26.743  28.259  1.00  0.00     0.031 C 
ATOM     48  C   UNL A   1      38.154  29.904  29.652  1.00  0.00     0.029 A 
ATOM     49  C   UNL A   1      39.360  30.704  29.855  1.00  0.00     0.049 A 
ATOM     50  H   UNL A   1      41.334  30.098  29.579  1.00  0.00     0.167 HD
ATOM     51  C   UNL A   1      45.415  28.823  28.592  1.00  0.00     0.037 A 
ATOM     52  C   UNL A   1      39.394  31.990  30.265  1.00  0.00     0.037 A 
ATOM     53  C   UNL A   1      45.541  30.212  28.944  1.00  0.00     0.049 A 
ATOM     54  C   UNL A   1      40.722  32.708  30.325  1.00  0.00     0.074 A 
ATOM     55  C   UNL A   1      46.685  30.989  28.988  1.00  0.00     0.029 A 
ATOM     56  N   UNL A   1      44.487  31.030  29.321  1.00  0.00    -0.354 N 
ATOM     57  N   UNL A   1      41.919  32.267  30.013  1.00  0.00    -0.248 NA
ATOM     58  C   UNL A   1      40.700  34.110  30.770  1.00  0.00     0.031 C 
ATOM     59  C   UNL A   1      46.328  32.265  29.438  1.00  0.00     0.029 A 
ATOM     60  C   UNL A   1      44.955  32.298  29.620  1.00  0.00     0.049 A 
ATOM     61  H   UNL A   1      43.543  30.750  29.368  1.00  0.00     0.167 HD
ATOM     62  C   UNL A   1      42.783  33.345  30.196  1.00  0.00     0.074 A 
ATOM     63  C   UNL A   1      41.968  34.463  30.618  1.00  0.00     0.031 C 
ATOM     64  C   UNL A   1      44.129  33.404  30.033  1.00  0.00     0.037 A 
BRANCH  51  65
ATOM     65  C   UNL A   1      46.649  28.065  28.188  1.00  0.00     0.058 A 
ATOM     66  C   UNL A   1      47.126  28.100  26.867  1.00  0.00     0.135 A 
ATOM     67  C   UNL A   1      47.371  27.311  29.126  1.00  0.00     0.135 A 
ATOM     68  F   UNL A   1      46.460  28.786  25.924  1.00  0.00    -0.206 F 
ATOM     69  C   UNL A   1      48.259  27.391  26.484  1.00  0.00     0.059 A 
ATOM     70  C   UNL A   1      48.523  26.616  28.770  1.00  0.00     0.059 A 
ATOM     71  F   UNL A   1      46.955  27.238  30.399  1.00  0.00    -0.206 F 
ATOM     72  C   UNL A   1      48.952  26.653  27.443  1.00  0.00     0.060 A 
BRANCH  72  73
ATOM     73  S   UNL A   1      50.425  25.747  26.929  1.00  0.00     0.124 S 
ATOM     74  O   UNL A   1      51.488  26.583  27.480  1.00  0.00    -0.237 OA
ATOM     75  O   UNL A   1      50.236  24.453  27.578  1.00  0.00    -0.237 OA
ATOM     76  O   UNL A   1      50.329  25.736  25.473  1.00  0.00    -0.744 OA
ENDBRANCH  72  73
ENDBRANCH  51  65
BRANCH  52  77
ATOM     77  C   UNL A   1      38.139  32.696  30.655  1.00  0.00     0.058 A 
ATOM     78  C   UNL A   1      37.628  32.627  31.961  1.00  0.00     0.135 A 
ATOM     79  C   UNL A   1      37.389  33.402  29.702  1.00  0.00     0.135 A 
ATOM     80  F   UNL A   1      38.298  31.957  32.910  1.00  0.00    -0.206 F 
ATOM     81  C   UNL A   1      36.401  33.195  32.297  1.00  0.00     0.059 A 
ATOM     82  C   UNL A   1      36.176  34.004  30.020  1.00  0.00     0.059 A 
ATOM     83  F   UNL A   1      37.834  33.511  28.440  1.00  0.00    -0.206 F 
ATOM     84  C   UNL A   1      35.679  33.877  31.316  1.00  0.00     0.060 A 
BRANCH  84  85
ATOM     85  S   UNL A   1      34.086  34.608  31.757  1.00  0.00     0.124 S 
ATOM     86  O   UNL A   1      34.493  35.909  32.276  1.00  0.00    -0.237 OA
ATOM     87  O   UNL A   1      33.390  34.622  30.475  1.00  0.00    -0.237 OA
ATOM     88  O   UNL A   1      33.550  33.674  32.743  1.00  0.00    -0.744 OA
ENDBRANCH  84  85
ENDBRANCH  52  77
BRANCH  64  89
ATOM     89  C   UNL A   1      44.803  34.729  30.282  1.00  0.00     0.058 A 
ATOM     90  C   UNL A   1      45.373  35.049  31.525  1.00  0.00     0.135 A 
ATOM     91  C   UNL A   1      44.909  35.680  29.253  1.00  0.00     0.135 A 
ATOM     92  F   UNL A   1      45.304  34.178  32.545  1.00  0.00    -0.206 F 
ATOM     93  C   UNL A   1      45.983  36.279  31.753  1.00  0.00     0.059 A 
ATOM     94  C   UNL A   1      45.546  36.901  29.447  1.00  0.00     0.059 A 
ATOM     95  F   UNL A   1      44.399  35.421  28.038  1.00  0.00    -0.206 F 
ATOM     96  C   UNL A   1      46.062  37.200  30.707  1.00  0.00     0.060 A 
BRANCH  96  97
ATOM     97  S   UNL A   1      46.861  38.790  31.012  1.00  0.00     0.124 S 
ATOM     98  O   UNL A   1      45.724  39.620  31.395  1.00  0.00    -0.237 OA
ATOM     99  O   UNL A   1      47.799  38.468  32.083  1.00  0.00    -0.237 OA
ATOM    100  O   UNL A   1      47.473  39.116  29.729  1.00  0.00    -0.744 OA
ENDBRANCH  96  97
ENDBRANCH  64  89
ENDBRANCH  38  39
ENDBRANCH  31  33
ENDBRANCH  30  31
ENDBRANCH  29  30
ENDBRANCH   1  29
TORSDOF 18
ENDMDL
