MODEL 1
REMARK VINA RESULT:     -10.4      0.000      0.000
REMARK SMILES [NH3+][C@H](Cc1cc(F)c(F)c(F)c1)C(=O)OCCOC(=O)c1ccc(-c2c3nc(c(-c4c(F)cc(S(=O)(=O)[O-])cc4F)c4ccc([nH]4)c(-c4c(F)cc(S(=O)(=O)[O-])cc4F)c4nc(c(-c5c(F)cc(S(=O)(=O)[O-])cc5F)c5ccc2[nH]5)C=C4)C=C3)cc1
REMARK SMILES IDX 17 1 16 2 15 3 13 4 14 5 2 6 1 7 3 11 4 12 5 13 12 14 6 15
REMARK SMILES IDX 10 16 7 17 8 18 11 19 9 20 18 21 19 22 20 23 21 24 22 25
REMARK SMILES IDX 86 26 23 27 85 28 24 29 25 30 26 31 79 32 27 33 84 34 78 35
REMARK SMILES IDX 80 36 28 37 83 38 77 39 76 40 29 42 63 43 42 44 62 45 43 46
REMARK SMILES IDX 46 47 61 48 81 49 44 50 45 51 60 53 82 54 47 55 30 56 31 57
REMARK SMILES IDX 40 58 32 59 33 60 39 61 41 62 34 63 35 64 36 65 37 66 38 67
REMARK SMILES IDX 64 68 65 69 74 70 66 71 67 72 73 73 75 74 68 75 69 76 70 77
REMARK SMILES IDX 71 78 72 79 48 80 49 81 58 82 50 83 51 84 57 85 59 86 52 87
REMARK SMILES IDX 53 88 54 89 55 90 56 91
REMARK H PARENT 1 8 1 9 1 10 80 41 46 52
REMARK Flexibility Score: inf
ROOT
ATOM      1  C   UNL A   1      44.145  24.032  26.375  1.00  0.00     0.275 C 
ENDROOT
BRANCH   1   2
ATOM      2  C   UNL A   1      44.381  22.594  25.900  1.00  0.00     0.274 C 
BRANCH   2   3
ATOM      3  O   UNL A   1      43.265  22.051  25.166  1.00  0.00    -0.458 OA
BRANCH   3   4
ATOM      4  C   UNL A   1      42.797  20.855  25.631  1.00  0.00     0.365 C 
ATOM      5  O   UNL A   1      43.139  19.759  25.202  1.00  0.00    -0.245 OA
BRANCH   4   6
ATOM      6  C   UNL A   1      41.776  21.029  26.765  1.00  0.00     0.296 C 
BRANCH   6   7
ATOM      7  N   UNL A   1      42.257  20.356  27.997  1.00  0.00    -0.346 N 
ATOM      8  H   UNL A   1      42.551  21.058  28.675  1.00  0.00     0.345 HD
ATOM      9  H   UNL A   1      43.046  19.753  27.768  1.00  0.00     0.345 HD
ATOM     10  H   UNL A   1      41.503  19.794  28.393  1.00  0.00     0.345 HD
ENDBRANCH   6   7
BRANCH   6  11
ATOM     11  C   UNL A   1      40.373  20.538  26.354  1.00  0.00     0.113 C 
BRANCH  11  12
ATOM     12  C   UNL A   1      39.309  21.599  26.126  1.00  0.00    -0.035 A 
ATOM     13  C   UNL A   1      38.162  21.248  25.387  1.00  0.00     0.046 A 
ATOM     14  C   UNL A   1      39.391  22.904  26.635  1.00  0.00     0.046 A 
ATOM     15  C   UNL A   1      37.150  22.182  25.155  1.00  0.00     0.162 A 
ATOM     16  C   UNL A   1      38.373  23.828  26.384  1.00  0.00     0.162 A 
ATOM     17  F   UNL A   1      36.066  21.812  24.459  1.00  0.00    -0.204 F 
ATOM     18  C   UNL A   1      37.254  23.473  25.647  1.00  0.00     0.194 A 
ATOM     19  F   UNL A   1      38.487  25.067  26.881  1.00  0.00    -0.204 F 
ATOM     20  F   UNL A   1      36.277  24.364  25.431  1.00  0.00    -0.200 F 
ENDBRANCH  11  12
ENDBRANCH   6  11
ENDBRANCH   4   6
ENDBRANCH   3   4
ENDBRANCH   2   3
ENDBRANCH   1   2
BRANCH   1  21
ATOM     21  O   UNL A   1      42.746  24.356  26.459  1.00  0.00    -0.458 OA
BRANCH  21  22
ATOM     22  C   UNL A   1      42.424  25.624  26.107  1.00  0.00     0.338 C 
ATOM     23  O   UNL A   1      42.307  26.065  24.977  1.00  0.00    -0.246 OA
BRANCH  22  24
ATOM     24  C   UNL A   1      42.100  26.404  27.313  1.00  0.00     0.060 A 
ATOM     25  C   UNL A   1      41.114  25.922  28.177  1.00  0.00     0.016 A 
ATOM     26  C   UNL A   1      42.725  27.627  27.561  1.00  0.00     0.016 A 
ATOM     27  C   UNL A   1      40.747  26.658  29.302  1.00  0.00     0.010 A 
ATOM     28  C   UNL A   1      42.362  28.360  28.696  1.00  0.00     0.010 A 
ATOM     29  C   UNL A   1      41.374  27.879  29.574  1.00  0.00    -0.014 A 
BRANCH  29  30
ATOM     30  C   UNL A   1      41.029  28.641  30.796  1.00  0.00     0.031 A 
ATOM     31  C   UNL A   1      39.907  29.637  30.773  1.00  0.00     0.074 A 
ATOM     32  C   UNL A   1      41.758  28.458  31.913  1.00  0.00     0.049 A 
ATOM     33  N   UNL A   1      39.555  30.500  31.690  1.00  0.00    -0.248 NA
ATOM     34  C   UNL A   1      39.073  29.672  29.561  1.00  0.00     0.031 C 
ATOM     35  C   UNL A   1      42.856  27.498  32.056  1.00  0.00     0.029 A 
ATOM     36  N   UNL A   1      41.708  29.090  33.130  1.00  0.00    -0.354 N 
ATOM     37  C   UNL A   1      38.477  31.199  31.160  1.00  0.00     0.074 A 
ATOM     38  C   UNL A   1      38.232  30.660  29.840  1.00  0.00     0.031 C 
ATOM     39  C   UNL A   1      43.394  27.626  33.279  1.00  0.00     0.029 A 
ATOM     40  C   UNL A   1      42.714  28.708  33.987  1.00  0.00     0.049 A 
ATOM     41  H   UNL A   1      41.020  29.753  33.366  1.00  0.00     0.167 HD
ATOM     42  C   UNL A   1      37.765  32.200  31.729  1.00  0.00     0.037 A 
ATOM     43  C   UNL A   1      43.079  29.206  35.183  1.00  0.00     0.037 A 
ATOM     44  C   UNL A   1      38.004  32.709  33.055  1.00  0.00     0.049 A 
ATOM     45  C   UNL A   1      42.306  30.358  35.764  1.00  0.00     0.074 A 
ATOM     46  C   UNL A   1      37.290  33.674  33.745  1.00  0.00     0.029 A 
ATOM     47  N   UNL A   1      39.036  32.306  33.887  1.00  0.00    -0.354 N 
ATOM     48  N   UNL A   1      41.264  30.984  35.271  1.00  0.00    -0.248 NA
ATOM     49  C   UNL A   1      42.765  30.885  37.058  1.00  0.00     0.031 C 
ATOM     50  C   UNL A   1      37.922  33.891  34.973  1.00  0.00     0.029 A 
ATOM     51  C   UNL A   1      39.005  33.031  35.066  1.00  0.00     0.049 A 
ATOM     52  H   UNL A   1      39.696  31.607  33.672  1.00  0.00     0.167 HD
ATOM     53  C   UNL A   1      40.938  31.968  36.197  1.00  0.00     0.074 A 
ATOM     54  C   UNL A   1      41.878  31.844  37.290  1.00  0.00     0.031 C 
ATOM     55  C   UNL A   1      39.951  32.896  36.144  1.00  0.00     0.037 A 
BRANCH  42  56
ATOM     56  C   UNL A   1      36.671  32.839  30.925  1.00  0.00     0.058 A 
ATOM     57  C   UNL A   1      35.320  32.531  31.137  1.00  0.00     0.135 A 
ATOM     58  C   UNL A   1      36.977  33.850  29.997  1.00  0.00     0.135 A 
ATOM     59  F   UNL A   1      34.976  31.563  32.002  1.00  0.00    -0.206 F 
ATOM     60  C   UNL A   1      34.307  33.202  30.459  1.00  0.00     0.059 A 
ATOM     61  C   UNL A   1      35.980  34.547  29.322  1.00  0.00     0.059 A 
ATOM     62  F   UNL A   1      38.255  34.179  29.756  1.00  0.00    -0.206 F 
ATOM     63  C   UNL A   1      34.647  34.213  29.558  1.00  0.00     0.060 A 
BRANCH  63  64
ATOM     64  S   UNL A   1      33.321  35.111  28.723  1.00  0.00     0.124 S 
ATOM     65  O   UNL A   1      34.077  36.084  27.940  1.00  0.00    -0.237 OA
ATOM     66  O   UNL A   1      32.664  34.056  27.958  1.00  0.00    -0.237 OA
ATOM     67  O   UNL A   1      32.537  35.664  29.822  1.00  0.00    -0.744 OA
ENDBRANCH  63  64
ENDBRANCH  42  56
BRANCH  43  68
ATOM     68  C   UNL A   1      44.275  28.668  35.883  1.00  0.00     0.058 A 
ATOM     69  C   UNL A   1      44.169  27.612  36.799  1.00  0.00     0.135 A 
ATOM     70  C   UNL A   1      45.548  29.219  35.665  1.00  0.00     0.135 A 
ATOM     71  F   UNL A   1      42.972  27.059  37.048  1.00  0.00    -0.206 F 
ATOM     72  C   UNL A   1      45.276  27.136  37.493  1.00  0.00     0.059 A 
ATOM     73  C   UNL A   1      46.675  28.745  36.327  1.00  0.00     0.059 A 
ATOM     74  F   UNL A   1      45.705  30.224  34.789  1.00  0.00    -0.206 F 
ATOM     75  C   UNL A   1      46.525  27.714  37.253  1.00  0.00     0.060 A 
BRANCH  75  76
ATOM     76  S   UNL A   1      47.962  27.085  38.147  1.00  0.00     0.124 S 
ATOM     77  O   UNL A   1      47.952  25.678  37.763  1.00  0.00    -0.237 OA
ATOM     78  O   UNL A   1      49.048  27.889  37.596  1.00  0.00    -0.237 OA
ATOM     79  O   UNL A   1      47.635  27.362  39.543  1.00  0.00    -0.744 OA
ENDBRANCH  75  76
ENDBRANCH  43  68
BRANCH  55  80
ATOM     80  C   UNL A   1      39.832  33.845  37.302  1.00  0.00     0.058 A 
ATOM     81  C   UNL A   1      40.453  35.102  37.281  1.00  0.00     0.135 A 
ATOM     82  C   UNL A   1      39.041  33.520  38.415  1.00  0.00     0.135 A 
ATOM     83  F   UNL A   1      41.228  35.457  36.243  1.00  0.00    -0.206 F 
ATOM     84  C   UNL A   1      40.304  36.003  38.331  1.00  0.00     0.059 A 
ATOM     85  C   UNL A   1      38.860  34.414  39.466  1.00  0.00     0.059 A 
ATOM     86  F   UNL A   1      38.420  32.331  38.480  1.00  0.00    -0.206 F 
ATOM     87  C   UNL A   1      39.501  35.650  39.417  1.00  0.00     0.060 A 
BRANCH  87  88
ATOM     88  S   UNL A   1      39.276  36.847  40.751  1.00  0.00     0.124 S 
ATOM     89  O   UNL A   1      40.657  37.163  41.099  1.00  0.00    -0.237 OA
ATOM     90  O   UNL A   1      38.528  37.913  40.093  1.00  0.00    -0.237 OA
ATOM     91  O   UNL A   1      38.531  36.096  41.757  1.00  0.00    -0.744 OA
ENDBRANCH  87  88
ENDBRANCH  55  80
ENDBRANCH  29  30
ENDBRANCH  22  24
ENDBRANCH  21  22
ENDBRANCH   1  21
TORSDOF 17
ENDMDL
MODEL 2
REMARK VINA RESULT:     -10.3      6.254     13.097
REMARK SMILES [NH3+][C@H](Cc1cc(F)c(F)c(F)c1)C(=O)OCCOC(=O)c1ccc(-c2c3nc(c(-c4c(F)cc(S(=O)(=O)[O-])cc4F)c4ccc([nH]4)c(-c4c(F)cc(S(=O)(=O)[O-])cc4F)c4nc(c(-c5c(F)cc(S(=O)(=O)[O-])cc5F)c5ccc2[nH]5)C=C4)C=C3)cc1
REMARK SMILES IDX 17 1 16 2 15 3 13 4 14 5 2 6 1 7 3 11 4 12 5 13 12 14 6 15
REMARK SMILES IDX 10 16 7 17 8 18 11 19 9 20 18 21 19 22 20 23 21 24 22 25
REMARK SMILES IDX 86 26 23 27 85 28 24 29 25 30 26 31 79 32 27 33 84 34 78 35
REMARK SMILES IDX 80 36 28 37 83 38 77 39 76 40 29 42 63 43 42 44 62 45 43 46
REMARK SMILES IDX 46 47 61 48 81 49 44 50 45 51 60 53 82 54 47 55 30 56 31 57
REMARK SMILES IDX 40 58 32 59 33 60 39 61 41 62 34 63 35 64 36 65 37 66 38 67
REMARK SMILES IDX 64 68 65 69 74 70 66 71 67 72 73 73 75 74 68 75 69 76 70 77
REMARK SMILES IDX 71 78 72 79 48 80 49 81 58 82 50 83 51 84 57 85 59 86 52 87
REMARK SMILES IDX 53 88 54 89 55 90 56 91
REMARK H PARENT 1 8 1 9 1 10 80 41 46 52
REMARK Flexibility Score: inf
ROOT
ATOM      1  C   UNL A   1      36.359  32.804  32.615  1.00  0.00     0.275 C 
ENDROOT
BRANCH   1   2
ATOM      2  C   UNL A   1      34.837  32.976  32.580  1.00  0.00     0.274 C 
BRANCH   2   3
ATOM      3  O   UNL A   1      34.271  32.735  31.276  1.00  0.00    -0.458 OA
BRANCH   3   4
ATOM      4  C   UNL A   1      34.148  33.843  30.487  1.00  0.00     0.365 C 
ATOM      5  O   UNL A   1      33.510  34.845  30.788  1.00  0.00    -0.245 OA
BRANCH   4   6
ATOM      6  C   UNL A   1      34.901  33.698  29.157  1.00  0.00     0.296 C 
BRANCH   6   7
ATOM      7  N   UNL A   1      35.523  34.990  28.775  1.00  0.00    -0.346 N 
ATOM      8  H   UNL A   1      34.804  35.711  28.724  1.00  0.00     0.345 HD
ATOM      9  H   UNL A   1      35.974  34.894  27.866  1.00  0.00     0.345 HD
ATOM     10  H   UNL A   1      36.218  35.252  29.474  1.00  0.00     0.345 HD
ENDBRANCH   6   7
BRANCH   6  11
ATOM     11  C   UNL A   1      33.992  33.148  28.039  1.00  0.00     0.113 C 
BRANCH  11  12
ATOM     12  C   UNL A   1      34.111  31.668  27.718  1.00  0.00    -0.035 A 
ATOM     13  C   UNL A   1      32.972  30.995  27.232  1.00  0.00     0.046 A 
ATOM     14  C   UNL A   1      35.300  30.937  27.851  1.00  0.00     0.046 A 
ATOM     15  C   UNL A   1      33.028  29.636  26.914  1.00  0.00     0.162 A 
ATOM     16  C   UNL A   1      35.335  29.575  27.537  1.00  0.00     0.162 A 
ATOM     17  F   UNL A   1      31.930  29.030  26.441  1.00  0.00    -0.204 F 
ATOM     18  C   UNL A   1      34.205  28.923  27.069  1.00  0.00     0.194 A 
ATOM     19  F   UNL A   1      36.488  28.907  27.682  1.00  0.00    -0.204 F 
ATOM     20  F   UNL A   1      34.259  27.621  26.754  1.00  0.00    -0.200 F 
ENDBRANCH  11  12
ENDBRANCH   6  11
ENDBRANCH   4   6
ENDBRANCH   3   4
ENDBRANCH   2   3
ENDBRANCH   1   2
BRANCH   1  21
ATOM     21  O   UNL A   1      36.844  32.006  31.521  1.00  0.00    -0.458 OA
BRANCH  21  22
ATOM     22  C   UNL A   1      37.210  30.742  31.843  1.00  0.00     0.338 C 
ATOM     23  O   UNL A   1      36.581  29.945  32.518  1.00  0.00    -0.246 OA
BRANCH  22  24
ATOM     24  C   UNL A   1      38.460  30.397  31.147  1.00  0.00     0.060 A 
ATOM     25  C   UNL A   1      38.504  30.512  29.754  1.00  0.00     0.016 A 
ATOM     26  C   UNL A   1      39.560  29.912  31.853  1.00  0.00     0.016 A 
ATOM     27  C   UNL A   1      39.654  30.148  29.057  1.00  0.00     0.010 A 
ATOM     28  C   UNL A   1      40.718  29.555  31.153  1.00  0.00     0.010 A 
ATOM     29  C   UNL A   1      40.772  29.674  29.752  1.00  0.00    -0.014 A 
BRANCH  29  30
ATOM     30  C   UNL A   1      42.016  29.336  29.023  1.00  0.00     0.031 A 
ATOM     31  C   UNL A   1      42.226  27.949  28.489  1.00  0.00     0.074 A 
ATOM     32  C   UNL A   1      42.972  30.274  28.883  1.00  0.00     0.049 A 
ATOM     33  N   UNL A   1      43.301  27.425  27.961  1.00  0.00    -0.248 NA
ATOM     34  C   UNL A   1      41.079  27.029  28.559  1.00  0.00     0.031 C 
ATOM     35  C   UNL A   1      42.865  31.661  29.342  1.00  0.00     0.029 A 
ATOM     36  N   UNL A   1      44.230  30.197  28.342  1.00  0.00    -0.354 N 
ATOM     37  C   UNL A   1      42.973  26.109  27.659  1.00  0.00     0.074 A 
ATOM     38  C   UNL A   1      41.597  25.912  28.063  1.00  0.00     0.031 C 
ATOM     39  C   UNL A   1      44.021  32.296  29.090  1.00  0.00     0.029 A 
ATOM     40  C   UNL A   1      44.964  31.351  28.499  1.00  0.00     0.049 A 
ATOM     41  H   UNL A   1      44.575  29.396  27.887  1.00  0.00     0.167 HD
ATOM     42  C   UNL A   1      43.756  25.157  27.099  1.00  0.00     0.037 A 
ATOM     43  C   UNL A   1      46.262  31.602  28.245  1.00  0.00     0.037 A 
ATOM     44  C   UNL A   1      45.116  25.374  26.678  1.00  0.00     0.049 A 
ATOM     45  C   UNL A   1      47.124  30.506  27.678  1.00  0.00     0.074 A 
ATOM     46  C   UNL A   1      45.967  24.490  26.036  1.00  0.00     0.029 A 
ATOM     47  N   UNL A   1      45.827  26.549  26.863  1.00  0.00    -0.354 N 
ATOM     48  N   UNL A   1      46.791  29.278  27.360  1.00  0.00    -0.248 NA
ATOM     49  C   UNL A   1      48.541  30.824  27.448  1.00  0.00     0.031 C 
ATOM     50  C   UNL A   1      47.209  25.113  25.880  1.00  0.00     0.029 A 
ATOM     51  C   UNL A   1      47.119  26.401  26.386  1.00  0.00     0.049 A 
ATOM     52  H   UNL A   1      45.468  27.368  27.274  1.00  0.00     0.167 HD
ATOM     53  C   UNL A   1      47.953  28.681  26.883  1.00  0.00     0.074 A 
ATOM     54  C   UNL A   1      48.993  29.687  26.935  1.00  0.00     0.031 C 
ATOM     55  C   UNL A   1      48.143  27.412  26.447  1.00  0.00     0.037 A 
BRANCH  42  56
ATOM     56  C   UNL A   1      43.184  23.780  26.922  1.00  0.00     0.058 A 
ATOM     57  C   UNL A   1      42.773  23.305  25.670  1.00  0.00     0.135 A 
ATOM     58  C   UNL A   1      43.142  22.891  28.010  1.00  0.00     0.135 A 
ATOM     59  F   UNL A   1      42.780  24.119  24.603  1.00  0.00    -0.206 F 
ATOM     60  C   UNL A   1      42.340  21.994  25.498  1.00  0.00     0.059 A 
ATOM     61  C   UNL A   1      42.731  21.571  27.857  1.00  0.00     0.059 A 
ATOM     62  F   UNL A   1      43.522  23.300  29.231  1.00  0.00    -0.206 F 
ATOM     63  C   UNL A   1      42.328  21.132  26.596  1.00  0.00     0.060 A 
BRANCH  63  64
ATOM     64  S   UNL A   1      41.813  19.420  26.349  1.00  0.00     0.124 S 
ATOM     65  O   UNL A   1      42.587  19.050  25.167  1.00  0.00    -0.237 OA
ATOM     66  O   UNL A   1      42.223  18.786  27.598  1.00  0.00    -0.237 OA
ATOM     67  O   UNL A   1      40.371  19.522  26.146  1.00  0.00    -0.744 OA
ENDBRANCH  63  64
ENDBRANCH  42  56
BRANCH  43  68
ATOM     68  C   UNL A   1      46.849  32.924  28.589  1.00  0.00     0.058 A 
ATOM     69  C   UNL A   1      47.341  33.189  29.875  1.00  0.00     0.135 A 
ATOM     70  C   UNL A   1      46.905  33.958  27.641  1.00  0.00     0.135 A 
ATOM     71  F   UNL A   1      47.299  32.236  30.818  1.00  0.00    -0.206 F 
ATOM     72  C   UNL A   1      47.845  34.439  30.217  1.00  0.00     0.059 A 
ATOM     73  C   UNL A   1      47.429  35.208  27.951  1.00  0.00     0.059 A 
ATOM     74  F   UNL A   1      46.458  33.751  26.392  1.00  0.00    -0.206 F 
ATOM     75  C   UNL A   1      47.880  35.444  29.248  1.00  0.00     0.060 A 
BRANCH  75  76
ATOM     76  S   UNL A   1      48.548  37.061  29.693  1.00  0.00     0.124 S 
ATOM     77  O   UNL A   1      49.840  37.040  29.017  1.00  0.00    -0.237 OA
ATOM     78  O   UNL A   1      47.553  37.973  29.139  1.00  0.00    -0.237 OA
ATOM     79  O   UNL A   1      48.597  37.013  31.151  1.00  0.00    -0.744 OA
ENDBRANCH  75  76
ENDBRANCH  43  68
BRANCH  55  80
ATOM     80  C   UNL A   1      49.522  27.039  25.986  1.00  0.00     0.058 A 
ATOM     81  C   UNL A   1      50.448  26.446  26.857  1.00  0.00     0.135 A 
ATOM     82  C   UNL A   1      49.902  27.221  24.647  1.00  0.00     0.135 A 
ATOM     83  F   UNL A   1      50.137  26.260  28.150  1.00  0.00    -0.206 F 
ATOM     84  C   UNL A   1      51.709  26.054  26.419  1.00  0.00     0.059 A 
ATOM     85  C   UNL A   1      51.149  26.816  24.182  1.00  0.00     0.059 A 
ATOM     86  F   UNL A   1      49.049  27.778  23.772  1.00  0.00    -0.206 F 
ATOM     87  C   UNL A   1      52.049  26.241  25.078  1.00  0.00     0.060 A 
BRANCH  87  88
ATOM     88  S   UNL A   1      53.670  25.684  24.510  1.00  0.00     0.124 S 
ATOM     89  O   UNL A   1      54.562  26.552  25.271  1.00  0.00    -0.237 OA
ATOM     90  O   UNL A   1      53.672  24.277  24.898  1.00  0.00    -0.237 OA
ATOM     91  O   UNL A   1      53.629  25.931  23.072  1.00  0.00    -0.744 OA
ENDBRANCH  87  88
ENDBRANCH  55  80
ENDBRANCH  29  30
ENDBRANCH  22  24
ENDBRANCH  21  22
ENDBRANCH   1  21
TORSDOF 17
ENDMDL
MODEL 3
REMARK VINA RESULT:     -10.2      5.059     11.903
REMARK SMILES [NH3+][C@H](Cc1cc(F)c(F)c(F)c1)C(=O)OCCOC(=O)c1ccc(-c2c3nc(c(-c4c(F)cc(S(=O)(=O)[O-])cc4F)c4ccc([nH]4)c(-c4c(F)cc(S(=O)(=O)[O-])cc4F)c4nc(c(-c5c(F)cc(S(=O)(=O)[O-])cc5F)c5ccc2[nH]5)C=C4)C=C3)cc1
REMARK SMILES IDX 17 1 16 2 15 3 13 4 14 5 2 6 1 7 3 11 4 12 5 13 12 14 6 15
REMARK SMILES IDX 10 16 7 17 8 18 11 19 9 20 18 21 19 22 20 23 21 24 22 25
REMARK SMILES IDX 86 26 23 27 85 28 24 29 25 30 26 31 79 32 27 33 84 34 78 35
REMARK SMILES IDX 80 36 28 37 83 38 77 39 76 40 29 42 63 43 42 44 62 45 43 46
REMARK SMILES IDX 46 47 61 48 81 49 44 50 45 51 60 53 82 54 47 55 30 56 31 57
REMARK SMILES IDX 40 58 32 59 33 60 39 61 41 62 34 63 35 64 36 65 37 66 38 67
REMARK SMILES IDX 64 68 65 69 74 70 66 71 67 72 73 73 75 74 68 75 69 76 70 77
REMARK SMILES IDX 71 78 72 79 48 80 49 81 58 82 50 83 51 84 57 85 59 86 52 87
REMARK SMILES IDX 53 88 54 89 55 90 56 91
REMARK H PARENT 1 8 1 9 1 10 80 41 46 52
REMARK Flexibility Score: inf
ROOT
ATOM      1  C   UNL A   1      33.722  32.501  27.667  1.00  0.00     0.275 C 
ENDROOT
BRANCH   1   2
ATOM      2  C   UNL A   1      33.746  33.958  28.140  1.00  0.00     0.274 C 
BRANCH   2   3
ATOM      3  O   UNL A   1      34.649  34.180  29.243  1.00  0.00    -0.458 OA
BRANCH   3   4
ATOM      4  C   UNL A   1      34.046  34.460  30.435  1.00  0.00     0.365 C 
ATOM      5  O   UNL A   1      32.927  34.946  30.552  1.00  0.00    -0.245 OA
BRANCH   4   6
ATOM      6  C   UNL A   1      34.932  34.100  31.636  1.00  0.00     0.296 C 
BRANCH   6   7
ATOM      7  N   UNL A   1      35.457  35.332  32.275  1.00  0.00    -0.346 N 
ATOM      8  H   UNL A   1      36.441  35.446  32.036  1.00  0.00     0.345 HD
ATOM      9  H   UNL A   1      35.359  35.257  33.287  1.00  0.00     0.345 HD
ATOM     10  H   UNL A   1      34.929  36.139  31.942  1.00  0.00     0.345 HD
ENDBRANCH   6   7
BRANCH   6  11
ATOM     11  C   UNL A   1      36.067  33.132  31.242  1.00  0.00     0.113 C 
BRANCH  11  12
ATOM     12  C   UNL A   1      37.195  32.946  32.242  1.00  0.00    -0.035 A 
ATOM     13  C   UNL A   1      36.983  32.087  33.338  1.00  0.00     0.046 A 
ATOM     14  C   UNL A   1      38.451  33.560  32.121  1.00  0.00     0.046 A 
ATOM     15  C   UNL A   1      37.989  31.874  34.283  1.00  0.00     0.162 A 
ATOM     16  C   UNL A   1      39.442  33.343  33.081  1.00  0.00     0.162 A 
ATOM     17  F   UNL A   1      37.758  31.041  35.307  1.00  0.00    -0.204 F 
ATOM     18  C   UNL A   1      39.217  32.503  34.161  1.00  0.00     0.194 A 
ATOM     19  F   UNL A   1      40.628  33.950  32.936  1.00  0.00    -0.204 F 
ATOM     20  F   UNL A   1      40.184  32.289  35.064  1.00  0.00    -0.200 F 
ENDBRANCH  11  12
ENDBRANCH   6  11
ENDBRANCH   4   6
ENDBRANCH   3   4
ENDBRANCH   2   3
ENDBRANCH   1   2
BRANCH   1  21
ATOM     21  O   UNL A   1      34.245  31.597  28.656  1.00  0.00    -0.458 OA
BRANCH  21  22
ATOM     22  C   UNL A   1      34.504  30.343  28.214  1.00  0.00     0.338 C 
ATOM     23  O   UNL A   1      33.748  29.609  27.601  1.00  0.00    -0.246 OA
BRANCH  22  24
ATOM     24  C   UNL A   1      35.914  30.010  28.474  1.00  0.00     0.060 A 
ATOM     25  C   UNL A   1      36.816  30.037  27.406  1.00  0.00     0.016 A 
ATOM     26  C   UNL A   1      36.334  29.621  29.746  1.00  0.00     0.016 A 
ATOM     27  C   UNL A   1      38.148  29.681  27.604  1.00  0.00     0.010 A 
ATOM     28  C   UNL A   1      37.674  29.272  29.946  1.00  0.00     0.010 A 
ATOM     29  C   UNL A   1      38.588  29.303  28.878  1.00  0.00    -0.014 A 
BRANCH  29  30
ATOM     30  C   UNL A   1      40.014  28.975  29.108  1.00  0.00     0.031 A 
ATOM     31  C   UNL A   1      40.973  30.042  29.549  1.00  0.00     0.074 A 
ATOM     32  C   UNL A   1      40.446  27.720  28.878  1.00  0.00     0.049 A 
ATOM     33  N   UNL A   1      42.275  29.984  29.656  1.00  0.00    -0.248 NA
ATOM     34  C   UNL A   1      40.396  31.345  29.914  1.00  0.00     0.031 C 
ATOM     35  C   UNL A   1      39.597  26.598  28.470  1.00  0.00     0.029 A 
ATOM     36  N   UNL A   1      41.708  27.184  28.924  1.00  0.00    -0.354 N 
ATOM     37  C   UNL A   1      42.677  31.246  30.075  1.00  0.00     0.074 A 
ATOM     38  C   UNL A   1      41.482  32.051  30.203  1.00  0.00     0.031 C 
ATOM     39  C   UNL A   1      40.367  25.515  28.275  1.00  0.00     0.029 A 
ATOM     40  C   UNL A   1      41.764  25.878  28.495  1.00  0.00     0.049 A 
ATOM     41  H   UNL A   1      42.497  27.685  29.234  1.00  0.00     0.167 HD
ATOM     42  C   UNL A   1      43.933  31.685  30.325  1.00  0.00     0.037 A 
ATOM     43  C   UNL A   1      42.823  25.082  28.255  1.00  0.00     0.037 A 
ATOM     44  C   UNL A   1      45.113  30.865  30.219  1.00  0.00     0.049 A 
ATOM     45  C   UNL A   1      44.210  25.617  28.484  1.00  0.00     0.074 A 
ATOM     46  C   UNL A   1      46.422  31.202  30.519  1.00  0.00     0.029 A 
ATOM     47  N   UNL A   1      45.131  29.554  29.771  1.00  0.00    -0.354 N 
ATOM     48  N   UNL A   1      44.575  26.799  28.919  1.00  0.00    -0.248 NA
ATOM     49  C   UNL A   1      45.331  24.716  28.179  1.00  0.00     0.031 C 
ATOM     50  C   UNL A   1      47.238  30.111  30.203  1.00  0.00     0.029 A 
ATOM     51  C   UNL A   1      46.432  29.080  29.746  1.00  0.00     0.049 A 
ATOM     52  H   UNL A   1      44.337  29.036  29.508  1.00  0.00     0.167 HD
ATOM     53  C   UNL A   1      45.965  26.780  28.948  1.00  0.00     0.074 A 
ATOM     54  C   UNL A   1      46.376  25.465  28.507  1.00  0.00     0.031 C 
ATOM     55  C   UNL A   1      46.824  27.767  29.303  1.00  0.00     0.037 A 
BRANCH  42  56
ATOM     56  C   UNL A   1      44.119  33.123  30.716  1.00  0.00     0.058 A 
ATOM     57  C   UNL A   1      44.189  34.147  29.762  1.00  0.00     0.135 A 
ATOM     58  C   UNL A   1      44.127  33.487  32.074  1.00  0.00     0.135 A 
ATOM     59  F   UNL A   1      44.199  33.850  28.453  1.00  0.00    -0.206 F 
ATOM     60  C   UNL A   1      44.258  35.485  30.137  1.00  0.00     0.059 A 
ATOM     61  C   UNL A   1      44.177  34.819  32.471  1.00  0.00     0.059 A 
ATOM     62  F   UNL A   1      44.066  32.543  33.026  1.00  0.00    -0.206 F 
ATOM     63  C   UNL A   1      44.245  35.812  31.495  1.00  0.00     0.060 A 
BRANCH  63  64
ATOM     64  S   UNL A   1      44.285  37.554  31.966  1.00  0.00     0.124 S 
ATOM     65  O   UNL A   1      43.828  38.199  30.739  1.00  0.00    -0.237 OA
ATOM     66  O   UNL A   1      43.352  37.595  33.088  1.00  0.00    -0.237 OA
ATOM     67  O   UNL A   1      45.684  37.783  32.311  1.00  0.00    -0.744 OA
ENDBRANCH  63  64
ENDBRANCH  42  56
BRANCH  43  68
ATOM     68  C   UNL A   1      42.620  23.716  27.702  1.00  0.00     0.058 A 
ATOM     69  C   UNL A   1      42.522  22.598  28.543  1.00  0.00     0.135 A 
ATOM     70  C   UNL A   1      42.545  23.502  26.317  1.00  0.00     0.135 A 
ATOM     71  F   UNL A   1      42.599  22.751  29.874  1.00  0.00    -0.206 F 
ATOM     72  C   UNL A   1      42.382  21.313  28.030  1.00  0.00     0.059 A 
ATOM     73  C   UNL A   1      42.379  22.230  25.781  1.00  0.00     0.059 A 
ATOM     74  F   UNL A   1      42.621  24.541  25.470  1.00  0.00    -0.206 F 
ATOM     75  C   UNL A   1      42.317  21.139  26.646  1.00  0.00     0.060 A 
BRANCH  75  76
ATOM     76  S   UNL A   1      42.121  19.471  25.985  1.00  0.00     0.124 S 
ATOM     77  O   UNL A   1      40.683  19.416  25.749  1.00  0.00    -0.237 OA
ATOM     78  O   UNL A   1      42.963  19.506  24.793  1.00  0.00    -0.237 OA
ATOM     79  O   UNL A   1      42.616  18.623  27.066  1.00  0.00    -0.744 OA
ENDBRANCH  75  76
ENDBRANCH  43  68
BRANCH  55  80
ATOM     80  C   UNL A   1      48.293  27.462  29.236  1.00  0.00     0.058 A 
ATOM     81  C   UNL A   1      49.063  27.824  28.120  1.00  0.00     0.135 A 
ATOM     82  C   UNL A   1      48.948  26.856  30.319  1.00  0.00     0.135 A 
ATOM     83  F   UNL A   1      48.482  28.396  27.054  1.00  0.00    -0.206 F 
ATOM     84  C   UNL A   1      50.433  27.586  28.077  1.00  0.00     0.059 A 
ATOM     85  C   UNL A   1      50.320  26.629  30.307  1.00  0.00     0.059 A 
ATOM     86  F   UNL A   1      48.256  26.497  31.412  1.00  0.00    -0.206 F 
ATOM     87  C   UNL A   1      51.053  26.991  29.178  1.00  0.00     0.060 A 
BRANCH  87  88
ATOM     88  S   UNL A   1      52.840  26.733  29.130  1.00  0.00     0.124 S 
ATOM     89  O   UNL A   1      52.983  25.890  27.947  1.00  0.00    -0.237 OA
ATOM     90  O   UNL A   1      53.351  28.094  29.003  1.00  0.00    -0.237 OA
ATOM     91  O   UNL A   1      53.122  26.079  30.404  1.00  0.00    -0.744 OA
ENDBRANCH  87  88
ENDBRANCH  55  80
ENDBRANCH  29  30
ENDBRANCH  22  24
ENDBRANCH  21  22
ENDBRANCH   1  21
TORSDOF 17
ENDMDL
