MODEL 1
REMARK VINA RESULT:     -11.4      0.000      0.000
REMARK SMILES Cc1nn(C)cc1-c1ccnc2nc(CCC(=O)OCCOC(=O)c3ccc(-c4c5nc(c(-c6c(F)cc(S(=O)(=O)[O-])cc6F)c6ccc([nH]6)c(-c6c(F)cc(S(=O)(=O)[O-])cc6F)c6nc(c(-c7c(F)cc(S(=O)(=O)[O-])cc7F)c7ccc4[nH]7)C=C6)C=C5)cc3)nn12
REMARK SMILES IDX 20 1 19 2 17 3 18 4 16 5 15 6 14 7 8 8 9 9 92 10 10 11 12 12
REMARK SMILES IDX 91 13 11 14 13 15 7 16 1 17 2 18 3 19 4 20 6 21 5 22 21 23
REMARK SMILES IDX 22 24 23 25 24 26 25 27 26 28 90 29 27 30 89 31 28 32 29 33
REMARK SMILES IDX 30 34 83 35 31 36 88 37 82 38 84 39 32 40 87 41 81 42 80 43
REMARK SMILES IDX 33 45 67 46 46 47 66 48 47 49 50 50 65 51 85 52 48 53 49 54
REMARK SMILES IDX 64 56 86 57 51 58 34 59 35 60 44 61 36 62 37 63 43 64 45 65
REMARK SMILES IDX 38 66 39 67 40 68 41 69 42 70 68 71 69 72 78 73 70 74 71 75
REMARK SMILES IDX 77 76 79 77 72 78 73 79 74 80 75 81 76 82 52 83 53 84 62 85
REMARK SMILES IDX 54 86 55 87 61 88 63 89 56 90 57 91 58 92 59 93 60 94
REMARK H PARENT 84 44 50 55
REMARK Flexibility Score: inf
ROOT
ATOM      1  C   UNL A   1      39.404  21.619  26.182  1.00  0.00     0.274 C 
ENDROOT
BRANCH   1   2
ATOM      2  O   UNL A   1      38.262  22.406  25.797  1.00  0.00    -0.462 OA
BRANCH   2   3
ATOM      3  C   UNL A   1      37.381  21.859  24.930  1.00  0.00     0.306 C 
ATOM      4  O   UNL A   1      37.398  20.690  24.569  1.00  0.00    -0.252 OA
BRANCH   3   5
ATOM      5  C   UNL A   1      36.397  22.872  24.389  1.00  0.00     0.131 C 
BRANCH   5   6
ATOM      6  C   UNL A   1      36.082  24.018  25.349  1.00  0.00     0.091 C 
BRANCH   6   7
ATOM      7  C   UNL A   1      34.652  24.056  25.750  1.00  0.00     0.154 A 
ATOM      8  C   UNL A   1      31.416  25.339  25.802  1.00  0.00     0.081 A 
ATOM      9  C   UNL A   1      30.312  24.659  26.165  1.00  0.00     0.049 A 
ATOM     10  N   UNL A   1      32.659  24.690  25.914  1.00  0.00    -0.196 N 
ATOM     11  C   UNL A   1      30.526  23.275  26.660  1.00  0.00     0.117 A 
ATOM     12  C   UNL A   1      32.753  23.355  26.338  1.00  0.00     0.252 A 
ATOM     13  N   UNL A   1      33.898  25.147  25.627  1.00  0.00    -0.149 NA
ATOM     14  N   UNL A   1      31.656  22.650  26.744  1.00  0.00    -0.220 NA
ATOM     15  N   UNL A   1      33.997  22.948  26.205  1.00  0.00    -0.194 NA
BRANCH   8  16
ATOM     16  C   UNL A   1      31.332  26.656  25.256  1.00  0.00     0.041 A 
ATOM     17  C   UNL A   1      31.925  28.216  27.277  1.00  0.00     0.069 C 
ATOM     18  C   UNL A   1      31.538  27.913  25.878  1.00  0.00     0.069 A 
ATOM     19  N   UNL A   1      31.332  28.921  25.019  1.00  0.00    -0.178 NA
ATOM     20  N   UNL A   1      31.053  28.310  23.855  1.00  0.00    -0.275 N 
ATOM     21  C   UNL A   1      31.002  26.952  23.953  1.00  0.00     0.119 A 
ATOM     22  C   UNL A   1      30.848  29.107  22.669  1.00  0.00     0.173 C 
ENDBRANCH   8  16
ENDBRANCH   6   7
ENDBRANCH   5   6
ENDBRANCH   3   5
ENDBRANCH   2   3
ENDBRANCH   1   2
BRANCH   1  23
ATOM     23  C   UNL A   1      40.532  22.513  26.702  1.00  0.00     0.275 C 
BRANCH  23  24
ATOM     24  O   UNL A   1      40.152  23.891  26.553  1.00  0.00    -0.458 OA
BRANCH  24  25
ATOM     25  C   UNL A   1      41.169  24.782  26.553  1.00  0.00     0.338 C 
ATOM     26  O   UNL A   1      42.089  24.865  25.762  1.00  0.00    -0.246 OA
BRANCH  25  27
ATOM     27  C   UNL A   1      40.902  25.785  27.591  1.00  0.00     0.060 A 
ATOM     28  C   UNL A   1      41.792  26.856  27.711  1.00  0.00     0.016 A 
ATOM     29  C   UNL A   1      39.808  25.661  28.450  1.00  0.00     0.016 A 
ATOM     30  C   UNL A   1      41.592  27.816  28.696  1.00  0.00     0.010 A 
ATOM     31  C   UNL A   1      39.610  26.625  29.441  1.00  0.00     0.010 A 
ATOM     32  C   UNL A   1      40.508  27.698  29.575  1.00  0.00    -0.014 A 
BRANCH  32  33
ATOM     33  C   UNL A   1      40.366  28.672  30.678  1.00  0.00     0.031 A 
ATOM     34  C   UNL A   1      41.265  28.567  31.874  1.00  0.00     0.074 A 
ATOM     35  C   UNL A   1      39.461  29.663  30.579  1.00  0.00     0.049 A 
ATOM     36  N   UNL A   1      41.304  29.310  32.948  1.00  0.00    -0.248 NA
ATOM     37  C   UNL A   1      42.254  27.477  31.858  1.00  0.00     0.031 C 
ATOM     38  C   UNL A   1      38.560  29.873  29.445  1.00  0.00     0.029 A 
ATOM     39  N   UNL A   1      39.157  30.684  31.443  1.00  0.00    -0.354 N 
ATOM     40  C   UNL A   1      42.313  28.776  33.741  1.00  0.00     0.074 A 
ATOM     41  C   UNL A   1      42.840  27.626  33.037  1.00  0.00     0.031 C 
ATOM     42  C   UNL A   1      37.809  30.961  29.679  1.00  0.00     0.029 A 
ATOM     43  C   UNL A   1      38.154  31.505  30.990  1.00  0.00     0.049 A 
ATOM     44  H   UNL A   1      39.614  30.814  32.305  1.00  0.00     0.167 HD
ATOM     45  C   UNL A   1      42.761  29.212  34.943  1.00  0.00     0.037 A 
ATOM     46  C   UNL A   1      37.573  32.571  31.575  1.00  0.00     0.037 A 
ATOM     47  C   UNL A   1      42.224  30.358  35.631  1.00  0.00     0.049 A 
ATOM     48  C   UNL A   1      38.064  33.013  32.927  1.00  0.00     0.074 A 
ATOM     49  C   UNL A   1      42.602  30.887  36.853  1.00  0.00     0.029 A 
ATOM     50  N   UNL A   1      41.190  31.154  35.155  1.00  0.00    -0.354 N 
ATOM     51  N   UNL A   1      39.019  32.499  33.668  1.00  0.00    -0.248 NA
ATOM     52  C   UNL A   1      37.405  34.182  33.520  1.00  0.00     0.031 C 
ATOM     53  C   UNL A   1      41.770  31.979  37.132  1.00  0.00     0.029 A 
ATOM     54  C   UNL A   1      40.907  32.160  36.064  1.00  0.00     0.049 A 
ATOM     55  H   UNL A   1      40.727  31.022  34.297  1.00  0.00     0.167 HD
ATOM     56  C   UNL A   1      39.089  33.296  34.805  1.00  0.00     0.074 A 
ATOM     57  C   UNL A   1      38.091  34.335  34.645  1.00  0.00     0.031 C 
ATOM     58  C   UNL A   1      39.903  33.180  35.884  1.00  0.00     0.037 A 
BRANCH  45  59
ATOM     59  C   UNL A   1      43.865  28.426  35.594  1.00  0.00     0.058 A 
ATOM     60  C   UNL A   1      43.598  27.382  36.496  1.00  0.00     0.135 A 
ATOM     61  C   UNL A   1      45.209  28.717  35.313  1.00  0.00     0.135 A 
ATOM     62  F   UNL A   1      42.332  27.074  36.818  1.00  0.00    -0.206 F 
ATOM     63  C   UNL A   1      44.624  26.678  37.120  1.00  0.00     0.059 A 
ATOM     64  C   UNL A   1      46.251  28.008  35.904  1.00  0.00     0.059 A 
ATOM     65  F   UNL A   1      45.523  29.706  34.461  1.00  0.00    -0.206 F 
ATOM     66  C   UNL A   1      45.948  27.002  36.820  1.00  0.00     0.060 A 
BRANCH  66  67
ATOM     67  S   UNL A   1      47.270  26.088  37.644  1.00  0.00     0.124 S 
ATOM     68  O   UNL A   1      46.537  24.954  38.199  1.00  0.00    -0.237 OA
ATOM     69  O   UNL A   1      48.173  25.778  36.540  1.00  0.00    -0.237 OA
ATOM     70  O   UNL A   1      47.785  27.042  38.621  1.00  0.00    -0.744 OA
ENDBRANCH  66  67
ENDBRANCH  45  59
BRANCH  46  71
ATOM     71  C   UNL A   1      36.475  33.291  30.881  1.00  0.00     0.058 A 
ATOM     72  C   UNL A   1      35.140  33.145  31.291  1.00  0.00     0.135 A 
ATOM     73  C   UNL A   1      36.736  34.154  29.806  1.00  0.00     0.135 A 
ATOM     74  F   UNL A   1      34.838  32.325  32.308  1.00  0.00    -0.206 F 
ATOM     75  C   UNL A   1      34.105  33.820  30.654  1.00  0.00     0.059 A 
ATOM     76  C   UNL A   1      35.721  34.860  29.168  1.00  0.00     0.059 A 
ATOM     77  F   UNL A   1      37.997  34.338  29.383  1.00  0.00    -0.206 F 
ATOM     78  C   UNL A   1      34.405  34.680  29.595  1.00  0.00     0.060 A 
BRANCH  78  79
ATOM     79  S   UNL A   1      33.061  35.596  28.810  1.00  0.00     0.124 S 
ATOM     80  O   UNL A   1      32.314  36.071  29.969  1.00  0.00    -0.237 OA
ATOM     81  O   UNL A   1      33.782  36.614  28.053  1.00  0.00    -0.237 OA
ATOM     82  O   UNL A   1      32.393  34.581  28.000  1.00  0.00    -0.744 OA
ENDBRANCH  78  79
ENDBRANCH  46  71
BRANCH  58  83
ATOM     83  C   UNL A   1      39.762  34.225  36.956  1.00  0.00     0.058 A 
ATOM     84  C   UNL A   1      38.967  34.013  38.094  1.00  0.00     0.135 A 
ATOM     85  C   UNL A   1      40.436  35.453  36.846  1.00  0.00     0.135 A 
ATOM     86  F   UNL A   1      38.298  32.860  38.245  1.00  0.00    -0.206 F 
ATOM     87  C   UNL A   1      38.809  34.999  39.063  1.00  0.00     0.059 A 
ATOM     88  C   UNL A   1      40.315  36.441  37.818  1.00  0.00     0.059 A 
ATOM     89  F   UNL A   1      41.220  35.700  35.786  1.00  0.00    -0.206 F 
ATOM     90  C   UNL A   1      39.483  36.213  38.912  1.00  0.00     0.060 A 
BRANCH  90  91
ATOM     91  S   UNL A   1      39.266  37.489  40.170  1.00  0.00     0.124 S 
ATOM     92  O   UNL A   1      38.909  36.691  41.338  1.00  0.00    -0.237 OA
ATOM     93  O   UNL A   1      40.582  38.118  40.212  1.00  0.00    -0.237 OA
ATOM     94  O   UNL A   1      38.198  38.322  39.626  1.00  0.00    -0.744 OA
ENDBRANCH  90  91
ENDBRANCH  58  83
ENDBRANCH  32  33
ENDBRANCH  25  27
ENDBRANCH  24  25
ENDBRANCH  23  24
ENDBRANCH   1  23
TORSDOF 17
ENDMDL
MODEL 2
REMARK VINA RESULT:     -11.4      1.535      2.874
REMARK SMILES Cc1nn(C)cc1-c1ccnc2nc(CCC(=O)OCCOC(=O)c3ccc(-c4c5nc(c(-c6c(F)cc(S(=O)(=O)[O-])cc6F)c6ccc([nH]6)c(-c6c(F)cc(S(=O)(=O)[O-])cc6F)c6nc(c(-c7c(F)cc(S(=O)(=O)[O-])cc7F)c7ccc4[nH]7)C=C6)C=C5)cc3)nn12
REMARK SMILES IDX 20 1 19 2 17 3 18 4 16 5 15 6 14 7 8 8 9 9 92 10 10 11 12 12
REMARK SMILES IDX 91 13 11 14 13 15 7 16 1 17 2 18 3 19 4 20 6 21 5 22 21 23
REMARK SMILES IDX 22 24 23 25 24 26 25 27 26 28 90 29 27 30 89 31 28 32 29 33
REMARK SMILES IDX 30 34 83 35 31 36 88 37 82 38 84 39 32 40 87 41 81 42 80 43
REMARK SMILES IDX 33 45 67 46 46 47 66 48 47 49 50 50 65 51 85 52 48 53 49 54
REMARK SMILES IDX 64 56 86 57 51 58 34 59 35 60 44 61 36 62 37 63 43 64 45 65
REMARK SMILES IDX 38 66 39 67 40 68 41 69 42 70 68 71 69 72 78 73 70 74 71 75
REMARK SMILES IDX 77 76 79 77 72 78 73 79 74 80 75 81 76 82 52 83 53 84 62 85
REMARK SMILES IDX 54 86 55 87 61 88 63 89 56 90 57 91 58 92 59 93 60 94
REMARK H PARENT 84 44 50 55
REMARK Flexibility Score: inf
ROOT
ATOM      1  C   UNL A   1      39.889  22.427  26.858  1.00  0.00     0.274 C 
ENDROOT
BRANCH   1   2
ATOM      2  O   UNL A   1      39.205  21.373  26.157  1.00  0.00    -0.462 OA
BRANCH   2   3
ATOM      3  C   UNL A   1      38.087  21.692  25.468  1.00  0.00     0.306 C 
ATOM      4  O   UNL A   1      37.539  20.956  24.657  1.00  0.00    -0.252 OA
BRANCH   3   5
ATOM      5  C   UNL A   1      37.614  23.099  25.752  1.00  0.00     0.131 C 
BRANCH   5   6
ATOM      6  C   UNL A   1      36.742  23.703  24.653  1.00  0.00     0.091 C 
BRANCH   6   7
ATOM      7  C   UNL A   1      35.289  23.545  24.918  1.00  0.00     0.154 A 
ATOM      8  C   UNL A   1      32.291  21.792  25.151  1.00  0.00     0.081 A 
ATOM      9  C   UNL A   1      31.203  22.191  25.838  1.00  0.00     0.049 A 
ATOM     10  N   UNL A   1      33.396  22.661  25.097  1.00  0.00    -0.196 N 
ATOM     11  C   UNL A   1      31.283  23.533  26.472  1.00  0.00     0.117 A 
ATOM     12  C   UNL A   1      33.397  23.888  25.781  1.00  0.00     0.252 A 
ATOM     13  N   UNL A   1      34.586  22.502  24.478  1.00  0.00    -0.149 NA
ATOM     14  N   UNL A   1      32.299  24.335  26.458  1.00  0.00    -0.220 NA
ATOM     15  N   UNL A   1      34.594  24.427  25.695  1.00  0.00    -0.194 NA
BRANCH   8  16
ATOM     16  C   UNL A   1      32.355  20.499  24.548  1.00  0.00     0.041 A 
ATOM     17  C   UNL A   1      31.838  20.955  22.020  1.00  0.00     0.069 C 
ATOM     18  C   UNL A   1      32.153  20.114  23.199  1.00  0.00     0.069 A 
ATOM     19  N   UNL A   1      32.276  18.787  23.048  1.00  0.00    -0.178 NA
ATOM     20  N   UNL A   1      32.606  18.345  24.273  1.00  0.00    -0.275 N 
ATOM     21  C   UNL A   1      32.628  19.327  25.217  1.00  0.00     0.119 A 
ATOM     22  C   UNL A   1      32.896  16.944  24.465  1.00  0.00     0.173 C 
ENDBRANCH   8  16
ENDBRANCH   6   7
ENDBRANCH   5   6
ENDBRANCH   3   5
ENDBRANCH   2   3
ENDBRANCH   1   2
BRANCH   1  23
ATOM     23  C   UNL A   1      41.342  22.539  26.393  1.00  0.00     0.275 C 
BRANCH  23  24
ATOM     24  O   UNL A   1      41.987  23.610  27.103  1.00  0.00    -0.458 OA
BRANCH  24  25
ATOM     25  C   UNL A   1      41.899  24.830  26.527  1.00  0.00     0.338 C 
ATOM     26  O   UNL A   1      41.935  25.100  25.342  1.00  0.00    -0.246 OA
BRANCH  25  27
ATOM     27  C   UNL A   1      41.571  25.809  27.571  1.00  0.00     0.060 A 
ATOM     28  C   UNL A   1      42.452  26.877  27.767  1.00  0.00     0.016 A 
ATOM     29  C   UNL A   1      40.430  25.665  28.362  1.00  0.00     0.016 A 
ATOM     30  C   UNL A   1      42.194  27.814  28.760  1.00  0.00     0.010 A 
ATOM     31  C   UNL A   1      40.173  26.606  29.361  1.00  0.00     0.010 A 
ATOM     32  C   UNL A   1      41.061  27.676  29.572  1.00  0.00    -0.014 A 
BRANCH  32  33
ATOM     33  C   UNL A   1      40.854  28.625  30.687  1.00  0.00     0.031 A 
ATOM     34  C   UNL A   1      41.734  28.541  31.898  1.00  0.00     0.074 A 
ATOM     35  C   UNL A   1      39.907  29.576  30.585  1.00  0.00     0.049 A 
ATOM     36  N   UNL A   1      41.720  29.267  32.984  1.00  0.00    -0.248 NA
ATOM     37  C   UNL A   1      42.772  27.497  31.885  1.00  0.00     0.031 C 
ATOM     38  C   UNL A   1      39.019  29.763  29.437  1.00  0.00     0.029 A 
ATOM     39  N   UNL A   1      39.541  30.567  31.458  1.00  0.00    -0.354 N 
ATOM     40  C   UNL A   1      42.737  28.767  33.789  1.00  0.00     0.074 A 
ATOM     41  C   UNL A   1      43.329  27.654  33.077  1.00  0.00     0.031 C 
ATOM     42  C   UNL A   1      38.215  30.812  29.673  1.00  0.00     0.029 A 
ATOM     43  C   UNL A   1      38.510  31.350  30.999  1.00  0.00     0.049 A 
ATOM     44  H   UNL A   1      39.975  30.704  32.331  1.00  0.00     0.167 HD
ATOM     45  C   UNL A   1      43.142  29.203  35.005  1.00  0.00     0.037 A 
ATOM     46  C   UNL A   1      37.871  32.379  31.589  1.00  0.00     0.037 A 
ATOM     47  C   UNL A   1      42.540  30.313  35.700  1.00  0.00     0.049 A 
ATOM     48  C   UNL A   1      38.316  32.821  32.957  1.00  0.00     0.074 A 
ATOM     49  C   UNL A   1      42.870  30.838  36.937  1.00  0.00     0.029 A 
ATOM     50  N   UNL A   1      41.480  31.069  35.216  1.00  0.00    -0.354 N 
ATOM     51  N   UNL A   1      39.278  32.338  33.708  1.00  0.00    -0.248 NA
ATOM     52  C   UNL A   1      37.592  33.949  33.555  1.00  0.00     0.031 C 
ATOM     53  C   UNL A   1      41.985  31.887  37.217  1.00  0.00     0.029 A 
ATOM     54  C   UNL A   1      41.135  32.046  36.135  1.00  0.00     0.049 A 
ATOM     55  H   UNL A   1      41.039  30.929  34.348  1.00  0.00     0.167 HD
ATOM     56  C   UNL A   1      39.291  33.118  34.859  1.00  0.00     0.074 A 
ATOM     57  C   UNL A   1      38.250  34.114  34.695  1.00  0.00     0.031 C 
ATOM     58  C   UNL A   1      40.089  33.022  35.952  1.00  0.00     0.037 A 
BRANCH  45  59
ATOM     59  C   UNL A   1      44.268  28.457  35.666  1.00  0.00     0.058 A 
ATOM     60  C   UNL A   1      45.606  28.865  35.531  1.00  0.00     0.135 A 
ATOM     61  C   UNL A   1      44.008  27.319  36.446  1.00  0.00     0.135 A 
ATOM     62  F   UNL A   1      45.914  29.934  34.780  1.00  0.00    -0.206 F 
ATOM     63  C   UNL A   1      46.647  28.153  36.120  1.00  0.00     0.059 A 
ATOM     64  C   UNL A   1      45.031  26.607  37.065  1.00  0.00     0.059 A 
ATOM     65  F   UNL A   1      42.749  26.882  36.606  1.00  0.00    -0.206 F 
ATOM     66  C   UNL A   1      46.349  27.022  36.881  1.00  0.00     0.060 A 
BRANCH  66  67
ATOM     67  S   UNL A   1      47.710  26.100  37.630  1.00  0.00     0.124 S 
ATOM     68  O   UNL A   1      47.394  26.221  39.051  1.00  0.00    -0.237 OA
ATOM     69  O   UNL A   1      47.542  24.770  37.056  1.00  0.00    -0.237 OA
ATOM     70  O   UNL A   1      48.896  26.825  37.187  1.00  0.00    -0.744 OA
ENDBRANCH  66  67
ENDBRANCH  45  59
BRANCH  46  71
ATOM     71  C   UNL A   1      36.753  33.060  30.885  1.00  0.00     0.058 A 
ATOM     72  C   UNL A   1      35.422  32.872  31.287  1.00  0.00     0.135 A 
ATOM     73  C   UNL A   1      36.994  33.925  29.807  1.00  0.00     0.135 A 
ATOM     74  F   UNL A   1      35.140  32.047  32.306  1.00  0.00    -0.206 F 
ATOM     75  C   UNL A   1      34.369  33.511  30.641  1.00  0.00     0.059 A 
ATOM     76  C   UNL A   1      35.960  34.595  29.160  1.00  0.00     0.059 A 
ATOM     77  F   UNL A   1      38.250  34.148  29.391  1.00  0.00    -0.206 F 
ATOM     78  C   UNL A   1      34.649  34.375  29.579  1.00  0.00     0.060 A 
BRANCH  78  79
ATOM     79  S   UNL A   1      33.280  35.243  28.782  1.00  0.00     0.124 S 
ATOM     80  O   UNL A   1      32.530  35.729  29.934  1.00  0.00    -0.237 OA
ATOM     81  O   UNL A   1      33.974  36.258  27.997  1.00  0.00    -0.237 OA
ATOM     82  O   UNL A   1      32.629  34.195  28.001  1.00  0.00    -0.744 OA
ENDBRANCH  78  79
ENDBRANCH  46  71
BRANCH  58  83
ATOM     83  C   UNL A   1      39.880  34.043  37.037  1.00  0.00     0.058 A 
ATOM     84  C   UNL A   1      39.068  33.779  38.151  1.00  0.00     0.135 A 
ATOM     85  C   UNL A   1      40.507  35.298  36.963  1.00  0.00     0.135 A 
ATOM     86  F   UNL A   1      38.443  32.597  38.268  1.00  0.00    -0.206 F 
ATOM     87  C   UNL A   1      38.848  34.741  39.132  1.00  0.00     0.059 A 
ATOM     88  C   UNL A   1      40.323  36.264  37.947  1.00  0.00     0.059 A 
ATOM     89  F   UNL A   1      41.305  35.595  35.926  1.00  0.00    -0.206 F 
ATOM     90  C   UNL A   1      39.475  35.984  39.017  1.00  0.00     0.060 A 
BRANCH  90  91
ATOM     91  S   UNL A   1      39.177  37.228  40.290  1.00  0.00     0.124 S 
ATOM     92  O   UNL A   1      38.509  36.440  41.319  1.00  0.00    -0.237 OA
ATOM     93  O   UNL A   1      40.527  37.678  40.614  1.00  0.00    -0.237 OA
ATOM     94  O   UNL A   1      38.342  38.214  39.610  1.00  0.00    -0.744 OA
ENDBRANCH  90  91
ENDBRANCH  58  83
ENDBRANCH  32  33
ENDBRANCH  25  27
ENDBRANCH  24  25
ENDBRANCH  23  24
ENDBRANCH   1  23
TORSDOF 17
ENDMDL
MODEL 3
REMARK VINA RESULT:     -11.4      6.445     12.004
REMARK SMILES Cc1nn(C)cc1-c1ccnc2nc(CCC(=O)OCCOC(=O)c3ccc(-c4c5nc(c(-c6c(F)cc(S(=O)(=O)[O-])cc6F)c6ccc([nH]6)c(-c6c(F)cc(S(=O)(=O)[O-])cc6F)c6nc(c(-c7c(F)cc(S(=O)(=O)[O-])cc7F)c7ccc4[nH]7)C=C6)C=C5)cc3)nn12
REMARK SMILES IDX 20 1 19 2 17 3 18 4 16 5 15 6 14 7 8 8 9 9 92 10 10 11 12 12
REMARK SMILES IDX 91 13 11 14 13 15 7 16 1 17 2 18 3 19 4 20 6 21 5 22 21 23
REMARK SMILES IDX 22 24 23 25 24 26 25 27 26 28 90 29 27 30 89 31 28 32 29 33
REMARK SMILES IDX 30 34 83 35 31 36 88 37 82 38 84 39 32 40 87 41 81 42 80 43
REMARK SMILES IDX 33 45 67 46 46 47 66 48 47 49 50 50 65 51 85 52 48 53 49 54
REMARK SMILES IDX 64 56 86 57 51 58 34 59 35 60 44 61 36 62 37 63 43 64 45 65
REMARK SMILES IDX 38 66 39 67 40 68 41 69 42 70 68 71 69 72 78 73 70 74 71 75
REMARK SMILES IDX 77 76 79 77 72 78 73 79 74 80 75 81 76 82 52 83 53 84 62 85
REMARK SMILES IDX 54 86 55 87 61 88 63 89 56 90 57 91 58 92 59 93 60 94
REMARK H PARENT 84 44 50 55
REMARK Flexibility Score: inf
ROOT
ATOM      1  C   UNL A   1      34.438  32.732  28.635  1.00  0.00     0.274 C 
ENDROOT
BRANCH   1   2
ATOM      2  O   UNL A   1      34.778  31.675  27.720  1.00  0.00    -0.462 OA
BRANCH   2   3
ATOM      3  C   UNL A   1      33.810  30.794  27.383  1.00  0.00     0.306 C 
ATOM      4  O   UNL A   1      32.613  31.052  27.366  1.00  0.00    -0.252 OA
BRANCH   3   5
ATOM      5  C   UNL A   1      34.357  29.416  27.089  1.00  0.00     0.131 C 
BRANCH   5   6
ATOM      6  C   UNL A   1      33.340  28.288  27.251  1.00  0.00     0.091 C 
BRANCH   6   7
ATOM      7  C   UNL A   1      33.033  27.601  25.970  1.00  0.00     0.154 A 
ATOM      8  C   UNL A   1      31.411  27.181  22.919  1.00  0.00     0.081 A 
ATOM      9  C   UNL A   1      31.839  26.403  21.906  1.00  0.00     0.049 A 
ATOM     10  N   UNL A   1      32.149  27.176  24.116  1.00  0.00    -0.196 N 
ATOM     11  C   UNL A   1      33.064  25.603  22.167  1.00  0.00     0.117 A 
ATOM     12  C   UNL A   1      33.331  26.428  24.245  1.00  0.00     0.252 A 
ATOM     13  N   UNL A   1      31.930  27.851  25.265  1.00  0.00    -0.149 NA
ATOM     14  N   UNL A   1      33.773  25.605  23.249  1.00  0.00    -0.220 NA
ATOM     15  N   UNL A   1      33.901  26.719  25.394  1.00  0.00    -0.194 NA
BRANCH   8  16
ATOM     16  C   UNL A   1      30.278  28.039  22.768  1.00  0.00     0.041 A 
ATOM     17  C   UNL A   1      28.318  26.698  23.875  1.00  0.00     0.069 C 
ATOM     18  C   UNL A   1      28.932  27.846  23.165  1.00  0.00     0.069 A 
ATOM     19  N   UNL A   1      28.165  28.887  22.811  1.00  0.00    -0.178 NA
ATOM     20  N   UNL A   1      29.026  29.753  22.247  1.00  0.00    -0.275 N 
ATOM     21  C   UNL A   1      30.298  29.275  22.162  1.00  0.00     0.119 A 
ATOM     22  C   UNL A   1      28.547  31.043  21.811  1.00  0.00     0.173 C 
ENDBRANCH   8  16
ENDBRANCH   6   7
ENDBRANCH   5   6
ENDBRANCH   3   5
ENDBRANCH   2   3
ENDBRANCH   1   2
BRANCH   1  23
ATOM     23  C   UNL A   1      34.881  32.386  30.058  1.00  0.00     0.275 C 
BRANCH  23  24
ATOM     24  O   UNL A   1      36.269  32.011  30.045  1.00  0.00    -0.458 OA
BRANCH  24  25
ATOM     25  C   UNL A   1      36.574  30.874  30.711  1.00  0.00     0.338 C 
ATOM     26  O   UNL A   1      35.883  30.267  31.506  1.00  0.00    -0.246 OA
BRANCH  25  27
ATOM     27  C   UNL A   1      37.847  30.362  30.188  1.00  0.00     0.060 A 
ATOM     28  C   UNL A   1      38.824  29.975  31.109  1.00  0.00     0.016 A 
ATOM     29  C   UNL A   1      38.085  30.288  28.815  1.00  0.00     0.016 A 
ATOM     30  C   UNL A   1      40.053  29.507  30.660  1.00  0.00     0.010 A 
ATOM     31  C   UNL A   1      39.322  29.820  28.364  1.00  0.00     0.010 A 
ATOM     32  C   UNL A   1      40.313  29.441  29.286  1.00  0.00    -0.014 A 
BRANCH  32  33
ATOM     33  C   UNL A   1      41.660  29.036  28.826  1.00  0.00     0.031 A 
ATOM     34  C   UNL A   1      42.766  30.048  28.805  1.00  0.00     0.074 A 
ATOM     35  C   UNL A   1      41.885  27.757  28.471  1.00  0.00     0.049 A 
ATOM     36  N   UNL A   1      44.011  29.905  28.435  1.00  0.00    -0.248 NA
ATOM     37  C   UNL A   1      42.424  31.405  29.261  1.00  0.00     0.031 C 
ATOM     38  C   UNL A   1      40.885  26.689  28.486  1.00  0.00     0.029 A 
ATOM     39  N   UNL A   1      43.030  27.141  28.037  1.00  0.00    -0.354 N 
ATOM     40  C   UNL A   1      44.602  31.152  28.605  1.00  0.00     0.074 A 
ATOM     41  C   UNL A   1      43.569  32.047  29.082  1.00  0.00     0.031 C 
ATOM     42  C   UNL A   1      41.464  25.544  28.087  1.00  0.00     0.029 A 
ATOM     43  C   UNL A   1      42.863  25.806  27.760  1.00  0.00     0.049 A 
ATOM     44  H   UNL A   1      43.889  27.610  27.934  1.00  0.00     0.167 HD
ATOM     45  C   UNL A   1      45.890  31.511  28.389  1.00  0.00     0.037 A 
ATOM     46  C   UNL A   1      43.741  24.901  27.286  1.00  0.00     0.037 A 
ATOM     47  C   UNL A   1      46.905  30.607  27.912  1.00  0.00     0.049 A 
ATOM     48  C   UNL A   1      45.157  25.334  27.018  1.00  0.00     0.074 A 
ATOM     49  C   UNL A   1      48.241  30.866  27.656  1.00  0.00     0.029 A 
ATOM     50  N   UNL A   1      46.696  29.267  27.617  1.00  0.00    -0.354 N 
ATOM     51  N   UNL A   1      45.703  26.517  27.182  1.00  0.00    -0.248 NA
ATOM     52  C   UNL A   1      46.076  24.311  26.508  1.00  0.00     0.031 C 
ATOM     53  C   UNL A   1      48.828  29.691  27.171  1.00  0.00     0.029 A 
ATOM     54  C   UNL A   1      47.872  28.688  27.169  1.00  0.00     0.049 A 
ATOM     55  H   UNL A   1      45.837  28.797  27.712  1.00  0.00     0.167 HD
ATOM     56  C   UNL A   1      47.036  26.374  26.815  1.00  0.00     0.074 A 
ATOM     57  C   UNL A   1      47.216  24.986  26.438  1.00  0.00     0.031 C 
ATOM     58  C   UNL A   1      48.024  27.305  26.793  1.00  0.00     0.037 A 
BRANCH  45  59
ATOM     59  C   UNL A   1      46.256  32.948  28.640  1.00  0.00     0.058 A 
ATOM     60  C   UNL A   1      46.709  33.387  29.896  1.00  0.00     0.135 A 
ATOM     61  C   UNL A   1      46.156  33.899  27.613  1.00  0.00     0.135 A 
ATOM     62  F   UNL A   1      46.805  32.525  30.920  1.00  0.00    -0.206 F 
ATOM     63  C   UNL A   1      47.018  34.725  30.131  1.00  0.00     0.059 A 
ATOM     64  C   UNL A   1      46.485  35.236  27.819  1.00  0.00     0.059 A 
ATOM     65  F   UNL A   1      45.726  33.536  26.394  1.00  0.00    -0.206 F 
ATOM     66  C   UNL A   1      46.897  35.642  29.087  1.00  0.00     0.060 A 
BRANCH  66  67
ATOM     67  S   UNL A   1      47.290  37.375  29.408  1.00  0.00     0.124 S 
ATOM     68  O   UNL A   1      48.609  37.264  30.026  1.00  0.00    -0.237 OA
ATOM     69  O   UNL A   1      47.266  37.956  28.071  1.00  0.00    -0.237 OA
ATOM     70  O   UNL A   1      46.216  37.808  30.296  1.00  0.00    -0.744 OA
ENDBRANCH  66  67
ENDBRANCH  45  59
BRANCH  46  71
ATOM     71  C   UNL A   1      43.305  23.501  27.044  1.00  0.00     0.058 A 
ATOM     72  C   UNL A   1      43.159  22.594  28.104  1.00  0.00     0.135 A 
ATOM     73  C   UNL A   1      43.008  23.046  25.750  1.00  0.00     0.135 A 
ATOM     74  F   UNL A   1      43.440  22.979  29.358  1.00  0.00    -0.206 F 
ATOM     75  C   UNL A   1      42.743  21.284  27.891  1.00  0.00     0.059 A 
ATOM     76  C   UNL A   1      42.566  21.747  25.513  1.00  0.00     0.059 A 
ATOM     77  F   UNL A   1      43.120  23.876  24.702  1.00  0.00    -0.206 F 
ATOM     78  C   UNL A   1      42.445  20.870  26.591  1.00  0.00     0.060 A 
BRANCH  78  79
ATOM     79  S   UNL A   1      41.852  19.184  26.330  1.00  0.00     0.124 S 
ATOM     80  O   UNL A   1      40.462  19.416  25.956  1.00  0.00    -0.237 OA
ATOM     81  O   UNL A   1      42.730  18.710  25.265  1.00  0.00    -0.237 OA
ATOM     82  O   UNL A   1      42.060  18.552  27.630  1.00  0.00    -0.744 OA
ENDBRANCH  78  79
ENDBRANCH  46  71
BRANCH  58  83
ATOM     83  C   UNL A   1      49.389  26.835  26.372  1.00  0.00     0.058 A 
ATOM     84  C   UNL A   1      49.814  26.903  25.036  1.00  0.00     0.135 A 
ATOM     85  C   UNL A   1      50.286  26.315  27.320  1.00  0.00     0.135 A 
ATOM     86  F   UNL A   1      48.995  27.387  24.090  1.00  0.00    -0.206 F 
ATOM     87  C   UNL A   1      51.064  26.432  24.647  1.00  0.00     0.059 A 
ATOM     88  C   UNL A   1      51.551  25.865  26.958  1.00  0.00     0.059 A 
ATOM     89  F   UNL A   1      49.935  26.241  28.613  1.00  0.00    -0.206 F 
ATOM     90  C   UNL A   1      51.923  25.907  25.615  1.00  0.00     0.060 A 
BRANCH  90  91
ATOM     91  S   UNL A   1      53.539  25.290  25.100  1.00  0.00     0.124 S 
ATOM     92  O   UNL A   1      53.586  25.719  23.706  1.00  0.00    -0.237 OA
ATOM     93  O   UNL A   1      54.447  25.986  26.007  1.00  0.00    -0.237 OA
ATOM     94  O   UNL A   1      53.435  23.850  25.312  1.00  0.00    -0.744 OA
ENDBRANCH  90  91
ENDBRANCH  58  83
ENDBRANCH  32  33
ENDBRANCH  25  27
ENDBRANCH  24  25
ENDBRANCH  23  24
ENDBRANCH   1  23
TORSDOF 17
ENDMDL
