MODEL 1
REMARK VINA RESULT:     -11.6      0.000      0.000
REMARK SMILES O=C(OCCOC(=O)c1cc(NC(=S)NC(=O)c2ccccc2F)ccc1Cl)c1ccc(-c2c3nc(c(-c4c(F)cc(S(=O)(=O)[O-])cc4F)c4ccc([nH]4)c(-c4c(F)cc(S(=O)(=O)[O-])cc4F)c4nc(c(-c5c(F)cc(S(=O)(=O)[O-])cc5F)c5ccc2[nH]5)C=C4)C=C3)cc1
REMARK SMILES IDX 5 1 4 2 3 3 2 4 1 5 29 6 30 7 94 8 31 9 93 10 32 11 33 12
REMARK SMILES IDX 34 13 87 14 35 15 92 16 86 17 88 18 36 19 91 20 85 21 84 22
REMARK SMILES IDX 37 24 71 25 50 26 70 27 51 28 54 29 69 30 89 31 52 32 53 33
REMARK SMILES IDX 68 35 90 36 55 37 38 38 39 39 48 40 40 41 41 42 47 43 49 44
REMARK SMILES IDX 42 45 43 46 44 47 45 48 46 49 72 50 73 51 82 52 74 53 75 54
REMARK SMILES IDX 81 55 83 56 76 57 77 58 78 59 79 60 80 61 56 62 57 63 66 64
REMARK SMILES IDX 58 65 59 66 65 67 67 68 60 69 61 70 62 71 63 72 64 73 6 74
REMARK SMILES IDX 7 75 8 76 9 77 10 78 27 79 11 80 26 81 28 82 25 83 12 84
REMARK SMILES IDX 13 86 14 87 15 88 16 89 17 91 18 92 19 93 23 94 20 95 22 96
REMARK SMILES IDX 24 97 21 98
REMARK H PARENT 88 23 54 34 12 85 15 90
REMARK Flexibility Score: inf
ROOT
ATOM      1  C   UNL A   1      44.062  22.589  24.771  1.00  0.00     0.275 C 
ENDROOT
BRANCH   1   2
ATOM      2  C   UNL A   1      44.524  23.896  25.423  1.00  0.00     0.275 C 
BRANCH   2   3
ATOM      3  O   UNL A   1      43.541  24.439  26.334  1.00  0.00    -0.458 OA
BRANCH   3   4
ATOM      4  C   UNL A   1      42.898  25.583  26.002  1.00  0.00     0.338 C 
ATOM      5  O   UNL A   1      42.511  25.815  24.864  1.00  0.00    -0.246 OA
BRANCH   4   6
ATOM      6  C   UNL A   1      42.591  26.495  27.129  1.00  0.00     0.060 A 
ATOM      7  C   UNL A   1      43.213  27.743  27.267  1.00  0.00     0.016 A 
ATOM      8  C   UNL A   1      41.704  26.050  28.109  1.00  0.00     0.016 A 
ATOM      9  C   UNL A   1      42.915  28.557  28.366  1.00  0.00     0.010 A 
ATOM     10  C   UNL A   1      41.399  26.869  29.197  1.00  0.00     0.010 A 
ATOM     11  C   UNL A   1      41.997  28.129  29.335  1.00  0.00    -0.014 A 
BRANCH  11  12
ATOM     12  C   UNL A   1      41.660  28.963  30.514  1.00  0.00     0.031 A 
ATOM     13  C   UNL A   1      42.360  28.738  31.821  1.00  0.00     0.074 A 
ATOM     14  C   UNL A   1      40.659  29.861  30.442  1.00  0.00     0.049 A 
ATOM     15  N   UNL A   1      42.208  29.377  32.952  1.00  0.00    -0.248 NA
ATOM     16  C   UNL A   1      43.355  27.656  31.865  1.00  0.00     0.031 C 
ATOM     17  C   UNL A   1      39.863  30.137  29.250  1.00  0.00     0.029 A 
ATOM     18  N   UNL A   1      40.117  30.679  31.399  1.00  0.00    -0.354 N 
ATOM     19  C   UNL A   1      43.121  28.808  33.829  1.00  0.00     0.074 A 
ATOM     20  C   UNL A   1      43.760  27.715  33.126  1.00  0.00     0.031 C 
ATOM     21  C   UNL A   1      38.892  31.013  29.558  1.00  0.00     0.029 A 
ATOM     22  C   UNL A   1      39.023  31.385  30.964  1.00  0.00     0.049 A 
ATOM     23  H   UNL A   1      40.477  30.751  32.313  1.00  0.00     0.167 HD
ATOM     24  C   UNL A   1      43.437  29.193  35.088  1.00  0.00     0.037 A 
ATOM     25  C   UNL A   1      38.221  32.246  31.621  1.00  0.00     0.037 A 
ATOM     26  C   UNL A   1      42.805  30.275  35.790  1.00  0.00     0.049 A 
ATOM     27  C   UNL A   1      38.552  32.632  33.034  1.00  0.00     0.074 A 
ATOM     28  C   UNL A   1      43.112  30.795  37.035  1.00  0.00     0.029 A 
ATOM     29  N   UNL A   1      41.726  30.998  35.308  1.00  0.00    -0.354 N 
ATOM     30  N   UNL A   1      39.508  32.175  33.806  1.00  0.00    -0.248 NA
ATOM     31  C   UNL A   1      37.727  33.680  33.652  1.00  0.00     0.031 C 
ATOM     32  C   UNL A   1      42.208  31.831  37.310  1.00  0.00     0.029 A 
ATOM     33  C   UNL A   1      41.348  31.957  36.231  1.00  0.00     0.049 A 
ATOM     34  H   UNL A   1      41.292  30.851  34.436  1.00  0.00     0.167 HD
ATOM     35  C   UNL A   1      39.443  32.925  34.973  1.00  0.00     0.074 A 
ATOM     36  C   UNL A   1      38.326  33.837  34.826  1.00  0.00     0.031 C 
ATOM     37  C   UNL A   1      40.256  32.881  36.055  1.00  0.00     0.037 A 
BRANCH  24  38
ATOM     38  C   UNL A   1      44.569  28.464  35.742  1.00  0.00     0.058 A 
ATOM     39  C   UNL A   1      45.896  28.878  35.578  1.00  0.00     0.135 A 
ATOM     40  C   UNL A   1      44.315  27.362  36.574  1.00  0.00     0.135 A 
ATOM     41  F   UNL A   1      46.186  29.935  34.803  1.00  0.00    -0.206 F 
ATOM     42  C   UNL A   1      46.939  28.235  36.237  1.00  0.00     0.059 A 
ATOM     43  C   UNL A   1      45.340  26.712  37.251  1.00  0.00     0.059 A 
ATOM     44  F   UNL A   1      43.055  26.946  36.779  1.00  0.00    -0.206 F 
ATOM     45  C   UNL A   1      46.651  27.155  37.076  1.00  0.00     0.060 A 
BRANCH  45  46
ATOM     46  S   UNL A   1      47.985  26.392  38.025  1.00  0.00     0.124 S 
ATOM     47  O   UNL A   1      47.417  26.367  39.368  1.00  0.00    -0.237 OA
ATOM     48  O   UNL A   1      48.137  25.095  37.373  1.00  0.00    -0.237 OA
ATOM     49  O   UNL A   1      49.099  27.314  37.825  1.00  0.00    -0.744 OA
ENDBRANCH  45  46
ENDBRANCH  24  38
BRANCH  25  50
ATOM     50  C   UNL A   1      37.053  32.836  30.926  1.00  0.00     0.058 A 
ATOM     51  C   UNL A   1      37.211  33.936  30.071  1.00  0.00     0.135 A 
ATOM     52  C   UNL A   1      35.762  32.325  31.116  1.00  0.00     0.135 A 
ATOM     53  F   UNL A   1      38.427  34.470  29.877  1.00  0.00    -0.206 F 
ATOM     54  C   UNL A   1      36.126  34.507  29.420  1.00  0.00     0.059 A 
ATOM     55  C   UNL A   1      34.660  32.877  30.471  1.00  0.00     0.059 A 
ATOM     56  F   UNL A   1      35.570  31.275  31.928  1.00  0.00    -0.206 F 
ATOM     57  C   UNL A   1      34.852  33.973  29.630  1.00  0.00     0.060 A 
BRANCH  57  58
ATOM     58  S   UNL A   1      33.457  34.733  28.774  1.00  0.00     0.124 S 
ATOM     59  O   UNL A   1      34.084  35.916  28.194  1.00  0.00    -0.237 OA
ATOM     60  O   UNL A   1      33.074  33.689  27.829  1.00  0.00    -0.237 OA
ATOM     61  O   UNL A   1      32.501  34.987  29.847  1.00  0.00    -0.744 OA
ENDBRANCH  57  58
ENDBRANCH  25  50
BRANCH  37  62
ATOM     62  C   UNL A   1      40.030  33.895  37.133  1.00  0.00     0.058 A 
ATOM     63  C   UNL A   1      39.101  33.638  38.153  1.00  0.00     0.135 A 
ATOM     64  C   UNL A   1      40.672  35.141  37.120  1.00  0.00     0.135 A 
ATOM     65  F   UNL A   1      38.470  32.455  38.210  1.00  0.00    -0.206 F 
ATOM     66  C   UNL A   1      38.800  34.593  39.117  1.00  0.00     0.059 A 
ATOM     67  C   UNL A   1      40.392  36.109  38.080  1.00  0.00     0.059 A 
ATOM     68  F   UNL A   1      41.580  35.422  36.173  1.00  0.00    -0.206 F 
ATOM     69  C   UNL A   1      39.440  35.832  39.064  1.00  0.00     0.060 A 
BRANCH  69  70
ATOM     70  S   UNL A   1      39.043  37.073  40.313  1.00  0.00     0.124 S 
ATOM     71  O   UNL A   1      38.420  38.117  39.506  1.00  0.00    -0.237 OA
ATOM     72  O   UNL A   1      38.148  36.347  41.211  1.00  0.00    -0.237 OA
ATOM     73  O   UNL A   1      40.348  37.405  40.878  1.00  0.00    -0.744 OA
ENDBRANCH  69  70
ENDBRANCH  37  62
ENDBRANCH  11  12
ENDBRANCH   4   6
ENDBRANCH   3   4
ENDBRANCH   2   3
ENDBRANCH   1   2
BRANCH   1  74
ATOM     74  O   UNL A   1      42.631  22.468  24.915  1.00  0.00    -0.458 OA
BRANCH  74  75
ATOM     75  C   UNL A   1      42.195  21.584  25.872  1.00  0.00     0.339 C 
ATOM     76  O   UNL A   1      42.509  20.403  25.928  1.00  0.00    -0.246 OA
BRANCH  75  77
ATOM     77  C   UNL A   1      40.959  22.402  26.866  1.00  0.00     0.080 A 
ATOM     78  C   UNL A   1      39.253  23.332  26.172  1.00  0.00     0.043 A 
ATOM     79  C   UNL A   1      41.573  21.971  27.906  1.00  0.00     0.055 A 
ATOM     80  C   UNL A   1      38.089  23.925  26.189  1.00  0.00     0.041 A 
ATOM     81  C   UNL A   1      40.563  22.747  27.944  1.00  0.00     0.023 A 
ATOM     82  Cl  UNL A   1      43.110  22.178  28.573  1.00  0.00    -0.083 Cl
ATOM     83  C   UNL A   1      38.911  23.630  27.128  1.00  0.00     0.028 A 
BRANCH  80  84
ATOM     84  N   UNL A   1      36.982  23.253  25.630  1.00  0.00    -0.332 N 
ATOM     85  H   UNL A   1      36.603  23.767  24.880  1.00  0.00     0.169 HD
BRANCH  84  86
ATOM     86  C   UNL A   1      36.289  22.102  25.825  1.00  0.00     0.177 C 
ATOM     87  S   UNL A   1      36.808  20.759  24.958  1.00  0.00    -0.040 S 
BRANCH  86  88
ATOM     88  N   UNL A   1      35.283  21.888  26.737  1.00  0.00    -0.299 N 
ATOM     89  C   UNL A   1      34.028  22.406  27.049  1.00  0.00     0.260 C 
ATOM     90  H   UNL A   1      35.519  21.154  27.349  1.00  0.00     0.172 HD
ATOM     91  O   UNL A   1      33.548  22.389  28.174  1.00  0.00    -0.269 OA
BRANCH  89  92
ATOM     92  C   UNL A   1      33.332  23.074  25.959  1.00  0.00     0.075 A 
ATOM     93  C   UNL A   1      33.859  24.940  25.429  1.00  0.00     0.017 A 
ATOM     94  C   UNL A   1      32.700  21.880  24.527  1.00  0.00     0.135 A 
ATOM     95  C   UNL A   1      33.665  25.307  23.504  1.00  0.00     0.001 A 
ATOM     96  C   UNL A   1      32.534  22.249  22.599  1.00  0.00     0.040 A 
ATOM     97  F   UNL A   1      32.606  20.578  24.861  1.00  0.00    -0.206 F 
ATOM     98  C   UNL A   1      33.070  24.103  22.070  1.00  0.00     0.003 A 
ENDBRANCH  89  92
ENDBRANCH  86  88
ENDBRANCH  84  86
ENDBRANCH  80  84
ENDBRANCH  75  77
ENDBRANCH  74  75
ENDBRANCH   1  74
TORSDOF 18
ENDMDL
MODEL 2
REMARK VINA RESULT:     -11.4      6.140     12.015
REMARK SMILES O=C(OCCOC(=O)c1cc(NC(=S)NC(=O)c2ccccc2F)ccc1Cl)c1ccc(-c2c3nc(c(-c4c(F)cc(S(=O)(=O)[O-])cc4F)c4ccc([nH]4)c(-c4c(F)cc(S(=O)(=O)[O-])cc4F)c4nc(c(-c5c(F)cc(S(=O)(=O)[O-])cc5F)c5ccc2[nH]5)C=C4)C=C3)cc1
REMARK SMILES IDX 5 1 4 2 3 3 2 4 1 5 29 6 30 7 94 8 31 9 93 10 32 11 33 12
REMARK SMILES IDX 34 13 87 14 35 15 92 16 86 17 88 18 36 19 91 20 85 21 84 22
REMARK SMILES IDX 37 24 71 25 50 26 70 27 51 28 54 29 69 30 89 31 52 32 53 33
REMARK SMILES IDX 68 35 90 36 55 37 38 38 39 39 48 40 40 41 41 42 47 43 49 44
REMARK SMILES IDX 42 45 43 46 44 47 45 48 46 49 72 50 73 51 82 52 74 53 75 54
REMARK SMILES IDX 81 55 83 56 76 57 77 58 78 59 79 60 80 61 56 62 57 63 66 64
REMARK SMILES IDX 58 65 59 66 65 67 67 68 60 69 61 70 62 71 63 72 64 73 6 74
REMARK SMILES IDX 7 75 8 76 9 77 10 78 27 79 11 80 26 81 28 82 25 83 12 84
REMARK SMILES IDX 13 86 14 87 15 88 16 89 17 91 18 92 19 93 23 94 20 95 22 96
REMARK SMILES IDX 24 97 21 98
REMARK H PARENT 88 23 54 34 12 85 15 90
REMARK Flexibility Score: inf
ROOT
ATOM      1  C   UNL A   1      35.126  33.016  30.291  1.00  0.00     0.275 C 
ENDROOT
BRANCH   1   2
ATOM      2  C   UNL A   1      35.005  32.305  31.642  1.00  0.00     0.275 C 
BRANCH   2   3
ATOM      3  O   UNL A   1      36.240  31.675  32.050  1.00  0.00    -0.458 OA
BRANCH   3   4
ATOM      4  C   UNL A   1      37.361  32.429  32.149  1.00  0.00     0.338 C 
ATOM      5  O   UNL A   1      37.389  33.492  32.754  1.00  0.00    -0.246 OA
BRANCH   4   6
ATOM      6  C   UNL A   1      38.587  31.830  31.572  1.00  0.00     0.060 A 
ATOM      7  C   UNL A   1      39.546  31.186  32.366  1.00  0.00     0.016 A 
ATOM      8  C   UNL A   1      38.809  31.983  30.204  1.00  0.00     0.016 A 
ATOM      9  C   UNL A   1      40.705  30.664  31.779  1.00  0.00     0.010 A 
ATOM     10  C   UNL A   1      39.959  31.450  29.620  1.00  0.00     0.010 A 
ATOM     11  C   UNL A   1      40.916  30.784  30.399  1.00  0.00    -0.014 A 
BRANCH  11  12
ATOM     12  C   UNL A   1      42.133  30.247  29.745  1.00  0.00     0.031 A 
ATOM     13  C   UNL A   1      43.281  31.157  29.424  1.00  0.00     0.074 A 
ATOM     14  C   UNL A   1      42.176  28.960  29.352  1.00  0.00     0.049 A 
ATOM     15  N   UNL A   1      44.427  30.865  28.868  1.00  0.00    -0.248 NA
ATOM     16  C   UNL A   1      43.118  32.579  29.766  1.00  0.00     0.031 C 
ATOM     17  C   UNL A   1      41.109  27.984  29.553  1.00  0.00     0.029 A 
ATOM     18  N   UNL A   1      43.139  28.261  28.670  1.00  0.00    -0.354 N 
ATOM     19  C   UNL A   1      45.143  32.053  28.838  1.00  0.00     0.074 A 
ATOM     20  C   UNL A   1      44.268  33.088  29.350  1.00  0.00     0.031 C 
ATOM     21  C   UNL A   1      41.444  26.830  28.953  1.00  0.00     0.029 A 
ATOM     22  C   UNL A   1      42.768  26.977  28.355  1.00  0.00     0.049 A 
ATOM     23  H   UNL A   1      44.013  28.645  28.428  1.00  0.00     0.167 HD
ATOM     24  C   UNL A   1      46.429  32.257  28.467  1.00  0.00     0.037 A 
ATOM     25  C   UNL A   1      43.427  26.021  27.672  1.00  0.00     0.037 A 
ATOM     26  C   UNL A   1      47.300  31.235  27.958  1.00  0.00     0.049 A 
ATOM     27  C   UNL A   1      44.837  26.271  27.223  1.00  0.00     0.074 A 
ATOM     28  C   UNL A   1      48.643  31.324  27.634  1.00  0.00     0.029 A 
ATOM     29  N   UNL A   1      46.908  29.934  27.687  1.00  0.00    -0.354 N 
ATOM     30  N   UNL A   1      45.546  27.370  27.324  1.00  0.00    -0.248 NA
ATOM     31  C   UNL A   1      45.554  25.146  26.608  1.00  0.00     0.031 C 
ATOM     32  C   UNL A   1      49.060  30.074  27.157  1.00  0.00     0.029 A 
ATOM     33  C   UNL A   1      47.978  29.210  27.194  1.00  0.00     0.049 A 
ATOM     34  H   UNL A   1      46.000  29.578  27.824  1.00  0.00     0.167 HD
ATOM     35  C   UNL A   1      46.811  27.049  26.849  1.00  0.00     0.074 A 
ATOM     36  C   UNL A   1      46.761  25.666  26.419  1.00  0.00     0.031 C 
ATOM     37  C   UNL A   1      47.921  27.824  26.803  1.00  0.00     0.037 A 
BRANCH  24  38
ATOM     38  C   UNL A   1      46.971  33.638  28.674  1.00  0.00     0.058 A 
ATOM     39  C   UNL A   1      46.919  34.602  27.660  1.00  0.00     0.135 A 
ATOM     40  C   UNL A   1      47.511  34.009  29.916  1.00  0.00     0.135 A 
ATOM     41  F   UNL A   1      46.400  34.296  26.460  1.00  0.00    -0.206 F 
ATOM     42  C   UNL A   1      47.367  35.901  27.875  1.00  0.00     0.059 A 
ATOM     43  C   UNL A   1      47.953  35.304  30.158  1.00  0.00     0.059 A 
ATOM     44  F   UNL A   1      47.557  33.123  30.923  1.00  0.00    -0.206 F 
ATOM     45  C   UNL A   1      47.878  36.244  29.130  1.00  0.00     0.060 A 
BRANCH  45  46
ATOM     46  S   UNL A   1      48.351  37.957  29.453  1.00  0.00     0.124 S 
ATOM     47  O   UNL A   1      49.345  37.798  30.507  1.00  0.00    -0.237 OA
ATOM     48  O   UNL A   1      48.860  38.396  28.157  1.00  0.00    -0.237 OA
ATOM     49  O   UNL A   1      47.091  38.575  29.858  1.00  0.00    -0.744 OA
ENDBRANCH  45  46
ENDBRANCH  24  38
BRANCH  25  50
ATOM     50  C   UNL A   1      42.768  24.719  27.415  1.00  0.00     0.058 A 
ATOM     51  C   UNL A   1      42.965  23.635  28.282  1.00  0.00     0.135 A 
ATOM     52  C   UNL A   1      41.948  24.529  26.294  1.00  0.00     0.135 A 
ATOM     53  F   UNL A   1      43.759  23.766  29.356  1.00  0.00    -0.206 F 
ATOM     54  C   UNL A   1      42.363  22.405  28.050  1.00  0.00     0.059 A 
ATOM     55  C   UNL A   1      41.330  23.308  26.043  1.00  0.00     0.059 A 
ATOM     56  F   UNL A   1      41.738  25.542  25.440  1.00  0.00    -0.206 F 
ATOM     57  C   UNL A   1      41.550  22.250  26.925  1.00  0.00     0.060 A 
BRANCH  57  58
ATOM     58  S   UNL A   1      40.780  20.642  26.643  1.00  0.00     0.124 S 
ATOM     59  O   UNL A   1      39.503  21.033  26.055  1.00  0.00    -0.237 OA
ATOM     60  O   UNL A   1      41.729  20.005  25.735  1.00  0.00    -0.237 OA
ATOM     61  O   UNL A   1      40.709  20.064  27.981  1.00  0.00    -0.744 OA
ENDBRANCH  57  58
ENDBRANCH  25  50
BRANCH  37  62
ATOM     62  C   UNL A   1      49.196  27.181  26.351  1.00  0.00     0.058 A 
ATOM     63  C   UNL A   1      50.062  26.604  27.292  1.00  0.00     0.135 A 
ATOM     64  C   UNL A   1      49.592  27.197  25.007  1.00  0.00     0.135 A 
ATOM     65  F   UNL A   1      49.719  26.559  28.588  1.00  0.00    -0.206 F 
ATOM     66  C   UNL A   1      51.294  26.081  26.918  1.00  0.00     0.059 A 
ATOM     67  C   UNL A   1      50.819  26.671  24.608  1.00  0.00     0.059 A 
ATOM     68  F   UNL A   1      48.787  27.723  24.071  1.00  0.00    -0.206 F 
ATOM     69  C   UNL A   1      51.670  26.132  25.575  1.00  0.00     0.060 A 
BRANCH  69  70
ATOM     70  S   UNL A   1      53.273  25.457  25.092  1.00  0.00     0.124 S 
ATOM     71  O   UNL A   1      54.192  26.335  25.808  1.00  0.00    -0.237 OA
ATOM     72  O   UNL A   1      53.201  24.082  25.580  1.00  0.00    -0.237 OA
ATOM     73  O   UNL A   1      53.269  25.597  23.638  1.00  0.00    -0.744 OA
ENDBRANCH  69  70
ENDBRANCH  37  62
ENDBRANCH  11  12
ENDBRANCH   4   6
ENDBRANCH   3   4
ENDBRANCH   2   3
ENDBRANCH   1   2
BRANCH   1  74
ATOM     74  O   UNL A   1      34.370  32.286  29.301  1.00  0.00    -0.458 OA
BRANCH  74  75
ATOM     75  C   UNL A   1      35.061  31.909  28.174  1.00  0.00     0.339 C 
ATOM     76  O   UNL A   1      35.871  32.608  27.584  1.00  0.00    -0.246 OA
BRANCH  75  77
ATOM     77  C   UNL A   1      34.421  30.334  27.630  1.00  0.00     0.080 A 
ATOM     78  C   UNL A   1      32.646  30.019  26.625  1.00  0.00     0.043 A 
ATOM     79  C   UNL A   1      35.530  29.805  27.997  1.00  0.00     0.055 A 
ATOM     80  C   UNL A   1      31.715  29.397  25.952  1.00  0.00     0.041 A 
ATOM     81  C   UNL A   1      34.536  29.143  27.554  1.00  0.00     0.023 A 
ATOM     82  Cl  UNL A   1      36.363  29.640  29.457  1.00  0.00    -0.083 Cl
ATOM     83  C   UNL A   1      32.759  28.968  26.560  1.00  0.00     0.028 A 
BRANCH  80  84
ATOM     84  N   UNL A   1      31.468  29.791  24.621  1.00  0.00    -0.332 N 
ATOM     85  H   UNL A   1      31.356  30.768  24.560  1.00  0.00     0.169 HD
BRANCH  84  86
ATOM     86  C   UNL A   1      31.343  29.215  23.398  1.00  0.00     0.177 C 
ATOM     87  S   UNL A   1      29.779  28.866  22.891  1.00  0.00    -0.040 S 
BRANCH  86  88
ATOM     88  N   UNL A   1      32.344  28.990  22.484  1.00  0.00    -0.299 N 
ATOM     89  C   UNL A   1      33.297  28.015  22.196  1.00  0.00     0.260 C 
ATOM     90  H   UNL A   1      32.405  29.736  21.845  1.00  0.00     0.172 HD
ATOM     91  O   UNL A   1      34.369  28.253  21.658  1.00  0.00    -0.269 OA
BRANCH  89  92
ATOM     92  C   UNL A   1      32.988  26.672  22.667  1.00  0.00     0.075 A 
ATOM     93  C   UNL A   1      32.583  25.216  21.341  1.00  0.00     0.017 A 
ATOM     94  C   UNL A   1      33.908  26.144  24.325  1.00  0.00     0.135 A 
ATOM     95  C   UNL A   1      33.187  23.430  21.910  1.00  0.00     0.001 A 
ATOM     96  C   UNL A   1      34.531  24.358  24.874  1.00  0.00     0.040 A 
ATOM     97  F   UNL A   1      34.394  27.161  25.063  1.00  0.00    -0.206 F 
ATOM     98  C   UNL A   1      34.138  22.911  23.548  1.00  0.00     0.003 A 
ENDBRANCH  89  92
ENDBRANCH  86  88
ENDBRANCH  84  86
ENDBRANCH  80  84
ENDBRANCH  75  77
ENDBRANCH  74  75
ENDBRANCH   1  74
TORSDOF 18
ENDMDL
MODEL 3
REMARK VINA RESULT:     -11.2      6.774     12.548
REMARK SMILES O=C(OCCOC(=O)c1cc(NC(=S)NC(=O)c2ccccc2F)ccc1Cl)c1ccc(-c2c3nc(c(-c4c(F)cc(S(=O)(=O)[O-])cc4F)c4ccc([nH]4)c(-c4c(F)cc(S(=O)(=O)[O-])cc4F)c4nc(c(-c5c(F)cc(S(=O)(=O)[O-])cc5F)c5ccc2[nH]5)C=C4)C=C3)cc1
REMARK SMILES IDX 5 1 4 2 3 3 2 4 1 5 29 6 30 7 94 8 31 9 93 10 32 11 33 12
REMARK SMILES IDX 34 13 87 14 35 15 92 16 86 17 88 18 36 19 91 20 85 21 84 22
REMARK SMILES IDX 37 24 71 25 50 26 70 27 51 28 54 29 69 30 89 31 52 32 53 33
REMARK SMILES IDX 68 35 90 36 55 37 38 38 39 39 48 40 40 41 41 42 47 43 49 44
REMARK SMILES IDX 42 45 43 46 44 47 45 48 46 49 72 50 73 51 82 52 74 53 75 54
REMARK SMILES IDX 81 55 83 56 76 57 77 58 78 59 79 60 80 61 56 62 57 63 66 64
REMARK SMILES IDX 58 65 59 66 65 67 67 68 60 69 61 70 62 71 63 72 64 73 6 74
REMARK SMILES IDX 7 75 8 76 9 77 10 78 27 79 11 80 26 81 28 82 25 83 12 84
REMARK SMILES IDX 13 86 14 87 15 88 16 89 17 91 18 92 19 93 23 94 20 95 22 96
REMARK SMILES IDX 24 97 21 98
REMARK H PARENT 88 23 54 34 12 85 15 90
REMARK Flexibility Score: inf
ROOT
ATOM      1  C   UNL A   1      46.926  22.156  39.211  1.00  0.00     0.275 C 
ENDROOT
BRANCH   1   2
ATOM      2  C   UNL A   1      46.389  23.107  38.137  1.00  0.00     0.275 C 
BRANCH   2   3
ATOM      3  O   UNL A   1      46.405  24.489  38.561  1.00  0.00    -0.458 OA
BRANCH   3   4
ATOM      4  C   UNL A   1      46.968  25.418  37.753  1.00  0.00     0.338 C 
ATOM      5  O   UNL A   1      48.180  25.536  37.629  1.00  0.00    -0.246 OA
BRANCH   4   6
ATOM      6  C   UNL A   1      46.021  26.216  36.938  1.00  0.00     0.060 A 
ATOM      7  C   UNL A   1      46.419  27.371  36.253  1.00  0.00     0.016 A 
ATOM      8  C   UNL A   1      44.682  25.826  36.922  1.00  0.00     0.016 A 
ATOM      9  C   UNL A   1      45.482  28.111  35.522  1.00  0.00     0.010 A 
ATOM     10  C   UNL A   1      43.752  26.558  36.181  1.00  0.00     0.010 A 
ATOM     11  C   UNL A   1      44.142  27.703  35.473  1.00  0.00    -0.014 A 
BRANCH  11  12
ATOM     12  C   UNL A   1      43.121  28.464  34.713  1.00  0.00     0.031 A 
ATOM     13  C   UNL A   1      42.872  28.152  33.267  1.00  0.00     0.074 A 
ATOM     14  C   UNL A   1      42.480  29.498  35.289  1.00  0.00     0.049 A 
ATOM     15  N   UNL A   1      42.013  28.699  32.447  1.00  0.00    -0.248 NA
ATOM     16  C   UNL A   1      43.696  27.093  32.663  1.00  0.00     0.031 C 
ATOM     17  C   UNL A   1      42.670  29.940  36.667  1.00  0.00     0.029 A 
ATOM     18  N   UNL A   1      41.570  30.386  34.779  1.00  0.00    -0.354 N 
ATOM     19  C   UNL A   1      42.157  28.021  31.246  1.00  0.00     0.074 A 
ATOM     20  C   UNL A   1      43.246  27.082  31.417  1.00  0.00     0.031 C 
ATOM     21  C   UNL A   1      41.949  31.053  36.879  1.00  0.00     0.029 A 
ATOM     22  C   UNL A   1      41.219  31.381  35.658  1.00  0.00     0.049 A 
ATOM     23  H   UNL A   1      41.203  30.318  33.868  1.00  0.00     0.167 HD
ATOM     24  C   UNL A   1      41.415  28.131  30.118  1.00  0.00     0.037 A 
ATOM     25  C   UNL A   1      40.393  32.434  35.501  1.00  0.00     0.037 A 
ATOM     26  C   UNL A   1      40.335  29.061  29.943  1.00  0.00     0.049 A 
ATOM     27  C   UNL A   1      39.609  32.575  34.229  1.00  0.00     0.074 A 
ATOM     28  C   UNL A   1      39.471  29.192  28.870  1.00  0.00     0.029 A 
ATOM     29  N   UNL A   1      39.978  30.030  30.866  1.00  0.00    -0.354 N 
ATOM     30  N   UNL A   1      39.665  31.838  33.146  1.00  0.00    -0.248 NA
ATOM     31  C   UNL A   1      38.620  33.660  34.168  1.00  0.00     0.031 C 
ATOM     32  C   UNL A   1      38.595  30.251  29.143  1.00  0.00     0.029 A 
ATOM     33  C   UNL A   1      38.911  30.769  30.388  1.00  0.00     0.049 A 
ATOM     34  H   UNL A   1      40.419  30.173  31.735  1.00  0.00     0.167 HD
ATOM     35  C   UNL A   1      38.674  32.326  32.304  1.00  0.00     0.074 A 
ATOM     36  C   UNL A   1      38.061  33.450  32.983  1.00  0.00     0.031 C 
ATOM     37  C   UNL A   1      38.289  31.863  31.091  1.00  0.00     0.037 A 
BRANCH  24  38
ATOM     38  C   UNL A   1      41.726  27.161  29.020  1.00  0.00     0.058 A 
ATOM     39  C   UNL A   1      42.875  27.294  28.232  1.00  0.00     0.135 A 
ATOM     40  C   UNL A   1      40.881  26.065  28.783  1.00  0.00     0.135 A 
ATOM     41  F   UNL A   1      43.719  28.319  28.431  1.00  0.00    -0.206 F 
ATOM     42  C   UNL A   1      43.192  26.357  27.254  1.00  0.00     0.059 A 
ATOM     43  C   UNL A   1      41.183  25.110  27.820  1.00  0.00     0.059 A 
ATOM     44  F   UNL A   1      39.781  25.886  29.532  1.00  0.00    -0.206 F 
ATOM     45  C   UNL A   1      42.342  25.264  27.059  1.00  0.00     0.060 A 
BRANCH  45  46
ATOM     46  S   UNL A   1      42.808  23.983  25.874  1.00  0.00     0.124 S 
ATOM     47  O   UNL A   1      43.007  24.762  24.657  1.00  0.00    -0.237 OA
ATOM     48  O   UNL A   1      44.014  23.419  26.473  1.00  0.00    -0.237 OA
ATOM     49  O   UNL A   1      41.649  23.095  25.876  1.00  0.00    -0.744 OA
ENDBRANCH  45  46
ENDBRANCH  24  38
BRANCH  25  50
ATOM     50  C   UNL A   1      40.232  33.409  36.605  1.00  0.00     0.058 A 
ATOM     51  C   UNL A   1      41.109  34.497  36.730  1.00  0.00     0.135 A 
ATOM     52  C   UNL A   1      39.217  33.264  37.560  1.00  0.00     0.135 A 
ATOM     53  F   UNL A   1      42.109  34.662  35.850  1.00  0.00    -0.206 F 
ATOM     54  C   UNL A   1      40.979  35.414  37.765  1.00  0.00     0.059 A 
ATOM     55  C   UNL A   1      39.063  34.173  38.602  1.00  0.00     0.059 A 
ATOM     56  F   UNL A   1      38.360  32.236  37.475  1.00  0.00    -0.206 F 
ATOM     57  C   UNL A   1      39.955  35.241  38.699  1.00  0.00     0.060 A 
BRANCH  57  58
ATOM     58  S   UNL A   1      39.807  36.446  40.035  1.00  0.00     0.124 S 
ATOM     59  O   UNL A   1      41.162  36.986  40.087  1.00  0.00    -0.237 OA
ATOM     60  O   UNL A   1      38.783  37.349  39.518  1.00  0.00    -0.237 OA
ATOM     61  O   UNL A   1      39.407  35.633  41.179  1.00  0.00    -0.744 OA
ENDBRANCH  57  58
ENDBRANCH  25  50
BRANCH  37  62
ATOM     62  C   UNL A   1      37.100  32.509  30.449  1.00  0.00     0.058 A 
ATOM     63  C   UNL A   1      37.283  33.522  29.495  1.00  0.00     0.135 A 
ATOM     64  C   UNL A   1      35.790  32.182  30.825  1.00  0.00     0.135 A 
ATOM     65  F   UNL A   1      38.520  33.861  29.099  1.00  0.00    -0.206 F 
ATOM     66  C   UNL A   1      36.205  34.205  28.947  1.00  0.00     0.059 A 
ATOM     67  C   UNL A   1      34.694  32.848  30.282  1.00  0.00     0.059 A 
ATOM     68  F   UNL A   1      35.569  31.208  31.721  1.00  0.00    -0.206 F 
ATOM     69  C   UNL A   1      34.914  33.870  29.357  1.00  0.00     0.060 A 
BRANCH  69  70
ATOM     70  S   UNL A   1      33.514  34.764  28.648  1.00  0.00     0.124 S 
ATOM     71  O   UNL A   1      32.647  34.925  29.810  1.00  0.00    -0.237 OA
ATOM     72  O   UNL A   1      34.137  35.986  28.147  1.00  0.00    -0.237 OA
ATOM     73  O   UNL A   1      33.026  33.852  27.617  1.00  0.00    -0.744 OA
ENDBRANCH  69  70
ENDBRANCH  37  62
ENDBRANCH  11  12
ENDBRANCH   4   6
ENDBRANCH   3   4
ENDBRANCH   2   3
ENDBRANCH   1   2
BRANCH   1  74
ATOM     74  O   UNL A   1      46.035  21.027  39.332  1.00  0.00    -0.458 OA
BRANCH  74  75
ATOM     75  C   UNL A   1      46.446  19.868  38.716  1.00  0.00     0.339 C 
ATOM     76  O   UNL A   1      46.668  19.753  37.519  1.00  0.00    -0.246 OA
BRANCH  75  77
ATOM     77  C   UNL A   1      46.396  18.550  39.919  1.00  0.00     0.080 A 
ATOM     78  C   UNL A   1      44.712  17.824  40.866  1.00  0.00     0.043 A 
ATOM     79  C   UNL A   1      47.640  18.348  39.684  1.00  0.00     0.055 A 
ATOM     80  C   UNL A   1      43.959  17.047  41.596  1.00  0.00     0.041 A 
ATOM     81  C   UNL A   1      46.972  17.728  40.575  1.00  0.00     0.023 A 
ATOM     82  Cl  UNL A   1      49.060  19.249  39.843  1.00  0.00    -0.083 Cl
ATOM     83  C   UNL A   1      45.231  17.100  41.439  1.00  0.00     0.028 A 
BRANCH  80  84
ATOM     84  N   UNL A   1      42.939  16.307  40.961  1.00  0.00    -0.332 N 
ATOM     85  H   UNL A   1      42.889  16.531  40.004  1.00  0.00     0.169 HD
BRANCH  84  86
ATOM     86  C   UNL A   1      42.008  15.375  41.287  1.00  0.00     0.177 C 
ATOM     87  S   UNL A   1      41.767  14.137  40.176  1.00  0.00    -0.040 S 
BRANCH  86  88
ATOM     88  N   UNL A   1      41.324  15.269  42.475  1.00  0.00    -0.299 N 
ATOM     89  C   UNL A   1      41.291  14.435  43.591  1.00  0.00     0.260 C 
ATOM     90  H   UNL A   1      40.666  15.995  42.563  1.00  0.00     0.172 HD
ATOM     91  O   UNL A   1      40.292  14.255  44.273  1.00  0.00    -0.269 OA
BRANCH  89  92
ATOM     92  C   UNL A   1      42.514  13.692  43.859  1.00  0.00     0.075 A 
ATOM     93  C   UNL A   1      43.550  14.046  45.545  1.00  0.00     0.017 A 
ATOM     94  C   UNL A   1      42.531  11.849  43.167  1.00  0.00     0.135 A 
ATOM     95  C   UNL A   1      44.450  12.454  46.278  1.00  0.00     0.001 A 
ATOM     96  C   UNL A   1      43.412  10.257  43.922  1.00  0.00     0.040 A 
ATOM     97  F   UNL A   1      41.629  11.588  42.201  1.00  0.00    -0.206 F 
ATOM     98  C   UNL A   1      44.435  10.608  45.606  1.00  0.00     0.003 A 
ENDBRANCH  89  92
ENDBRANCH  86  88
ENDBRANCH  84  86
ENDBRANCH  80  84
ENDBRANCH  75  77
ENDBRANCH  74  75
ENDBRANCH   1  74
TORSDOF 18
ENDMDL
