MODEL 1
REMARK VINA RESULT:     -13.6      0.000      0.000
REMARK SMILES Cc1cccc(S(=O)(=O)Nc2cc(C(=O)OCCOC(=O)c3ccc(-c4c5nc(c(-c6c(F)cc(S(=O)(=O)[O-])cc6F)c6ccc([nH]6)c(-c6c(F)cc(S(=O)(=O)[O-])cc6F)c6nc(c(-c7c(F)cc(S(=O)(=O)[O-])cc7F)c7ccc4[nH]7)C=C6)C=C5)cc3)ccc2N2CCC[C@H](C[NH+]3CCCC3)C2)c1
REMARK SMILES IDX 17 1 16 2 14 3 15 4 13 5 11 6 12 7 90 8 89 9 88 10 10 11
REMARK SMILES IDX 7 13 8 14 9 15 6 16 1 17 2 18 3 19 103 20 4 21 5 22 91 23
REMARK SMILES IDX 92 24 102 25 93 26 95 27 94 28 96 29 97 30 98 31 101 32
REMARK SMILES IDX 99 34 100 35 18 36 19 37 20 38 21 39 22 40 23 41 87 42 24 43
REMARK SMILES IDX 86 44 25 45 26 46 27 47 80 48 28 49 85 50 79 51 81 52 29 53
REMARK SMILES IDX 84 54 78 55 77 56 30 58 64 59 43 60 63 61 44 62 47 63 62 64
REMARK SMILES IDX 82 65 45 66 46 67 61 69 83 70 48 71 31 72 32 73 41 74 33 75
REMARK SMILES IDX 34 76 40 77 42 78 35 79 36 80 37 81 38 82 39 83 65 84 66 85
REMARK SMILES IDX 75 86 67 87 68 88 74 89 76 90 69 91 70 92 71 93 72 94 73 95
REMARK SMILES IDX 49 96 50 97 59 98 51 99 52 100 58 101 60 102 53 103 54 104
REMARK SMILES IDX 55 105 56 106 57 107
REMARK H PARENT 10 12 97 33 81 57 47 68
REMARK Flexibility Score: inf
ROOT
ATOM      1  C   UNL A   1      32.985  32.974  27.640  1.00  0.00     0.275 C 
ENDROOT
BRANCH   1   2
ATOM      2  O   UNL A   1      33.362  31.588  27.590  1.00  0.00    -0.458 OA
BRANCH   2   3
ATOM      3  C   UNL A   1      32.482  30.868  26.875  1.00  0.00     0.338 C 
ATOM      4  O   UNL A   1      31.448  31.297  26.380  1.00  0.00    -0.246 OA
BRANCH   3   5
ATOM      5  C   UNL A   1      32.696  29.424  26.839  1.00  0.00     0.062 A 
ATOM      6  C   UNL A   1      31.904  27.770  25.263  1.00  0.00     0.073 A 
ATOM      7  C   UNL A   1      31.663  28.818  26.139  1.00  0.00     0.044 A 
ATOM      8  C   UNL A   1      33.176  27.111  25.290  1.00  0.00     0.061 A 
ATOM      9  C   UNL A   1      34.179  27.707  26.105  1.00  0.00     0.029 A 
ATOM     10  C   UNL A   1      33.960  28.862  26.856  1.00  0.00     0.018 A 
BRANCH   6  11
ATOM     11  N   UNL A   1      30.964  27.619  24.183  1.00  0.00    -0.277 N 
ATOM     12  H   UNL A   1      30.234  26.973  24.314  1.00  0.00     0.180 HD
BRANCH  11  13
ATOM     13  S   UNL A   1      31.003  28.449  22.715  1.00  0.00     0.261 S 
ATOM     14  O   UNL A   1      30.711  27.501  21.657  1.00  0.00    -0.201 OA
ATOM     15  O   UNL A   1      32.307  29.089  22.753  1.00  0.00    -0.201 OA
BRANCH  13  16
ATOM     16  C   UNL A   1      29.825  29.798  22.534  1.00  0.00     0.088 A 
ATOM     17  C   UNL A   1      27.905  32.224  20.237  1.00  0.00     0.044 C 
ATOM     18  C   UNL A   1      28.460  31.503  21.429  1.00  0.00    -0.050 A 
ATOM     19  C   UNL A   1      28.012  31.970  22.663  1.00  0.00     0.003 A 
ATOM     20  C   UNL A   1      29.363  30.398  21.359  1.00  0.00     0.025 A 
ATOM     21  C   UNL A   1      28.471  31.383  23.825  1.00  0.00     0.002 A 
ATOM     22  C   UNL A   1      29.370  30.317  23.760  1.00  0.00     0.022 A 
ENDBRANCH  13  16
ENDBRANCH  11  13
ENDBRANCH   6  11
BRANCH   8  23
ATOM     23  N   UNL A   1      33.562  25.953  24.593  1.00  0.00    -0.369 N 
ATOM     24  C   UNL A   1      33.573  26.067  23.119  1.00  0.00     0.116 C 
ATOM     25  C   UNL A   1      34.396  24.890  25.153  1.00  0.00     0.126 C 
ATOM     26  C   UNL A   1      33.214  24.733  22.475  1.00  0.00     0.022 C 
ATOM     27  C   UNL A   1      34.122  23.515  24.493  1.00  0.00     0.064 C 
ATOM     28  C   UNL A   1      34.170  23.655  22.965  1.00  0.00     0.013 C 
BRANCH  27  29
ATOM     29  C   UNL A   1      32.811  22.906  25.061  1.00  0.00     0.267 C 
BRANCH  29  30
ATOM     30  N   UNL A   1      32.818  21.551  25.626  1.00  0.00    -0.335 N 
ATOM     31  C   UNL A   1      34.125  21.019  25.994  1.00  0.00     0.262 C 
ATOM     32  C   UNL A   1      32.102  20.518  24.889  1.00  0.00     0.262 C 
ATOM     33  H   UNL A   1      32.286  21.753  26.473  1.00  0.00     0.348 HD
ATOM     34  C   UNL A   1      34.485  20.069  24.869  1.00  0.00     0.067 C 
ATOM     35  C   UNL A   1      33.145  19.502  24.430  1.00  0.00     0.067 C 
ENDBRANCH  29  30
ENDBRANCH  27  29
ENDBRANCH   8  23
ENDBRANCH   3   5
ENDBRANCH   2   3
ENDBRANCH   1   2
BRANCH   1  36
ATOM     36  C   UNL A   1      33.846  33.745  28.640  1.00  0.00     0.275 C 
BRANCH  36  37
ATOM     37  O   UNL A   1      35.140  33.201  29.002  1.00  0.00    -0.458 OA
BRANCH  37  38
ATOM     38  C   UNL A   1      35.275  32.463  30.147  1.00  0.00     0.338 C 
ATOM     39  O   UNL A   1      34.440  32.417  31.025  1.00  0.00    -0.246 OA
BRANCH  38  40
ATOM     40  C   UNL A   1      36.431  31.520  29.985  1.00  0.00     0.060 A 
ATOM     41  C   UNL A   1      37.326  31.592  28.895  1.00  0.00     0.016 A 
ATOM     42  C   UNL A   1      36.777  30.770  31.095  1.00  0.00     0.016 A 
ATOM     43  C   UNL A   1      38.603  30.994  28.950  1.00  0.00     0.010 A 
ATOM     44  C   UNL A   1      38.067  30.331  31.210  1.00  0.00     0.010 A 
ATOM     45  C   UNL A   1      38.988  30.374  30.130  1.00  0.00    -0.014 A 
BRANCH  45  46
ATOM     46  C   UNL A   1      40.151  29.492  30.364  1.00  0.00     0.031 A 
ATOM     47  C   UNL A   1      40.328  28.097  29.857  1.00  0.00     0.074 A 
ATOM     48  C   UNL A   1      41.218  30.281  30.659  1.00  0.00     0.049 A 
ATOM     49  N   UNL A   1      41.474  27.705  29.414  1.00  0.00    -0.248 NA
ATOM     50  C   UNL A   1      39.314  27.050  29.676  1.00  0.00     0.031 C 
ATOM     51  C   UNL A   1      42.649  30.116  30.493  1.00  0.00     0.029 A 
ATOM     52  N   UNL A   1      41.133  31.506  31.343  1.00  0.00    -0.354 N 
ATOM     53  C   UNL A   1      41.371  26.456  28.836  1.00  0.00     0.074 A 
ATOM     54  C   UNL A   1      39.977  26.114  28.953  1.00  0.00     0.031 C 
ATOM     55  C   UNL A   1      43.273  30.910  31.388  1.00  0.00     0.029 A 
ATOM     56  C   UNL A   1      42.230  31.523  32.202  1.00  0.00     0.049 A 
ATOM     57  H   UNL A   1      40.446  32.204  31.237  1.00  0.00     0.167 HD
ATOM     58  C   UNL A   1      42.536  25.915  28.367  1.00  0.00     0.037 A 
ATOM     59  C   UNL A   1      41.925  31.226  33.502  1.00  0.00     0.037 A 
ATOM     60  C   UNL A   1      43.588  26.422  29.241  1.00  0.00     0.049 A 
ATOM     61  C   UNL A   1      42.486  29.857  33.839  1.00  0.00     0.074 A 
ATOM     62  C   UNL A   1      44.578  27.380  29.164  1.00  0.00     0.029 A 
ATOM     63  N   UNL A   1      43.447  26.094  30.580  1.00  0.00    -0.354 N 
ATOM     64  N   UNL A   1      42.625  28.870  32.986  1.00  0.00    -0.248 NA
ATOM     65  C   UNL A   1      43.150  29.592  35.108  1.00  0.00     0.031 C 
ATOM     66  C   UNL A   1      44.906  27.737  30.513  1.00  0.00     0.029 A 
ATOM     67  C   UNL A   1      44.115  26.989  31.379  1.00  0.00     0.049 A 
ATOM     68  H   UNL A   1      42.934  25.322  30.914  1.00  0.00     0.167 HD
ATOM     69  C   UNL A   1      43.478  27.932  33.511  1.00  0.00     0.074 A 
ATOM     70  C   UNL A   1      43.748  28.416  34.853  1.00  0.00     0.031 C 
ATOM     71  C   UNL A   1      43.992  26.863  32.824  1.00  0.00     0.037 A 
BRANCH  58  72
ATOM     72  C   UNL A   1      42.843  24.968  27.225  1.00  0.00     0.058 A 
ATOM     73  C   UNL A   1      42.852  23.567  27.466  1.00  0.00     0.135 A 
ATOM     74  C   UNL A   1      43.330  25.342  25.960  1.00  0.00     0.135 A 
ATOM     75  F   UNL A   1      42.388  23.050  28.614  1.00  0.00    -0.206 F 
ATOM     76  C   UNL A   1      43.368  22.628  26.570  1.00  0.00     0.059 A 
ATOM     77  C   UNL A   1      43.854  24.410  25.036  1.00  0.00     0.059 A 
ATOM     78  F   UNL A   1      43.326  26.628  25.585  1.00  0.00    -0.206 F 
ATOM     79  C   UNL A   1      43.889  23.056  25.361  1.00  0.00     0.060 A 
BRANCH  79  80
ATOM     80  S   UNL A   1      44.621  21.811  24.270  1.00  0.00     0.124 S 
ATOM     81  O   UNL A   1      44.286  22.325  22.945  1.00  0.00    -0.237 OA
ATOM     82  O   UNL A   1      46.034  21.875  24.631  1.00  0.00    -0.237 OA
ATOM     83  O   UNL A   1      43.936  20.578  24.646  1.00  0.00    -0.744 OA
ENDBRANCH  79  80
ENDBRANCH  58  72
BRANCH  59  84
ATOM     84  C   UNL A   1      40.622  31.894  33.911  1.00  0.00     0.058 A 
ATOM     85  C   UNL A   1      39.585  31.020  34.343  1.00  0.00     0.135 A 
ATOM     86  C   UNL A   1      40.486  33.235  34.304  1.00  0.00     0.135 A 
ATOM     87  F   UNL A   1      39.642  29.714  34.026  1.00  0.00    -0.206 F 
ATOM     88  C   UNL A   1      38.572  31.412  35.219  1.00  0.00     0.059 A 
ATOM     89  C   UNL A   1      39.438  33.662  35.151  1.00  0.00     0.059 A 
ATOM     90  F   UNL A   1      41.419  34.137  33.966  1.00  0.00    -0.206 F 
ATOM     91  C   UNL A   1      38.518  32.732  35.644  1.00  0.00     0.060 A 
BRANCH  91  92
ATOM     92  S   UNL A   1      37.317  33.149  36.942  1.00  0.00     0.124 S 
ATOM     93  O   UNL A   1      38.014  34.200  37.674  1.00  0.00    -0.237 OA
ATOM     94  O   UNL A   1      36.163  33.590  36.160  1.00  0.00    -0.237 OA
ATOM     95  O   UNL A   1      37.140  31.894  37.666  1.00  0.00    -0.744 OA
ENDBRANCH  91  92
ENDBRANCH  59  84
BRANCH  71  96
ATOM     96  C   UNL A   1      44.454  25.575  33.482  1.00  0.00     0.058 A 
ATOM     97  C   UNL A   1      45.765  25.081  33.372  1.00  0.00     0.135 A 
ATOM     98  C   UNL A   1      43.630  24.881  34.411  1.00  0.00     0.135 A 
ATOM     99  F   UNL A   1      46.708  25.723  32.671  1.00  0.00    -0.206 F 
ATOM    100  C   UNL A   1      46.188  23.925  34.020  1.00  0.00     0.059 A 
ATOM    101  C   UNL A   1      44.064  23.780  35.141  1.00  0.00     0.059 A 
ATOM    102  F   UNL A   1      42.371  25.263  34.671  1.00  0.00    -0.206 F 
ATOM    103  C   UNL A   1      45.329  23.277  34.898  1.00  0.00     0.060 A 
BRANCH 103 104
ATOM    104  S   UNL A   1      45.893  21.786  35.725  1.00  0.00     0.124 S 
ATOM    105  O   UNL A   1      45.070  20.772  35.071  1.00  0.00    -0.237 OA
ATOM    106  O   UNL A   1      47.314  21.756  35.392  1.00  0.00    -0.237 OA
ATOM    107  O   UNL A   1      45.589  22.041  37.128  1.00  0.00    -0.744 OA
ENDBRANCH 103 104
ENDBRANCH  71  96
ENDBRANCH  45  46
ENDBRANCH  38  40
ENDBRANCH  37  38
ENDBRANCH  36  37
ENDBRANCH   1  36
TORSDOF 20
ENDMDL
MODEL 2
REMARK VINA RESULT:     -13.4      2.254      4.188
REMARK SMILES Cc1cccc(S(=O)(=O)Nc2cc(C(=O)OCCOC(=O)c3ccc(-c4c5nc(c(-c6c(F)cc(S(=O)(=O)[O-])cc6F)c6ccc([nH]6)c(-c6c(F)cc(S(=O)(=O)[O-])cc6F)c6nc(c(-c7c(F)cc(S(=O)(=O)[O-])cc7F)c7ccc4[nH]7)C=C6)C=C5)cc3)ccc2N2CCC[C@H](C[NH+]3CCCC3)C2)c1
REMARK SMILES IDX 17 1 16 2 14 3 15 4 13 5 11 6 12 7 90 8 89 9 88 10 10 11
REMARK SMILES IDX 7 13 8 14 9 15 6 16 1 17 2 18 3 19 103 20 4 21 5 22 91 23
REMARK SMILES IDX 92 24 102 25 93 26 95 27 94 28 96 29 97 30 98 31 101 32
REMARK SMILES IDX 99 34 100 35 18 36 19 37 20 38 21 39 22 40 23 41 87 42 24 43
REMARK SMILES IDX 86 44 25 45 26 46 27 47 80 48 28 49 85 50 79 51 81 52 29 53
REMARK SMILES IDX 84 54 78 55 77 56 30 58 64 59 43 60 63 61 44 62 47 63 62 64
REMARK SMILES IDX 82 65 45 66 46 67 61 69 83 70 48 71 31 72 32 73 41 74 33 75
REMARK SMILES IDX 34 76 40 77 42 78 35 79 36 80 37 81 38 82 39 83 65 84 66 85
REMARK SMILES IDX 75 86 67 87 68 88 74 89 76 90 69 91 70 92 71 93 72 94 73 95
REMARK SMILES IDX 49 96 50 97 59 98 51 99 52 100 58 101 60 102 53 103 54 104
REMARK SMILES IDX 55 105 56 106 57 107
REMARK H PARENT 10 12 97 33 81 57 47 68
REMARK Flexibility Score: inf
ROOT
ATOM      1  C   UNL A   1      33.167  28.680  25.150  1.00  0.00     0.275 C 
ENDROOT
BRANCH   1   2
ATOM      2  O   UNL A   1      32.422  28.625  23.923  1.00  0.00    -0.458 OA
BRANCH   2   3
ATOM      3  C   UNL A   1      31.119  28.394  24.151  1.00  0.00     0.338 C 
ATOM      4  O   UNL A   1      30.222  29.221  24.052  1.00  0.00    -0.246 OA
BRANCH   3   5
ATOM      5  C   UNL A   1      30.777  27.097  24.728  1.00  0.00     0.062 A 
ATOM      6  C   UNL A   1      31.372  24.866  24.013  1.00  0.00     0.073 A 
ATOM      7  C   UNL A   1      30.841  26.120  23.747  1.00  0.00     0.044 A 
ATOM      8  C   UNL A   1      31.592  24.470  25.372  1.00  0.00     0.061 A 
ATOM      9  C   UNL A   1      31.412  25.478  26.360  1.00  0.00     0.029 A 
ATOM     10  C   UNL A   1      31.032  26.785  26.052  1.00  0.00     0.018 A 
BRANCH   6  11
ATOM     11  N   UNL A   1      31.947  24.171  22.890  1.00  0.00    -0.277 N 
ATOM     12  H   UNL A   1      31.360  23.553  22.399  1.00  0.00     0.180 HD
BRANCH  11  13
ATOM     13  S   UNL A   1      33.535  24.323  22.341  1.00  0.00     0.261 S 
ATOM     14  O   UNL A   1      33.777  25.722  22.050  1.00  0.00    -0.201 OA
ATOM     15  O   UNL A   1      33.583  23.355  21.258  1.00  0.00    -0.201 OA
BRANCH  13  16
ATOM     16  C   UNL A   1      34.824  23.806  23.486  1.00  0.00     0.088 A 
ATOM     17  C   UNL A   1      37.415  21.172  24.579  1.00  0.00     0.044 C 
ATOM     18  C   UNL A   1      36.541  22.388  24.502  1.00  0.00    -0.050 A 
ATOM     19  C   UNL A   1      36.720  23.310  25.531  1.00  0.00     0.003 A 
ATOM     20  C   UNL A   1      35.595  22.642  23.461  1.00  0.00     0.025 A 
ATOM     21  C   UNL A   1      35.956  24.460  25.561  1.00  0.00     0.002 A 
ATOM     22  C   UNL A   1      35.017  24.700  24.556  1.00  0.00     0.022 A 
ENDBRANCH  13  16
ENDBRANCH  11  13
ENDBRANCH   6  11
BRANCH   8  23
ATOM     23  N   UNL A   1      31.981  23.207  25.849  1.00  0.00    -0.369 N 
ATOM     24  C   UNL A   1      32.799  23.214  27.081  1.00  0.00     0.116 C 
ATOM     25  C   UNL A   1      31.270  21.961  25.567  1.00  0.00     0.126 C 
ATOM     26  C   UNL A   1      33.779  22.046  27.080  1.00  0.00     0.022 C 
ATOM     27  C   UNL A   1      32.204  20.725  25.613  1.00  0.00     0.064 C 
ATOM     28  C   UNL A   1      33.018  20.739  26.915  1.00  0.00     0.013 C 
BRANCH  27  29
ATOM     29  C   UNL A   1      33.043  20.645  24.309  1.00  0.00     0.267 C 
BRANCH  29  30
ATOM     30  N   UNL A   1      33.387  19.337  23.738  1.00  0.00    -0.335 N 
ATOM     31  C   UNL A   1      32.280  18.403  23.568  1.00  0.00     0.262 C 
ATOM     32  C   UNL A   1      34.496  18.615  24.348  1.00  0.00     0.262 C 
ATOM     33  H   UNL A   1      33.696  19.664  22.822  1.00  0.00     0.348 HD
ATOM     34  C   UNL A   1      32.413  17.433  24.725  1.00  0.00     0.067 C 
ATOM     35  C   UNL A   1      33.912  17.339  24.950  1.00  0.00     0.067 C 
ENDBRANCH  29  30
ENDBRANCH  27  29
ENDBRANCH   8  23
ENDBRANCH   3   5
ENDBRANCH   2   3
ENDBRANCH   1   2
BRANCH   1  36
ATOM     36  C   UNL A   1      32.957  30.015  25.865  1.00  0.00     0.275 C 
BRANCH  36  37
ATOM     37  O   UNL A   1      33.437  30.154  27.226  1.00  0.00    -0.458 OA
BRANCH  37  38
ATOM     38  C   UNL A   1      34.069  31.306  27.613  1.00  0.00     0.338 C 
ATOM     39  O   UNL A   1      33.488  32.323  27.927  1.00  0.00    -0.246 OA
BRANCH  38  40
ATOM     40  C   UNL A   1      35.514  31.003  27.877  1.00  0.00     0.060 A 
ATOM     41  C   UNL A   1      36.439  31.992  28.278  1.00  0.00     0.016 A 
ATOM     42  C   UNL A   1      35.852  29.668  28.012  1.00  0.00     0.016 A 
ATOM     43  C   UNL A   1      37.659  31.651  28.900  1.00  0.00     0.010 A 
ATOM     44  C   UNL A   1      36.954  29.346  28.755  1.00  0.00     0.010 A 
ATOM     45  C   UNL A   1      37.911  30.312  29.161  1.00  0.00    -0.014 A 
BRANCH  45  46
ATOM     46  C   UNL A   1      39.182  29.684  29.581  1.00  0.00     0.031 A 
ATOM     47  C   UNL A   1      39.674  28.326  29.195  1.00  0.00     0.074 A 
ATOM     48  C   UNL A   1      40.041  30.677  29.932  1.00  0.00     0.049 A 
ATOM     49  N   UNL A   1      40.917  28.141  28.907  1.00  0.00    -0.248 NA
ATOM     50  C   UNL A   1      38.901  27.096  28.981  1.00  0.00     0.031 C 
ATOM     51  C   UNL A   1      41.487  30.783  29.933  1.00  0.00     0.029 A 
ATOM     52  N   UNL A   1      39.649  31.895  30.515  1.00  0.00    -0.354 N 
ATOM     53  C   UNL A   1      41.117  26.869  28.410  1.00  0.00     0.074 A 
ATOM     54  C   UNL A   1      39.807  26.271  28.401  1.00  0.00     0.031 C 
ATOM     55  C   UNL A   1      41.842  31.725  30.831  1.00  0.00     0.029 A 
ATOM     56  C   UNL A   1      40.614  32.165  31.483  1.00  0.00     0.049 A 
ATOM     57  H   UNL A   1      38.862  32.441  30.287  1.00  0.00     0.167 HD
ATOM     58  C   UNL A   1      42.410  26.541  28.108  1.00  0.00     0.037 A 
ATOM     59  C   UNL A   1      40.218  31.878  32.761  1.00  0.00     0.037 A 
ATOM     60  C   UNL A   1      43.239  27.283  29.052  1.00  0.00     0.049 A 
ATOM     61  C   UNL A   1      40.980  30.661  33.251  1.00  0.00     0.074 A 
ATOM     62  C   UNL A   1      44.035  28.408  29.015  1.00  0.00     0.029 A 
ATOM     63  N   UNL A   1      43.002  26.999  30.388  1.00  0.00    -0.354 N 
ATOM     64  N   UNL A   1      41.400  29.679  32.490  1.00  0.00    -0.248 NA
ATOM     65  C   UNL A   1      41.525  30.592  34.600  1.00  0.00     0.031 C 
ATOM     66  C   UNL A   1      44.128  28.887  30.362  1.00  0.00     0.029 A 
ATOM     67  C   UNL A   1      43.393  28.044  31.189  1.00  0.00     0.049 A 
ATOM     68  H   UNL A   1      42.606  26.161  30.718  1.00  0.00     0.167 HD
ATOM     69  C   UNL A   1      42.343  28.949  33.169  1.00  0.00     0.074 A 
ATOM     70  C   UNL A   1      42.358  29.542  34.494  1.00  0.00     0.031 C 
ATOM     71  C   UNL A   1      43.125  27.967  32.618  1.00  0.00     0.037 A 
BRANCH  58  72
ATOM     72  C   UNL A   1      43.021  25.615  27.075  1.00  0.00     0.058 A 
ATOM     73  C   UNL A   1      43.056  24.217  27.327  1.00  0.00     0.135 A 
ATOM     74  C   UNL A   1      43.759  26.020  25.949  1.00  0.00     0.135 A 
ATOM     75  F   UNL A   1      42.375  23.672  28.346  1.00  0.00    -0.206 F 
ATOM     76  C   UNL A   1      43.813  23.312  26.581  1.00  0.00     0.059 A 
ATOM     77  C   UNL A   1      44.531  25.123  25.178  1.00  0.00     0.059 A 
ATOM     78  F   UNL A   1      43.766  27.305  25.569  1.00  0.00    -0.206 F 
ATOM     79  C   UNL A   1      44.569  23.772  25.517  1.00  0.00     0.060 A 
BRANCH  79  80
ATOM     80  S   UNL A   1      45.599  22.575  24.632  1.00  0.00     0.124 S 
ATOM     81  O   UNL A   1      44.614  21.845  23.839  1.00  0.00    -0.237 OA
ATOM     82  O   UNL A   1      46.500  23.439  23.876  1.00  0.00    -0.237 OA
ATOM     83  O   UNL A   1      46.226  21.804  25.702  1.00  0.00    -0.744 OA
ENDBRANCH  79  80
ENDBRANCH  58  72
BRANCH  59  84
ATOM     84  C   UNL A   1      38.774  32.301  32.980  1.00  0.00     0.058 A 
ATOM     85  C   UNL A   1      38.541  33.703  33.056  1.00  0.00     0.135 A 
ATOM     86  C   UNL A   1      37.646  31.515  32.693  1.00  0.00     0.135 A 
ATOM     87  F   UNL A   1      39.568  34.533  33.311  1.00  0.00    -0.206 F 
ATOM     88  C   UNL A   1      37.321  34.294  32.727  1.00  0.00     0.059 A 
ATOM     89  C   UNL A   1      36.388  32.092  32.405  1.00  0.00     0.059 A 
ATOM     90  F   UNL A   1      37.760  30.184  32.580  1.00  0.00    -0.206 F 
ATOM     91  C   UNL A   1      36.250  33.484  32.374  1.00  0.00     0.060 A 
BRANCH  91  92
ATOM     92  S   UNL A   1      34.749  34.297  31.750  1.00  0.00     0.124 S 
ATOM     93  O   UNL A   1      33.703  33.387  32.201  1.00  0.00    -0.237 OA
ATOM     94  O   UNL A   1      34.795  35.587  32.436  1.00  0.00    -0.237 OA
ATOM     95  O   UNL A   1      34.957  34.346  30.307  1.00  0.00    -0.744 OA
ENDBRANCH  91  92
ENDBRANCH  59  84
BRANCH  71  96
ATOM     96  C   UNL A   1      43.737  26.826  33.411  1.00  0.00     0.058 A 
ATOM     97  C   UNL A   1      45.113  26.544  33.416  1.00  0.00     0.135 A 
ATOM     98  C   UNL A   1      42.970  26.083  34.350  1.00  0.00     0.135 A 
ATOM     99  F   UNL A   1      45.990  27.273  32.714  1.00  0.00    -0.206 F 
ATOM    100  C   UNL A   1      45.667  25.525  34.185  1.00  0.00     0.059 A 
ATOM    101  C   UNL A   1      43.520  25.126  35.197  1.00  0.00     0.059 A 
ATOM    102  F   UNL A   1      41.652  26.275  34.506  1.00  0.00    -0.206 F 
ATOM    103  C   UNL A   1      44.862  24.817  35.068  1.00  0.00     0.060 A 
BRANCH 103 104
ATOM    104  S   UNL A   1      45.595  23.506  36.052  1.00  0.00     0.124 S 
ATOM    105  O   UNL A   1      47.013  23.691  35.760  1.00  0.00    -0.237 OA
ATOM    106  O   UNL A   1      45.178  23.855  37.407  1.00  0.00    -0.237 OA
ATOM    107  O   UNL A   1      44.988  22.296  35.510  1.00  0.00    -0.744 OA
ENDBRANCH 103 104
ENDBRANCH  71  96
ENDBRANCH  45  46
ENDBRANCH  38  40
ENDBRANCH  37  38
ENDBRANCH  36  37
ENDBRANCH   1  36
TORSDOF 20
ENDMDL
MODEL 3
REMARK VINA RESULT:     -13.3      2.003      3.902
REMARK SMILES Cc1cccc(S(=O)(=O)Nc2cc(C(=O)OCCOC(=O)c3ccc(-c4c5nc(c(-c6c(F)cc(S(=O)(=O)[O-])cc6F)c6ccc([nH]6)c(-c6c(F)cc(S(=O)(=O)[O-])cc6F)c6nc(c(-c7c(F)cc(S(=O)(=O)[O-])cc7F)c7ccc4[nH]7)C=C6)C=C5)cc3)ccc2N2CCC[C@H](C[NH+]3CCCC3)C2)c1
REMARK SMILES IDX 17 1 16 2 14 3 15 4 13 5 11 6 12 7 90 8 89 9 88 10 10 11
REMARK SMILES IDX 7 13 8 14 9 15 6 16 1 17 2 18 3 19 103 20 4 21 5 22 91 23
REMARK SMILES IDX 92 24 102 25 93 26 95 27 94 28 96 29 97 30 98 31 101 32
REMARK SMILES IDX 99 34 100 35 18 36 19 37 20 38 21 39 22 40 23 41 87 42 24 43
REMARK SMILES IDX 86 44 25 45 26 46 27 47 80 48 28 49 85 50 79 51 81 52 29 53
REMARK SMILES IDX 84 54 78 55 77 56 30 58 64 59 43 60 63 61 44 62 47 63 62 64
REMARK SMILES IDX 82 65 45 66 46 67 61 69 83 70 48 71 31 72 32 73 41 74 33 75
REMARK SMILES IDX 34 76 40 77 42 78 35 79 36 80 37 81 38 82 39 83 65 84 66 85
REMARK SMILES IDX 75 86 67 87 68 88 74 89 76 90 69 91 70 92 71 93 72 94 73 95
REMARK SMILES IDX 49 96 50 97 59 98 51 99 52 100 58 101 60 102 53 103 54 104
REMARK SMILES IDX 55 105 56 106 57 107
REMARK H PARENT 10 12 97 33 81 57 47 68
REMARK Flexibility Score: inf
ROOT
ATOM      1  C   UNL A   1      33.263  28.804  25.647  1.00  0.00     0.275 C 
ENDROOT
BRANCH   1   2
ATOM      2  O   UNL A   1      32.687  28.869  24.333  1.00  0.00    -0.458 OA
BRANCH   2   3
ATOM      3  C   UNL A   1      31.369  28.612  24.363  1.00  0.00     0.338 C 
ATOM      4  O   UNL A   1      30.481  29.420  24.125  1.00  0.00    -0.246 OA
BRANCH   3   5
ATOM      5  C   UNL A   1      30.970  27.310  24.890  1.00  0.00     0.062 A 
ATOM      6  C   UNL A   1      31.402  25.086  24.044  1.00  0.00     0.073 A 
ATOM      7  C   UNL A   1      30.938  26.381  23.861  1.00  0.00     0.044 A 
ATOM      8  C   UNL A   1      31.645  24.610  25.373  1.00  0.00     0.061 A 
ATOM      9  C   UNL A   1      31.563  25.576  26.416  1.00  0.00     0.029 A 
ATOM     10  C   UNL A   1      31.253  26.916  26.186  1.00  0.00     0.018 A 
BRANCH   6  11
ATOM     11  N   UNL A   1      31.892  24.417  22.868  1.00  0.00    -0.277 N 
ATOM     12  H   UNL A   1      31.246  23.875  22.360  1.00  0.00     0.180 HD
BRANCH  11  13
ATOM     13  S   UNL A   1      33.472  24.478  22.282  1.00  0.00     0.261 S 
ATOM     14  O   UNL A   1      33.769  25.854  21.932  1.00  0.00    -0.201 OA
ATOM     15  O   UNL A   1      33.456  23.469  21.237  1.00  0.00    -0.201 OA
BRANCH  13  16
ATOM     16  C   UNL A   1      34.763  23.950  23.420  1.00  0.00     0.088 A 
ATOM     17  C   UNL A   1      37.385  21.324  24.459  1.00  0.00     0.044 C 
ATOM     18  C   UNL A   1      36.494  22.529  24.409  1.00  0.00    -0.050 A 
ATOM     19  C   UNL A   1      36.655  23.427  25.462  1.00  0.00     0.003 A 
ATOM     20  C   UNL A   1      35.551  22.797  23.370  1.00  0.00     0.025 A 
ATOM     21  C   UNL A   1      35.875  24.565  25.518  1.00  0.00     0.002 A 
ATOM     22  C   UNL A   1      34.938  24.818  24.514  1.00  0.00     0.022 A 
ENDBRANCH  13  16
ENDBRANCH  11  13
ENDBRANCH   6  11
BRANCH   8  23
ATOM     23  N   UNL A   1      31.974  23.303  25.773  1.00  0.00    -0.369 N 
ATOM     24  C   UNL A   1      32.906  23.201  26.917  1.00  0.00     0.116 C 
ATOM     25  C   UNL A   1      31.139  22.129  25.528  1.00  0.00     0.126 C 
ATOM     26  C   UNL A   1      33.782  21.960  26.785  1.00  0.00     0.022 C 
ATOM     27  C   UNL A   1      31.968  20.822  25.445  1.00  0.00     0.064 C 
ATOM     28  C   UNL A   1      32.903  20.724  26.659  1.00  0.00     0.013 C 
BRANCH  27  29
ATOM     29  C   UNL A   1      32.667  20.724  24.062  1.00  0.00     0.267 C 
BRANCH  29  30
ATOM     30  N   UNL A   1      33.307  19.468  23.652  1.00  0.00    -0.335 N 
ATOM     31  C   UNL A   1      32.413  18.426  23.160  1.00  0.00     0.262 C 
ATOM     32  C   UNL A   1      34.237  18.856  24.593  1.00  0.00     0.262 C 
ATOM     33  H   UNL A   1      33.853  19.840  22.874  1.00  0.00     0.348 HD
ATOM     34  C   UNL A   1      32.275  17.458  24.318  1.00  0.00     0.067 C 
ATOM     35  C   UNL A   1      33.629  17.517  25.004  1.00  0.00     0.067 C 
ENDBRANCH  29  30
ENDBRANCH  27  29
ENDBRANCH   8  23
ENDBRANCH   3   5
ENDBRANCH   2   3
ENDBRANCH   1   2
BRANCH   1  36
ATOM     36  C   UNL A   1      33.216  30.167  26.339  1.00  0.00     0.275 C 
BRANCH  36  37
ATOM     37  O   UNL A   1      33.598  30.247  27.736  1.00  0.00    -0.458 OA
BRANCH  37  38
ATOM     38  C   UNL A   1      34.648  31.040  28.113  1.00  0.00     0.338 C 
ATOM     39  O   UNL A   1      34.523  32.155  28.571  1.00  0.00    -0.246 OA
BRANCH  38  40
ATOM     40  C   UNL A   1      35.895  30.206  28.158  1.00  0.00     0.060 A 
ATOM     41  C   UNL A   1      36.832  30.181  27.102  1.00  0.00     0.016 A 
ATOM     42  C   UNL A   1      36.255  29.699  29.394  1.00  0.00     0.016 A 
ATOM     43  C   UNL A   1      38.156  29.736  27.303  1.00  0.00     0.010 A 
ATOM     44  C   UNL A   1      37.574  29.421  29.626  1.00  0.00     0.010 A 
ATOM     45  C   UNL A   1      38.539  29.370  28.586  1.00  0.00    -0.014 A 
BRANCH  45  46
ATOM     46  C   UNL A   1      39.768  28.666  29.010  1.00  0.00     0.031 A 
ATOM     47  C   UNL A   1      40.074  27.216  28.819  1.00  0.00     0.074 A 
ATOM     48  C   UNL A   1      40.757  29.591  29.130  1.00  0.00     0.049 A 
ATOM     49  N   UNL A   1      41.259  26.840  28.476  1.00  0.00    -0.248 NA
ATOM     50  C   UNL A   1      39.157  26.070  28.867  1.00  0.00     0.031 C 
ATOM     51  C   UNL A   1      42.200  29.521  29.008  1.00  0.00     0.029 A 
ATOM     52  N   UNL A   1      40.552  30.923  29.531  1.00  0.00    -0.354 N 
ATOM     53  C   UNL A   1      41.275  25.491  28.183  1.00  0.00     0.074 A 
ATOM     54  C   UNL A   1      39.913  25.061  28.367  1.00  0.00     0.031 C 
ATOM     55  C   UNL A   1      42.733  30.541  29.711  1.00  0.00     0.029 A 
ATOM     56  C   UNL A   1      41.624  31.222  30.369  1.00  0.00     0.049 A 
ATOM     57  H   UNL A   1      39.811  31.518  29.273  1.00  0.00     0.167 HD
ATOM     58  C   UNL A   1      42.492  24.966  27.847  1.00  0.00     0.037 A 
ATOM     59  C   UNL A   1      41.317  31.188  31.702  1.00  0.00     0.037 A 
ATOM     60  C   UNL A   1      43.478  25.741  28.593  1.00  0.00     0.049 A 
ATOM     61  C   UNL A   1      41.985  29.978  32.330  1.00  0.00     0.074 A 
ATOM     62  C   UNL A   1      44.384  26.742  28.313  1.00  0.00     0.029 A 
ATOM     63  N   UNL A   1      43.335  25.699  29.971  1.00  0.00    -0.354 N 
ATOM     64  N   UNL A   1      42.227  28.846  31.713  1.00  0.00    -0.248 NA
ATOM     65  C   UNL A   1      42.641  30.055  33.628  1.00  0.00     0.031 C 
ATOM     66  C   UNL A   1      44.650  27.410  29.553  1.00  0.00     0.029 A 
ATOM     67  C   UNL A   1      43.907  26.801  30.558  1.00  0.00     0.049 A 
ATOM     68  H   UNL A   1      42.883  24.976  30.462  1.00  0.00     0.167 HD
ATOM     69  C   UNL A   1      43.144  28.123  32.432  1.00  0.00     0.074 A 
ATOM     70  C   UNL A   1      43.343  28.909  33.637  1.00  0.00     0.031 C 
ATOM     71  C   UNL A   1      43.763  26.980  31.995  1.00  0.00     0.037 A 
BRANCH  58  72
ATOM     72  C   UNL A   1      42.904  23.825  26.939  1.00  0.00     0.058 A 
ATOM     73  C   UNL A   1      42.658  22.486  27.349  1.00  0.00     0.135 A 
ATOM     74  C   UNL A   1      43.707  23.941  25.791  1.00  0.00     0.135 A 
ATOM     75  F   UNL A   1      41.883  22.209  28.407  1.00  0.00    -0.206 F 
ATOM     76  C   UNL A   1      43.218  21.368  26.727  1.00  0.00     0.059 A 
ATOM     77  C   UNL A   1      44.283  22.825  25.143  1.00  0.00     0.059 A 
ATOM     78  F   UNL A   1      43.972  25.146  25.268  1.00  0.00    -0.206 F 
ATOM     79  C   UNL A   1      44.049  21.542  25.634  1.00  0.00     0.060 A 
BRANCH  79  80
ATOM     80  S   UNL A   1      44.817  20.070  24.914  1.00  0.00     0.124 S 
ATOM     81  O   UNL A   1      46.198  20.184  25.374  1.00  0.00    -0.237 OA
ATOM     82  O   UNL A   1      44.042  18.989  25.517  1.00  0.00    -0.237 OA
ATOM     83  O   UNL A   1      44.627  20.249  23.478  1.00  0.00    -0.744 OA
ENDBRANCH  79  80
ENDBRANCH  58  72
BRANCH  59  84
ATOM     84  C   UNL A   1      39.953  31.811  31.951  1.00  0.00     0.058 A 
ATOM     85  C   UNL A   1      38.989  30.968  32.573  1.00  0.00     0.135 A 
ATOM     86  C   UNL A   1      39.692  33.189  32.029  1.00  0.00     0.135 A 
ATOM     87  F   UNL A   1      39.167  29.635  32.560  1.00  0.00    -0.206 F 
ATOM     88  C   UNL A   1      37.930  31.455  33.339  1.00  0.00     0.059 A 
ATOM     89  C   UNL A   1      38.596  33.700  32.760  1.00  0.00     0.059 A 
ATOM     90  F   UNL A   1      40.548  34.070  31.493  1.00  0.00    -0.206 F 
ATOM     91  C   UNL A   1      37.752  32.827  33.454  1.00  0.00     0.060 A 
BRANCH  91  92
ATOM     92  S   UNL A   1      36.496  33.417  34.626  1.00  0.00     0.124 S 
ATOM     93  O   UNL A   1      35.268  32.883  34.049  1.00  0.00    -0.237 OA
ATOM     94  O   UNL A   1      36.925  32.790  35.875  1.00  0.00    -0.237 OA
ATOM     95  O   UNL A   1      36.631  34.869  34.576  1.00  0.00    -0.744 OA
ENDBRANCH  91  92
ENDBRANCH  59  84
BRANCH  71  96
ATOM     96  C   UNL A   1      44.318  25.911  32.920  1.00  0.00     0.058 A 
ATOM     97  C   UNL A   1      43.587  25.359  33.985  1.00  0.00     0.135 A 
ATOM     98  C   UNL A   1      45.554  25.265  32.646  1.00  0.00     0.135 A 
ATOM     99  F   UNL A   1      42.334  25.744  34.260  1.00  0.00    -0.206 F 
ATOM    100  C   UNL A   1      44.090  24.346  34.795  1.00  0.00     0.059 A 
ATOM    101  C   UNL A   1      46.032  24.188  33.384  1.00  0.00     0.059 A 
ATOM    102  F   UNL A   1      46.343  25.637  31.626  1.00  0.00    -0.206 F 
ATOM    103  C   UNL A   1      45.316  23.770  34.491  1.00  0.00     0.060 A 
BRANCH 103 104
ATOM    104  S   UNL A   1      45.949  22.463  35.547  1.00  0.00     0.124 S 
ATOM    105  O   UNL A   1      45.405  21.279  34.889  1.00  0.00    -0.237 OA
ATOM    106  O   UNL A   1      47.394  22.638  35.437  1.00  0.00    -0.237 OA
ATOM    107  O   UNL A   1      45.384  22.779  36.854  1.00  0.00    -0.744 OA
ENDBRANCH 103 104
ENDBRANCH  71  96
ENDBRANCH  45  46
ENDBRANCH  38  40
ENDBRANCH  37  38
ENDBRANCH  36  37
ENDBRANCH   1  36
TORSDOF 20
ENDMDL
