MODEL 1
REMARK VINA RESULT:     -11.7      0.000      0.000
REMARK SMILES Cc1c[nH]c(C[N@H+]2C[C@@H]3CN(S(C)(=O)=O)C[C@]3(C(=O)OCCOC(=O)c3ccc(-c4c5nc(c(-c6c(F)cc(S(=O)(=O)[O-])cc6F)c6ccc([nH]6)c(-c6c(F)cc(S(=O)(=O)[O-])cc6F)c6nc(c(-c7c(F)cc(S(=O)(=O)[O-])cc7F)c7ccc4[nH]7)C=C6)C=C5)cc3)C2)n1
REMARK SMILES IDX 22 1 21 2 20 3 18 4 19 5 17 6 7 7 8 8 92 9 9 11 10 12 16 13
REMARK SMILES IDX 11 14 6 15 5 16 1 17 2 18 3 19 93 20 4 21 12 23 13 24 14 25
REMARK SMILES IDX 15 26 23 27 24 28 25 29 26 30 27 31 91 32 28 33 90 34 29 35
REMARK SMILES IDX 30 36 31 37 84 38 32 39 89 40 83 41 85 42 33 43 88 44 82 45
REMARK SMILES IDX 81 46 34 48 68 49 47 50 67 51 48 52 51 53 66 54 86 55 49 56
REMARK SMILES IDX 50 57 65 59 87 60 52 61 35 62 36 63 45 64 37 65 38 66 44 67
REMARK SMILES IDX 46 68 39 69 40 70 41 71 42 72 43 73 69 74 70 75 79 76 71 77
REMARK SMILES IDX 72 78 78 79 80 80 73 81 74 82 75 83 76 84 77 85 53 86 54 87
REMARK SMILES IDX 63 88 55 89 56 90 62 91 64 92 57 93 58 94 59 95 60 96 61 97
REMARK H PARENT 7 10 4 22 85 47 51 58
REMARK Flexibility Score: inf
ROOT
ATOM      1  C   UNL A   1      32.157  28.950  27.221  1.00  0.00     0.275 C 
ENDROOT
BRANCH   1   2
ATOM      2  C   UNL A   1      31.618  27.611  26.664  1.00  0.00     0.274 C 
BRANCH   2   3
ATOM      3  O   UNL A   1      32.648  26.668  26.253  1.00  0.00    -0.461 OA
BRANCH   3   4
ATOM      4  C   UNL A   1      32.248  25.358  26.193  1.00  0.00     0.319 C 
ATOM      5  O   UNL A   1      31.581  24.902  27.112  1.00  0.00    -0.251 OA
BRANCH   4   6
ATOM      6  C   UNL A   1      32.840  24.558  24.912  1.00  0.00     0.140 C 
ATOM      7  N   UNL A   1      34.584  22.708  25.359  1.00  0.00    -0.327 N 
ATOM      8  C   UNL A   1      34.103  22.481  24.027  1.00  0.00     0.268 C 
ATOM      9  C   UNL A   1      33.602  23.611  25.973  1.00  0.00     0.283 C 
ATOM     10  H   UNL A   1      35.521  23.110  25.323  1.00  0.00     0.348 HD
ATOM     11  C   UNL A   1      32.756  23.180  24.038  1.00  0.00     0.084 C 
ATOM     12  C   UNL A   1      32.375  23.464  22.589  1.00  0.00     0.113 C 
ATOM     13  C   UNL A   1      31.460  24.897  24.165  1.00  0.00     0.127 C 
ATOM     14  N   UNL A   1      31.725  24.752  22.706  1.00  0.00    -0.200 NA
BRANCH   7  15
ATOM     15  C   UNL A   1      34.787  21.483  26.168  1.00  0.00     0.338 C 
BRANCH  15  16
ATOM     16  C   UNL A   1      34.162  20.203  25.666  1.00  0.00     0.161 A 
ATOM     17  C   UNL A   1      33.670  17.393  23.514  1.00  0.00     0.068 C 
ATOM     18  C   UNL A   1      33.629  18.406  24.592  1.00  0.00     0.056 A 
ATOM     19  C   UNL A   1      32.751  18.489  25.646  1.00  0.00     0.107 A 
ATOM     20  N   UNL A   1      34.509  19.467  24.624  1.00  0.00    -0.233 NA
ATOM     21  N   UNL A   1      33.084  19.637  26.306  1.00  0.00    -0.344 N 
ATOM     22  H   UNL A   1      32.632  19.997  27.102  1.00  0.00     0.167 HD
ENDBRANCH  15  16
ENDBRANCH   7  15
BRANCH  14  23
ATOM     23  S   UNL A   1      32.397  26.049  21.847  1.00  0.00     0.211 S 
ATOM     24  C   UNL A   1      32.000  27.480  22.844  1.00  0.00     0.176 C 
ATOM     25  O   UNL A   1      33.832  25.898  21.867  1.00  0.00    -0.213 OA
ATOM     26  O   UNL A   1      31.679  26.186  20.593  1.00  0.00    -0.213 OA
ENDBRANCH  14  23
ENDBRANCH   4   6
ENDBRANCH   3   4
ENDBRANCH   2   3
ENDBRANCH   1   2
BRANCH   1  27
ATOM     27  O   UNL A   1      33.598  28.956  27.369  1.00  0.00    -0.458 OA
BRANCH  27  28
ATOM     28  C   UNL A   1      34.173  30.121  27.769  1.00  0.00     0.338 C 
ATOM     29  O   UNL A   1      33.615  31.198  27.900  1.00  0.00    -0.246 OA
BRANCH  28  30
ATOM     30  C   UNL A   1      35.588  29.908  28.148  1.00  0.00     0.060 A 
ATOM     31  C   UNL A   1      36.557  30.050  27.160  1.00  0.00     0.016 A 
ATOM     32  C   UNL A   1      35.972  29.426  29.398  1.00  0.00     0.016 A 
ATOM     33  C   UNL A   1      37.894  29.764  27.402  1.00  0.00     0.010 A 
ATOM     34  C   UNL A   1      37.333  29.158  29.656  1.00  0.00     0.010 A 
ATOM     35  C   UNL A   1      38.313  29.330  28.659  1.00  0.00    -0.014 A 
BRANCH  35  36
ATOM     36  C   UNL A   1      39.758  29.019  28.874  1.00  0.00     0.031 A 
ATOM     37  C   UNL A   1      40.683  30.061  29.446  1.00  0.00     0.074 A 
ATOM     38  C   UNL A   1      40.231  27.776  28.639  1.00  0.00     0.049 A 
ATOM     39  N   UNL A   1      41.984  30.024  29.588  1.00  0.00    -0.248 NA
ATOM     40  C   UNL A   1      40.063  31.301  29.939  1.00  0.00     0.031 C 
ATOM     41  C   UNL A   1      39.429  26.633  28.195  1.00  0.00     0.029 A 
ATOM     42  N   UNL A   1      41.501  27.257  28.749  1.00  0.00    -0.354 N 
ATOM     43  C   UNL A   1      42.342  31.243  30.155  1.00  0.00     0.074 A 
ATOM     44  C   UNL A   1      41.119  31.996  30.338  1.00  0.00     0.031 C 
ATOM     45  C   UNL A   1      40.214  25.549  28.096  1.00  0.00     0.029 A 
ATOM     46  C   UNL A   1      41.594  25.939  28.360  1.00  0.00     0.049 A 
ATOM     47  H   UNL A   1      42.270  27.778  29.075  1.00  0.00     0.167 HD
ATOM     48  C   UNL A   1      43.577  31.693  30.482  1.00  0.00     0.037 A 
ATOM     49  C   UNL A   1      42.668  25.147  28.165  1.00  0.00     0.037 A 
ATOM     50  C   UNL A   1      44.787  30.932  30.299  1.00  0.00     0.049 A 
ATOM     51  C   UNL A   1      44.041  25.718  28.385  1.00  0.00     0.074 A 
ATOM     52  C   UNL A   1      46.091  31.311  30.568  1.00  0.00     0.029 A 
ATOM     53  N   UNL A   1      44.844  29.643  29.792  1.00  0.00    -0.354 N 
ATOM     54  N   UNL A   1      44.375  26.896  28.855  1.00  0.00    -0.248 NA
ATOM     55  C   UNL A   1      45.184  24.872  28.015  1.00  0.00     0.031 C 
ATOM     56  C   UNL A   1      46.939  30.273  30.169  1.00  0.00     0.029 A 
ATOM     57  C   UNL A   1      46.162  29.225  29.702  1.00  0.00     0.049 A 
ATOM     58  H   UNL A   1      44.062  29.102  29.534  1.00  0.00     0.167 HD
ATOM     59  C   UNL A   1      45.763  26.935  28.835  1.00  0.00     0.074 A 
ATOM     60  C   UNL A   1      46.209  25.651  28.333  1.00  0.00     0.031 C 
ATOM     61  C   UNL A   1      46.592  27.946  29.193  1.00  0.00     0.037 A 
BRANCH  48  62
ATOM     62  C   UNL A   1      43.691  33.098  31.004  1.00  0.00     0.058 A 
ATOM     63  C   UNL A   1      43.720  34.214  30.154  1.00  0.00     0.135 A 
ATOM     64  C   UNL A   1      43.750  33.331  32.389  1.00  0.00     0.135 A 
ATOM     65  F   UNL A   1      43.684  34.049  28.823  1.00  0.00    -0.206 F 
ATOM     66  C   UNL A   1      43.830  35.508  30.656  1.00  0.00     0.059 A 
ATOM     67  C   UNL A   1      43.836  34.616  32.915  1.00  0.00     0.059 A 
ATOM     68  F   UNL A   1      43.727  32.299  33.248  1.00  0.00    -0.206 F 
ATOM     69  C   UNL A   1      43.891  35.698  32.038  1.00  0.00     0.060 A 
BRANCH  69  70
ATOM     70  S   UNL A   1      44.047  37.381  32.675  1.00  0.00     0.124 S 
ATOM     71  O   UNL A   1      43.835  38.170  31.466  1.00  0.00    -0.237 OA
ATOM     72  O   UNL A   1      42.977  37.440  33.666  1.00  0.00    -0.237 OA
ATOM     73  O   UNL A   1      45.402  37.417  33.216  1.00  0.00    -0.744 OA
ENDBRANCH  69  70
ENDBRANCH  48  62
BRANCH  49  74
ATOM     74  C   UNL A   1      42.488  23.762  27.645  1.00  0.00     0.058 A 
ATOM     75  C   UNL A   1      42.388  23.504  26.270  1.00  0.00     0.135 A 
ATOM     76  C   UNL A   1      42.427  22.663  28.519  1.00  0.00     0.135 A 
ATOM     77  F   UNL A   1      42.419  24.519  25.393  1.00  0.00    -0.206 F 
ATOM     78  C   UNL A   1      42.246  22.209  25.781  1.00  0.00     0.059 A 
ATOM     79  C   UNL A   1      42.319  21.357  28.052  1.00  0.00     0.059 A 
ATOM     80  F   UNL A   1      42.513  22.852  29.845  1.00  0.00    -0.206 F 
ATOM     81  C   UNL A   1      42.223  21.140  26.681  1.00  0.00     0.060 A 
BRANCH  81  82
ATOM     82  S   UNL A   1      42.118  19.458  26.031  1.00  0.00     0.124 S 
ATOM     83  O   UNL A   1      40.699  19.353  25.716  1.00  0.00    -0.237 OA
ATOM     84  O   UNL A   1      43.025  19.514  24.889  1.00  0.00    -0.237 OA
ATOM     85  O   UNL A   1      42.581  18.638  27.148  1.00  0.00    -0.744 OA
ENDBRANCH  81  82
ENDBRANCH  49  74
BRANCH  61  86
ATOM     86  C   UNL A   1      48.070  27.709  29.062  1.00  0.00     0.058 A 
ATOM     87  C   UNL A   1      48.804  27.089  30.085  1.00  0.00     0.135 A 
ATOM     88  C   UNL A   1      48.745  28.043  27.877  1.00  0.00     0.135 A 
ATOM     89  F   UNL A   1      48.209  26.763  31.243  1.00  0.00    -0.206 F 
ATOM     90  C   UNL A   1      50.160  26.813  29.938  1.00  0.00     0.059 A 
ATOM     91  C   UNL A   1      50.094  27.752  27.700  1.00  0.00     0.059 A 
ATOM     92  F   UNL A   1      48.086  28.634  26.867  1.00  0.00    -0.206 F 
ATOM     93  C   UNL A   1      50.794  27.141  28.739  1.00  0.00     0.060 A 
BRANCH  93  94
ATOM     94  S   UNL A   1      52.538  26.722  28.541  1.00  0.00     0.124 S 
ATOM     95  O   UNL A   1      53.115  28.016  28.193  1.00  0.00    -0.237 OA
ATOM     96  O   UNL A   1      52.887  26.207  29.861  1.00  0.00    -0.237 OA
ATOM     97  O   UNL A   1      52.531  25.729  27.470  1.00  0.00    -0.744 OA
ENDBRANCH  93  94
ENDBRANCH  61  86
ENDBRANCH  35  36
ENDBRANCH  28  30
ENDBRANCH  27  28
ENDBRANCH   1  27
TORSDOF 17
ENDMDL
MODEL 2
REMARK VINA RESULT:     -11.5      5.116     10.382
REMARK SMILES Cc1c[nH]c(C[N@H+]2C[C@@H]3CN(S(C)(=O)=O)C[C@]3(C(=O)OCCOC(=O)c3ccc(-c4c5nc(c(-c6c(F)cc(S(=O)(=O)[O-])cc6F)c6ccc([nH]6)c(-c6c(F)cc(S(=O)(=O)[O-])cc6F)c6nc(c(-c7c(F)cc(S(=O)(=O)[O-])cc7F)c7ccc4[nH]7)C=C6)C=C5)cc3)C2)n1
REMARK SMILES IDX 22 1 21 2 20 3 18 4 19 5 17 6 7 7 8 8 92 9 9 11 10 12 16 13
REMARK SMILES IDX 11 14 6 15 5 16 1 17 2 18 3 19 93 20 4 21 12 23 13 24 14 25
REMARK SMILES IDX 15 26 23 27 24 28 25 29 26 30 27 31 91 32 28 33 90 34 29 35
REMARK SMILES IDX 30 36 31 37 84 38 32 39 89 40 83 41 85 42 33 43 88 44 82 45
REMARK SMILES IDX 81 46 34 48 68 49 47 50 67 51 48 52 51 53 66 54 86 55 49 56
REMARK SMILES IDX 50 57 65 59 87 60 52 61 35 62 36 63 45 64 37 65 38 66 44 67
REMARK SMILES IDX 46 68 39 69 40 70 41 71 42 72 43 73 69 74 70 75 79 76 71 77
REMARK SMILES IDX 72 78 78 79 80 80 73 81 74 82 75 83 76 84 77 85 53 86 54 87
REMARK SMILES IDX 63 88 55 89 56 90 62 91 64 92 57 93 58 94 59 95 60 96 61 97
REMARK H PARENT 7 10 4 22 85 47 51 58
REMARK Flexibility Score: inf
ROOT
ATOM      1  C   UNL A   1      38.865  22.612  26.243  1.00  0.00     0.275 C 
ENDROOT
BRANCH   1   2
ATOM      2  C   UNL A   1      37.763  22.159  25.256  1.00  0.00     0.274 C 
BRANCH   2   3
ATOM      3  O   UNL A   1      36.739  23.159  24.992  1.00  0.00    -0.461 OA
BRANCH   3   4
ATOM      4  C   UNL A   1      36.130  23.060  23.767  1.00  0.00     0.319 C 
ATOM      5  O   UNL A   1      36.829  22.953  22.769  1.00  0.00    -0.251 OA
BRANCH   4   6
ATOM      6  C   UNL A   1      34.517  23.218  23.831  1.00  0.00     0.140 C 
ATOM      7  N   UNL A   1      33.141  21.160  24.558  1.00  0.00    -0.327 N 
ATOM      8  C   UNL A   1      32.263  22.286  24.691  1.00  0.00     0.268 C 
ATOM      9  C   UNL A   1      34.489  21.733  24.460  1.00  0.00     0.283 C 
ATOM     10  H   UNL A   1      32.882  20.617  23.735  1.00  0.00     0.348 HD
ATOM     11  C   UNL A   1      33.231  23.449  24.812  1.00  0.00     0.084 C 
ATOM     12  C   UNL A   1      32.472  24.718  24.445  1.00  0.00     0.113 C 
ATOM     13  C   UNL A   1      34.763  24.783  24.093  1.00  0.00     0.127 C 
ATOM     14  N   UNL A   1      33.489  25.473  23.744  1.00  0.00    -0.200 NA
BRANCH   7  15
ATOM     15  C   UNL A   1      33.045  20.160  25.649  1.00  0.00     0.338 C 
BRANCH  15  16
ATOM     16  C   UNL A   1      33.114  18.700  25.266  1.00  0.00     0.161 A 
ATOM     17  C   UNL A   1      32.423  15.200  25.465  1.00  0.00     0.068 C 
ATOM     18  C   UNL A   1      32.883  16.559  25.101  1.00  0.00     0.056 A 
ATOM     19  C   UNL A   1      33.756  16.922  24.102  1.00  0.00     0.107 A 
ATOM     20  N   UNL A   1      32.481  17.674  25.806  1.00  0.00    -0.233 NA
ATOM     21  N   UNL A   1      33.909  18.272  24.229  1.00  0.00    -0.344 N 
ATOM     22  H   UNL A   1      34.488  18.842  23.672  1.00  0.00     0.167 HD
ENDBRANCH  15  16
ENDBRANCH   7  15
BRANCH  14  23
ATOM     23  S   UNL A   1      33.181  25.891  22.131  1.00  0.00     0.211 S 
ATOM     24  C   UNL A   1      31.462  26.385  22.132  1.00  0.00     0.176 C 
ATOM     25  O   UNL A   1      33.964  27.063  21.819  1.00  0.00    -0.213 OA
ATOM     26  O   UNL A   1      33.283  24.690  21.322  1.00  0.00    -0.213 OA
ENDBRANCH  14  23
ENDBRANCH   4   6
ENDBRANCH   3   4
ENDBRANCH   2   3
ENDBRANCH   1   2
BRANCH   1  27
ATOM     27  O   UNL A   1      39.153  24.029  26.150  1.00  0.00    -0.458 OA
BRANCH  27  28
ATOM     28  C   UNL A   1      40.356  24.447  26.624  1.00  0.00     0.338 C 
ATOM     29  O   UNL A   1      41.454  24.084  26.236  1.00  0.00    -0.246 OA
BRANCH  28  30
ATOM     30  C   UNL A   1      40.183  25.517  27.632  1.00  0.00     0.060 A 
ATOM     31  C   UNL A   1      41.106  26.557  27.644  1.00  0.00     0.016 A 
ATOM     32  C   UNL A   1      39.239  25.446  28.655  1.00  0.00     0.016 A 
ATOM     33  C   UNL A   1      41.082  27.543  28.623  1.00  0.00     0.010 A 
ATOM     34  C   UNL A   1      39.196  26.459  29.637  1.00  0.00     0.010 A 
ATOM     35  C   UNL A   1      40.116  27.525  29.628  1.00  0.00    -0.014 A 
BRANCH  35  36
ATOM     36  C   UNL A   1      40.134  28.595  30.669  1.00  0.00     0.031 A 
ATOM     37  C   UNL A   1      41.134  28.544  31.795  1.00  0.00     0.074 A 
ATOM     38  C   UNL A   1      39.315  29.664  30.565  1.00  0.00     0.049 A 
ATOM     39  N   UNL A   1      41.226  29.305  32.856  1.00  0.00    -0.248 NA
ATOM     40  C   UNL A   1      42.179  27.511  31.708  1.00  0.00     0.031 C 
ATOM     41  C   UNL A   1      38.377  29.909  29.467  1.00  0.00     0.029 A 
ATOM     42  N   UNL A   1      39.143  30.754  31.388  1.00  0.00    -0.354 N 
ATOM     43  C   UNL A   1      42.313  28.826  33.578  1.00  0.00     0.074 A 
ATOM     44  C   UNL A   1      42.856  27.711  32.831  1.00  0.00     0.031 C 
ATOM     45  C   UNL A   1      37.750  31.078  29.669  1.00  0.00     0.029 A 
ATOM     46  C   UNL A   1      38.156  31.616  30.962  1.00  0.00     0.049 A 
ATOM     47  H   UNL A   1      39.674  30.904  32.203  1.00  0.00     0.167 HD
ATOM     48  C   UNL A   1      42.806  29.270  34.760  1.00  0.00     0.037 A 
ATOM     49  C   UNL A   1      37.587  32.678  31.568  1.00  0.00     0.037 A 
ATOM     50  C   UNL A   1      42.260  30.384  35.493  1.00  0.00     0.049 A 
ATOM     51  C   UNL A   1      38.044  33.058  32.948  1.00  0.00     0.074 A 
ATOM     52  C   UNL A   1      42.666  30.892  36.715  1.00  0.00     0.029 A 
ATOM     53  N   UNL A   1      41.185  31.156  35.078  1.00  0.00    -0.354 N 
ATOM     54  N   UNL A   1      39.027  32.555  33.655  1.00  0.00    -0.248 NA
ATOM     55  C   UNL A   1      37.294  34.121  33.631  1.00  0.00     0.031 C 
ATOM     56  C   UNL A   1      41.800  31.933  37.065  1.00  0.00     0.029 A 
ATOM     57  C   UNL A   1      40.887  32.110  36.037  1.00  0.00     0.049 A 
ATOM     58  H   UNL A   1      40.703  31.043  34.226  1.00  0.00     0.167 HD
ATOM     59  C   UNL A   1      39.014  33.237  34.865  1.00  0.00     0.074 A 
ATOM     60  C   UNL A   1      37.941  34.208  34.785  1.00  0.00     0.031 C 
ATOM     61  C   UNL A   1      39.812  33.068  35.947  1.00  0.00     0.037 A 
BRANCH  48  62
ATOM     62  C   UNL A   1      43.949  28.507  35.370  1.00  0.00     0.058 A 
ATOM     63  C   UNL A   1      45.289  28.851  35.135  1.00  0.00     0.135 A 
ATOM     64  C   UNL A   1      43.693  27.422  36.225  1.00  0.00     0.135 A 
ATOM     65  F   UNL A   1      45.592  29.866  34.313  1.00  0.00    -0.206 F 
ATOM     66  C   UNL A   1      46.335  28.129  35.706  1.00  0.00     0.059 A 
ATOM     67  C   UNL A   1      44.720  26.702  36.826  1.00  0.00     0.059 A 
ATOM     68  F   UNL A   1      42.429  27.050  36.483  1.00  0.00    -0.206 F 
ATOM     69  C   UNL A   1      46.039  27.054  36.548  1.00  0.00     0.060 A 
BRANCH  69  70
ATOM     70  S   UNL A   1      47.406  26.119  37.270  1.00  0.00     0.124 S 
ATOM     71  O   UNL A   1      47.737  26.939  38.430  1.00  0.00    -0.237 OA
ATOM     72  O   UNL A   1      46.783  24.832  37.561  1.00  0.00    -0.237 OA
ATOM     73  O   UNL A   1      48.406  26.102  36.208  1.00  0.00    -0.744 OA
ENDBRANCH  69  70
ENDBRANCH  48  62
BRANCH  49  74
ATOM     74  C   UNL A   1      36.456  33.392  30.909  1.00  0.00     0.058 A 
ATOM     75  C   UNL A   1      35.140  33.267  31.377  1.00  0.00     0.135 A 
ATOM     76  C   UNL A   1      36.676  34.231  29.804  1.00  0.00     0.135 A 
ATOM     77  F   UNL A   1      34.871  32.462  32.416  1.00  0.00    -0.206 F 
ATOM     78  C   UNL A   1      34.087  33.953  30.781  1.00  0.00     0.059 A 
ATOM     79  C   UNL A   1      35.645  34.953  29.212  1.00  0.00     0.059 A 
ATOM     80  F   UNL A   1      37.915  34.385  29.311  1.00  0.00    -0.206 F 
ATOM     81  C   UNL A   1      34.352  34.803  29.704  1.00  0.00     0.060 A 
BRANCH  81  82
ATOM     82  S   UNL A   1      32.991  35.751  28.987  1.00  0.00     0.124 S 
ATOM     83  O   UNL A   1      32.354  34.753  28.137  1.00  0.00    -0.237 OA
ATOM     84  O   UNL A   1      32.241  36.153  30.173  1.00  0.00    -0.237 OA
ATOM     85  O   UNL A   1      33.671  36.838  28.289  1.00  0.00    -0.744 OA
ENDBRANCH  81  82
ENDBRANCH  49  74
BRANCH  61  86
ATOM     86  C   UNL A   1      39.566  33.954  37.136  1.00  0.00     0.058 A 
ATOM     87  C   UNL A   1      38.721  33.555  38.182  1.00  0.00     0.135 A 
ATOM     88  C   UNL A   1      40.233  35.182  37.261  1.00  0.00     0.135 A 
ATOM     89  F   UNL A   1      38.048  32.395  38.104  1.00  0.00    -0.206 F 
ATOM     90  C   UNL A   1      38.542  34.347  39.311  1.00  0.00     0.059 A 
ATOM     91  C   UNL A   1      40.089  35.978  38.393  1.00  0.00     0.059 A 
ATOM     92  F   UNL A   1      41.056  35.608  36.289  1.00  0.00    -0.206 F 
ATOM     93  C   UNL A   1      39.237  35.553  39.411  1.00  0.00     0.060 A 
BRANCH  93  94
ATOM     94  S   UNL A   1      39.041  36.542  40.909  1.00  0.00     0.124 S 
ATOM     95  O   UNL A   1      38.034  35.777  41.637  1.00  0.00    -0.237 OA
ATOM     96  O   UNL A   1      40.387  36.520  41.474  1.00  0.00    -0.237 OA
ATOM     97  O   UNL A   1      38.601  37.840  40.405  1.00  0.00    -0.744 OA
ENDBRANCH  93  94
ENDBRANCH  61  86
ENDBRANCH  35  36
ENDBRANCH  28  30
ENDBRANCH  27  28
ENDBRANCH   1  27
TORSDOF 17
ENDMDL
MODEL 3
REMARK VINA RESULT:     -11.4      3.340      9.202
REMARK SMILES Cc1c[nH]c(C[N@H+]2C[C@@H]3CN(S(C)(=O)=O)C[C@]3(C(=O)OCCOC(=O)c3ccc(-c4c5nc(c(-c6c(F)cc(S(=O)(=O)[O-])cc6F)c6ccc([nH]6)c(-c6c(F)cc(S(=O)(=O)[O-])cc6F)c6nc(c(-c7c(F)cc(S(=O)(=O)[O-])cc7F)c7ccc4[nH]7)C=C6)C=C5)cc3)C2)n1
REMARK SMILES IDX 22 1 21 2 20 3 18 4 19 5 17 6 7 7 8 8 92 9 9 11 10 12 16 13
REMARK SMILES IDX 11 14 6 15 5 16 1 17 2 18 3 19 93 20 4 21 12 23 13 24 14 25
REMARK SMILES IDX 15 26 23 27 24 28 25 29 26 30 27 31 91 32 28 33 90 34 29 35
REMARK SMILES IDX 30 36 31 37 84 38 32 39 89 40 83 41 85 42 33 43 88 44 82 45
REMARK SMILES IDX 81 46 34 48 68 49 47 50 67 51 48 52 51 53 66 54 86 55 49 56
REMARK SMILES IDX 50 57 65 59 87 60 52 61 35 62 36 63 45 64 37 65 38 66 44 67
REMARK SMILES IDX 46 68 39 69 40 70 41 71 42 72 43 73 69 74 70 75 79 76 71 77
REMARK SMILES IDX 72 78 78 79 80 80 73 81 74 82 75 83 76 84 77 85 53 86 54 87
REMARK SMILES IDX 63 88 55 89 56 90 62 91 64 92 57 93 58 94 59 95 60 96 61 97
REMARK H PARENT 7 10 4 22 85 47 51 58
REMARK Flexibility Score: inf
ROOT
ATOM      1  C   UNL A   1      36.966  22.604  24.209  1.00  0.00     0.275 C 
ENDROOT
BRANCH   1   2
ATOM      2  C   UNL A   1      36.146  23.283  23.086  1.00  0.00     0.274 C 
BRANCH   2   3
ATOM      3  O   UNL A   1      34.787  22.782  22.943  1.00  0.00    -0.461 OA
BRANCH   3   4
ATOM      4  C   UNL A   1      33.821  23.748  22.822  1.00  0.00     0.319 C 
ATOM      5  O   UNL A   1      33.742  24.377  21.776  1.00  0.00    -0.251 OA
BRANCH   4   6
ATOM      6  C   UNL A   1      32.973  23.989  24.184  1.00  0.00     0.140 C 
ATOM      7  N   UNL A   1      32.563  21.951  25.714  1.00  0.00    -0.327 N 
ATOM      8  C   UNL A   1      32.293  23.107  26.519  1.00  0.00     0.268 C 
ATOM      9  C   UNL A   1      33.310  22.456  24.556  1.00  0.00     0.283 C 
ATOM     10  H   UNL A   1      31.685  21.502  25.453  1.00  0.00     0.348 HD
ATOM     11  C   UNL A   1      33.067  24.198  25.802  1.00  0.00     0.084 C 
ATOM     12  C   UNL A   1      32.473  25.536  26.225  1.00  0.00     0.113 C 
ATOM     13  C   UNL A   1      33.495  25.506  24.144  1.00  0.00     0.127 C 
ATOM     14  N   UNL A   1      32.560  26.295  24.995  1.00  0.00    -0.200 NA
BRANCH   7  15
ATOM     15  C   UNL A   1      33.290  20.862  26.408  1.00  0.00     0.338 C 
BRANCH  15  16
ATOM     16  C   UNL A   1      33.299  19.501  25.753  1.00  0.00     0.161 A 
ATOM     17  C   UNL A   1      33.954  17.054  23.232  1.00  0.00     0.068 C 
ATOM     18  C   UNL A   1      33.565  17.797  24.452  1.00  0.00     0.056 A 
ATOM     19  C   UNL A   1      32.892  17.327  25.554  1.00  0.00     0.107 A 
ATOM     20  N   UNL A   1      33.825  19.144  24.594  1.00  0.00    -0.233 NA
ATOM     21  N   UNL A   1      32.712  18.414  26.360  1.00  0.00    -0.344 N 
ATOM     22  H   UNL A   1      32.245  18.420  27.226  1.00  0.00     0.167 HD
ENDBRANCH  15  16
ENDBRANCH   7  15
BRANCH  14  23
ATOM     23  S   UNL A   1      31.114  26.877  24.330  1.00  0.00     0.211 S 
ATOM     24  C   UNL A   1      29.844  25.928  25.158  1.00  0.00     0.176 C 
ATOM     25  O   UNL A   1      30.959  28.252  24.741  1.00  0.00    -0.213 OA
ATOM     26  O   UNL A   1      31.079  26.510  22.926  1.00  0.00    -0.213 OA
ENDBRANCH  14  23
ENDBRANCH   4   6
ENDBRANCH   3   4
ENDBRANCH   2   3
ENDBRANCH   1   2
BRANCH   1  27
ATOM     27  O   UNL A   1      37.556  23.558  25.127  1.00  0.00    -0.458 OA
BRANCH  27  28
ATOM     28  C   UNL A   1      38.587  23.118  25.896  1.00  0.00     0.338 C 
ATOM     29  O   UNL A   1      39.055  21.992  25.906  1.00  0.00    -0.246 OA
BRANCH  28  30
ATOM     30  C   UNL A   1      39.176  24.231  26.675  1.00  0.00     0.060 A 
ATOM     31  C   UNL A   1      38.748  24.407  27.986  1.00  0.00     0.016 A 
ATOM     32  C   UNL A   1      40.013  25.190  26.108  1.00  0.00     0.016 A 
ATOM     33  C   UNL A   1      39.167  25.488  28.752  1.00  0.00     0.010 A 
ATOM     34  C   UNL A   1      40.461  26.277  26.890  1.00  0.00     0.010 A 
ATOM     35  C   UNL A   1      40.046  26.434  28.227  1.00  0.00    -0.014 A 
BRANCH  35  36
ATOM     36  C   UNL A   1      40.459  27.589  29.078  1.00  0.00     0.031 A 
ATOM     37  C   UNL A   1      41.792  27.577  29.780  1.00  0.00     0.074 A 
ATOM     38  C   UNL A   1      39.683  28.691  29.158  1.00  0.00     0.049 A 
ATOM     39  N   UNL A   1      42.274  28.422  30.656  1.00  0.00    -0.248 NA
ATOM     40  C   UNL A   1      42.712  26.480  29.439  1.00  0.00     0.031 C 
ATOM     41  C   UNL A   1      38.423  28.895  28.440  1.00  0.00     0.029 A 
ATOM     42  N   UNL A   1      39.842  29.858  29.872  1.00  0.00    -0.354 N 
ATOM     43  C   UNL A   1      43.535  27.944  30.996  1.00  0.00     0.074 A 
ATOM     44  C   UNL A   1      43.749  26.737  30.226  1.00  0.00     0.031 C 
ATOM     45  C   UNL A   1      37.938  30.113  28.728  1.00  0.00     0.029 A 
ATOM     46  C   UNL A   1      38.790  30.737  29.733  1.00  0.00     0.049 A 
ATOM     47  H   UNL A   1      40.632  30.047  30.428  1.00  0.00     0.167 HD
ATOM     48  C   UNL A   1      44.426  28.460  31.876  1.00  0.00     0.037 A 
ATOM     49  C   UNL A   1      38.500  31.880  30.386  1.00  0.00     0.037 A 
ATOM     50  C   UNL A   1      44.204  29.665  32.635  1.00  0.00     0.049 A 
ATOM     51  C   UNL A   1      39.427  32.352  31.471  1.00  0.00     0.074 A 
ATOM     52  C   UNL A   1      45.031  30.253  33.577  1.00  0.00     0.029 A 
ATOM     53  N   UNL A   1      43.072  30.460  32.547  1.00  0.00    -0.354 N 
ATOM     54  N   UNL A   1      40.584  31.855  31.836  1.00  0.00    -0.248 NA
ATOM     55  C   UNL A   1      38.995  33.514  32.260  1.00  0.00     0.031 C 
ATOM     56  C   UNL A   1      44.372  31.371  34.099  1.00  0.00     0.029 A 
ATOM     57  C   UNL A   1      43.158  31.512  33.445  1.00  0.00     0.049 A 
ATOM     58  H   UNL A   1      42.316  30.302  31.935  1.00  0.00     0.167 HD
ATOM     59  C   UNL A   1      41.019  32.641  32.896  1.00  0.00     0.074 A 
ATOM     60  C   UNL A   1      40.012  33.664  33.097  1.00  0.00     0.031 C 
ATOM     61  C   UNL A   1      42.145  32.520  33.639  1.00  0.00     0.037 A 
BRANCH  48  62
ATOM     62  C   UNL A   1      45.692  27.686  32.122  1.00  0.00     0.058 A 
ATOM     63  C   UNL A   1      46.866  27.919  31.389  1.00  0.00     0.135 A 
ATOM     64  C   UNL A   1      45.733  26.706  33.128  1.00  0.00     0.135 A 
ATOM     65  F   UNL A   1      46.879  28.830  30.405  1.00  0.00    -0.206 F 
ATOM     66  C   UNL A   1      48.028  27.189  31.628  1.00  0.00     0.059 A 
ATOM     67  C   UNL A   1      46.889  25.982  33.401  1.00  0.00     0.059 A 
ATOM     68  F   UNL A   1      44.637  26.443  33.858  1.00  0.00    -0.206 F 
ATOM     69  C   UNL A   1      48.028  26.220  32.635  1.00  0.00     0.060 A 
BRANCH  69  70
ATOM     70  S   UNL A   1      49.538  25.272  32.924  1.00  0.00     0.124 S 
ATOM     71  O   UNL A   1      49.032  24.153  33.711  1.00  0.00    -0.237 OA
ATOM     72  O   UNL A   1      49.968  24.950  31.567  1.00  0.00    -0.237 OA
ATOM     73  O   UNL A   1      50.396  26.208  33.644  1.00  0.00    -0.744 OA
ENDBRANCH  69  70
ENDBRANCH  48  62
BRANCH  49  74
ATOM     74  C   UNL A   1      37.227  32.600  30.097  1.00  0.00     0.058 A 
ATOM     75  C   UNL A   1      36.040  32.287  30.774  1.00  0.00     0.135 A 
ATOM     76  C   UNL A   1      37.180  33.631  29.143  1.00  0.00     0.135 A 
ATOM     77  F   UNL A   1      36.024  31.297  31.679  1.00  0.00    -0.206 F 
ATOM     78  C   UNL A   1      34.856  32.976  30.524  1.00  0.00     0.059 A 
ATOM     79  C   UNL A   1      36.018  34.356  28.900  1.00  0.00     0.059 A 
ATOM     80  F   UNL A   1      38.286  33.970  28.462  1.00  0.00    -0.206 F 
ATOM     81  C   UNL A   1      34.858  34.017  29.592  1.00  0.00     0.060 A 
BRANCH  81  82
ATOM     82  S   UNL A   1      33.338  34.957  29.333  1.00  0.00     0.124 S 
ATOM     83  O   UNL A   1      32.750  34.937  30.667  1.00  0.00    -0.237 OA
ATOM     84  O   UNL A   1      33.849  36.247  28.879  1.00  0.00    -0.237 OA
ATOM     85  O   UNL A   1      32.632  34.180  28.318  1.00  0.00    -0.744 OA
ENDBRANCH  81  82
ENDBRANCH  49  74
BRANCH  61  86
ATOM     86  C   UNL A   1      42.360  33.520  34.740  1.00  0.00     0.058 A 
ATOM     87  C   UNL A   1      43.118  34.683  34.534  1.00  0.00     0.135 A 
ATOM     88  C   UNL A   1      41.745  33.348  35.991  1.00  0.00     0.135 A 
ATOM     89  F   UNL A   1      43.737  34.887  33.361  1.00  0.00    -0.206 F 
ATOM     90  C   UNL A   1      43.264  35.639  35.533  1.00  0.00     0.059 A 
ATOM     91  C   UNL A   1      41.857  34.305  36.995  1.00  0.00     0.059 A 
ATOM     92  F   UNL A   1      41.006  32.255  36.237  1.00  0.00    -0.206 F 
ATOM     93  C   UNL A   1      42.623  35.445  36.758  1.00  0.00     0.060 A 
BRANCH  93  94
ATOM     94  S   UNL A   1      42.772  36.723  38.024  1.00  0.00     0.124 S 
ATOM     95  O   UNL A   1      43.664  36.083  38.985  1.00  0.00    -0.237 OA
ATOM     96  O   UNL A   1      43.342  37.839  37.274  1.00  0.00    -0.237 OA
ATOM     97  O   UNL A   1      41.397  36.917  38.475  1.00  0.00    -0.744 OA
ENDBRANCH  93  94
ENDBRANCH  61  86
ENDBRANCH  35  36
ENDBRANCH  28  30
ENDBRANCH  27  28
ENDBRANCH   1  27
TORSDOF 17
ENDMDL
