MODEL 1
REMARK VINA RESULT:     -11.3      0.000      0.000
REMARK SMILES C[C@H](c1ccncc1)[N@H+]1[C@@H]2CC[C@H]1C[C@H](CC(=O)OCCOC(=O)c1ccc(-c3c4nc(c(-c5c(F)cc(S(=O)(=O)[O-])cc5F)c5ccc([nH]5)c(-c5c(F)cc(S(=O)(=O)[O-])cc5F)c5nc(c(-c6c(F)cc(S(=O)(=O)[O-])cc6F)c6ccc3[nH]6)C=C5)C=C4)cc1)C2
REMARK SMILES IDX 20 1 19 2 17 3 18 4 16 5 15 6 9 7 10 8 13 9 11 11 91 12
REMARK SMILES IDX 12 13 14 14 2 15 1 16 3 17 4 18 8 19 5 20 7 21 6 22 21 23
REMARK SMILES IDX 22 24 23 25 24 26 25 27 26 28 90 29 27 30 89 31 28 32 29 33
REMARK SMILES IDX 30 34 83 35 31 36 88 37 82 38 84 39 32 40 87 41 81 42 80 43
REMARK SMILES IDX 33 45 67 46 46 47 66 48 47 49 50 50 65 51 85 52 48 53 49 54
REMARK SMILES IDX 64 56 86 57 51 58 34 59 35 60 44 61 36 62 37 63 43 64 45 65
REMARK SMILES IDX 38 66 39 67 40 68 41 69 42 70 68 71 69 72 78 73 70 74 71 75
REMARK SMILES IDX 77 76 79 77 72 78 73 79 74 80 75 81 76 82 52 83 53 84 62 85
REMARK SMILES IDX 54 86 55 87 61 88 63 89 56 90 57 91 58 92 59 93 60 94
REMARK H PARENT 9 10 84 44 50 55
REMARK Flexibility Score: inf
ROOT
ATOM      1  C   UNL A   1      31.866  28.228  26.176  1.00  0.00     0.274 C 
ENDROOT
BRANCH   1   2
ATOM      2  O   UNL A   1      32.756  27.107  26.302  1.00  0.00    -0.462 OA
BRANCH   2   3
ATOM      3  C   UNL A   1      32.185  25.891  26.118  1.00  0.00     0.306 C 
ATOM      4  O   UNL A   1      31.425  25.342  26.905  1.00  0.00    -0.252 OA
BRANCH   3   5
ATOM      5  C   UNL A   1      32.643  25.224  24.847  1.00  0.00     0.126 C 
BRANCH   5   6
ATOM      6  C   UNL A   1      34.126  24.797  24.781  1.00  0.00     0.012 C 
ATOM      7  N   UNL A   1      35.028  21.980  24.855  1.00  0.00    -0.324 N 
ATOM      8  C   UNL A   1      35.276  22.748  23.635  1.00  0.00     0.185 C 
ATOM      9  C   UNL A   1      35.490  22.893  25.911  1.00  0.00     0.185 C 
ATOM     10  H   UNL A   1      35.527  21.095  24.773  1.00  0.00     0.349 HD
ATOM     11  C   UNL A   1      36.735  23.161  23.862  1.00  0.00     0.071 C 
ATOM     12  C   UNL A   1      34.373  23.982  23.488  1.00  0.00     0.069 C 
ATOM     13  C   UNL A   1      36.846  23.355  25.369  1.00  0.00     0.071 C 
ATOM     14  C   UNL A   1      34.537  24.084  26.091  1.00  0.00     0.069 C 
BRANCH   7  15
ATOM     15  C   UNL A   1      33.746  21.300  25.119  1.00  0.00     0.212 C 
ATOM     16  C   UNL A   1      33.623  21.116  26.639  1.00  0.00     0.081 C 
BRANCH  15  17
ATOM     17  C   UNL A   1      33.466  19.983  24.413  1.00  0.00     0.012 A 
ATOM     18  C   UNL A   1      34.248  18.839  24.603  1.00  0.00     0.030 A 
ATOM     19  C   UNL A   1      32.391  19.889  23.516  1.00  0.00     0.030 A 
ATOM     20  C   UNL A   1      33.982  17.709  23.843  1.00  0.00     0.111 A 
ATOM     21  C   UNL A   1      32.202  18.715  22.803  1.00  0.00     0.111 A 
ATOM     22  N   UNL A   1      32.979  17.624  22.944  1.00  0.00    -0.265 NA
ENDBRANCH  15  17
ENDBRANCH   7  15
ENDBRANCH   5   6
ENDBRANCH   3   5
ENDBRANCH   2   3
ENDBRANCH   1   2
BRANCH   1  23
ATOM     23  C   UNL A   1      32.324  29.373  27.078  1.00  0.00     0.275 C 
BRANCH  23  24
ATOM     24  O   UNL A   1      33.651  29.130  27.583  1.00  0.00    -0.458 OA
BRANCH  24  25
ATOM     25  C   UNL A   1      34.380  30.232  27.884  1.00  0.00     0.338 C 
ATOM     26  O   UNL A   1      33.984  31.378  27.997  1.00  0.00    -0.246 OA
BRANCH  25  27
ATOM     27  C   UNL A   1      35.773  29.831  28.126  1.00  0.00     0.060 A 
ATOM     28  C   UNL A   1      36.130  29.327  29.378  1.00  0.00     0.016 A 
ATOM     29  C   UNL A   1      36.739  30.023  27.138  1.00  0.00     0.016 A 
ATOM     30  C   UNL A   1      37.458  29.008  29.652  1.00  0.00     0.010 A 
ATOM     31  C   UNL A   1      38.068  29.682  27.407  1.00  0.00     0.010 A 
ATOM     32  C   UNL A   1      38.439  29.179  28.667  1.00  0.00    -0.014 A 
BRANCH  32  33
ATOM     33  C   UNL A   1      39.859  28.855  28.952  1.00  0.00     0.031 A 
ATOM     34  C   UNL A   1      40.764  29.905  29.529  1.00  0.00     0.074 A 
ATOM     35  C   UNL A   1      40.336  27.626  28.679  1.00  0.00     0.049 A 
ATOM     36  N   UNL A   1      42.061  29.878  29.699  1.00  0.00    -0.248 NA
ATOM     37  C   UNL A   1      40.125  31.157  29.966  1.00  0.00     0.031 C 
ATOM     38  C   UNL A   1      39.546  26.508  28.161  1.00  0.00     0.029 A 
ATOM     39  N   UNL A   1      41.606  27.115  28.788  1.00  0.00    -0.354 N 
ATOM     40  C   UNL A   1      42.400  31.115  30.233  1.00  0.00     0.074 A 
ATOM     41  C   UNL A   1      41.171  31.874  30.351  1.00  0.00     0.031 C 
ATOM     42  C   UNL A   1      40.349  25.444  27.994  1.00  0.00     0.029 A 
ATOM     43  C   UNL A   1      41.717  25.820  28.339  1.00  0.00     0.049 A 
ATOM     44  H   UNL A   1      42.364  27.627  29.152  1.00  0.00     0.167 HD
ATOM     45  C   UNL A   1      43.623  31.575  30.588  1.00  0.00     0.037 A 
ATOM     46  C   UNL A   1      42.804  25.040  28.184  1.00  0.00     0.037 A 
ATOM     47  C   UNL A   1      44.836  30.804  30.487  1.00  0.00     0.049 A 
ATOM     48  C   UNL A   1      44.158  25.588  28.538  1.00  0.00     0.074 A 
ATOM     49  C   UNL A   1      46.124  31.176  30.830  1.00  0.00     0.029 A 
ATOM     50  N   UNL A   1      44.910  29.505  30.008  1.00  0.00    -0.354 N 
ATOM     51  N   UNL A   1      44.470  26.771  29.014  1.00  0.00    -0.248 NA
ATOM     52  C   UNL A   1      45.311  24.703  28.320  1.00  0.00     0.031 C 
ATOM     53  C   UNL A   1      46.982  30.112  30.529  1.00  0.00     0.029 A 
ATOM     54  C   UNL A   1      46.223  29.064  30.032  1.00  0.00     0.049 A 
ATOM     55  H   UNL A   1      44.142  28.972  29.697  1.00  0.00     0.167 HD
ATOM     56  C   UNL A   1      45.852  26.768  29.163  1.00  0.00     0.074 A 
ATOM     57  C   UNL A   1      46.315  25.462  28.741  1.00  0.00     0.031 C 
ATOM     58  C   UNL A   1      46.665  27.760  29.606  1.00  0.00     0.037 A 
BRANCH  45  59
ATOM     59  C   UNL A   1      43.712  32.989  31.089  1.00  0.00     0.058 A 
ATOM     60  C   UNL A   1      43.875  34.075  30.217  1.00  0.00     0.135 A 
ATOM     61  C   UNL A   1      43.614  33.260  32.464  1.00  0.00     0.135 A 
ATOM     62  F   UNL A   1      43.991  33.869  28.896  1.00  0.00    -0.206 F 
ATOM     63  C   UNL A   1      43.966  35.380  30.691  1.00  0.00     0.059 A 
ATOM     64  C   UNL A   1      43.680  34.558  32.959  1.00  0.00     0.059 A 
ATOM     65  F   UNL A   1      43.459  32.257  33.342  1.00  0.00    -0.206 F 
ATOM     66  C   UNL A   1      43.873  35.612  32.066  1.00  0.00     0.060 A 
BRANCH  66  67
ATOM     67  S   UNL A   1      44.003  37.309  32.670  1.00  0.00     0.124 S 
ATOM     68  O   UNL A   1      42.944  37.341  33.674  1.00  0.00    -0.237 OA
ATOM     69  O   UNL A   1      45.367  37.355  33.186  1.00  0.00    -0.237 OA
ATOM     70  O   UNL A   1      43.761  38.113  31.477  1.00  0.00    -0.744 OA
ENDBRANCH  66  67
ENDBRANCH  45  59
BRANCH  46  71
ATOM     71  C   UNL A   1      42.655  23.666  27.636  1.00  0.00     0.058 A 
ATOM     72  C   UNL A   1      42.755  23.422  26.259  1.00  0.00     0.135 A 
ATOM     73  C   UNL A   1      42.430  22.567  28.482  1.00  0.00     0.135 A 
ATOM     74  F   UNL A   1      42.957  24.442  25.412  1.00  0.00    -0.206 F 
ATOM     75  C   UNL A   1      42.632  22.139  25.736  1.00  0.00     0.059 A 
ATOM     76  C   UNL A   1      42.326  21.272  27.985  1.00  0.00     0.059 A 
ATOM     77  F   UNL A   1      42.336  22.748  29.807  1.00  0.00    -0.206 F 
ATOM     78  C   UNL A   1      42.420  21.069  26.609  1.00  0.00     0.060 A 
BRANCH  78  79
ATOM     79  S   UNL A   1      42.320  19.398  25.930  1.00  0.00     0.124 S 
ATOM     80  O   UNL A   1      42.867  18.604  27.023  1.00  0.00    -0.237 OA
ATOM     81  O   UNL A   1      40.889  19.248  25.686  1.00  0.00    -0.237 OA
ATOM     82  O   UNL A   1      43.147  19.476  24.729  1.00  0.00    -0.744 OA
ENDBRANCH  78  79
ENDBRANCH  46  71
BRANCH  58  83
ATOM     83  C   UNL A   1      48.135  27.461  29.674  1.00  0.00     0.058 A 
ATOM     84  C   UNL A   1      49.002  27.809  28.627  1.00  0.00     0.135 A 
ATOM     85  C   UNL A   1      48.689  26.861  30.815  1.00  0.00     0.135 A 
ATOM     86  F   UNL A   1      48.520  28.377  27.511  1.00  0.00    -0.206 F 
ATOM     87  C   UNL A   1      50.368  27.554  28.702  1.00  0.00     0.059 A 
ATOM     88  C   UNL A   1      50.055  26.617  30.921  1.00  0.00     0.059 A 
ATOM     89  F   UNL A   1      47.902  26.518  31.847  1.00  0.00    -0.206 F 
ATOM     90  C   UNL A   1      50.885  26.957  29.853  1.00  0.00     0.060 A 
BRANCH  90  91
ATOM     91  S   UNL A   1      52.663  26.661  29.955  1.00  0.00     0.124 S 
ATOM     92  O   UNL A   1      53.160  27.981  30.324  1.00  0.00    -0.237 OA
ATOM     93  O   UNL A   1      52.753  25.636  30.991  1.00  0.00    -0.237 OA
ATOM     94  O   UNL A   1      53.008  26.213  28.608  1.00  0.00    -0.744 OA
ENDBRANCH  90  91
ENDBRANCH  58  83
ENDBRANCH  32  33
ENDBRANCH  25  27
ENDBRANCH  24  25
ENDBRANCH  23  24
ENDBRANCH   1  23
TORSDOF 17
ENDMDL
MODEL 2
REMARK VINA RESULT:     -11.1      5.264      9.802
REMARK SMILES C[C@H](c1ccncc1)[N@H+]1[C@@H]2CC[C@H]1C[C@H](CC(=O)OCCOC(=O)c1ccc(-c3c4nc(c(-c5c(F)cc(S(=O)(=O)[O-])cc5F)c5ccc([nH]5)c(-c5c(F)cc(S(=O)(=O)[O-])cc5F)c5nc(c(-c6c(F)cc(S(=O)(=O)[O-])cc6F)c6ccc3[nH]6)C=C5)C=C4)cc1)C2
REMARK SMILES IDX 20 1 19 2 17 3 18 4 16 5 15 6 9 7 10 8 13 9 11 11 91 12
REMARK SMILES IDX 12 13 14 14 2 15 1 16 3 17 4 18 8 19 5 20 7 21 6 22 21 23
REMARK SMILES IDX 22 24 23 25 24 26 25 27 26 28 90 29 27 30 89 31 28 32 29 33
REMARK SMILES IDX 30 34 83 35 31 36 88 37 82 38 84 39 32 40 87 41 81 42 80 43
REMARK SMILES IDX 33 45 67 46 46 47 66 48 47 49 50 50 65 51 85 52 48 53 49 54
REMARK SMILES IDX 64 56 86 57 51 58 34 59 35 60 44 61 36 62 37 63 43 64 45 65
REMARK SMILES IDX 38 66 39 67 40 68 41 69 42 70 68 71 69 72 78 73 70 74 71 75
REMARK SMILES IDX 77 76 79 77 72 78 73 79 74 80 75 81 76 82 52 83 53 84 62 85
REMARK SMILES IDX 54 86 55 87 61 88 63 89 56 90 57 91 58 92 59 93 60 94
REMARK H PARENT 9 10 84 44 50 55
REMARK Flexibility Score: inf
ROOT
ATOM      1  C   UNL A   1      40.005  21.821  26.267  1.00  0.00     0.274 C 
ENDROOT
BRANCH   1   2
ATOM      2  O   UNL A   1      38.634  22.205  26.074  1.00  0.00    -0.462 OA
BRANCH   2   3
ATOM      3  C   UNL A   1      37.931  21.430  25.210  1.00  0.00     0.306 C 
ATOM      4  O   UNL A   1      38.142  20.243  24.997  1.00  0.00    -0.252 OA
BRANCH   3   5
ATOM      5  C   UNL A   1      36.880  22.206  24.461  1.00  0.00     0.126 C 
BRANCH   5   6
ATOM      6  C   UNL A   1      35.643  22.660  25.268  1.00  0.00     0.012 C 
ATOM      7  N   UNL A   1      33.046  21.245  25.226  1.00  0.00    -0.324 N 
ATOM      8  C   UNL A   1      33.785  21.283  26.487  1.00  0.00     0.185 C 
ATOM      9  C   UNL A   1      33.088  22.646  24.783  1.00  0.00     0.185 C 
ATOM     10  H   UNL A   1      32.121  20.859  25.418  1.00  0.00     0.349 HD
ATOM     11  C   UNL A   1      33.074  22.446  27.188  1.00  0.00     0.071 C 
ATOM     12  C   UNL A   1      35.282  21.578  26.316  1.00  0.00     0.069 C 
ATOM     13  C   UNL A   1      32.702  23.401  26.060  1.00  0.00     0.071 C 
ATOM     14  C   UNL A   1      34.492  23.051  24.311  1.00  0.00     0.069 C 
BRANCH   7  15
ATOM     15  C   UNL A   1      33.310  20.240  24.179  1.00  0.00     0.212 C 
ATOM     16  C   UNL A   1      32.166  20.320  23.158  1.00  0.00     0.081 C 
BRANCH  15  17
ATOM     17  C   UNL A   1      33.529  18.795  24.601  1.00  0.00     0.012 A 
ATOM     18  C   UNL A   1      34.693  18.083  24.295  1.00  0.00     0.030 A 
ATOM     19  C   UNL A   1      32.528  18.122  25.318  1.00  0.00     0.030 A 
ATOM     20  C   UNL A   1      34.766  16.739  24.633  1.00  0.00     0.111 A 
ATOM     21  C   UNL A   1      32.693  16.777  25.613  1.00  0.00     0.111 A 
ATOM     22  N   UNL A   1      33.790  16.070  25.280  1.00  0.00    -0.265 NA
ENDBRANCH  15  17
ENDBRANCH   7  15
ENDBRANCH   5   6
ENDBRANCH   3   5
ENDBRANCH   2   3
ENDBRANCH   1   2
BRANCH   1  23
ATOM     23  C   UNL A   1      40.866  23.052  26.542  1.00  0.00     0.275 C 
BRANCH  23  24
ATOM     24  O   UNL A   1      40.068  24.250  26.538  1.00  0.00    -0.458 OA
BRANCH  24  25
ATOM     25  C   UNL A   1      40.740  25.409  26.335  1.00  0.00     0.338 C 
ATOM     26  O   UNL A   1      41.286  25.783  25.313  1.00  0.00    -0.246 OA
BRANCH  25  27
ATOM     27  C   UNL A   1      40.666  26.224  27.556  1.00  0.00     0.060 A 
ATOM     28  C   UNL A   1      39.675  25.951  28.500  1.00  0.00     0.016 A 
ATOM     29  C   UNL A   1      41.532  27.304  27.730  1.00  0.00     0.016 A 
ATOM     30  C   UNL A   1      39.542  26.755  29.629  1.00  0.00     0.010 A 
ATOM     31  C   UNL A   1      41.412  28.097  28.874  1.00  0.00     0.010 A 
ATOM     32  C   UNL A   1      40.414  27.834  29.829  1.00  0.00    -0.014 A 
BRANCH  32  33
ATOM     33  C   UNL A   1      40.273  28.705  31.022  1.00  0.00     0.031 A 
ATOM     34  C   UNL A   1      39.269  29.822  31.018  1.00  0.00     0.074 A 
ATOM     35  C   UNL A   1      41.056  28.503  32.099  1.00  0.00     0.049 A 
ATOM     36  N   UNL A   1      39.101  30.788  31.884  1.00  0.00    -0.248 NA
ATOM     37  C   UNL A   1      38.333  29.861  29.884  1.00  0.00     0.031 C 
ATOM     38  C   UNL A   1      42.036  27.425  32.241  1.00  0.00     0.029 A 
ATOM     39  N   UNL A   1      41.160  29.206  33.274  1.00  0.00    -0.354 N 
ATOM     40  C   UNL A   1      38.065  31.568  31.387  1.00  0.00     0.074 A 
ATOM     41  C   UNL A   1      37.646  30.966  30.138  1.00  0.00     0.031 C 
ATOM     42  C   UNL A   1      42.642  27.539  33.434  1.00  0.00     0.029 A 
ATOM     43  C   UNL A   1      42.138  28.728  34.114  1.00  0.00     0.049 A 
ATOM     44  H   UNL A   1      40.590  29.977  33.493  1.00  0.00     0.167 HD
ATOM     45  C   UNL A   1      37.516  32.684  31.924  1.00  0.00     0.037 A 
ATOM     46  C   UNL A   1      42.602  29.216  35.281  1.00  0.00     0.037 A 
ATOM     47  C   UNL A   1      37.925  33.262  33.178  1.00  0.00     0.049 A 
ATOM     48  C   UNL A   1      42.012  30.484  35.833  1.00  0.00     0.074 A 
ATOM     49  C   UNL A   1      37.425  34.385  33.813  1.00  0.00     0.029 A 
ATOM     50  N   UNL A   1      38.932  32.761  33.990  1.00  0.00    -0.354 N 
ATOM     51  N   UNL A   1      41.052  31.230  35.339  1.00  0.00    -0.248 NA
ATOM     52  C   UNL A   1      42.577  30.987  37.092  1.00  0.00     0.031 C 
ATOM     53  C   UNL A   1      38.152  34.582  34.993  1.00  0.00     0.029 A 
ATOM     54  C   UNL A   1      39.080  33.559  35.112  1.00  0.00     0.049 A 
ATOM     55  H   UNL A   1      39.464  31.954  33.797  1.00  0.00     0.167 HD
ATOM     56  C   UNL A   1      40.890  32.282  36.232  1.00  0.00     0.074 A 
ATOM     57  C   UNL A   1      41.841  32.070  37.304  1.00  0.00     0.031 C 
ATOM     58  C   UNL A   1      40.034  33.333  36.168  1.00  0.00     0.037 A 
BRANCH  45  59
ATOM     59  C   UNL A   1      36.434  33.370  31.138  1.00  0.00     0.058 A 
ATOM     60  C   UNL A   1      36.712  34.087  29.965  1.00  0.00     0.135 A 
ATOM     61  C   UNL A   1      35.096  33.290  31.557  1.00  0.00     0.135 A 
ATOM     62  F   UNL A   1      37.976  34.208  29.530  1.00  0.00    -0.206 F 
ATOM     63  C   UNL A   1      35.705  34.726  29.249  1.00  0.00     0.059 A 
ATOM     64  C   UNL A   1      34.070  33.903  30.845  1.00  0.00     0.059 A 
ATOM     65  F   UNL A   1      34.776  32.618  32.673  1.00  0.00    -0.206 F 
ATOM     66  C   UNL A   1      34.386  34.633  29.700  1.00  0.00     0.060 A 
BRANCH  66  67
ATOM     67  S   UNL A   1      33.089  35.476  28.768  1.00  0.00     0.124 S 
ATOM     68  O   UNL A   1      32.256  36.005  29.843  1.00  0.00    -0.237 OA
ATOM     69  O   UNL A   1      33.843  36.466  28.005  1.00  0.00    -0.237 OA
ATOM     70  O   UNL A   1      32.489  34.406  27.977  1.00  0.00    -0.744 OA
ENDBRANCH  66  67
ENDBRANCH  45  59
BRANCH  46  71
ATOM     71  C   UNL A   1      43.708  28.518  35.986  1.00  0.00     0.058 A 
ATOM     72  C   UNL A   1      43.452  27.446  36.853  1.00  0.00     0.135 A 
ATOM     73  C   UNL A   1      45.047  28.899  35.792  1.00  0.00     0.135 A 
ATOM     74  F   UNL A   1      42.189  27.056  37.079  1.00  0.00    -0.206 F 
ATOM     75  C   UNL A   1      44.481  26.777  37.508  1.00  0.00     0.059 A 
ATOM     76  C   UNL A   1      46.094  28.231  36.417  1.00  0.00     0.059 A 
ATOM     77  F   UNL A   1      45.344  29.912  34.966  1.00  0.00    -0.206 F 
ATOM     78  C   UNL A   1      45.800  27.175  37.280  1.00  0.00     0.060 A 
BRANCH  78  79
ATOM     79  S   UNL A   1      47.136  26.265  38.087  1.00  0.00     0.124 S 
ATOM     80  O   UNL A   1      46.899  26.579  39.491  1.00  0.00    -0.237 OA
ATOM     81  O   UNL A   1      46.859  24.888  37.686  1.00  0.00    -0.237 OA
ATOM     82  O   UNL A   1      48.339  26.849  37.501  1.00  0.00    -0.744 OA
ENDBRANCH  78  79
ENDBRANCH  46  71
BRANCH  58  83
ATOM     83  C   UNL A   1      40.076  34.320  37.299  1.00  0.00     0.058 A 
ATOM     84  C   UNL A   1      39.189  34.231  38.382  1.00  0.00     0.135 A 
ATOM     85  C   UNL A   1      41.040  35.340  37.320  1.00  0.00     0.135 A 
ATOM     86  F   UNL A   1      38.243  33.278  38.405  1.00  0.00    -0.206 F 
ATOM     87  C   UNL A   1      39.244  35.131  39.441  1.00  0.00     0.059 A 
ATOM     88  C   UNL A   1      41.127  36.238  38.379  1.00  0.00     0.059 A 
ATOM     89  F   UNL A   1      41.916  35.462  36.311  1.00  0.00    -0.206 F 
ATOM     90  C   UNL A   1      40.217  36.132  39.430  1.00  0.00     0.060 A 
BRANCH  90  91
ATOM     91  S   UNL A   1      40.303  37.276  40.825  1.00  0.00     0.124 S 
ATOM     92  O   UNL A   1      39.415  36.633  41.787  1.00  0.00    -0.237 OA
ATOM     93  O   UNL A   1      41.723  37.258  41.161  1.00  0.00    -0.237 OA
ATOM     94  O   UNL A   1      39.815  38.532  40.262  1.00  0.00    -0.744 OA
ENDBRANCH  90  91
ENDBRANCH  58  83
ENDBRANCH  32  33
ENDBRANCH  25  27
ENDBRANCH  24  25
ENDBRANCH  23  24
ENDBRANCH   1  23
TORSDOF 17
ENDMDL
MODEL 3
REMARK VINA RESULT:     -11.1      3.757      5.575
REMARK SMILES C[C@H](c1ccncc1)[N@H+]1[C@@H]2CC[C@H]1C[C@H](CC(=O)OCCOC(=O)c1ccc(-c3c4nc(c(-c5c(F)cc(S(=O)(=O)[O-])cc5F)c5ccc([nH]5)c(-c5c(F)cc(S(=O)(=O)[O-])cc5F)c5nc(c(-c6c(F)cc(S(=O)(=O)[O-])cc6F)c6ccc3[nH]6)C=C5)C=C4)cc1)C2
REMARK SMILES IDX 20 1 19 2 17 3 18 4 16 5 15 6 9 7 10 8 13 9 11 11 91 12
REMARK SMILES IDX 12 13 14 14 2 15 1 16 3 17 4 18 8 19 5 20 7 21 6 22 21 23
REMARK SMILES IDX 22 24 23 25 24 26 25 27 26 28 90 29 27 30 89 31 28 32 29 33
REMARK SMILES IDX 30 34 83 35 31 36 88 37 82 38 84 39 32 40 87 41 81 42 80 43
REMARK SMILES IDX 33 45 67 46 46 47 66 48 47 49 50 50 65 51 85 52 48 53 49 54
REMARK SMILES IDX 64 56 86 57 51 58 34 59 35 60 44 61 36 62 37 63 43 64 45 65
REMARK SMILES IDX 38 66 39 67 40 68 41 69 42 70 68 71 69 72 78 73 70 74 71 75
REMARK SMILES IDX 77 76 79 77 72 78 73 79 74 80 75 81 76 82 52 83 53 84 62 85
REMARK SMILES IDX 54 86 55 87 61 88 63 89 56 90 57 91 58 92 59 93 60 94
REMARK H PARENT 9 10 84 44 50 55
REMARK Flexibility Score: inf
ROOT
ATOM      1  C   UNL A   1      33.712  31.486  27.251  1.00  0.00     0.274 C 
ENDROOT
BRANCH   1   2
ATOM      2  O   UNL A   1      32.952  30.381  27.765  1.00  0.00    -0.462 OA
BRANCH   2   3
ATOM      3  C   UNL A   1      32.930  29.276  26.979  1.00  0.00     0.306 C 
ATOM      4  O   UNL A   1      33.828  28.446  26.906  1.00  0.00    -0.252 OA
BRANCH   3   5
ATOM      5  C   UNL A   1      31.693  29.198  26.124  1.00  0.00     0.126 C 
BRANCH   5   6
ATOM      6  C   UNL A   1      31.726  28.203  24.943  1.00  0.00     0.012 C 
ATOM      7  N   UNL A   1      29.621  28.047  22.869  1.00  0.00    -0.324 N 
ATOM      8  C   UNL A   1      30.962  28.460  22.457  1.00  0.00     0.185 C 
ATOM      9  C   UNL A   1      29.888  26.856  23.689  1.00  0.00     0.185 C 
ATOM     10  H   UNL A   1      29.067  27.901  22.026  1.00  0.00     0.349 HD
ATOM     11  C   UNL A   1      31.506  27.130  21.922  1.00  0.00     0.071 C 
ATOM     12  C   UNL A   1      31.830  28.984  23.610  1.00  0.00     0.069 C 
ATOM     13  C   UNL A   1      30.868  26.072  22.811  1.00  0.00     0.071 C 
ATOM     14  C   UNL A   1      30.531  27.224  25.035  1.00  0.00     0.069 C 
BRANCH   7  15
ATOM     15  C   UNL A   1      28.634  28.993  23.425  1.00  0.00     0.212 C 
ATOM     16  C   UNL A   1      27.251  28.335  23.318  1.00  0.00     0.081 C 
BRANCH  15  17
ATOM     17  C   UNL A   1      28.584  30.403  22.857  1.00  0.00     0.012 A 
ATOM     18  C   UNL A   1      28.939  31.533  23.600  1.00  0.00     0.030 A 
ATOM     19  C   UNL A   1      28.152  30.606  21.537  1.00  0.00     0.030 A 
ATOM     20  C   UNL A   1      28.768  32.789  23.035  1.00  0.00     0.111 A 
ATOM     21  C   UNL A   1      28.015  31.901  21.060  1.00  0.00     0.111 A 
ATOM     22  N   UNL A   1      28.309  32.997  21.784  1.00  0.00    -0.265 NA
ENDBRANCH  15  17
ENDBRANCH   7  15
ENDBRANCH   5   6
ENDBRANCH   3   5
ENDBRANCH   2   3
ENDBRANCH   1   2
BRANCH   1  23
ATOM     23  C   UNL A   1      34.715  31.972  28.296  1.00  0.00     0.275 C 
BRANCH  23  24
ATOM     24  O   UNL A   1      35.996  31.343  28.112  1.00  0.00    -0.458 OA
BRANCH  24  25
ATOM     25  C   UNL A   1      36.362  30.453  29.065  1.00  0.00     0.338 C 
ATOM     26  O   UNL A   1      35.658  29.953  29.925  1.00  0.00    -0.246 OA
BRANCH  25  27
ATOM     27  C   UNL A   1      37.778  30.107  28.879  1.00  0.00     0.060 A 
ATOM     28  C   UNL A   1      38.229  29.741  27.610  1.00  0.00     0.016 A 
ATOM     29  C   UNL A   1      38.641  30.073  29.974  1.00  0.00     0.016 A 
ATOM     30  C   UNL A   1      39.550  29.340  27.425  1.00  0.00     0.010 A 
ATOM     31  C   UNL A   1      39.972  29.692  29.783  1.00  0.00     0.010 A 
ATOM     32  C   UNL A   1      40.435  29.316  28.510  1.00  0.00    -0.014 A 
BRANCH  32  33
ATOM     33  C   UNL A   1      41.841  28.878  28.326  1.00  0.00     0.031 A 
ATOM     34  C   UNL A   1      42.953  29.886  28.386  1.00  0.00     0.074 A 
ATOM     35  C   UNL A   1      42.116  27.581  28.090  1.00  0.00     0.049 A 
ATOM     36  N   UNL A   1      44.220  29.740  28.095  1.00  0.00    -0.248 NA
ATOM     37  C   UNL A   1      42.588  31.242  28.827  1.00  0.00     0.031 C 
ATOM     38  C   UNL A   1      41.129  26.501  28.053  1.00  0.00     0.029 A 
ATOM     39  N   UNL A   1      43.308  26.954  27.823  1.00  0.00    -0.354 N 
ATOM     40  C   UNL A   1      44.799  30.989  28.286  1.00  0.00     0.074 A 
ATOM     41  C   UNL A   1      43.742  31.884  28.711  1.00  0.00     0.031 C 
ATOM     42  C   UNL A   1      41.755  25.345  27.777  1.00  0.00     0.029 A 
ATOM     43  C   UNL A   1      43.174  25.610  27.562  1.00  0.00     0.049 A 
ATOM     44  H   UNL A   1      44.174  27.421  27.819  1.00  0.00     0.167 HD
ATOM     45  C   UNL A   1      46.093  31.353  28.118  1.00  0.00     0.037 A 
ATOM     46  C   UNL A   1      44.084  24.705  27.155  1.00  0.00     0.037 A 
ATOM     47  C   UNL A   1      47.141  30.450  27.715  1.00  0.00     0.049 A 
ATOM     48  C   UNL A   1      45.505  25.143  26.928  1.00  0.00     0.074 A 
ATOM     49  C   UNL A   1      48.485  30.719  27.528  1.00  0.00     0.029 A 
ATOM     50  N   UNL A   1      46.962  29.103  27.441  1.00  0.00    -0.354 N 
ATOM     51  N   UNL A   1      46.035  26.333  27.082  1.00  0.00    -0.248 NA
ATOM     52  C   UNL A   1      46.448  24.120  26.455  1.00  0.00     0.031 C 
ATOM     53  C   UNL A   1      49.113  29.541  27.108  1.00  0.00     0.029 A 
ATOM     54  C   UNL A   1      48.167  28.529  27.070  1.00  0.00     0.049 A 
ATOM     55  H   UNL A   1      46.104  28.623  27.501  1.00  0.00     0.167 HD
ATOM     56  C   UNL A   1      47.375  26.200  26.738  1.00  0.00     0.074 A 
ATOM     57  C   UNL A   1      47.578  24.811  26.380  1.00  0.00     0.031 C 
ATOM     58  C   UNL A   1      48.349  27.144  26.715  1.00  0.00     0.037 A 
BRANCH  45  59
ATOM     59  C   UNL A   1      46.439  32.798  28.340  1.00  0.00     0.058 A 
ATOM     60  C   UNL A   1      46.858  33.277  29.590  1.00  0.00     0.135 A 
ATOM     61  C   UNL A   1      46.370  33.715  27.277  1.00  0.00     0.135 A 
ATOM     62  F   UNL A   1      46.925  32.446  30.643  1.00  0.00    -0.206 F 
ATOM     63  C   UNL A   1      47.168  34.618  29.789  1.00  0.00     0.059 A 
ATOM     64  C   UNL A   1      46.696  35.056  27.447  1.00  0.00     0.059 A 
ATOM     65  F   UNL A   1      45.974  33.309  26.061  1.00  0.00    -0.206 F 
ATOM     66  C   UNL A   1      47.079  35.503  28.711  1.00  0.00     0.060 A 
BRANCH  66  67
ATOM     67  S   UNL A   1      47.474  37.244  28.983  1.00  0.00     0.124 S 
ATOM     68  O   UNL A   1      48.815  37.152  29.551  1.00  0.00    -0.237 OA
ATOM     69  O   UNL A   1      47.394  37.798  27.635  1.00  0.00    -0.237 OA
ATOM     70  O   UNL A   1      46.431  37.689  29.902  1.00  0.00    -0.744 OA
ENDBRANCH  66  67
ENDBRANCH  45  59
BRANCH  46  71
ATOM     71  C   UNL A   1      43.669  23.300  26.905  1.00  0.00     0.058 A 
ATOM     72  C   UNL A   1      43.398  22.425  27.967  1.00  0.00     0.135 A 
ATOM     73  C   UNL A   1      43.517  22.810  25.597  1.00  0.00     0.135 A 
ATOM     74  F   UNL A   1      43.543  22.845  29.233  1.00  0.00    -0.206 F 
ATOM     75  C   UNL A   1      42.996  21.112  27.744  1.00  0.00     0.059 A 
ATOM     76  C   UNL A   1      43.093  21.509  25.349  1.00  0.00     0.059 A 
ATOM     77  F   UNL A   1      43.755  23.610  24.548  1.00  0.00    -0.206 F 
ATOM     78  C   UNL A   1      42.843  20.664  26.430  1.00  0.00     0.060 A 
BRANCH  78  79
ATOM     79  S   UNL A   1      42.262  18.977  26.148  1.00  0.00     0.124 S 
ATOM     80  O   UNL A   1      40.881  19.206  25.740  1.00  0.00    -0.237 OA
ATOM     81  O   UNL A   1      43.168  18.509  25.102  1.00  0.00    -0.237 OA
ATOM     82  O   UNL A   1      42.441  18.341  27.449  1.00  0.00    -0.744 OA
ENDBRANCH  78  79
ENDBRANCH  46  71
BRANCH  58  83
ATOM     83  C   UNL A   1      49.725  26.700  26.309  1.00  0.00     0.058 A 
ATOM     84  C   UNL A   1      50.599  26.094  27.225  1.00  0.00     0.135 A 
ATOM     85  C   UNL A   1      50.158  26.842  24.982  1.00  0.00     0.135 A 
ATOM     86  F   UNL A   1      50.235  25.942  28.508  1.00  0.00    -0.206 F 
ATOM     87  C   UNL A   1      51.864  25.660  26.842  1.00  0.00     0.059 A 
ATOM     88  C   UNL A   1      51.410  26.396  24.571  1.00  0.00     0.059 A 
ATOM     89  F   UNL A   1      49.354  27.408  24.067  1.00  0.00    -0.206 F 
ATOM     90  C   UNL A   1      52.260  25.816  25.512  1.00  0.00     0.060 A 
BRANCH  90  91
ATOM     91  S   UNL A   1      53.891  25.220  25.016  1.00  0.00     0.124 S 
ATOM     92  O   UNL A   1      53.637  23.798  24.820  1.00  0.00    -0.237 OA
ATOM     93  O   UNL A   1      54.154  25.991  23.804  1.00  0.00    -0.237 OA
ATOM     94  O   UNL A   1      54.735  25.556  26.160  1.00  0.00    -0.744 OA
ENDBRANCH  90  91
ENDBRANCH  58  83
ENDBRANCH  32  33
ENDBRANCH  25  27
ENDBRANCH  24  25
ENDBRANCH  23  24
ENDBRANCH   1  23
TORSDOF 17
ENDMDL
