MODEL 1
REMARK VINA RESULT:     -12.6      0.000      0.000
REMARK SMILES O=C(OCCOC(=O)c1cc(-c2ccccc2)nc(Nc2nc3ccccc3s2)n1)c1ccc(-c2c3nc(c(-c4c(F)cc(S(=O)(=O)[O-])cc4F)c4ccc([nH]4)c(-c4c(F)cc(S(=O)(=O)[O-])cc4F)c4nc(c(-c5c(F)cc(S(=O)(=O)[O-])cc5F)c5ccc2[nH]5)C=C4)C=C3)cc1
REMARK SMILES IDX 4 1 3 2 2 3 1 4 31 5 32 6 96 7 33 8 95 9 34 10 35 11 36 12
REMARK SMILES IDX 89 13 37 14 94 15 88 16 90 17 38 18 93 19 87 20 86 21 39 23
REMARK SMILES IDX 73 24 52 25 72 26 53 27 56 28 71 29 91 30 54 31 55 32 70 34
REMARK SMILES IDX 92 35 57 36 40 37 41 38 50 39 42 40 43 41 49 42 51 43 44 44
REMARK SMILES IDX 45 45 46 46 47 47 48 48 74 49 75 50 84 51 76 52 77 53 83 54
REMARK SMILES IDX 85 55 78 56 79 57 80 58 81 59 82 60 58 61 59 62 68 63 60 64
REMARK SMILES IDX 61 65 67 66 69 67 62 68 63 69 64 70 65 71 66 72 5 73 6 74
REMARK SMILES IDX 7 75 8 76 9 77 10 78 30 79 11 80 19 81 18 82 12 83 13 84
REMARK SMILES IDX 17 85 14 86 16 87 15 88 20 89 21 91 22 92 29 93 23 94 28 95
REMARK SMILES IDX 24 96 27 97 25 98 26 99
REMARK H PARENT 90 22 56 33 20 90
REMARK Flexibility Score: inf
ROOT
ATOM      1  C   UNL A   1      39.690  23.021  26.153  1.00  0.00     0.275 C 
ENDROOT
BRANCH   1   2
ATOM      2  O   UNL A   1      40.782  23.919  26.385  1.00  0.00    -0.458 OA
BRANCH   2   3
ATOM      3  C   UNL A   1      40.820  25.269  26.446  1.00  0.00     0.338 C 
ATOM      4  O   UNL A   1      41.064  25.869  25.404  1.00  0.00    -0.246 OA
BRANCH   3   5
ATOM      5  C   UNL A   1      40.611  26.076  27.695  1.00  0.00     0.060 A 
ATOM      6  C   UNL A   1      39.567  25.919  28.604  1.00  0.00     0.016 A 
ATOM      7  C   UNL A   1      41.550  27.088  27.966  1.00  0.00     0.016 A 
ATOM      8  C   UNL A   1      39.486  26.700  29.757  1.00  0.00     0.010 A 
ATOM      9  C   UNL A   1      41.499  27.859  29.132  1.00  0.00     0.010 A 
ATOM     10  C   UNL A   1      40.442  27.680  30.025  1.00  0.00    -0.014 A 
BRANCH  10  11
ATOM     11  C   UNL A   1      40.184  28.620  31.135  1.00  0.00     0.031 A 
ATOM     12  C   UNL A   1      41.039  28.506  32.364  1.00  0.00     0.074 A 
ATOM     13  C   UNL A   1      39.313  29.634  30.979  1.00  0.00     0.049 A 
ATOM     14  N   UNL A   1      41.117  29.310  33.391  1.00  0.00    -0.248 NA
ATOM     15  C   UNL A   1      41.957  27.354  32.432  1.00  0.00     0.031 C 
ATOM     16  C   UNL A   1      38.496  29.872  29.788  1.00  0.00     0.029 A 
ATOM     17  N   UNL A   1      38.977  30.665  31.815  1.00  0.00    -0.354 N 
ATOM     18  C   UNL A   1      42.113  28.781  34.204  1.00  0.00     0.074 A 
ATOM     19  C   UNL A   1      42.564  27.554  33.590  1.00  0.00     0.031 C 
ATOM     20  C   UNL A   1      37.733  30.963  29.980  1.00  0.00     0.029 A 
ATOM     21  C   UNL A   1      38.019  31.506  31.301  1.00  0.00     0.049 A 
ATOM     22  H   UNL A   1      39.385  30.793  32.702  1.00  0.00     0.167 HD
ATOM     23  C   UNL A   1      42.624  29.295  35.345  1.00  0.00     0.037 A 
ATOM     24  C   UNL A   1      37.444  32.595  31.844  1.00  0.00     0.037 A 
ATOM     25  C   UNL A   1      42.141  30.506  35.949  1.00  0.00     0.049 A 
ATOM     26  C   UNL A   1      37.927  33.062  33.183  1.00  0.00     0.074 A 
ATOM     27  C   UNL A   1      42.577  31.131  37.101  1.00  0.00     0.029 A 
ATOM     28  N   UNL A   1      41.091  31.267  35.450  1.00  0.00    -0.354 N 
ATOM     29  N   UNL A   1      38.876  32.559  33.934  1.00  0.00    -0.248 NA
ATOM     30  C   UNL A   1      37.283  34.261  33.730  1.00  0.00     0.031 C 
ATOM     31  C   UNL A   1      41.747  32.234  37.334  1.00  0.00     0.029 A 
ATOM     32  C   UNL A   1      40.839  32.335  36.291  1.00  0.00     0.049 A 
ATOM     33  H   UNL A   1      40.597  31.073  34.619  1.00  0.00     0.167 HD
ATOM     34  C   UNL A   1      38.973  33.402  35.031  1.00  0.00     0.074 A 
ATOM     35  C   UNL A   1      37.976  34.441  34.845  1.00  0.00     0.031 C 
ATOM     36  C   UNL A   1      39.827  33.341  36.083  1.00  0.00     0.037 A 
BRANCH  23  37
ATOM     37  C   UNL A   1      43.729  28.524  36.013  1.00  0.00     0.058 A 
ATOM     38  C   UNL A   1      45.083  28.842  35.813  1.00  0.00     0.135 A 
ATOM     39  C   UNL A   1      43.429  27.439  36.850  1.00  0.00     0.135 A 
ATOM     40  F   UNL A   1      45.430  29.854  35.000  1.00  0.00    -0.206 F 
ATOM     41  C   UNL A   1      46.101  28.092  36.396  1.00  0.00     0.059 A 
ATOM     42  C   UNL A   1      44.430  26.693  37.466  1.00  0.00     0.059 A 
ATOM     43  F   UNL A   1      42.152  27.085  37.067  1.00  0.00    -0.206 F 
ATOM     44  C   UNL A   1      45.763  27.016  37.219  1.00  0.00     0.060 A 
BRANCH  44  45
ATOM     45  S   UNL A   1      47.092  26.048  37.963  1.00  0.00     0.124 S 
ATOM     46  O   UNL A   1      46.422  24.776  38.212  1.00  0.00    -0.237 OA
ATOM     47  O   UNL A   1      48.099  26.038  36.907  1.00  0.00    -0.237 OA
ATOM     48  O   UNL A   1      47.445  26.815  39.154  1.00  0.00    -0.744 OA
ENDBRANCH  44  45
ENDBRANCH  23  37
BRANCH  24  49
ATOM     49  C   UNL A   1      36.350  33.309  31.141  1.00  0.00     0.058 A 
ATOM     50  C   UNL A   1      35.018  33.240  31.572  1.00  0.00     0.135 A 
ATOM     51  C   UNL A   1      36.631  34.067  29.998  1.00  0.00     0.135 A 
ATOM     52  F   UNL A   1      34.695  32.489  32.635  1.00  0.00    -0.206 F 
ATOM     53  C   UNL A   1      34.004  33.925  30.907  1.00  0.00     0.059 A 
ATOM     54  C   UNL A   1      35.638  34.775  29.328  1.00  0.00     0.059 A 
ATOM     55  F   UNL A   1      37.882  34.113  29.515  1.00  0.00    -0.206 F 
ATOM     56  C   UNL A   1      34.327  34.702  29.792  1.00  0.00     0.060 A 
BRANCH  56  57
ATOM     57  S   UNL A   1      33.042  35.684  28.987  1.00  0.00     0.124 S 
ATOM     58  O   UNL A   1      32.388  34.685  28.150  1.00  0.00    -0.237 OA
ATOM     59  O   UNL A   1      32.264  36.178  30.120  1.00  0.00    -0.237 OA
ATOM     60  O   UNL A   1      33.810  36.704  28.278  1.00  0.00    -0.744 OA
ENDBRANCH  56  57
ENDBRANCH  24  49
BRANCH  36  61
ATOM     61  C   UNL A   1      39.743  34.456  37.080  1.00  0.00     0.058 A 
ATOM     62  C   UNL A   1      40.457  35.652  36.918  1.00  0.00     0.135 A 
ATOM     63  C   UNL A   1      38.916  34.324  38.206  1.00  0.00     0.135 A 
ATOM     64  F   UNL A   1      41.271  35.817  35.864  1.00  0.00    -0.206 F 
ATOM     65  C   UNL A   1      40.378  36.670  37.860  1.00  0.00     0.059 A 
ATOM     66  C   UNL A   1      38.796  35.342  39.142  1.00  0.00     0.059 A 
ATOM     67  F   UNL A   1      38.208  33.199  38.400  1.00  0.00    -0.206 F 
ATOM     68  C   UNL A   1      39.545  36.504  38.969  1.00  0.00     0.060 A 
BRANCH  68  69
ATOM     69  S   UNL A   1      39.439  37.839  40.176  1.00  0.00     0.124 S 
ATOM     70  O   UNL A   1      40.750  38.466  40.033  1.00  0.00    -0.237 OA
ATOM     71  O   UNL A   1      38.307  38.617  39.684  1.00  0.00    -0.237 OA
ATOM     72  O   UNL A   1      39.211  37.139  41.437  1.00  0.00    -0.744 OA
ENDBRANCH  68  69
ENDBRANCH  36  61
ENDBRANCH  10  11
ENDBRANCH   3   5
ENDBRANCH   2   3
ENDBRANCH   1   2
BRANCH   1  73
ATOM     73  C   UNL A   1      38.313  23.597  26.488  1.00  0.00     0.275 C 
BRANCH  73  74
ATOM     74  O   UNL A   1      37.539  23.958  25.330  1.00  0.00    -0.457 OA
BRANCH  74  75
ATOM     75  C   UNL A   1      36.666  23.011  24.885  1.00  0.00     0.357 C 
ATOM     76  O   UNL A   1      36.971  21.945  24.366  1.00  0.00    -0.244 OA
BRANCH  75  77
ATOM     77  C   UNL A   1      35.264  23.435  25.155  1.00  0.00     0.154 A 
ATOM     78  C   UNL A   1      34.992  24.706  25.595  1.00  0.00     0.065 A 
ATOM     79  N   UNL A   1      34.314  22.518  24.876  1.00  0.00    -0.206 NA
ATOM     80  C   UNL A   1      33.653  25.017  25.692  1.00  0.00     0.077 A 
ATOM     81  C   UNL A   1      33.040  22.871  25.073  1.00  0.00     0.230 A 
ATOM     82  N   UNL A   1      32.683  24.107  25.435  1.00  0.00    -0.213 NA
BRANCH  80  83
ATOM     83  C   UNL A   1      33.164  26.373  26.000  1.00  0.00     0.000 A 
ATOM     84  C   UNL A   1      33.920  27.508  25.651  1.00  0.00     0.010 A 
ATOM     85  C   UNL A   1      31.956  26.580  26.691  1.00  0.00     0.010 A 
ATOM     86  C   UNL A   1      33.504  28.790  26.009  1.00  0.00     0.001 A 
ATOM     87  C   UNL A   1      31.539  27.863  27.051  1.00  0.00     0.001 A 
ATOM     88  C   UNL A   1      32.324  28.963  26.726  1.00  0.00     0.000 A 
ENDBRANCH  80  83
BRANCH  81  89
ATOM     89  N   UNL A   1      32.001  21.985  24.818  1.00  0.00    -0.300 N 
ATOM     90  H   UNL A   1      31.082  22.339  24.816  1.00  0.00     0.172 HD
BRANCH  89  91
ATOM     91  C   UNL A   1      32.174  20.676  24.572  1.00  0.00     0.190 A 
ATOM     92  N   UNL A   1      32.173  19.746  25.494  1.00  0.00    -0.220 NA
ATOM     93  S   UNL A   1      32.366  20.072  22.969  1.00  0.00    -0.097 S 
ATOM     94  C   UNL A   1      32.596  18.540  24.981  1.00  0.00     0.084 A 
ATOM     95  C   UNL A   1      32.814  18.530  23.606  1.00  0.00     0.056 A 
ATOM     96  C   UNL A   1      32.852  17.371  25.724  1.00  0.00     0.030 A 
ATOM     97  C   UNL A   1      33.325  17.396  22.954  1.00  0.00     0.021 A 
ATOM     98  C   UNL A   1      33.413  16.259  25.099  1.00  0.00     0.002 A 
ATOM     99  C   UNL A   1      33.651  16.275  23.730  1.00  0.00     0.002 A 
ENDBRANCH  89  91
ENDBRANCH  81  89
ENDBRANCH  75  77
ENDBRANCH  74  75
ENDBRANCH  73  74
ENDBRANCH   1  73
TORSDOF 17
ENDMDL
MODEL 2
REMARK VINA RESULT:     -12.6      3.056      9.231
REMARK SMILES O=C(OCCOC(=O)c1cc(-c2ccccc2)nc(Nc2nc3ccccc3s2)n1)c1ccc(-c2c3nc(c(-c4c(F)cc(S(=O)(=O)[O-])cc4F)c4ccc([nH]4)c(-c4c(F)cc(S(=O)(=O)[O-])cc4F)c4nc(c(-c5c(F)cc(S(=O)(=O)[O-])cc5F)c5ccc2[nH]5)C=C4)C=C3)cc1
REMARK SMILES IDX 4 1 3 2 2 3 1 4 31 5 32 6 96 7 33 8 95 9 34 10 35 11 36 12
REMARK SMILES IDX 89 13 37 14 94 15 88 16 90 17 38 18 93 19 87 20 86 21 39 23
REMARK SMILES IDX 73 24 52 25 72 26 53 27 56 28 71 29 91 30 54 31 55 32 70 34
REMARK SMILES IDX 92 35 57 36 40 37 41 38 50 39 42 40 43 41 49 42 51 43 44 44
REMARK SMILES IDX 45 45 46 46 47 47 48 48 74 49 75 50 84 51 76 52 77 53 83 54
REMARK SMILES IDX 85 55 78 56 79 57 80 58 81 59 82 60 58 61 59 62 68 63 60 64
REMARK SMILES IDX 61 65 67 66 69 67 62 68 63 69 64 70 65 71 66 72 5 73 6 74
REMARK SMILES IDX 7 75 8 76 9 77 10 78 30 79 11 80 19 81 18 82 12 83 13 84
REMARK SMILES IDX 17 85 14 86 16 87 15 88 20 89 21 91 22 92 29 93 23 94 28 95
REMARK SMILES IDX 24 96 27 97 25 98 26 99
REMARK H PARENT 90 22 56 33 20 90
REMARK Flexibility Score: inf
ROOT
ATOM      1  C   UNL A   1      33.430  29.576  26.336  1.00  0.00     0.275 C 
ENDROOT
BRANCH   1   2
ATOM      2  O   UNL A   1      33.346  30.645  27.286  1.00  0.00    -0.458 OA
BRANCH   2   3
ATOM      3  C   UNL A   1      34.315  31.370  27.890  1.00  0.00     0.338 C 
ATOM      4  O   UNL A   1      34.117  32.575  28.010  1.00  0.00    -0.246 OA
BRANCH   3   5
ATOM      5  C   UNL A   1      35.614  30.813  28.394  1.00  0.00     0.060 A 
ATOM      6  C   UNL A   1      35.759  29.711  29.235  1.00  0.00     0.016 A 
ATOM      7  C   UNL A   1      36.791  31.467  27.987  1.00  0.00     0.016 A 
ATOM      8  C   UNL A   1      37.018  29.250  29.616  1.00  0.00     0.010 A 
ATOM      9  C   UNL A   1      38.062  30.999  28.337  1.00  0.00     0.010 A 
ATOM     10  C   UNL A   1      38.176  29.894  29.180  1.00  0.00    -0.014 A 
BRANCH  10  11
ATOM     11  C   UNL A   1      39.463  29.503  29.791  1.00  0.00     0.031 A 
ATOM     12  C   UNL A   1      39.876  30.191  31.060  1.00  0.00     0.074 A 
ATOM     13  C   UNL A   1      40.161  28.461  29.301  1.00  0.00     0.049 A 
ATOM     14  N   UNL A   1      40.865  29.910  31.866  1.00  0.00    -0.248 NA
ATOM     15  C   UNL A   1      39.042  31.323  31.505  1.00  0.00     0.031 C 
ATOM     16  C   UNL A   1      39.795  27.679  28.118  1.00  0.00     0.029 A 
ATOM     17  N   UNL A   1      41.312  27.865  29.741  1.00  0.00    -0.354 N 
ATOM     18  C   UNL A   1      40.750  30.805  32.923  1.00  0.00     0.074 A 
ATOM     19  C   UNL A   1      39.640  31.681  32.629  1.00  0.00     0.031 C 
ATOM     20  C   UNL A   1      40.719  26.724  27.910  1.00  0.00     0.029 A 
ATOM     21  C   UNL A   1      41.731  26.819  28.952  1.00  0.00     0.049 A 
ATOM     22  H   UNL A   1      41.795  28.157  30.548  1.00  0.00     0.167 HD
ATOM     23  C   UNL A   1      41.489  30.865  34.054  1.00  0.00     0.037 A 
ATOM     24  C   UNL A   1      42.815  26.029  29.070  1.00  0.00     0.037 A 
ATOM     25  C   UNL A   1      42.605  29.996  34.313  1.00  0.00     0.049 A 
ATOM     26  C   UNL A   1      43.705  26.214  30.260  1.00  0.00     0.074 A 
ATOM     27  C   UNL A   1      43.430  29.957  35.420  1.00  0.00     0.029 A 
ATOM     28  N   UNL A   1      43.062  29.024  33.433  1.00  0.00    -0.354 N 
ATOM     29  N   UNL A   1      43.577  27.056  31.258  1.00  0.00    -0.248 NA
ATOM     30  C   UNL A   1      44.865  25.322  30.356  1.00  0.00     0.031 C 
ATOM     31  C   UNL A   1      44.426  29.004  35.181  1.00  0.00     0.029 A 
ATOM     32  C   UNL A   1      44.182  28.403  33.956  1.00  0.00     0.049 A 
ATOM     33  H   UNL A   1      42.651  28.809  32.564  1.00  0.00     0.167 HD
ATOM     34  C   UNL A   1      44.621  26.771  32.125  1.00  0.00     0.074 A 
ATOM     35  C   UNL A   1      45.375  25.685  31.524  1.00  0.00     0.031 C 
ATOM     36  C   UNL A   1      44.916  27.336  33.321  1.00  0.00     0.037 A 
BRANCH  23  37
ATOM     37  C   UNL A   1      41.125  31.922  35.059  1.00  0.00     0.058 A 
ATOM     38  C   UNL A   1      40.114  31.724  36.014  1.00  0.00     0.135 A 
ATOM     39  C   UNL A   1      41.785  33.161  35.053  1.00  0.00     0.135 A 
ATOM     40  F   UNL A   1      39.431  30.568  36.049  1.00  0.00    -0.206 F 
ATOM     41  C   UNL A   1      39.750  32.727  36.908  1.00  0.00     0.059 A 
ATOM     42  C   UNL A   1      41.456  34.168  35.956  1.00  0.00     0.059 A 
ATOM     43  F   UNL A   1      42.751  33.408  34.154  1.00  0.00    -0.206 F 
ATOM     44  C   UNL A   1      40.426  33.948  36.868  1.00  0.00     0.060 A 
BRANCH  44  45
ATOM     45  S   UNL A   1      39.940  35.242  38.029  1.00  0.00     0.124 S 
ATOM     46  O   UNL A   1      39.725  36.373  37.131  1.00  0.00    -0.237 OA
ATOM     47  O   UNL A   1      38.739  34.680  38.637  1.00  0.00    -0.237 OA
ATOM     48  O   UNL A   1      41.094  35.356  38.915  1.00  0.00    -0.744 OA
ENDBRANCH  44  45
ENDBRANCH  23  37
BRANCH  24  49
ATOM     49  C   UNL A   1      43.128  25.008  28.041  1.00  0.00     0.058 A 
ATOM     50  C   UNL A   1      44.007  25.265  26.980  1.00  0.00     0.135 A 
ATOM     51  C   UNL A   1      42.522  23.747  28.099  1.00  0.00     0.135 A 
ATOM     52  F   UNL A   1      44.574  26.474  26.857  1.00  0.00    -0.206 F 
ATOM     53  C   UNL A   1      44.299  24.292  26.027  1.00  0.00     0.059 A 
ATOM     54  C   UNL A   1      42.812  22.753  27.170  1.00  0.00     0.059 A 
ATOM     55  F   UNL A   1      41.629  23.477  29.063  1.00  0.00    -0.206 F 
ATOM     56  C   UNL A   1      43.706  23.033  26.139  1.00  0.00     0.060 A 
BRANCH  56  57
ATOM     57  S   UNL A   1      44.159  21.726  24.976  1.00  0.00     0.124 S 
ATOM     58  O   UNL A   1      43.151  20.714  25.263  1.00  0.00    -0.237 OA
ATOM     59  O   UNL A   1      44.043  22.397  23.685  1.00  0.00    -0.237 OA
ATOM     60  O   UNL A   1      45.524  21.396  25.376  1.00  0.00    -0.744 OA
ENDBRANCH  56  57
ENDBRANCH  24  49
BRANCH  36  61
ATOM     61  C   UNL A   1      46.074  26.750  34.072  1.00  0.00     0.058 A 
ATOM     62  C   UNL A   1      45.919  25.665  34.947  1.00  0.00     0.135 A 
ATOM     63  C   UNL A   1      47.361  27.280  33.893  1.00  0.00     0.135 A 
ATOM     64  F   UNL A   1      44.704  25.135  35.160  1.00  0.00    -0.206 F 
ATOM     65  C   UNL A   1      47.001  25.144  35.645  1.00  0.00     0.059 A 
ATOM     66  C   UNL A   1      48.462  26.753  34.555  1.00  0.00     0.059 A 
ATOM     67  F   UNL A   1      47.558  28.316  33.061  1.00  0.00    -0.206 F 
ATOM     68  C   UNL A   1      48.268  25.696  35.442  1.00  0.00     0.060 A 
BRANCH  68  69
ATOM     69  S   UNL A   1      49.667  25.001  36.342  1.00  0.00     0.124 S 
ATOM     70  O   UNL A   1      49.572  25.705  37.618  1.00  0.00    -0.237 OA
ATOM     71  O   UNL A   1      49.342  23.579  36.376  1.00  0.00    -0.237 OA
ATOM     72  O   UNL A   1      50.814  25.356  35.512  1.00  0.00    -0.744 OA
ENDBRANCH  68  69
ENDBRANCH  36  61
ENDBRANCH  10  11
ENDBRANCH   3   5
ENDBRANCH   2   3
ENDBRANCH   1   2
BRANCH   1  73
ATOM     73  C   UNL A   1      33.185  28.185  26.923  1.00  0.00     0.275 C 
BRANCH  73  74
ATOM     74  O   UNL A   1      33.715  27.115  26.119  1.00  0.00    -0.457 OA
BRANCH  74  75
ATOM     75  C   UNL A   1      32.797  26.241  25.619  1.00  0.00     0.357 C 
ATOM     76  O   UNL A   1      31.679  26.533  25.214  1.00  0.00    -0.244 OA
BRANCH  75  77
ATOM     77  C   UNL A   1      33.359  24.863  25.589  1.00  0.00     0.154 A 
ATOM     78  C   UNL A   1      34.717  24.664  25.538  1.00  0.00     0.065 A 
ATOM     79  N   UNL A   1      32.458  23.864  25.683  1.00  0.00    -0.206 NA
ATOM     80  C   UNL A   1      35.119  23.350  25.638  1.00  0.00     0.077 A 
ATOM     81  C   UNL A   1      32.926  22.611  25.695  1.00  0.00     0.230 A 
ATOM     82  N   UNL A   1      34.232  22.330  25.715  1.00  0.00    -0.213 NA
BRANCH  80  83
ATOM     83  C   UNL A   1      36.533  22.951  25.754  1.00  0.00     0.000 A 
ATOM     84  C   UNL A   1      36.948  21.655  25.398  1.00  0.00     0.010 A 
ATOM     85  C   UNL A   1      37.505  23.831  26.266  1.00  0.00     0.010 A 
ATOM     86  C   UNL A   1      38.269  21.244  25.580  1.00  0.00     0.001 A 
ATOM     87  C   UNL A   1      38.827  23.420  26.450  1.00  0.00     0.001 A 
ATOM     88  C   UNL A   1      39.201  22.122  26.125  1.00  0.00     0.000 A 
ENDBRANCH  80  83
BRANCH  81  89
ATOM     89  N   UNL A   1      32.065  21.524  25.782  1.00  0.00    -0.300 N 
ATOM     90  H   UNL A   1      31.212  21.647  26.258  1.00  0.00     0.172 HD
BRANCH  89  91
ATOM     91  C   UNL A   1      32.325  20.317  25.254  1.00  0.00     0.190 A 
ATOM     92  N   UNL A   1      32.517  19.229  25.959  1.00  0.00    -0.220 NA
ATOM     93  S   UNL A   1      32.379  20.064  23.549  1.00  0.00    -0.097 S 
ATOM     94  C   UNL A   1      32.983  18.203  25.168  1.00  0.00     0.084 A 
ATOM     95  C   UNL A   1      33.037  18.487  23.806  1.00  0.00     0.056 A 
ATOM     96  C   UNL A   1      33.429  16.947  25.623  1.00  0.00     0.030 A 
ATOM     97  C   UNL A   1      33.567  17.569  22.886  1.00  0.00     0.021 A 
ATOM     98  C   UNL A   1      34.010  16.049  24.730  1.00  0.00     0.002 A 
ATOM     99  C   UNL A   1      34.082  16.360  23.377  1.00  0.00     0.002 A 
ENDBRANCH  89  91
ENDBRANCH  81  89
ENDBRANCH  75  77
ENDBRANCH  74  75
ENDBRANCH  73  74
ENDBRANCH   1  73
TORSDOF 17
ENDMDL
MODEL 3
REMARK VINA RESULT:     -12.6      0.649      8.123
REMARK SMILES O=C(OCCOC(=O)c1cc(-c2ccccc2)nc(Nc2nc3ccccc3s2)n1)c1ccc(-c2c3nc(c(-c4c(F)cc(S(=O)(=O)[O-])cc4F)c4ccc([nH]4)c(-c4c(F)cc(S(=O)(=O)[O-])cc4F)c4nc(c(-c5c(F)cc(S(=O)(=O)[O-])cc5F)c5ccc2[nH]5)C=C4)C=C3)cc1
REMARK SMILES IDX 4 1 3 2 2 3 1 4 31 5 32 6 96 7 33 8 95 9 34 10 35 11 36 12
REMARK SMILES IDX 89 13 37 14 94 15 88 16 90 17 38 18 93 19 87 20 86 21 39 23
REMARK SMILES IDX 73 24 52 25 72 26 53 27 56 28 71 29 91 30 54 31 55 32 70 34
REMARK SMILES IDX 92 35 57 36 40 37 41 38 50 39 42 40 43 41 49 42 51 43 44 44
REMARK SMILES IDX 45 45 46 46 47 47 48 48 74 49 75 50 84 51 76 52 77 53 83 54
REMARK SMILES IDX 85 55 78 56 79 57 80 58 81 59 82 60 58 61 59 62 68 63 60 64
REMARK SMILES IDX 61 65 67 66 69 67 62 68 63 69 64 70 65 71 66 72 5 73 6 74
REMARK SMILES IDX 7 75 8 76 9 77 10 78 30 79 11 80 19 81 18 82 12 83 13 84
REMARK SMILES IDX 17 85 14 86 16 87 15 88 20 89 21 91 22 92 29 93 23 94 28 95
REMARK SMILES IDX 24 96 27 97 25 98 26 99
REMARK H PARENT 90 22 56 33 20 90
REMARK Flexibility Score: inf
ROOT
ATOM      1  C   UNL A   1      39.181  22.306  26.254  1.00  0.00     0.275 C 
ENDROOT
BRANCH   1   2
ATOM      2  O   UNL A   1      39.323  23.542  26.965  1.00  0.00    -0.458 OA
BRANCH   2   3
ATOM      3  C   UNL A   1      40.365  24.401  27.046  1.00  0.00     0.338 C 
ATOM      4  O   UNL A   1      41.317  24.196  26.301  1.00  0.00    -0.246 OA
BRANCH   3   5
ATOM      5  C   UNL A   1      40.445  25.561  27.996  1.00  0.00     0.060 A 
ATOM      6  C   UNL A   1      41.527  26.428  28.135  1.00  0.00     0.016 A 
ATOM      7  C   UNL A   1      39.331  25.787  28.824  1.00  0.00     0.016 A 
ATOM      8  C   UNL A   1      41.485  27.502  29.025  1.00  0.00     0.010 A 
ATOM      9  C   UNL A   1      39.263  26.876  29.699  1.00  0.00     0.010 A 
ATOM     10  C   UNL A   1      40.361  27.728  29.818  1.00  0.00    -0.014 A 
BRANCH  10  11
ATOM     11  C   UNL A   1      40.459  28.736  30.894  1.00  0.00     0.031 A 
ATOM     12  C   UNL A   1      39.512  29.902  30.852  1.00  0.00     0.074 A 
ATOM     13  C   UNL A   1      41.270  28.530  31.949  1.00  0.00     0.049 A 
ATOM     14  N   UNL A   1      39.293  30.817  31.757  1.00  0.00    -0.248 NA
ATOM     15  C   UNL A   1      38.672  30.034  29.648  1.00  0.00     0.031 C 
ATOM     16  C   UNL A   1      42.167  27.385  32.115  1.00  0.00     0.029 A 
ATOM     17  N   UNL A   1      41.462  29.262  33.090  1.00  0.00    -0.354 N 
ATOM     18  C   UNL A   1      38.271  31.609  31.247  1.00  0.00     0.074 A 
ATOM     19  C   UNL A   1      37.958  31.111  29.928  1.00  0.00     0.031 C 
ATOM     20  C   UNL A   1      42.835  27.505  33.276  1.00  0.00     0.029 A 
ATOM     21  C   UNL A   1      42.401  28.727  33.940  1.00  0.00     0.049 A 
ATOM     22  H   UNL A   1      40.972  30.094  33.284  1.00  0.00     0.167 HD
ATOM     23  C   UNL A   1      37.630  32.639  31.844  1.00  0.00     0.037 A 
ATOM     24  C   UNL A   1      42.853  29.181  35.123  1.00  0.00     0.037 A 
ATOM     25  C   UNL A   1      37.977  33.131  33.150  1.00  0.00     0.049 A 
ATOM     26  C   UNL A   1      42.228  30.414  35.699  1.00  0.00     0.074 A 
ATOM     27  C   UNL A   1      37.404  34.166  33.863  1.00  0.00     0.029 A 
ATOM     28  N   UNL A   1      39.012  32.628  33.929  1.00  0.00    -0.354 N 
ATOM     29  N   UNL A   1      41.254  31.145  35.210  1.00  0.00    -0.248 NA
ATOM     30  C   UNL A   1      42.740  30.864  36.997  1.00  0.00     0.031 C 
ATOM     31  C   UNL A   1      38.133  34.330  35.046  1.00  0.00     0.029 A 
ATOM     32  C   UNL A   1      39.118  33.355  35.100  1.00  0.00     0.049 A 
ATOM     33  H   UNL A   1      39.586  31.866  33.682  1.00  0.00     0.167 HD
ATOM     34  C   UNL A   1      41.007  32.124  36.161  1.00  0.00     0.074 A 
ATOM     35  C   UNL A   1      41.944  31.894  37.246  1.00  0.00     0.031 C 
ATOM     36  C   UNL A   1      40.074  33.107  36.151  1.00  0.00     0.037 A 
BRANCH  23  37
ATOM     37  C   UNL A   1      36.528  33.306  31.071  1.00  0.00     0.058 A 
ATOM     38  C   UNL A   1      36.789  34.110  29.948  1.00  0.00     0.135 A 
ATOM     39  C   UNL A   1      35.191  33.155  31.469  1.00  0.00     0.135 A 
ATOM     40  F   UNL A   1      38.051  34.312  29.537  1.00  0.00    -0.206 F 
ATOM     41  C   UNL A   1      35.766  34.765  29.267  1.00  0.00     0.059 A 
ATOM     42  C   UNL A   1      34.150  33.778  30.787  1.00  0.00     0.059 A 
ATOM     43  F   UNL A   1      34.886  32.407  32.541  1.00  0.00    -0.206 F 
ATOM     44  C   UNL A   1      34.449  34.594  29.697  1.00  0.00     0.060 A 
BRANCH  44  45
ATOM     45  S   UNL A   1      33.133  35.454  28.810  1.00  0.00     0.124 S 
ATOM     46  O   UNL A   1      32.333  35.980  29.912  1.00  0.00    -0.237 OA
ATOM     47  O   UNL A   1      33.875  36.445  28.037  1.00  0.00    -0.237 OA
ATOM     48  O   UNL A   1      32.503  34.395  28.027  1.00  0.00    -0.744 OA
ENDBRANCH  44  45
ENDBRANCH  23  37
BRANCH  24  49
ATOM     49  C   UNL A   1      43.951  28.485  35.836  1.00  0.00     0.058 A 
ATOM     50  C   UNL A   1      45.300  28.786  35.604  1.00  0.00     0.135 A 
ATOM     51  C   UNL A   1      43.656  27.477  36.763  1.00  0.00     0.135 A 
ATOM     52  F   UNL A   1      45.632  29.712  34.691  1.00  0.00    -0.206 F 
ATOM     53  C   UNL A   1      46.320  28.132  36.289  1.00  0.00     0.059 A 
ATOM     54  C   UNL A   1      44.656  26.822  37.474  1.00  0.00     0.059 A 
ATOM     55  F   UNL A   1      42.382  27.114  36.974  1.00  0.00    -0.206 F 
ATOM     56  C   UNL A   1      45.986  27.158  37.234  1.00  0.00     0.060 A 
BRANCH  56  57
ATOM     57  S   UNL A   1      47.291  26.379  38.211  1.00  0.00     0.124 S 
ATOM     58  O   UNL A   1      47.221  24.998  37.748  1.00  0.00    -0.237 OA
ATOM     59  O   UNL A   1      48.478  27.129  37.809  1.00  0.00    -0.237 OA
ATOM     60  O   UNL A   1      46.852  26.613  39.584  1.00  0.00    -0.744 OA
ENDBRANCH  56  57
ENDBRANCH  24  49
BRANCH  36  61
ATOM     61  C   UNL A   1      39.996  33.970  37.374  1.00  0.00     0.058 A 
ATOM     62  C   UNL A   1      40.753  35.143  37.504  1.00  0.00     0.135 A 
ATOM     63  C   UNL A   1      39.133  33.617  38.424  1.00  0.00     0.135 A 
ATOM     64  F   UNL A   1      41.602  35.512  36.532  1.00  0.00    -0.206 F 
ATOM     65  C   UNL A   1      40.679  35.924  38.651  1.00  0.00     0.059 A 
ATOM     66  C   UNL A   1      39.019  34.401  39.564  1.00  0.00     0.059 A 
ATOM     67  F   UNL A   1      38.385  32.505  38.341  1.00  0.00    -0.206 F 
ATOM     68  C   UNL A   1      39.810  35.543  39.675  1.00  0.00     0.060 A 
BRANCH  68  69
ATOM     69  S   UNL A   1      39.711  36.572  41.152  1.00  0.00     0.124 S 
ATOM     70  O   UNL A   1      41.015  36.332  41.762  1.00  0.00    -0.237 OA
ATOM     71  O   UNL A   1      39.509  37.905  40.592  1.00  0.00    -0.237 OA
ATOM     72  O   UNL A   1      38.568  36.022  41.874  1.00  0.00    -0.744 OA
ENDBRANCH  68  69
ENDBRANCH  36  61
ENDBRANCH  10  11
ENDBRANCH   3   5
ENDBRANCH   2   3
ENDBRANCH   1   2
BRANCH   1  73
ATOM     73  C   UNL A   1      37.884  22.181  25.452  1.00  0.00     0.275 C 
BRANCH  73  74
ATOM     74  O   UNL A   1      37.451  23.417  24.855  1.00  0.00    -0.457 OA
BRANCH  74  75
ATOM     75  C   UNL A   1      36.440  23.312  23.947  1.00  0.00     0.357 C 
ATOM     76  O   UNL A   1      36.565  22.995  22.773  1.00  0.00    -0.244 OA
BRANCH  75  77
ATOM     77  C   UNL A   1      35.132  23.601  24.597  1.00  0.00     0.154 A 
ATOM     78  C   UNL A   1      34.892  24.826  25.169  1.00  0.00     0.065 A 
ATOM     79  N   UNL A   1      34.212  22.617  24.518  1.00  0.00    -0.206 NA
ATOM     80  C   UNL A   1      33.606  25.014  25.629  1.00  0.00     0.077 A 
ATOM     81  C   UNL A   1      33.012  22.850  25.060  1.00  0.00     0.230 A 
ATOM     82  N   UNL A   1      32.672  24.034  25.577  1.00  0.00    -0.213 NA
BRANCH  80  83
ATOM     83  C   UNL A   1      33.117  26.309  26.135  1.00  0.00     0.000 A 
ATOM     84  C   UNL A   1      31.779  26.466  26.539  1.00  0.00     0.010 A 
ATOM     85  C   UNL A   1      33.953  27.441  26.187  1.00  0.00     0.010 A 
ATOM     86  C   UNL A   1      31.288  27.708  26.944  1.00  0.00     0.001 A 
ATOM     87  C   UNL A   1      33.462  28.684  26.591  1.00  0.00     0.001 A 
ATOM     88  C   UNL A   1      32.126  28.818  26.949  1.00  0.00     0.000 A 
ENDBRANCH  80  83
BRANCH  81  89
ATOM     89  N   UNL A   1      32.011  21.887  25.029  1.00  0.00    -0.300 N 
ATOM     90  H   UNL A   1      31.092  22.169  25.243  1.00  0.00     0.172 HD
BRANCH  89  91
ATOM     91  C   UNL A   1      32.220  20.596  24.722  1.00  0.00     0.190 A 
ATOM     92  N   UNL A   1      32.265  19.627  25.603  1.00  0.00    -0.220 NA
ATOM     93  S   UNL A   1      32.401  20.068  23.092  1.00  0.00    -0.097 S 
ATOM     94  C   UNL A   1      32.715  18.459  25.031  1.00  0.00     0.084 A 
ATOM     95  C   UNL A   1      32.908  18.515  23.653  1.00  0.00     0.056 A 
ATOM     96  C   UNL A   1      33.021  17.268  25.717  1.00  0.00     0.030 A 
ATOM     97  C   UNL A   1      33.442  17.428  22.943  1.00  0.00     0.021 A 
ATOM     98  C   UNL A   1      33.604  16.202  25.034  1.00  0.00     0.002 A 
ATOM     99  C   UNL A   1      33.816  16.284  23.663  1.00  0.00     0.002 A 
ENDBRANCH  89  91
ENDBRANCH  81  89
ENDBRANCH  75  77
ENDBRANCH  74  75
ENDBRANCH  73  74
ENDBRANCH   1  73
TORSDOF 17
ENDMDL
