MODEL 1
REMARK VINA RESULT:     -11.2      0.000      0.000
REMARK SMILES Cc1nsc(N[C@H](C)c2cccs2)c1C(=O)OCCOC(=O)c1ccc(-c2c3nc(c(-c4c(F)cc(S(=O)(=O)[O-])cc4F)c4ccc([nH]4)c(-c4c(F)cc(S(=O)(=O)[O-])cc4F)c4nc(c(-c5c(F)cc(S(=O)(=O)[O-])cc5F)c5ccc2[nH]5)C=C4)C=C3)cc1
REMARK SMILES IDX 18 1 17 2 15 3 16 4 14 5 1 6 2 7 3 8 4 9 5 10 6 11 7 13 8 14
REMARK SMILES IDX 9 15 10 16 13 17 11 18 12 19 19 20 20 21 21 22 22 23 23 24
REMARK SMILES IDX 24 25 88 26 25 27 87 28 26 29 27 30 28 31 81 32 29 33 86 34
REMARK SMILES IDX 80 35 82 36 30 37 85 38 79 39 78 40 31 42 65 43 44 44 64 45
REMARK SMILES IDX 45 46 48 47 63 48 83 49 46 50 47 51 62 53 84 54 49 55 32 56
REMARK SMILES IDX 33 57 42 58 34 59 35 60 41 61 43 62 36 63 37 64 38 65 39 66
REMARK SMILES IDX 40 67 66 68 67 69 76 70 68 71 69 72 75 73 77 74 70 75 71 76
REMARK SMILES IDX 72 77 73 78 74 79 50 80 51 81 60 82 52 83 53 84 59 85 61 86
REMARK SMILES IDX 54 87 55 88 56 89 57 90 58 91
REMARK H PARENT 6 12 82 41 48 52
REMARK Flexibility Score: inf
ROOT
ATOM      1  C   UNL A   1      37.007  22.240  24.204  1.00  0.00     0.275 C 
ENDROOT
BRANCH   1   2
ATOM      2  O   UNL A   1      35.646  21.790  24.344  1.00  0.00    -0.458 OA
BRANCH   2   3
ATOM      3  C   UNL A   1      34.673  22.572  23.788  1.00  0.00     0.343 C 
ATOM      4  O   UNL A   1      34.836  23.225  22.758  1.00  0.00    -0.246 OA
BRANCH   3   5
ATOM      5  C   UNL A   1      33.389  22.455  24.474  1.00  0.00     0.117 A 
ATOM      6  C   UNL A   1      33.159  19.843  24.560  1.00  0.00     0.069 C 
ATOM      7  C   UNL A   1      32.674  21.234  24.775  1.00  0.00     0.068 A 
ATOM      8  N   UNL A   1      31.461  21.376  25.307  1.00  0.00    -0.195 NA
ATOM      9  S   UNL A   1      31.091  22.980  25.365  1.00  0.00    -0.018 S 
ATOM     10  C   UNL A   1      32.640  23.560  24.880  1.00  0.00     0.124 A 
BRANCH  10  11
ATOM     11  N   UNL A   1      33.040  24.866  24.867  1.00  0.00    -0.368 N 
ATOM     12  H   UNL A   1      33.823  25.098  25.416  1.00  0.00     0.162 HD
BRANCH  11  13
ATOM     13  C   UNL A   1      32.410  25.952  24.110  1.00  0.00     0.117 C 
ATOM     14  C   UNL A   1      33.357  26.293  22.942  1.00  0.00     0.037 C 
BRANCH  13  15
ATOM     15  C   UNL A   1      32.079  27.210  24.906  1.00  0.00     0.027 A 
ATOM     16  C   UNL A   1      31.744  28.475  24.452  1.00  0.00     0.017 A 
ATOM     17  S   UNL A   1      32.170  27.194  26.627  1.00  0.00    -0.147 S 
ATOM     18  C   UNL A   1      31.619  29.429  25.501  1.00  0.00     0.012 A 
ATOM     19  C   UNL A   1      31.790  28.855  26.738  1.00  0.00     0.065 A 
ENDBRANCH  13  15
ENDBRANCH  11  13
ENDBRANCH  10  11
ENDBRANCH   3   5
ENDBRANCH   2   3
ENDBRANCH   1   2
BRANCH   1  20
ATOM     20  C   UNL A   1      37.887  21.632  25.291  1.00  0.00     0.275 C 
BRANCH  20  21
ATOM     21  O   UNL A   1      38.442  22.651  26.125  1.00  0.00    -0.458 OA
BRANCH  21  22
ATOM     22  C   UNL A   1      39.720  22.429  26.509  1.00  0.00     0.338 C 
ATOM     23  O   UNL A   1      40.233  21.349  26.745  1.00  0.00    -0.246 OA
BRANCH  22  24
ATOM     24  C   UNL A   1      40.398  23.708  26.734  1.00  0.00     0.060 A 
ATOM     25  C   UNL A   1      41.480  23.730  27.619  1.00  0.00     0.016 A 
ATOM     26  C   UNL A   1      39.786  24.883  26.281  1.00  0.00     0.016 A 
ATOM     27  C   UNL A   1      41.847  24.936  28.186  1.00  0.00     0.010 A 
ATOM     28  C   UNL A   1      40.159  26.084  26.840  1.00  0.00     0.010 A 
ATOM     29  C   UNL A   1      41.117  26.081  27.856  1.00  0.00    -0.014 A 
BRANCH  29  30
ATOM     30  C   UNL A   1      41.320  27.277  28.657  1.00  0.00     0.031 A 
ATOM     31  C   UNL A   1      42.562  28.043  28.378  1.00  0.00     0.074 A 
ATOM     32  C   UNL A   1      40.339  27.721  29.469  1.00  0.00     0.049 A 
ATOM     33  N   UNL A   1      43.476  28.440  29.203  1.00  0.00    -0.248 NA
ATOM     34  C   UNL A   1      42.861  28.335  26.966  1.00  0.00     0.031 C 
ATOM     35  C   UNL A   1      38.968  27.204  29.592  1.00  0.00     0.029 A 
ATOM     36  N   UNL A   1      40.316  28.828  30.255  1.00  0.00    -0.354 N 
ATOM     37  C   UNL A   1      44.369  29.193  28.445  1.00  0.00     0.074 A 
ATOM     38  C   UNL A   1      44.019  28.985  27.063  1.00  0.00     0.031 C 
ATOM     39  C   UNL A   1      38.195  28.139  30.186  1.00  0.00     0.029 A 
ATOM     40  C   UNL A   1      39.040  29.248  30.593  1.00  0.00     0.049 A 
ATOM     41  H   UNL A   1      41.131  29.290  30.556  1.00  0.00     0.167 HD
ATOM     42  C   UNL A   1      45.216  30.104  28.997  1.00  0.00     0.037 A 
ATOM     43  C   UNL A   1      38.695  30.474  31.054  1.00  0.00     0.037 A 
ATOM     44  C   UNL A   1      45.411  29.888  30.404  1.00  0.00     0.049 A 
ATOM     45  C   UNL A   1      39.927  31.110  31.593  1.00  0.00     0.074 A 
ATOM     46  C   UNL A   1      45.915  28.847  31.158  1.00  0.00     0.029 A 
ATOM     47  N   UNL A   1      44.743  30.696  31.290  1.00  0.00    -0.354 N 
ATOM     48  N   UNL A   1      40.584  30.667  32.632  1.00  0.00    -0.248 NA
ATOM     49  C   UNL A   1      40.688  31.979  30.707  1.00  0.00     0.031 C 
ATOM     50  C   UNL A   1      45.123  28.827  32.342  1.00  0.00     0.029 A 
ATOM     51  C   UNL A   1      44.204  29.874  32.250  1.00  0.00     0.049 A 
ATOM     52  H   UNL A   1      44.666  31.677  31.248  1.00  0.00     0.167 HD
ATOM     53  C   UNL A   1      41.925  30.864  32.327  1.00  0.00     0.074 A 
ATOM     54  C   UNL A   1      41.920  31.762  31.175  1.00  0.00     0.031 C 
ATOM     55  C   UNL A   1      42.904  30.070  32.855  1.00  0.00     0.037 A 
BRANCH  42  56
ATOM     56  C   UNL A   1      45.617  31.375  28.299  1.00  0.00     0.058 A 
ATOM     57  C   UNL A   1      44.670  32.390  28.069  1.00  0.00     0.135 A 
ATOM     58  C   UNL A   1      46.846  31.509  27.612  1.00  0.00     0.135 A 
ATOM     59  F   UNL A   1      43.464  32.344  28.656  1.00  0.00    -0.206 F 
ATOM     60  C   UNL A   1      44.909  33.439  27.179  1.00  0.00     0.059 A 
ATOM     61  C   UNL A   1      47.126  32.573  26.765  1.00  0.00     0.059 A 
ATOM     62  F   UNL A   1      47.789  30.559  27.659  1.00  0.00    -0.206 F 
ATOM     63  C   UNL A   1      46.135  33.509  26.518  1.00  0.00     0.060 A 
BRANCH  63  64
ATOM     64  S   UNL A   1      46.398  34.776  25.265  1.00  0.00     0.124 S 
ATOM     65  O   UNL A   1      47.795  34.545  24.912  1.00  0.00    -0.237 OA
ATOM     66  O   UNL A   1      45.414  34.414  24.250  1.00  0.00    -0.237 OA
ATOM     67  O   UNL A   1      46.124  36.018  25.981  1.00  0.00    -0.744 OA
ENDBRANCH  63  64
ENDBRANCH  42  56
BRANCH  43  68
ATOM     68  C   UNL A   1      37.479  31.225  30.646  1.00  0.00     0.058 A 
ATOM     69  C   UNL A   1      36.722  31.971  31.562  1.00  0.00     0.135 A 
ATOM     70  C   UNL A   1      37.153  31.402  29.283  1.00  0.00     0.135 A 
ATOM     71  F   UNL A   1      36.995  31.902  32.874  1.00  0.00    -0.206 F 
ATOM     72  C   UNL A   1      35.701  32.839  31.150  1.00  0.00     0.059 A 
ATOM     73  C   UNL A   1      36.132  32.242  28.850  1.00  0.00     0.059 A 
ATOM     74  F   UNL A   1      37.876  30.817  28.314  1.00  0.00    -0.206 F 
ATOM     75  C   UNL A   1      35.417  32.970  29.789  1.00  0.00     0.060 A 
BRANCH  75  76
ATOM     76  S   UNL A   1      34.178  34.167  29.241  1.00  0.00     0.124 S 
ATOM     77  O   UNL A   1      35.010  35.273  28.782  1.00  0.00    -0.237 OA
ATOM     78  O   UNL A   1      33.472  33.424  28.203  1.00  0.00    -0.237 OA
ATOM     79  O   UNL A   1      33.403  34.432  30.451  1.00  0.00    -0.744 OA
ENDBRANCH  75  76
ENDBRANCH  43  68
BRANCH  55  80
ATOM     80  C   UNL A   1      42.527  29.119  33.964  1.00  0.00     0.058 A 
ATOM     81  C   UNL A   1      41.885  27.888  33.742  1.00  0.00     0.135 A 
ATOM     82  C   UNL A   1      42.981  29.371  35.267  1.00  0.00     0.135 A 
ATOM     83  F   UNL A   1      41.530  27.514  32.507  1.00  0.00    -0.206 F 
ATOM     84  C   UNL A   1      41.660  26.971  34.769  1.00  0.00     0.059 A 
ATOM     85  C   UNL A   1      42.795  28.456  36.305  1.00  0.00     0.059 A 
ATOM     86  F   UNL A   1      43.670  30.493  35.533  1.00  0.00    -0.206 F 
ATOM     87  C   UNL A   1      42.121  27.263  36.049  1.00  0.00     0.060 A 
BRANCH  87  88
ATOM     88  S   UNL A   1      41.911  26.033  37.355  1.00  0.00     0.124 S 
ATOM     89  O   UNL A   1      40.511  26.215  37.726  1.00  0.00    -0.237 OA
ATOM     90  O   UNL A   1      42.226  24.782  36.669  1.00  0.00    -0.237 OA
ATOM     91  O   UNL A   1      42.883  26.438  38.366  1.00  0.00    -0.744 OA
ENDBRANCH  87  88
ENDBRANCH  55  80
ENDBRANCH  29  30
ENDBRANCH  22  24
ENDBRANCH  21  22
ENDBRANCH  20  21
ENDBRANCH   1  20
TORSDOF 17
ENDMDL
MODEL 2
REMARK VINA RESULT:     -11.1      1.357      3.109
REMARK SMILES Cc1nsc(N[C@H](C)c2cccs2)c1C(=O)OCCOC(=O)c1ccc(-c2c3nc(c(-c4c(F)cc(S(=O)(=O)[O-])cc4F)c4ccc([nH]4)c(-c4c(F)cc(S(=O)(=O)[O-])cc4F)c4nc(c(-c5c(F)cc(S(=O)(=O)[O-])cc5F)c5ccc2[nH]5)C=C4)C=C3)cc1
REMARK SMILES IDX 18 1 17 2 15 3 16 4 14 5 1 6 2 7 3 8 4 9 5 10 6 11 7 13 8 14
REMARK SMILES IDX 9 15 10 16 13 17 11 18 12 19 19 20 20 21 21 22 22 23 23 24
REMARK SMILES IDX 24 25 88 26 25 27 87 28 26 29 27 30 28 31 81 32 29 33 86 34
REMARK SMILES IDX 80 35 82 36 30 37 85 38 79 39 78 40 31 42 65 43 44 44 64 45
REMARK SMILES IDX 45 46 48 47 63 48 83 49 46 50 47 51 62 53 84 54 49 55 32 56
REMARK SMILES IDX 33 57 42 58 34 59 35 60 41 61 43 62 36 63 37 64 38 65 39 66
REMARK SMILES IDX 40 67 66 68 67 69 76 70 68 71 69 72 75 73 77 74 70 75 71 76
REMARK SMILES IDX 72 77 73 78 74 79 50 80 51 81 60 82 52 83 53 84 59 85 61 86
REMARK SMILES IDX 54 87 55 88 56 89 57 90 58 91
REMARK H PARENT 6 12 82 41 48 52
REMARK Flexibility Score: inf
ROOT
ATOM      1  C   UNL A   1      36.989  21.713  24.370  1.00  0.00     0.275 C 
ENDROOT
BRANCH   1   2
ATOM      2  O   UNL A   1      35.792  21.141  24.929  1.00  0.00    -0.458 OA
BRANCH   2   3
ATOM      3  C   UNL A   1      34.936  21.996  25.566  1.00  0.00     0.343 C 
ATOM      4  O   UNL A   1      34.891  22.124  26.788  1.00  0.00    -0.246 OA
BRANCH   3   5
ATOM      5  C   UNL A   1      34.169  22.825  24.639  1.00  0.00     0.117 A 
ATOM      6  C   UNL A   1      34.877  25.210  25.475  1.00  0.00     0.069 C 
ATOM      7  C   UNL A   1      34.093  24.270  24.626  1.00  0.00     0.068 A 
ATOM      8  N   UNL A   1      33.237  24.809  23.760  1.00  0.00    -0.195 NA
ATOM      9  S   UNL A   1      32.414  23.598  23.004  1.00  0.00    -0.018 S 
ATOM     10  C   UNL A   1      33.334  22.294  23.655  1.00  0.00     0.124 A 
BRANCH  10  11
ATOM     11  N   UNL A   1      33.235  20.982  23.291  1.00  0.00    -0.368 N 
ATOM     12  H   UNL A   1      33.834  20.670  22.575  1.00  0.00     0.162 HD
BRANCH  11  13
ATOM     13  C   UNL A   1      32.318  19.995  23.871  1.00  0.00     0.117 C 
ATOM     14  C   UNL A   1      31.859  20.554  25.233  1.00  0.00     0.037 C 
BRANCH  13  15
ATOM     15  C   UNL A   1      32.881  18.588  24.040  1.00  0.00     0.027 A 
ATOM     16  C   UNL A   1      33.391  17.725  23.084  1.00  0.00     0.017 A 
ATOM     17  S   UNL A   1      32.870  17.831  25.588  1.00  0.00    -0.147 S 
ATOM     18  C   UNL A   1      33.715  16.441  23.607  1.00  0.00     0.012 A 
ATOM     19  C   UNL A   1      33.513  16.377  24.966  1.00  0.00     0.065 A 
ENDBRANCH  13  15
ENDBRANCH  11  13
ENDBRANCH  10  11
ENDBRANCH   3   5
ENDBRANCH   2   3
ENDBRANCH   1   2
BRANCH   1  20
ATOM     20  C   UNL A   1      38.201  21.364  25.228  1.00  0.00     0.275 C 
BRANCH  20  21
ATOM     21  O   UNL A   1      38.609  22.487  26.011  1.00  0.00    -0.458 OA
BRANCH  21  22
ATOM     22  C   UNL A   1      39.806  22.340  26.625  1.00  0.00     0.338 C 
ATOM     23  O   UNL A   1      40.277  21.306  27.064  1.00  0.00    -0.246 OA
BRANCH  22  24
ATOM     24  C   UNL A   1      40.429  23.652  26.814  1.00  0.00     0.060 A 
ATOM     25  C   UNL A   1      41.578  23.724  27.609  1.00  0.00     0.016 A 
ATOM     26  C   UNL A   1      39.719  24.797  26.430  1.00  0.00     0.016 A 
ATOM     27  C   UNL A   1      41.923  24.942  28.162  1.00  0.00     0.010 A 
ATOM     28  C   UNL A   1      40.072  26.010  26.975  1.00  0.00     0.010 A 
ATOM     29  C   UNL A   1      41.108  26.049  27.910  1.00  0.00    -0.014 A 
BRANCH  29  30
ATOM     30  C   UNL A   1      41.310  27.246  28.710  1.00  0.00     0.031 A 
ATOM     31  C   UNL A   1      42.553  28.011  28.431  1.00  0.00     0.074 A 
ATOM     32  C   UNL A   1      40.329  27.690  29.522  1.00  0.00     0.049 A 
ATOM     33  N   UNL A   1      43.466  28.409  29.256  1.00  0.00    -0.248 NA
ATOM     34  C   UNL A   1      42.853  28.302  27.019  1.00  0.00     0.031 C 
ATOM     35  C   UNL A   1      38.958  27.174  29.644  1.00  0.00     0.029 A 
ATOM     36  N   UNL A   1      40.306  28.798  30.306  1.00  0.00    -0.354 N 
ATOM     37  C   UNL A   1      44.360  29.161  28.498  1.00  0.00     0.074 A 
ATOM     38  C   UNL A   1      44.011  28.952  27.116  1.00  0.00     0.031 C 
ATOM     39  C   UNL A   1      38.185  28.109  30.236  1.00  0.00     0.029 A 
ATOM     40  C   UNL A   1      39.029  29.219  30.643  1.00  0.00     0.049 A 
ATOM     41  H   UNL A   1      41.121  29.260  30.607  1.00  0.00     0.167 HD
ATOM     42  C   UNL A   1      45.207  30.072  29.049  1.00  0.00     0.037 A 
ATOM     43  C   UNL A   1      38.685  30.445  31.103  1.00  0.00     0.037 A 
ATOM     44  C   UNL A   1      45.401  29.858  30.457  1.00  0.00     0.049 A 
ATOM     45  C   UNL A   1      39.916  31.081  31.642  1.00  0.00     0.074 A 
ATOM     46  C   UNL A   1      45.905  28.817  31.212  1.00  0.00     0.029 A 
ATOM     47  N   UNL A   1      44.733  30.667  31.342  1.00  0.00    -0.354 N 
ATOM     48  N   UNL A   1      40.573  30.639  32.682  1.00  0.00    -0.248 NA
ATOM     49  C   UNL A   1      40.678  31.950  30.756  1.00  0.00     0.031 C 
ATOM     50  C   UNL A   1      45.112  28.798  32.396  1.00  0.00     0.029 A 
ATOM     51  C   UNL A   1      44.193  29.845  32.302  1.00  0.00     0.049 A 
ATOM     52  H   UNL A   1      44.656  31.647  31.299  1.00  0.00     0.167 HD
ATOM     53  C   UNL A   1      41.914  30.836  32.377  1.00  0.00     0.074 A 
ATOM     54  C   UNL A   1      41.909  31.732  31.224  1.00  0.00     0.031 C 
ATOM     55  C   UNL A   1      42.893  30.042  32.906  1.00  0.00     0.037 A 
BRANCH  42  56
ATOM     56  C   UNL A   1      45.608  31.343  28.350  1.00  0.00     0.058 A 
ATOM     57  C   UNL A   1      44.658  32.351  28.106  1.00  0.00     0.135 A 
ATOM     58  C   UNL A   1      46.844  31.482  27.677  1.00  0.00     0.135 A 
ATOM     59  F   UNL A   1      43.445  32.300  28.679  1.00  0.00    -0.206 F 
ATOM     60  C   UNL A   1      44.901  33.398  27.214  1.00  0.00     0.059 A 
ATOM     61  C   UNL A   1      47.127  32.543  26.829  1.00  0.00     0.059 A 
ATOM     62  F   UNL A   1      47.792  30.537  27.739  1.00  0.00    -0.206 F 
ATOM     63  C   UNL A   1      46.134  33.472  26.567  1.00  0.00     0.060 A 
BRANCH  63  64
ATOM     64  S   UNL A   1      46.404  34.735  25.311  1.00  0.00     0.124 S 
ATOM     65  O   UNL A   1      46.082  35.951  26.052  1.00  0.00    -0.237 OA
ATOM     66  O   UNL A   1      47.811  34.543  24.979  1.00  0.00    -0.237 OA
ATOM     67  O   UNL A   1      45.461  34.369  24.258  1.00  0.00    -0.744 OA
ENDBRANCH  63  64
ENDBRANCH  42  56
BRANCH  43  68
ATOM     68  C   UNL A   1      37.469  31.196  30.694  1.00  0.00     0.058 A 
ATOM     69  C   UNL A   1      36.578  31.740  31.632  1.00  0.00     0.135 A 
ATOM     70  C   UNL A   1      37.269  31.584  29.350  1.00  0.00     0.135 A 
ATOM     71  F   UNL A   1      36.724  31.463  32.936  1.00  0.00    -0.206 F 
ATOM     72  C   UNL A   1      35.549  32.615  31.258  1.00  0.00     0.059 A 
ATOM     73  C   UNL A   1      36.243  32.436  28.952  1.00  0.00     0.059 A 
ATOM     74  F   UNL A   1      38.120  31.206  28.383  1.00  0.00    -0.206 F 
ATOM     75  C   UNL A   1      35.393  32.961  29.915  1.00  0.00     0.060 A 
BRANCH  75  76
ATOM     76  S   UNL A   1      34.140  34.172  29.438  1.00  0.00     0.124 S 
ATOM     77  O   UNL A   1      34.950  35.219  28.826  1.00  0.00    -0.237 OA
ATOM     78  O   UNL A   1      33.298  33.403  28.529  1.00  0.00    -0.237 OA
ATOM     79  O   UNL A   1      33.514  34.533  30.709  1.00  0.00    -0.744 OA
ENDBRANCH  75  76
ENDBRANCH  43  68
BRANCH  55  80
ATOM     80  C   UNL A   1      42.515  29.092  34.016  1.00  0.00     0.058 A 
ATOM     81  C   UNL A   1      41.856  27.869  33.796  1.00  0.00     0.135 A 
ATOM     82  C   UNL A   1      42.985  29.334  35.315  1.00  0.00     0.135 A 
ATOM     83  F   UNL A   1      41.483  27.504  32.564  1.00  0.00    -0.206 F 
ATOM     84  C   UNL A   1      41.629  26.952  34.822  1.00  0.00     0.059 A 
ATOM     85  C   UNL A   1      42.798  28.418  36.352  1.00  0.00     0.059 A 
ATOM     86  F   UNL A   1      43.690  30.447  35.578  1.00  0.00    -0.206 F 
ATOM     87  C   UNL A   1      42.107  27.235  36.099  1.00  0.00     0.060 A 
BRANCH  87  88
ATOM     88  S   UNL A   1      41.894  26.002  37.403  1.00  0.00     0.124 S 
ATOM     89  O   UNL A   1      42.844  26.457  38.414  1.00  0.00    -0.237 OA
ATOM     90  O   UNL A   1      40.483  26.145  37.750  1.00  0.00    -0.237 OA
ATOM     91  O   UNL A   1      42.238  24.745  36.743  1.00  0.00    -0.744 OA
ENDBRANCH  87  88
ENDBRANCH  55  80
ENDBRANCH  29  30
ENDBRANCH  22  24
ENDBRANCH  21  22
ENDBRANCH  20  21
ENDBRANCH   1  20
TORSDOF 17
ENDMDL
MODEL 3
REMARK VINA RESULT:     -10.8      2.828      9.220
REMARK SMILES Cc1nsc(N[C@H](C)c2cccs2)c1C(=O)OCCOC(=O)c1ccc(-c2c3nc(c(-c4c(F)cc(S(=O)(=O)[O-])cc4F)c4ccc([nH]4)c(-c4c(F)cc(S(=O)(=O)[O-])cc4F)c4nc(c(-c5c(F)cc(S(=O)(=O)[O-])cc5F)c5ccc2[nH]5)C=C4)C=C3)cc1
REMARK SMILES IDX 18 1 17 2 15 3 16 4 14 5 1 6 2 7 3 8 4 9 5 10 6 11 7 13 8 14
REMARK SMILES IDX 9 15 10 16 13 17 11 18 12 19 19 20 20 21 21 22 22 23 23 24
REMARK SMILES IDX 24 25 88 26 25 27 87 28 26 29 27 30 28 31 81 32 29 33 86 34
REMARK SMILES IDX 80 35 82 36 30 37 85 38 79 39 78 40 31 42 65 43 44 44 64 45
REMARK SMILES IDX 45 46 48 47 63 48 83 49 46 50 47 51 62 53 84 54 49 55 32 56
REMARK SMILES IDX 33 57 42 58 34 59 35 60 41 61 43 62 36 63 37 64 38 65 39 66
REMARK SMILES IDX 40 67 66 68 67 69 76 70 68 71 69 72 75 73 77 74 70 75 71 76
REMARK SMILES IDX 72 77 73 78 74 79 50 80 51 81 60 82 52 83 53 84 59 85 61 86
REMARK SMILES IDX 54 87 55 88 56 89 57 90 58 91
REMARK H PARENT 6 12 82 41 48 52
REMARK Flexibility Score: inf
ROOT
ATOM      1  C   UNL A   1      32.637  29.533  25.904  1.00  0.00     0.275 C 
ENDROOT
BRANCH   1   2
ATOM      2  O   UNL A   1      33.121  28.422  25.126  1.00  0.00    -0.458 OA
BRANCH   2   3
ATOM      3  C   UNL A   1      32.195  27.504  24.714  1.00  0.00     0.343 C 
ATOM      4  O   UNL A   1      31.010  27.545  25.039  1.00  0.00    -0.246 OA
BRANCH   3   5
ATOM      5  C   UNL A   1      32.736  26.547  23.752  1.00  0.00     0.117 A 
ATOM      6  C   UNL A   1      33.875  28.198  22.061  1.00  0.00     0.069 C 
ATOM      7  C   UNL A   1      33.444  26.852  22.528  1.00  0.00     0.068 A 
ATOM      8  N   UNL A   1      33.743  25.816  21.745  1.00  0.00    -0.195 NA
ATOM      9  S   UNL A   1      33.094  24.451  22.399  1.00  0.00    -0.018 S 
ATOM     10  C   UNL A   1      32.569  25.167  23.877  1.00  0.00     0.124 A 
BRANCH  10  11
ATOM     11  N   UNL A   1      32.056  24.502  24.953  1.00  0.00    -0.368 N 
ATOM     12  H   UNL A   1      31.109  24.664  25.168  1.00  0.00     0.162 HD
BRANCH  11  13
ATOM     13  C   UNL A   1      32.786  23.567  25.815  1.00  0.00     0.117 C 
ATOM     14  C   UNL A   1      34.158  24.205  26.109  1.00  0.00     0.037 C 
BRANCH  13  15
ATOM     15  C   UNL A   1      32.966  22.158  25.261  1.00  0.00     0.027 A 
ATOM     16  C   UNL A   1      32.102  21.400  24.487  1.00  0.00     0.017 A 
ATOM     17  S   UNL A   1      34.380  21.251  25.644  1.00  0.00    -0.147 S 
ATOM     18  C   UNL A   1      32.571  20.076  24.261  1.00  0.00     0.012 A 
ATOM     19  C   UNL A   1      33.817  19.875  24.805  1.00  0.00     0.065 A 
ENDBRANCH  13  15
ENDBRANCH  11  13
ENDBRANCH  10  11
ENDBRANCH   3   5
ENDBRANCH   2   3
ENDBRANCH   1   2
BRANCH   1  20
ATOM     20  C   UNL A   1      33.424  29.659  27.205  1.00  0.00     0.275 C 
BRANCH  20  21
ATOM     21  O   UNL A   1      34.798  29.948  26.941  1.00  0.00    -0.458 OA
BRANCH  21  22
ATOM     22  C   UNL A   1      35.295  31.001  27.630  1.00  0.00     0.338 C 
ATOM     23  O   UNL A   1      34.984  32.171  27.495  1.00  0.00    -0.246 OA
BRANCH  22  24
ATOM     24  C   UNL A   1      36.382  30.552  28.502  1.00  0.00     0.060 A 
ATOM     25  C   UNL A   1      37.199  31.525  29.086  1.00  0.00     0.016 A 
ATOM     26  C   UNL A   1      36.729  29.195  28.503  1.00  0.00     0.016 A 
ATOM     27  C   UNL A   1      38.455  31.156  29.529  1.00  0.00     0.010 A 
ATOM     28  C   UNL A   1      37.976  28.829  28.953  1.00  0.00     0.010 A 
ATOM     29  C   UNL A   1      38.859  29.828  29.369  1.00  0.00    -0.014 A 
BRANCH  29  30
ATOM     30  C   UNL A   1      40.262  29.509  29.573  1.00  0.00     0.031 A 
ATOM     31  C   UNL A   1      40.699  29.372  30.986  1.00  0.00     0.074 A 
ATOM     32  C   UNL A   1      41.044  29.198  28.519  1.00  0.00     0.049 A 
ATOM     33  N   UNL A   1      41.684  29.951  31.593  1.00  0.00    -0.248 NA
ATOM     34  C   UNL A   1      39.867  28.530  31.861  1.00  0.00     0.031 C 
ATOM     35  C   UNL A   1      40.638  29.015  27.118  1.00  0.00     0.029 A 
ATOM     36  N   UNL A   1      42.352  28.832  28.504  1.00  0.00    -0.354 N 
ATOM     37  C   UNL A   1      41.712  29.405  32.875  1.00  0.00     0.074 A 
ATOM     38  C   UNL A   1      40.500  28.642  33.027  1.00  0.00     0.031 C 
ATOM     39  C   UNL A   1      41.600  28.331  26.464  1.00  0.00     0.029 A 
ATOM     40  C   UNL A   1      42.729  28.147  27.360  1.00  0.00     0.049 A 
ATOM     41  H   UNL A   1      42.975  29.035  29.239  1.00  0.00     0.167 HD
ATOM     42  C   UNL A   1      42.819  29.442  33.664  1.00  0.00     0.037 A 
ATOM     43  C   UNL A   1      43.833  27.376  27.214  1.00  0.00     0.037 A 
ATOM     44  C   UNL A   1      43.755  30.449  33.249  1.00  0.00     0.049 A 
ATOM     45  C   UNL A   1      44.796  27.772  28.276  1.00  0.00     0.074 A 
ATOM     46  C   UNL A   1      43.701  31.824  33.129  1.00  0.00     0.029 A 
ATOM     47  N   UNL A   1      44.868  30.061  32.544  1.00  0.00    -0.354 N 
ATOM     48  N   UNL A   1      45.363  28.947  28.347  1.00  0.00    -0.248 NA
ATOM     49  C   UNL A   1      44.789  27.015  29.519  1.00  0.00     0.031 C 
ATOM     50  C   UNL A   1      44.481  32.129  31.977  1.00  0.00     0.029 A 
ATOM     51  C   UNL A   1      44.987  30.925  31.482  1.00  0.00     0.049 A 
ATOM     52  H   UNL A   1      45.466  29.309  32.758  1.00  0.00     0.167 HD
ATOM     53  C   UNL A   1      45.421  29.243  29.703  1.00  0.00     0.074 A 
ATOM     54  C   UNL A   1      45.143  27.977  30.376  1.00  0.00     0.031 C 
ATOM     55  C   UNL A   1      45.414  30.533  30.156  1.00  0.00     0.037 A 
BRANCH  42  56
ATOM     56  C   UNL A   1      43.172  28.341  34.628  1.00  0.00     0.058 A 
ATOM     57  C   UNL A   1      43.361  28.623  35.993  1.00  0.00     0.135 A 
ATOM     58  C   UNL A   1      43.592  27.061  34.198  1.00  0.00     0.135 A 
ATOM     59  F   UNL A   1      43.016  29.819  36.497  1.00  0.00    -0.206 F 
ATOM     60  C   UNL A   1      43.971  27.715  36.860  1.00  0.00     0.059 A 
ATOM     61  C   UNL A   1      44.150  26.122  35.054  1.00  0.00     0.059 A 
ATOM     62  F   UNL A   1      43.568  26.706  32.906  1.00  0.00    -0.206 F 
ATOM     63  C   UNL A   1      44.380  26.474  36.373  1.00  0.00     0.060 A 
BRANCH  63  64
ATOM     64  S   UNL A   1      45.293  25.354  37.449  1.00  0.00     0.124 S 
ATOM     65  O   UNL A   1      46.671  25.661  37.080  1.00  0.00    -0.237 OA
ATOM     66  O   UNL A   1      44.873  25.790  38.776  1.00  0.00    -0.237 OA
ATOM     67  O   UNL A   1      44.811  24.035  37.047  1.00  0.00    -0.744 OA
ENDBRANCH  63  64
ENDBRANCH  42  56
BRANCH  43  68
ATOM     68  C   UNL A   1      43.873  26.076  26.495  1.00  0.00     0.058 A 
ATOM     69  C   UNL A   1      44.789  25.825  25.461  1.00  0.00     0.135 A 
ATOM     70  C   UNL A   1      43.142  24.960  26.961  1.00  0.00     0.135 A 
ATOM     71  F   UNL A   1      45.559  26.817  24.990  1.00  0.00    -0.206 F 
ATOM     72  C   UNL A   1      44.966  24.544  24.922  1.00  0.00     0.059 A 
ATOM     73  C   UNL A   1      43.287  23.683  26.428  1.00  0.00     0.059 A 
ATOM     74  F   UNL A   1      42.313  25.063  28.012  1.00  0.00    -0.206 F 
ATOM     75  C   UNL A   1      44.213  23.478  25.417  1.00  0.00     0.060 A 
BRANCH  75  76
ATOM     76  S   UNL A   1      44.513  21.804  24.803  1.00  0.00     0.124 S 
ATOM     77  O   UNL A   1      43.385  21.070  25.365  1.00  0.00    -0.237 OA
ATOM     78  O   UNL A   1      44.493  21.998  23.358  1.00  0.00    -0.237 OA
ATOM     79  O   UNL A   1      45.819  21.464  25.366  1.00  0.00    -0.744 OA
ENDBRANCH  75  76
ENDBRANCH  43  68
BRANCH  55  80
ATOM     80  C   UNL A   1      45.581  31.642  29.147  1.00  0.00     0.058 A 
ATOM     81  C   UNL A   1      46.833  32.086  28.687  1.00  0.00     0.135 A 
ATOM     82  C   UNL A   1      44.449  32.150  28.494  1.00  0.00     0.135 A 
ATOM     83  F   UNL A   1      47.966  31.562  29.170  1.00  0.00    -0.206 F 
ATOM     84  C   UNL A   1      46.958  33.025  27.662  1.00  0.00     0.059 A 
ATOM     85  C   UNL A   1      44.549  33.066  27.445  1.00  0.00     0.059 A 
ATOM     86  F   UNL A   1      43.225  31.711  28.830  1.00  0.00    -0.206 F 
ATOM     87  C   UNL A   1      45.808  33.508  27.044  1.00  0.00     0.060 A 
BRANCH  87  88
ATOM     88  S   UNL A   1      45.978  34.652  25.656  1.00  0.00     0.124 S 
ATOM     89  O   UNL A   1      45.625  35.930  26.266  1.00  0.00    -0.237 OA
ATOM     90  O   UNL A   1      47.382  34.495  25.284  1.00  0.00    -0.237 OA
ATOM     91  O   UNL A   1      45.024  34.142  24.675  1.00  0.00    -0.744 OA
ENDBRANCH  87  88
ENDBRANCH  55  80
ENDBRANCH  29  30
ENDBRANCH  22  24
ENDBRANCH  21  22
ENDBRANCH  20  21
ENDBRANCH   1  20
TORSDOF 17
ENDMDL
