MODEL 1
REMARK VINA RESULT:     -10.8      0.000      0.000
REMARK SMILES Cc1ccoc1C(=O)N1CCO[C@H](CC(=O)OCCOC(=O)c2ccc(-c3c4nc(c(-c5c(F)cc(S(=O)(=O)[O-])cc5F)c5ccc([nH]5)c(-c5c(F)cc(S(=O)(=O)[O-])cc5F)c5nc(c(-c6c(F)cc(S(=O)(=O)[O-])cc6F)c6ccc3[nH]6)C=C5)C=C4)cc2)C1
REMARK SMILES IDX 18 1 17 2 15 3 16 4 14 5 13 6 9 7 10 8 89 9 11 10 12 11 7 12
REMARK SMILES IDX 8 13 6 14 1 15 2 16 3 17 4 18 5 19 19 20 20 21 21 22 22 23
REMARK SMILES IDX 23 24 24 25 88 26 25 27 87 28 26 29 27 30 28 31 81 32 29 33
REMARK SMILES IDX 86 34 80 35 82 36 30 37 85 38 79 39 78 40 31 42 65 43 44 44
REMARK SMILES IDX 64 45 45 46 48 47 63 48 83 49 46 50 47 51 62 53 84 54 49 55
REMARK SMILES IDX 32 56 33 57 42 58 34 59 35 60 41 61 43 62 36 63 37 64 38 65
REMARK SMILES IDX 39 66 40 67 66 68 67 69 76 70 68 71 69 72 75 73 77 74 70 75
REMARK SMILES IDX 71 76 72 77 73 78 74 79 50 80 51 81 60 82 52 83 53 84 59 85
REMARK SMILES IDX 61 86 54 87 55 88 56 89 57 90 58 91
REMARK H PARENT 82 41 48 52
REMARK Flexibility Score: inf
ROOT
ATOM      1  C   UNL A   1      37.314  22.497  25.840  1.00  0.00     0.274 C 
ENDROOT
BRANCH   1   2
ATOM      2  O   UNL A   1      35.883  22.597  25.969  1.00  0.00    -0.462 OA
BRANCH   2   3
ATOM      3  C   UNL A   1      35.199  21.442  25.766  1.00  0.00     0.308 C 
ATOM      4  O   UNL A   1      35.672  20.426  25.272  1.00  0.00    -0.252 OA
BRANCH   3   5
ATOM      5  C   UNL A   1      33.738  21.581  26.083  1.00  0.00     0.156 C 
BRANCH   5   6
ATOM      6  C   UNL A   1      32.765  21.060  25.014  1.00  0.00     0.148 C 
ATOM      7  N   UNL A   1      32.896  23.107  23.695  1.00  0.00    -0.331 N 
ATOM      8  C   UNL A   1      31.556  23.518  24.084  1.00  0.00     0.148 C 
ATOM      9  C   UNL A   1      33.039  21.657  23.624  1.00  0.00     0.152 C 
ATOM     10  C   UNL A   1      31.091  22.784  25.354  1.00  0.00     0.182 C 
ATOM     11  O   UNL A   1      31.390  21.375  25.369  1.00  0.00    -0.374 OA
BRANCH   7  12
ATOM     12  C   UNL A   1      33.645  23.872  22.808  1.00  0.00     0.289 C 
ATOM     13  O   UNL A   1      34.412  23.306  22.028  1.00  0.00    -0.265 OA
BRANCH  12  14
ATOM     14  C   UNL A   1      33.585  25.326  22.958  1.00  0.00     0.194 A 
ATOM     15  C   UNL A   1      33.975  26.060  25.446  1.00  0.00     0.049 C 
ATOM     16  C   UNL A   1      33.741  26.250  23.995  1.00  0.00     0.000 A 
ATOM     17  C   UNL A   1      33.703  27.542  23.387  1.00  0.00     0.046 A 
ATOM     18  C   UNL A   1      33.512  27.344  22.047  1.00  0.00     0.196 A 
ATOM     19  O   UNL A   1      33.419  26.024  21.783  1.00  0.00    -0.459 OA
ENDBRANCH  12  14
ENDBRANCH   7  12
ENDBRANCH   5   6
ENDBRANCH   3   5
ENDBRANCH   2   3
ENDBRANCH   1   2
BRANCH   1  20
ATOM     20  C   UNL A   1      38.021  23.850  25.962  1.00  0.00     0.275 C 
BRANCH  20  21
ATOM     21  O   UNL A   1      39.137  23.816  26.869  1.00  0.00    -0.458 OA
BRANCH  21  22
ATOM     22  C   UNL A   1      40.105  24.724  26.606  1.00  0.00     0.338 C 
ATOM     23  O   UNL A   1      40.706  24.873  25.555  1.00  0.00    -0.246 OA
BRANCH  22  24
ATOM     24  C   UNL A   1      40.287  25.637  27.744  1.00  0.00     0.060 A 
ATOM     25  C   UNL A   1      39.313  25.621  28.744  1.00  0.00     0.016 A 
ATOM     26  C   UNL A   1      41.308  26.585  27.766  1.00  0.00     0.016 A 
ATOM     27  C   UNL A   1      39.301  26.601  29.730  1.00  0.00     0.010 A 
ATOM     28  C   UNL A   1      41.326  27.540  28.789  1.00  0.00     0.010 A 
ATOM     29  C   UNL A   1      40.308  27.573  29.759  1.00  0.00    -0.014 A 
BRANCH  29  30
ATOM     30  C   UNL A   1      40.282  28.624  30.806  1.00  0.00     0.031 A 
ATOM     31  C   UNL A   1      41.196  28.530  31.995  1.00  0.00     0.074 A 
ATOM     32  C   UNL A   1      39.435  29.663  30.679  1.00  0.00     0.049 A 
ATOM     33  N   UNL A   1      41.250  29.293  33.057  1.00  0.00    -0.248 NA
ATOM     34  C   UNL A   1      42.171  27.427  31.997  1.00  0.00     0.031 C 
ATOM     35  C   UNL A   1      38.518  29.874  29.557  1.00  0.00     0.029 A 
ATOM     36  N   UNL A   1      39.202  30.732  31.505  1.00  0.00    -0.354 N 
ATOM     37  C   UNL A   1      42.239  28.748  33.867  1.00  0.00     0.074 A 
ATOM     38  C   UNL A   1      42.754  27.584  33.179  1.00  0.00     0.031 C 
ATOM     39  C   UNL A   1      37.817  30.999  29.769  1.00  0.00     0.029 A 
ATOM     40  C   UNL A   1      38.203  31.564  31.058  1.00  0.00     0.049 A 
ATOM     41  H   UNL A   1      39.701  30.890  32.340  1.00  0.00     0.167 HD
ATOM     42  C   UNL A   1      42.674  29.184  35.073  1.00  0.00     0.037 A 
ATOM     43  C   UNL A   1      37.640  32.643  31.634  1.00  0.00     0.037 A 
ATOM     44  C   UNL A   1      42.185  30.369  35.731  1.00  0.00     0.049 A 
ATOM     45  C   UNL A   1      38.137  33.100  32.977  1.00  0.00     0.074 A 
ATOM     46  C   UNL A   1      42.599  30.920  36.931  1.00  0.00     0.029 A 
ATOM     47  N   UNL A   1      41.179  31.188  35.242  1.00  0.00    -0.354 N 
ATOM     48  N   UNL A   1      39.081  32.581  33.726  1.00  0.00    -0.248 NA
ATOM     49  C   UNL A   1      37.493  34.286  33.556  1.00  0.00     0.031 C 
ATOM     50  C   UNL A   1      41.817  32.052  37.187  1.00  0.00     0.029 A 
ATOM     51  C   UNL A   1      40.941  32.226  36.128  1.00  0.00     0.049 A 
ATOM     52  H   UNL A   1      40.702  31.051  34.392  1.00  0.00     0.167 HD
ATOM     53  C   UNL A   1      39.152  33.384  34.858  1.00  0.00     0.074 A 
ATOM     54  C   UNL A   1      38.168  34.434  34.687  1.00  0.00     0.031 C 
ATOM     55  C   UNL A   1      39.957  33.262  35.942  1.00  0.00     0.037 A 
BRANCH  42  56
ATOM     56  C   UNL A   1      43.717  28.365  35.781  1.00  0.00     0.058 A 
ATOM     57  C   UNL A   1      45.089  28.600  35.608  1.00  0.00     0.135 A 
ATOM     58  C   UNL A   1      43.332  27.365  36.689  1.00  0.00     0.135 A 
ATOM     59  F   UNL A   1      45.512  29.533  34.740  1.00  0.00    -0.206 F 
ATOM     60  C   UNL A   1      46.045  27.860  36.300  1.00  0.00     0.059 A 
ATOM     61  C   UNL A   1      44.269  26.629  37.407  1.00  0.00     0.059 A 
ATOM     62  F   UNL A   1      42.031  27.099  36.889  1.00  0.00    -0.206 F 
ATOM     63  C   UNL A   1      45.624  26.877  37.198  1.00  0.00     0.060 A 
BRANCH  63  64
ATOM     64  S   UNL A   1      46.873  25.939  38.107  1.00  0.00     0.124 S 
ATOM     65  O   UNL A   1      46.908  24.692  37.348  1.00  0.00    -0.237 OA
ATOM     66  O   UNL A   1      48.054  26.787  37.986  1.00  0.00    -0.237 OA
ATOM     67  O   UNL A   1      46.312  25.840  39.450  1.00  0.00    -0.744 OA
ENDBRANCH  63  64
ENDBRANCH  42  56
BRANCH  43  68
ATOM     68  C   UNL A   1      36.520  33.343  30.956  1.00  0.00     0.058 A 
ATOM     69  C   UNL A   1      35.194  33.165  31.375  1.00  0.00     0.135 A 
ATOM     70  C   UNL A   1      36.757  34.212  29.879  1.00  0.00     0.135 A 
ATOM     71  F   UNL A   1      34.917  32.338  32.394  1.00  0.00    -0.206 F 
ATOM     72  C   UNL A   1      34.138  33.813  30.740  1.00  0.00     0.059 A 
ATOM     73  C   UNL A   1      35.721  34.889  29.245  1.00  0.00     0.059 A 
ATOM     74  F   UNL A   1      38.012  34.426  29.451  1.00  0.00    -0.206 F 
ATOM     75  C   UNL A   1      34.413  34.673  29.675  1.00  0.00     0.060 A 
BRANCH  75  76
ATOM     76  S   UNL A   1      33.045  35.547  28.884  1.00  0.00     0.124 S 
ATOM     77  O   UNL A   1      33.753  36.526  28.071  1.00  0.00    -0.237 OA
ATOM     78  O   UNL A   1      32.371  34.477  28.154  1.00  0.00    -0.237 OA
ATOM     79  O   UNL A   1      32.296  36.086  30.016  1.00  0.00    -0.744 OA
ENDBRANCH  75  76
ENDBRANCH  43  68
BRANCH  55  80
ATOM     80  C   UNL A   1      39.816  34.300  37.018  1.00  0.00     0.058 A 
ATOM     81  C   UNL A   1      40.531  35.506  36.971  1.00  0.00     0.135 A 
ATOM     82  C   UNL A   1      38.931  34.100  38.090  1.00  0.00     0.135 A 
ATOM     83  F   UNL A   1      41.394  35.741  35.970  1.00  0.00    -0.206 F 
ATOM     84  C   UNL A   1      40.391  36.471  37.963  1.00  0.00     0.059 A 
ATOM     85  C   UNL A   1      38.761  35.060  39.082  1.00  0.00     0.059 A 
ATOM     86  F   UNL A   1      38.217  32.966  38.175  1.00  0.00    -0.206 F 
ATOM     87  C   UNL A   1      39.505  36.237  39.016  1.00  0.00     0.060 A 
BRANCH  87  88
ATOM     88  S   UNL A   1      39.314  37.504  40.288  1.00  0.00     0.124 S 
ATOM     89  O   UNL A   1      38.368  38.417  39.655  1.00  0.00    -0.237 OA
ATOM     90  O   UNL A   1      38.798  36.740  41.420  1.00  0.00    -0.237 OA
ATOM     91  O   UNL A   1      40.669  38.021  40.458  1.00  0.00    -0.744 OA
ENDBRANCH  87  88
ENDBRANCH  55  80
ENDBRANCH  29  30
ENDBRANCH  22  24
ENDBRANCH  21  22
ENDBRANCH  20  21
ENDBRANCH   1  20
TORSDOF 17
ENDMDL
MODEL 2
REMARK VINA RESULT:     -10.8      7.153     13.091
REMARK SMILES Cc1ccoc1C(=O)N1CCO[C@H](CC(=O)OCCOC(=O)c2ccc(-c3c4nc(c(-c5c(F)cc(S(=O)(=O)[O-])cc5F)c5ccc([nH]5)c(-c5c(F)cc(S(=O)(=O)[O-])cc5F)c5nc(c(-c6c(F)cc(S(=O)(=O)[O-])cc6F)c6ccc3[nH]6)C=C5)C=C4)cc2)C1
REMARK SMILES IDX 18 1 17 2 15 3 16 4 14 5 13 6 9 7 10 8 89 9 11 10 12 11 7 12
REMARK SMILES IDX 8 13 6 14 1 15 2 16 3 17 4 18 5 19 19 20 20 21 21 22 22 23
REMARK SMILES IDX 23 24 24 25 88 26 25 27 87 28 26 29 27 30 28 31 81 32 29 33
REMARK SMILES IDX 86 34 80 35 82 36 30 37 85 38 79 39 78 40 31 42 65 43 44 44
REMARK SMILES IDX 64 45 45 46 48 47 63 48 83 49 46 50 47 51 62 53 84 54 49 55
REMARK SMILES IDX 32 56 33 57 42 58 34 59 35 60 41 61 43 62 36 63 37 64 38 65
REMARK SMILES IDX 39 66 40 67 66 68 67 69 76 70 68 71 69 72 75 73 77 74 70 75
REMARK SMILES IDX 71 76 72 77 73 78 74 79 50 80 51 81 60 82 52 83 53 84 59 85
REMARK SMILES IDX 61 86 54 87 55 88 56 89 57 90 58 91
REMARK H PARENT 82 41 48 52
REMARK Flexibility Score: inf
ROOT
ATOM      1  C   UNL A   1      37.702  32.899  33.066  1.00  0.00     0.274 C 
ENDROOT
BRANCH   1   2
ATOM      2  O   UNL A   1      37.270  33.954  32.186  1.00  0.00    -0.462 OA
BRANCH   2   3
ATOM      3  C   UNL A   1      37.430  33.708  30.861  1.00  0.00     0.308 C 
ATOM      4  O   UNL A   1      38.481  33.840  30.246  1.00  0.00    -0.252 OA
BRANCH   3   5
ATOM      5  C   UNL A   1      36.132  33.388  30.179  1.00  0.00     0.156 C 
BRANCH   5   6
ATOM      6  C   UNL A   1      36.010  33.837  28.715  1.00  0.00     0.148 C 
ATOM      7  N   UNL A   1      33.745  34.687  29.016  1.00  0.00    -0.331 N 
ATOM      8  C   UNL A   1      33.164  33.584  28.264  1.00  0.00     0.148 C 
ATOM      9  C   UNL A   1      35.077  35.047  28.544  1.00  0.00     0.152 C 
ATOM     10  C   UNL A   1      34.136  32.395  28.175  1.00  0.00     0.182 C 
ATOM     11  O   UNL A   1      35.498  32.760  27.883  1.00  0.00    -0.374 OA
BRANCH   7  12
ATOM     12  C   UNL A   1      32.942  35.705  29.519  1.00  0.00     0.289 C 
ATOM     13  O   UNL A   1      32.101  36.223  28.783  1.00  0.00    -0.265 OA
BRANCH  12  14
ATOM     14  C   UNL A   1      33.249  36.203  30.860  1.00  0.00     0.194 A 
ATOM     15  C   UNL A   1      33.861  34.250  32.500  1.00  0.00     0.049 C 
ATOM     16  C   UNL A   1      33.653  35.655  32.081  1.00  0.00     0.000 A 
ATOM     17  C   UNL A   1      33.926  36.762  32.943  1.00  0.00     0.046 A 
ATOM     18  C   UNL A   1      33.663  37.897  32.225  1.00  0.00     0.196 A 
ATOM     19  O   UNL A   1      33.239  37.573  30.985  1.00  0.00    -0.459 OA
ENDBRANCH  12  14
ENDBRANCH   7  12
ENDBRANCH   5   6
ENDBRANCH   3   5
ENDBRANCH   2   3
ENDBRANCH   1   2
BRANCH   1  20
ATOM     20  C   UNL A   1      36.637  31.818  33.270  1.00  0.00     0.275 C 
BRANCH  20  21
ATOM     21  O   UNL A   1      37.143  30.488  33.056  1.00  0.00    -0.458 OA
BRANCH  21  22
ATOM     22  C   UNL A   1      37.095  30.066  31.772  1.00  0.00     0.338 C 
ATOM     23  O   UNL A   1      36.096  29.875  31.099  1.00  0.00    -0.246 OA
BRANCH  22  24
ATOM     24  C   UNL A   1      38.448  29.968  31.205  1.00  0.00     0.060 A 
ATOM     25  C   UNL A   1      38.598  30.241  29.845  1.00  0.00     0.016 A 
ATOM     26  C   UNL A   1      39.520  29.483  31.951  1.00  0.00     0.016 A 
ATOM     27  C   UNL A   1      39.794  29.956  29.196  1.00  0.00     0.010 A 
ATOM     28  C   UNL A   1      40.742  29.245  31.310  1.00  0.00     0.010 A 
ATOM     29  C   UNL A   1      40.878  29.452  29.925  1.00  0.00    -0.014 A 
BRANCH  29  30
ATOM     30  C   UNL A   1      42.148  29.138  29.226  1.00  0.00     0.031 A 
ATOM     31  C   UNL A   1      42.372  27.772  28.642  1.00  0.00     0.074 A 
ATOM     32  C   UNL A   1      43.097  30.088  29.119  1.00  0.00     0.049 A 
ATOM     33  N   UNL A   1      43.449  27.279  28.086  1.00  0.00    -0.248 NA
ATOM     34  C   UNL A   1      41.241  26.831  28.700  1.00  0.00     0.031 C 
ATOM     35  C   UNL A   1      42.983  31.457  29.626  1.00  0.00     0.029 A 
ATOM     36  N   UNL A   1      44.347  30.044  28.556  1.00  0.00    -0.354 N 
ATOM     37  C   UNL A   1      43.138  25.965  27.755  1.00  0.00     0.074 A 
ATOM     38  C   UNL A   1      41.775  25.733  28.181  1.00  0.00     0.031 C 
ATOM     39  C   UNL A   1      44.118  32.120  29.356  1.00  0.00     0.029 A 
ATOM     40  C   UNL A   1      45.054  31.213  28.699  1.00  0.00     0.049 A 
ATOM     41  H   UNL A   1      44.704  29.251  28.095  1.00  0.00     0.167 HD
ATOM     42  C   UNL A   1      43.923  25.041  27.150  1.00  0.00     0.037 A 
ATOM     43  C   UNL A   1      46.324  31.514  28.365  1.00  0.00     0.037 A 
ATOM     44  C   UNL A   1      45.265  25.293  26.691  1.00  0.00     0.049 A 
ATOM     45  C   UNL A   1      47.175  30.466  27.703  1.00  0.00     0.074 A 
ATOM     46  C   UNL A   1      46.121  24.436  26.022  1.00  0.00     0.029 A 
ATOM     47  N   UNL A   1      45.944  26.493  26.847  1.00  0.00    -0.354 N 
ATOM     48  N   UNL A   1      46.864  29.231  27.386  1.00  0.00    -0.248 NA
ATOM     49  C   UNL A   1      48.548  30.850  27.353  1.00  0.00     0.031 C 
ATOM     50  C   UNL A   1      47.332  25.105  25.807  1.00  0.00     0.029 A 
ATOM     51  C   UNL A   1      47.216  26.390  26.309  1.00  0.00     0.049 A 
ATOM     52  H   UNL A   1      45.575  27.298  27.279  1.00  0.00     0.167 HD
ATOM     53  C   UNL A   1      47.998  28.695  26.790  1.00  0.00     0.074 A 
ATOM     54  C   UNL A   1      48.997  29.745  26.774  1.00  0.00     0.031 C 
ATOM     55  C   UNL A   1      48.197  27.446  26.303  1.00  0.00     0.037 A 
BRANCH  42  56
ATOM     56  C   UNL A   1      43.365  23.657  26.970  1.00  0.00     0.058 A 
ATOM     57  C   UNL A   1      42.854  23.217  25.739  1.00  0.00     0.135 A 
ATOM     58  C   UNL A   1      43.396  22.740  28.033  1.00  0.00     0.135 A 
ATOM     59  F   UNL A   1      42.787  24.058  24.695  1.00  0.00    -0.206 F 
ATOM     60  C   UNL A   1      42.377  21.919  25.574  1.00  0.00     0.059 A 
ATOM     61  C   UNL A   1      42.944  21.432  27.884  1.00  0.00     0.059 A 
ATOM     62  F   UNL A   1      43.873  23.112  29.232  1.00  0.00    -0.206 F 
ATOM     63  C   UNL A   1      42.427  21.034  26.653  1.00  0.00     0.060 A 
BRANCH  63  64
ATOM     64  S   UNL A   1      41.826  19.347  26.420  1.00  0.00     0.124 S 
ATOM     65  O   UNL A   1      42.689  18.877  25.340  1.00  0.00    -0.237 OA
ATOM     66  O   UNL A   1      42.064  18.744  27.727  1.00  0.00    -0.237 OA
ATOM     67  O   UNL A   1      40.423  19.531  26.066  1.00  0.00    -0.744 OA
ENDBRANCH  63  64
ENDBRANCH  42  56
BRANCH  43  68
ATOM     68  C   UNL A   1      46.875  32.855  28.685  1.00  0.00     0.058 A 
ATOM     69  C   UNL A   1      46.802  33.908  27.762  1.00  0.00     0.135 A 
ATOM     70  C   UNL A   1      47.477  33.111  29.926  1.00  0.00     0.135 A 
ATOM     71  F   UNL A   1      46.243  33.709  26.559  1.00  0.00    -0.206 F 
ATOM     72  C   UNL A   1      47.322  35.166  28.052  1.00  0.00     0.059 A 
ATOM     73  C   UNL A   1      47.982  34.366  30.248  1.00  0.00     0.059 A 
ATOM     74  F   UNL A   1      47.558  32.139  30.849  1.00  0.00    -0.206 F 
ATOM     75  C   UNL A   1      47.911  35.385  29.299  1.00  0.00     0.060 A 
BRANCH  75  76
ATOM     76  S   UNL A   1      48.543  37.030  29.688  1.00  0.00     0.124 S 
ATOM     77  O   UNL A   1      48.687  36.954  31.137  1.00  0.00    -0.237 OA
ATOM     78  O   UNL A   1      49.785  37.077  28.924  1.00  0.00    -0.237 OA
ATOM     79  O   UNL A   1      47.487  37.916  29.203  1.00  0.00    -0.744 OA
ENDBRANCH  75  76
ENDBRANCH  43  68
BRANCH  55  80
ATOM     80  C   UNL A   1      49.540  27.154  25.697  1.00  0.00     0.058 A 
ATOM     81  C   UNL A   1      49.788  27.360  24.332  1.00  0.00     0.135 A 
ATOM     82  C   UNL A   1      50.598  26.695  26.498  1.00  0.00     0.135 A 
ATOM     83  F   UNL A   1      48.806  27.791  23.524  1.00  0.00    -0.206 F 
ATOM     84  C   UNL A   1      51.036  27.099  23.774  1.00  0.00     0.059 A 
ATOM     85  C   UNL A   1      51.859  26.448  25.964  1.00  0.00     0.059 A 
ATOM     86  F   UNL A   1      50.414  26.491  27.812  1.00  0.00    -0.206 F 
ATOM     87  C   UNL A   1      52.064  26.641  24.599  1.00  0.00     0.060 A 
BRANCH  87  88
ATOM     88  S   UNL A   1      53.686  26.325  23.871  1.00  0.00     0.124 S 
ATOM     89  O   UNL A   1      53.334  26.018  22.489  1.00  0.00    -0.237 OA
ATOM     90  O   UNL A   1      54.380  27.592  24.082  1.00  0.00    -0.237 OA
ATOM     91  O   UNL A   1      54.196  25.203  24.655  1.00  0.00    -0.744 OA
ENDBRANCH  87  88
ENDBRANCH  55  80
ENDBRANCH  29  30
ENDBRANCH  22  24
ENDBRANCH  21  22
ENDBRANCH  20  21
ENDBRANCH   1  20
TORSDOF 17
ENDMDL
MODEL 3
REMARK VINA RESULT:     -10.6      7.165     12.474
REMARK SMILES Cc1ccoc1C(=O)N1CCO[C@H](CC(=O)OCCOC(=O)c2ccc(-c3c4nc(c(-c5c(F)cc(S(=O)(=O)[O-])cc5F)c5ccc([nH]5)c(-c5c(F)cc(S(=O)(=O)[O-])cc5F)c5nc(c(-c6c(F)cc(S(=O)(=O)[O-])cc6F)c6ccc3[nH]6)C=C5)C=C4)cc2)C1
REMARK SMILES IDX 18 1 17 2 15 3 16 4 14 5 13 6 9 7 10 8 89 9 11 10 12 11 7 12
REMARK SMILES IDX 8 13 6 14 1 15 2 16 3 17 4 18 5 19 19 20 20 21 21 22 22 23
REMARK SMILES IDX 23 24 24 25 88 26 25 27 87 28 26 29 27 30 28 31 81 32 29 33
REMARK SMILES IDX 86 34 80 35 82 36 30 37 85 38 79 39 78 40 31 42 65 43 44 44
REMARK SMILES IDX 64 45 45 46 48 47 63 48 83 49 46 50 47 51 62 53 84 54 49 55
REMARK SMILES IDX 32 56 33 57 42 58 34 59 35 60 41 61 43 62 36 63 37 64 38 65
REMARK SMILES IDX 39 66 40 67 66 68 67 69 76 70 68 71 69 72 75 73 77 74 70 75
REMARK SMILES IDX 71 76 72 77 73 78 74 79 50 80 51 81 60 82 52 83 53 84 59 85
REMARK SMILES IDX 61 86 54 87 55 88 56 89 57 90 58 91
REMARK H PARENT 82 41 48 52
REMARK Flexibility Score: inf
ROOT
ATOM      1  C   UNL A   1      33.582  29.575  27.167  1.00  0.00     0.274 C 
ENDROOT
BRANCH   1   2
ATOM      2  O   UNL A   1      32.351  30.322  27.210  1.00  0.00    -0.462 OA
BRANCH   2   3
ATOM      3  C   UNL A   1      31.790  30.587  26.003  1.00  0.00     0.308 C 
ATOM      4  O   UNL A   1      30.929  31.435  25.802  1.00  0.00    -0.252 OA
BRANCH   3   5
ATOM      5  C   UNL A   1      32.234  29.621  24.943  1.00  0.00     0.156 C 
BRANCH   5   6
ATOM      6  C   UNL A   1      31.128  28.769  24.301  1.00  0.00     0.148 C 
ATOM      7  N   UNL A   1      32.330  26.679  24.667  1.00  0.00    -0.331 N 
ATOM      8  C   UNL A   1      32.647  26.541  23.254  1.00  0.00     0.148 C 
ATOM      9  C   UNL A   1      31.056  27.352  24.893  1.00  0.00     0.152 C 
ATOM     10  C   UNL A   1      32.513  27.884  22.516  1.00  0.00     0.182 C 
ATOM     11  O   UNL A   1      31.340  28.642  22.868  1.00  0.00    -0.374 OA
BRANCH   7  12
ATOM     12  C   UNL A   1      32.714  25.704  25.581  1.00  0.00     0.289 C 
ATOM     13  O   UNL A   1      33.812  25.798  26.131  1.00  0.00    -0.265 OA
BRANCH  12  14
ATOM     14  C   UNL A   1      31.843  24.538  25.725  1.00  0.00     0.194 A 
ATOM     15  C   UNL A   1      31.934  22.993  23.607  1.00  0.00     0.049 C 
ATOM     16  C   UNL A   1      31.522  23.408  24.969  1.00  0.00     0.000 A 
ATOM     17  C   UNL A   1      30.702  22.588  25.804  1.00  0.00     0.046 A 
ATOM     18  C   UNL A   1      30.556  23.253  26.991  1.00  0.00     0.196 A 
ATOM     19  O   UNL A   1      31.217  24.430  26.947  1.00  0.00    -0.459 OA
ENDBRANCH  12  14
ENDBRANCH   7  12
ENDBRANCH   5   6
ENDBRANCH   3   5
ENDBRANCH   2   3
ENDBRANCH   1   2
BRANCH   1  20
ATOM     20  C   UNL A   1      34.766  30.341  27.764  1.00  0.00     0.275 C 
BRANCH  20  21
ATOM     21  O   UNL A   1      35.662  29.493  28.505  1.00  0.00    -0.458 OA
BRANCH  21  22
ATOM     22  C   UNL A   1      36.379  30.128  29.461  1.00  0.00     0.338 C 
ATOM     23  O   UNL A   1      35.943  30.691  30.452  1.00  0.00    -0.246 OA
BRANCH  22  24
ATOM     24  C   UNL A   1      37.821  29.962  29.228  1.00  0.00     0.060 A 
ATOM     25  C   UNL A   1      38.241  29.755  27.913  1.00  0.00     0.016 A 
ATOM     26  C   UNL A   1      38.727  29.870  30.282  1.00  0.00     0.016 A 
ATOM     27  C   UNL A   1      39.550  29.373  27.644  1.00  0.00     0.010 A 
ATOM     28  C   UNL A   1      40.058  29.537  30.007  1.00  0.00     0.010 A 
ATOM     29  C   UNL A   1      40.471  29.258  28.692  1.00  0.00    -0.014 A 
BRANCH  29  30
ATOM     30  C   UNL A   1      41.864  28.837  28.401  1.00  0.00     0.031 A 
ATOM     31  C   UNL A   1      42.973  29.850  28.389  1.00  0.00     0.074 A 
ATOM     32  C   UNL A   1      42.124  27.539  28.149  1.00  0.00     0.049 A 
ATOM     33  N   UNL A   1      44.230  29.694  28.060  1.00  0.00    -0.248 NA
ATOM     34  C   UNL A   1      42.623  31.223  28.789  1.00  0.00     0.031 C 
ATOM     35  C   UNL A   1      41.132  26.462  28.155  1.00  0.00     0.029 A 
ATOM     36  N   UNL A   1      43.299  26.909  27.831  1.00  0.00    -0.354 N 
ATOM     37  C   UNL A   1      44.814  30.949  28.183  1.00  0.00     0.074 A 
ATOM     38  C   UNL A   1      43.773  31.859  28.608  1.00  0.00     0.031 C 
ATOM     39  C   UNL A   1      41.740  25.305  27.849  1.00  0.00     0.029 A 
ATOM     40  C   UNL A   1      43.151  25.566  27.583  1.00  0.00     0.049 A 
ATOM     41  H   UNL A   1      44.166  27.373  27.784  1.00  0.00     0.167 HD
ATOM     42  C   UNL A   1      46.103  31.303  27.962  1.00  0.00     0.037 A 
ATOM     43  C   UNL A   1      44.044  24.651  27.160  1.00  0.00     0.037 A 
ATOM     44  C   UNL A   1      47.143  30.382  27.581  1.00  0.00     0.049 A 
ATOM     45  C   UNL A   1      45.466  25.074  26.913  1.00  0.00     0.074 A 
ATOM     46  C   UNL A   1      48.488  30.636  27.382  1.00  0.00     0.029 A 
ATOM     47  N   UNL A   1      46.954  29.028  27.346  1.00  0.00    -0.354 N 
ATOM     48  N   UNL A   1      46.006  26.262  27.044  1.00  0.00    -0.248 NA
ATOM     49  C   UNL A   1      46.399  24.035  26.460  1.00  0.00     0.031 C 
ATOM     50  C   UNL A   1      49.107  29.444  26.991  1.00  0.00     0.029 A 
ATOM     51  C   UNL A   1      48.154  28.439  26.981  1.00  0.00     0.049 A 
ATOM     52  H   UNL A   1      46.094  28.555  27.426  1.00  0.00     0.167 HD
ATOM     53  C   UNL A   1      47.344  26.111  26.701  1.00  0.00     0.074 A 
ATOM     54  C   UNL A   1      47.535  24.712  26.374  1.00  0.00     0.031 C 
ATOM     55  C   UNL A   1      48.325  27.045  26.658  1.00  0.00     0.037 A 
BRANCH  42  56
ATOM     56  C   UNL A   1      46.464  32.755  28.099  1.00  0.00     0.058 A 
ATOM     57  C   UNL A   1      47.008  33.277  29.283  1.00  0.00     0.135 A 
ATOM     58  C   UNL A   1      46.315  33.625  27.007  1.00  0.00     0.135 A 
ATOM     59  F   UNL A   1      47.158  32.492  30.361  1.00  0.00    -0.206 F 
ATOM     60  C   UNL A   1      47.377  34.616  29.383  1.00  0.00     0.059 A 
ATOM     61  C   UNL A   1      46.696  34.962  27.078  1.00  0.00     0.059 A 
ATOM     62  F   UNL A   1      45.797  33.177  25.852  1.00  0.00    -0.206 F 
ATOM     63  C   UNL A   1      47.217  35.450  28.276  1.00  0.00     0.060 A 
BRANCH  63  64
ATOM     64  S   UNL A   1      47.719  37.180  28.411  1.00  0.00     0.124 S 
ATOM     65  O   UNL A   1      48.377  37.191  29.715  1.00  0.00    -0.237 OA
ATOM     66  O   UNL A   1      48.597  37.345  27.258  1.00  0.00    -0.237 OA
ATOM     67  O   UNL A   1      46.456  37.907  28.342  1.00  0.00    -0.744 OA
ENDBRANCH  63  64
ENDBRANCH  42  56
BRANCH  43  68
ATOM     68  C   UNL A   1      43.609  23.253  26.909  1.00  0.00     0.058 A 
ATOM     69  C   UNL A   1      43.338  22.377  27.970  1.00  0.00     0.135 A 
ATOM     70  C   UNL A   1      43.447  22.771  25.601  1.00  0.00     0.135 A 
ATOM     71  F   UNL A   1      43.487  22.790  29.237  1.00  0.00    -0.206 F 
ATOM     72  C   UNL A   1      42.937  21.064  27.742  1.00  0.00     0.059 A 
ATOM     73  C   UNL A   1      43.023  21.470  25.349  1.00  0.00     0.059 A 
ATOM     74  F   UNL A   1      43.680  23.576  24.553  1.00  0.00    -0.206 F 
ATOM     75  C   UNL A   1      42.782  20.620  26.428  1.00  0.00     0.060 A 
BRANCH  75  76
ATOM     76  S   UNL A   1      42.216  18.930  26.139  1.00  0.00     0.124 S 
ATOM     77  O   UNL A   1      40.841  19.151  25.709  1.00  0.00    -0.237 OA
ATOM     78  O   UNL A   1      43.140  18.463  25.110  1.00  0.00    -0.237 OA
ATOM     79  O   UNL A   1      42.377  18.297  27.445  1.00  0.00    -0.744 OA
ENDBRANCH  75  76
ENDBRANCH  43  68
BRANCH  55  80
ATOM     80  C   UNL A   1      49.695  26.579  26.259  1.00  0.00     0.058 A 
ATOM     81  C   UNL A   1      50.181  26.766  24.955  1.00  0.00     0.135 A 
ATOM     82  C   UNL A   1      50.544  25.971  27.197  1.00  0.00     0.135 A 
ATOM     83  F   UNL A   1      49.405  27.337  24.021  1.00  0.00    -0.206 F 
ATOM     84  C   UNL A   1      51.455  26.343  24.589  1.00  0.00     0.059 A 
ATOM     85  C   UNL A   1      51.829  25.560  26.857  1.00  0.00     0.059 A 
ATOM     86  F   UNL A   1      50.129  25.778  28.460  1.00  0.00    -0.206 F 
ATOM     87  C   UNL A   1      52.271  25.739  25.547  1.00  0.00     0.060 A 
BRANCH  87  88
ATOM     88  S   UNL A   1      53.930  25.214  25.069  1.00  0.00     0.124 S 
ATOM     89  O   UNL A   1      53.737  23.783  24.860  1.00  0.00    -0.237 OA
ATOM     90  O   UNL A   1      54.178  26.003  23.866  1.00  0.00    -0.237 OA
ATOM     91  O   UNL A   1      54.746  25.576  26.225  1.00  0.00    -0.744 OA
ENDBRANCH  87  88
ENDBRANCH  55  80
ENDBRANCH  29  30
ENDBRANCH  22  24
ENDBRANCH  21  22
ENDBRANCH  20  21
ENDBRANCH   1  20
TORSDOF 17
ENDMDL
