MODEL 1
REMARK VINA RESULT:     -12.0      0.000      0.000
REMARK SMILES Cc1ccnc(C(=O)c2[nH]c3ccc(C(C)(C)C)cc3c2CC(=O)OCCOC(=O)c2ccc(-c3c4nc(c(-c5c(F)cc(S(=O)(=O)[O-])cc5F)c5ccc([nH]5)c(-c5c(F)cc(S(=O)(=O)[O-])cc5F)c5nc(c(-c6c(F)cc(S(=O)(=O)[O-])cc6F)c6ccc3[nH]6)C=C5)C=C4)cc2)c1
REMARK SMILES IDX 26 1 25 2 23 3 24 4 22 5 21 6 9 7 10 8 11 9 20 11 12 12
REMARK SMILES IDX 19 13 13 14 14 15 7 16 8 17 6 18 1 19 2 20 3 21 97 22 4 23
REMARK SMILES IDX 5 24 15 25 16 26 17 27 18 28 27 29 28 30 29 31 30 32 31 33
REMARK SMILES IDX 32 34 96 35 33 36 95 37 34 38 35 39 36 40 89 41 37 42 94 43
REMARK SMILES IDX 88 44 90 45 38 46 93 47 87 48 86 49 39 51 73 52 52 53 72 54
REMARK SMILES IDX 53 55 56 56 71 57 91 58 54 59 55 60 70 62 92 63 57 64 40 65
REMARK SMILES IDX 41 66 50 67 42 68 43 69 49 70 51 71 44 72 45 73 46 74 47 75
REMARK SMILES IDX 48 76 74 77 75 78 84 79 76 80 77 81 83 82 85 83 78 84 79 85
REMARK SMILES IDX 80 86 81 87 82 88 58 89 59 90 68 91 60 92 61 93 67 94 69 95
REMARK SMILES IDX 62 96 63 97 64 98 65 99 66 100
REMARK H PARENT 10 10 90 50 56 61
REMARK Flexibility Score: inf
ROOT
ATOM      1  C   UNL A   1      34.481  31.697  27.836  1.00  0.00     0.274 C 
ENDROOT
BRANCH   1   2
ATOM      2  O   UNL A   1      33.213  31.062  27.554  1.00  0.00    -0.462 OA
BRANCH   2   3
ATOM      3  C   UNL A   1      33.263  29.927  26.814  1.00  0.00     0.310 C 
ATOM      4  O   UNL A   1      34.295  29.477  26.319  1.00  0.00    -0.252 OA
BRANCH   3   5
ATOM      5  C   UNL A   1      31.970  29.143  26.765  1.00  0.00     0.161 C 
BRANCH   5   6
ATOM      6  C   UNL A   1      31.607  28.416  25.511  1.00  0.00     0.000 A 
ATOM      7  C   UNL A   1      32.078  27.180  25.067  1.00  0.00     0.093 A 
ATOM      8  N   UNL A   1      31.507  26.947  23.840  1.00  0.00    -0.352 N 
ATOM      9  C   UNL A   1      30.823  28.046  23.401  1.00  0.00     0.046 A 
ATOM     10  H   UNL A   1      31.581  26.101  23.343  1.00  0.00     0.167 HD
ATOM     11  C   UNL A   1      30.798  28.958  24.449  1.00  0.00     0.004 A 
ATOM     12  C   UNL A   1      30.230  28.289  22.165  1.00  0.00     0.027 A 
ATOM     13  C   UNL A   1      30.083  30.164  24.259  1.00  0.00     0.015 A 
ATOM     14  C   UNL A   1      29.554  29.501  21.997  1.00  0.00     0.006 A 
ATOM     15  C   UNL A   1      29.443  30.449  23.027  1.00  0.00    -0.042 A 
BRANCH   7  16
ATOM     16  C   UNL A   1      32.959  26.170  25.635  1.00  0.00     0.227 C 
ATOM     17  O   UNL A   1      33.992  26.514  26.209  1.00  0.00    -0.285 OA
BRANCH  16  18
ATOM     18  C   UNL A   1      32.459  24.750  25.790  1.00  0.00     0.113 A 
ATOM     19  C   UNL A   1      32.294  21.495  23.836  1.00  0.00     0.044 C 
ATOM     20  C   UNL A   1      32.086  22.548  24.883  1.00  0.00    -0.047 A 
ATOM     21  C   UNL A   1      31.125  22.349  25.875  1.00  0.00     0.023 A 
ATOM     22  C   UNL A   1      32.779  23.764  24.852  1.00  0.00     0.036 A 
ATOM     23  C   UNL A   1      30.889  23.366  26.782  1.00  0.00     0.112 A 
ATOM     24  N   UNL A   1      31.525  24.555  26.760  1.00  0.00    -0.253 NA
ENDBRANCH  16  18
ENDBRANCH   7  16
BRANCH  15  25
ATOM     25  C   UNL A   1      28.647  31.756  22.850  1.00  0.00    -0.013 C 
ATOM     26  C   UNL A   1      27.350  31.675  23.683  1.00  0.00     0.016 C 
ATOM     27  C   UNL A   1      29.485  32.961  23.326  1.00  0.00     0.016 C 
ATOM     28  C   UNL A   1      28.234  32.039  21.387  1.00  0.00     0.016 C 
ENDBRANCH  15  25
ENDBRANCH   5   6
ENDBRANCH   3   5
ENDBRANCH   2   3
ENDBRANCH   1   2
BRANCH   1  29
ATOM     29  C   UNL A   1      34.710  31.857  29.345  1.00  0.00     0.275 C 
BRANCH  29  30
ATOM     30  O   UNL A   1      36.112  31.881  29.690  1.00  0.00    -0.458 OA
BRANCH  30  31
ATOM     31  C   UNL A   1      36.490  30.830  30.447  1.00  0.00     0.338 C 
ATOM     32  O   UNL A   1      35.888  30.371  31.405  1.00  0.00    -0.246 OA
BRANCH  31  33
ATOM     33  C   UNL A   1      37.687  30.159  29.944  1.00  0.00     0.060 A 
ATOM     34  C   UNL A   1      38.690  29.858  30.864  1.00  0.00     0.016 A 
ATOM     35  C   UNL A   1      37.936  30.095  28.571  1.00  0.00     0.016 A 
ATOM     36  C   UNL A   1      39.974  29.584  30.417  1.00  0.00     0.010 A 
ATOM     37  C   UNL A   1      39.210  29.730  28.122  1.00  0.00     0.010 A 
ATOM     38  C   UNL A   1      40.247  29.507  29.042  1.00  0.00    -0.014 A 
BRANCH  38  39
ATOM     39  C   UNL A   1      41.621  29.146  28.614  1.00  0.00     0.031 A 
ATOM     40  C   UNL A   1      42.743  30.146  28.640  1.00  0.00     0.074 A 
ATOM     41  C   UNL A   1      41.864  27.863  28.279  1.00  0.00     0.049 A 
ATOM     42  N   UNL A   1      44.012  29.966  28.379  1.00  0.00    -0.248 NA
ATOM     43  C   UNL A   1      42.401  31.525  29.017  1.00  0.00     0.031 C 
ATOM     44  C   UNL A   1      40.855  26.801  28.236  1.00  0.00     0.029 A 
ATOM     45  N   UNL A   1      43.029  27.230  27.938  1.00  0.00    -0.354 N 
ATOM     46  C   UNL A   1      44.624  31.198  28.576  1.00  0.00     0.074 A 
ATOM     47  C   UNL A   1      43.581  32.130  28.949  1.00  0.00     0.031 C 
ATOM     48  C   UNL A   1      41.452  25.641  27.924  1.00  0.00     0.029 A 
ATOM     49  C   UNL A   1      42.869  25.888  27.693  1.00  0.00     0.049 A 
ATOM     50  H   UNL A   1      43.897  27.691  27.875  1.00  0.00     0.167 HD
ATOM     51  C   UNL A   1      45.936  31.518  28.463  1.00  0.00     0.037 A 
ATOM     52  C   UNL A   1      43.761  24.960  27.302  1.00  0.00     0.037 A 
ATOM     53  C   UNL A   1      46.965  30.595  28.054  1.00  0.00     0.049 A 
ATOM     54  C   UNL A   1      45.190  25.364  27.097  1.00  0.00     0.074 A 
ATOM     55  C   UNL A   1      48.320  30.829  27.885  1.00  0.00     0.029 A 
ATOM     56  N   UNL A   1      46.750  29.263  27.734  1.00  0.00    -0.354 N 
ATOM     57  N   UNL A   1      45.749  26.534  27.291  1.00  0.00    -0.248 NA
ATOM     58  C   UNL A   1      46.103  24.326  26.607  1.00  0.00     0.031 C 
ATOM     59  C   UNL A   1      48.918  29.647  27.432  1.00  0.00     0.029 A 
ATOM     60  C   UNL A   1      47.942  28.668  27.348  1.00  0.00     0.049 A 
ATOM     61  H   UNL A   1      45.879  28.806  27.776  1.00  0.00     0.167 HD
ATOM     62  C   UNL A   1      47.084  26.375  26.944  1.00  0.00     0.074 A 
ATOM     63  C   UNL A   1      47.251  24.988  26.555  1.00  0.00     0.031 C 
ATOM     64  C   UNL A   1      48.081  27.294  26.942  1.00  0.00     0.037 A 
BRANCH  51  65
ATOM     65  C   UNL A   1      46.340  32.931  28.776  1.00  0.00     0.058 A 
ATOM     66  C   UNL A   1      46.336  33.925  27.786  1.00  0.00     0.135 A 
ATOM     67  C   UNL A   1      46.672  33.309  30.087  1.00  0.00     0.135 A 
ATOM     68  F   UNL A   1      46.049  33.611  26.512  1.00  0.00    -0.206 F 
ATOM     69  C   UNL A   1      46.651  35.247  28.083  1.00  0.00     0.059 A 
ATOM     70  C   UNL A   1      46.979  34.629  30.409  1.00  0.00     0.059 A 
ATOM     71  F   UNL A   1      46.698  32.394  31.067  1.00  0.00    -0.206 F 
ATOM     72  C   UNL A   1      46.970  35.590  29.398  1.00  0.00     0.060 A 
BRANCH  72  73
ATOM     73  S   UNL A   1      47.362  37.314  29.769  1.00  0.00     0.124 S 
ATOM     74  O   UNL A   1      48.159  37.174  30.983  1.00  0.00    -0.237 OA
ATOM     75  O   UNL A   1      48.092  37.730  28.575  1.00  0.00    -0.237 OA
ATOM     76  O   UNL A   1      46.051  37.931  29.946  1.00  0.00    -0.744 OA
ENDBRANCH  72  73
ENDBRANCH  51  65
BRANCH  52  77
ATOM     77  C   UNL A   1      43.309  23.571  27.044  1.00  0.00     0.058 A 
ATOM     78  C   UNL A   1      42.994  23.137  25.750  1.00  0.00     0.135 A 
ATOM     79  C   UNL A   1      43.205  22.645  28.093  1.00  0.00     0.135 A 
ATOM     80  F   UNL A   1      43.076  23.991  24.718  1.00  0.00    -0.206 F 
ATOM     81  C   UNL A   1      42.579  21.833  25.504  1.00  0.00     0.059 A 
ATOM     82  C   UNL A   1      42.815  21.331  27.869  1.00  0.00     0.059 A 
ATOM     83  F   UNL A   1      43.514  23.012  29.347  1.00  0.00    -0.206 F 
ATOM     84  C   UNL A   1      42.492  20.938  26.571  1.00  0.00     0.060 A 
BRANCH  84  85
ATOM     85  S   UNL A   1      42.004  19.229  26.252  1.00  0.00     0.124 S 
ATOM     86  O   UNL A   1      42.202  18.622  27.563  1.00  0.00    -0.237 OA
ATOM     87  O   UNL A   1      40.618  19.371  25.817  1.00  0.00    -0.237 OA
ATOM     88  O   UNL A   1      42.937  18.810  25.210  1.00  0.00    -0.744 OA
ENDBRANCH  84  85
ENDBRANCH  52  77
BRANCH  64  89
ATOM     89  C   UNL A   1      49.429  26.811  26.498  1.00  0.00     0.058 A 
ATOM     90  C   UNL A   1      49.877  27.014  25.184  1.00  0.00     0.135 A 
ATOM     91  C   UNL A   1      50.268  26.118  27.384  1.00  0.00     0.135 A 
ATOM     92  F   UNL A   1      49.104  27.664  24.300  1.00  0.00    -0.206 F 
ATOM     93  C   UNL A   1      51.099  26.511  24.750  1.00  0.00     0.059 A 
ATOM     94  C   UNL A   1      51.502  25.623  26.976  1.00  0.00     0.059 A 
ATOM     95  F   UNL A   1      49.885  25.906  28.653  1.00  0.00    -0.206 F 
ATOM     96  C   UNL A   1      51.898  25.805  25.651  1.00  0.00     0.060 A 
BRANCH  96  97
ATOM     97  S   UNL A   1      53.475  25.135  25.083  1.00  0.00     0.124 S 
ATOM     98  O   UNL A   1      53.497  25.581  23.694  1.00  0.00    -0.237 OA
ATOM     99  O   UNL A   1      54.437  25.781  25.971  1.00  0.00    -0.237 OA
ATOM    100  O   UNL A   1      53.317  23.698  25.283  1.00  0.00    -0.744 OA
ENDBRANCH  96  97
ENDBRANCH  64  89
ENDBRANCH  38  39
ENDBRANCH  31  33
ENDBRANCH  30  31
ENDBRANCH  29  30
ENDBRANCH   1  29
TORSDOF 18
ENDMDL
MODEL 2
REMARK VINA RESULT:     -11.9      6.722     14.151
REMARK SMILES Cc1ccnc(C(=O)c2[nH]c3ccc(C(C)(C)C)cc3c2CC(=O)OCCOC(=O)c2ccc(-c3c4nc(c(-c5c(F)cc(S(=O)(=O)[O-])cc5F)c5ccc([nH]5)c(-c5c(F)cc(S(=O)(=O)[O-])cc5F)c5nc(c(-c6c(F)cc(S(=O)(=O)[O-])cc6F)c6ccc3[nH]6)C=C5)C=C4)cc2)c1
REMARK SMILES IDX 26 1 25 2 23 3 24 4 22 5 21 6 9 7 10 8 11 9 20 11 12 12
REMARK SMILES IDX 19 13 13 14 14 15 7 16 8 17 6 18 1 19 2 20 3 21 97 22 4 23
REMARK SMILES IDX 5 24 15 25 16 26 17 27 18 28 27 29 28 30 29 31 30 32 31 33
REMARK SMILES IDX 32 34 96 35 33 36 95 37 34 38 35 39 36 40 89 41 37 42 94 43
REMARK SMILES IDX 88 44 90 45 38 46 93 47 87 48 86 49 39 51 73 52 52 53 72 54
REMARK SMILES IDX 53 55 56 56 71 57 91 58 54 59 55 60 70 62 92 63 57 64 40 65
REMARK SMILES IDX 41 66 50 67 42 68 43 69 49 70 51 71 44 72 45 73 46 74 47 75
REMARK SMILES IDX 48 76 74 77 75 78 84 79 76 80 77 81 83 82 85 83 78 84 79 85
REMARK SMILES IDX 80 86 81 87 82 88 58 89 59 90 68 91 60 92 61 93 67 94 69 95
REMARK SMILES IDX 62 96 63 97 64 98 65 99 66 100
REMARK H PARENT 10 10 90 50 56 61
REMARK Flexibility Score: inf
ROOT
ATOM      1  C   UNL A   1      42.435  21.938  27.154  1.00  0.00     0.274 C 
ENDROOT
BRANCH   1   2
ATOM      2  O   UNL A   1      42.458  22.557  28.459  1.00  0.00    -0.462 OA
BRANCH   2   3
ATOM      3  C   UNL A   1      43.555  23.300  28.751  1.00  0.00     0.310 C 
ATOM      4  O   UNL A   1      44.706  22.952  28.495  1.00  0.00    -0.252 OA
BRANCH   3   5
ATOM      5  C   UNL A   1      43.261  24.686  29.280  1.00  0.00     0.161 C 
BRANCH   5   6
ATOM      6  C   UNL A   1      44.340  25.439  29.989  1.00  0.00     0.000 A 
ATOM      7  C   UNL A   1      45.174  26.432  29.476  1.00  0.00     0.093 A 
ATOM      8  N   UNL A   1      46.043  26.787  30.479  1.00  0.00    -0.352 N 
ATOM      9  C   UNL A   1      45.914  25.955  31.556  1.00  0.00     0.046 A 
ATOM     10  H   UNL A   1      46.674  27.540  30.428  1.00  0.00     0.167 HD
ATOM     11  C   UNL A   1      44.810  25.147  31.320  1.00  0.00     0.004 A 
ATOM     12  C   UNL A   1      46.690  25.869  32.710  1.00  0.00     0.027 A 
ATOM     13  C   UNL A   1      44.428  24.236  32.333  1.00  0.00     0.015 A 
ATOM     14  C   UNL A   1      46.305  24.939  33.680  1.00  0.00     0.006 A 
ATOM     15  C   UNL A   1      45.172  24.125  33.534  1.00  0.00    -0.042 A 
BRANCH   7  16
ATOM     16  C   UNL A   1      45.259  27.120  28.196  1.00  0.00     0.227 C 
ATOM     17  O   UNL A   1      45.104  28.339  28.147  1.00  0.00    -0.285 OA
BRANCH  16  18
ATOM     18  C   UNL A   1      45.835  26.395  26.999  1.00  0.00     0.113 A 
ATOM     19  C   UNL A   1      44.927  23.620  24.565  1.00  0.00     0.044 C 
ATOM     20  C   UNL A   1      45.687  24.669  25.322  1.00  0.00    -0.047 A 
ATOM     21  C   UNL A   1      47.070  24.762  25.165  1.00  0.00     0.023 A 
ATOM     22  C   UNL A   1      45.055  25.515  26.242  1.00  0.00     0.036 A 
ATOM     23  C   UNL A   1      47.763  25.680  25.933  1.00  0.00     0.112 A 
ATOM     24  N   UNL A   1      47.183  26.488  26.843  1.00  0.00    -0.253 NA
ENDBRANCH  16  18
ENDBRANCH   7  16
BRANCH  15  25
ATOM     25  C   UNL A   1      44.724  23.145  34.635  1.00  0.00    -0.013 C 
ATOM     26  C   UNL A   1      43.194  22.954  34.552  1.00  0.00     0.016 C 
ATOM     27  C   UNL A   1      45.420  21.780  34.452  1.00  0.00     0.016 C 
ATOM     28  C   UNL A   1      45.047  23.630  36.068  1.00  0.00     0.016 C 
ENDBRANCH  15  25
ENDBRANCH   5   6
ENDBRANCH   3   5
ENDBRANCH   2   3
ENDBRANCH   1   2
BRANCH   1  29
ATOM     29  C   UNL A   1      41.798  22.859  26.103  1.00  0.00     0.275 C 
BRANCH  29  30
ATOM     30  O   UNL A   1      40.916  23.839  26.691  1.00  0.00    -0.458 OA
BRANCH  30  31
ATOM     31  C   UNL A   1      41.200  25.102  26.313  1.00  0.00     0.338 C 
ATOM     32  O   UNL A   1      41.669  25.452  25.241  1.00  0.00    -0.246 OA
BRANCH  31  33
ATOM     33  C   UNL A   1      40.777  26.104  27.290  1.00  0.00     0.060 A 
ATOM     34  C   UNL A   1      41.498  27.295  27.343  1.00  0.00     0.016 A 
ATOM     35  C   UNL A   1      39.888  25.762  28.311  1.00  0.00     0.016 A 
ATOM     36  C   UNL A   1      41.407  28.106  28.464  1.00  0.00     0.010 A 
ATOM     37  C   UNL A   1      39.731  26.627  29.400  1.00  0.00     0.010 A 
ATOM     38  C   UNL A   1      40.516  27.787  29.501  1.00  0.00    -0.014 A 
BRANCH  38  39
ATOM     39  C   UNL A   1      40.406  28.719  30.651  1.00  0.00     0.031 A 
ATOM     40  C   UNL A   1      41.346  28.642  31.820  1.00  0.00     0.074 A 
ATOM     41  C   UNL A   1      39.488  29.704  30.581  1.00  0.00     0.049 A 
ATOM     42  N   UNL A   1      41.434  29.433  32.858  1.00  0.00    -0.248 NA
ATOM     43  C   UNL A   1      42.321  27.541  31.824  1.00  0.00     0.031 C 
ATOM     44  C   UNL A   1      38.534  29.887  29.484  1.00  0.00     0.029 A 
ATOM     45  N   UNL A   1      39.223  30.745  31.431  1.00  0.00    -0.354 N 
ATOM     46  C   UNL A   1      42.481  28.942  33.629  1.00  0.00     0.074 A 
ATOM     47  C   UNL A   1      42.980  27.761  32.955  1.00  0.00     0.031 C 
ATOM     48  C   UNL A   1      37.813  30.996  29.710  1.00  0.00     0.029 A 
ATOM     49  C   UNL A   1      38.216  31.567  30.989  1.00  0.00     0.049 A 
ATOM     50  H   UNL A   1      39.708  30.890  32.276  1.00  0.00     0.167 HD
ATOM     51  C   UNL A   1      42.983  29.435  34.787  1.00  0.00     0.037 A 
ATOM     52  C   UNL A   1      37.660  32.650  31.560  1.00  0.00     0.037 A 
ATOM     53  C   UNL A   1      42.458  30.589  35.473  1.00  0.00     0.049 A 
ATOM     54  C   UNL A   1      38.176  33.120  32.887  1.00  0.00     0.074 A 
ATOM     55  C   UNL A   1      42.882  31.154  36.665  1.00  0.00     0.029 A 
ATOM     56  N   UNL A   1      41.382  31.348  35.036  1.00  0.00    -0.354 N 
ATOM     57  N   UNL A   1      39.168  32.642  33.598  1.00  0.00    -0.248 NA
ATOM     58  C   UNL A   1      37.488  34.265  33.493  1.00  0.00     0.031 C 
ATOM     59  C   UNL A   1      42.041  32.233  36.964  1.00  0.00     0.029 A 
ATOM     60  C   UNL A   1      41.114  32.361  35.943  1.00  0.00     0.049 A 
ATOM     61  H   UNL A   1      40.884  31.191  34.202  1.00  0.00     0.167 HD
ATOM     62  C   UNL A   1      39.224  33.428  34.741  1.00  0.00     0.074 A 
ATOM     63  C   UNL A   1      38.182  34.429  34.611  1.00  0.00     0.031 C 
ATOM     64  C   UNL A   1      40.058  33.329  35.805  1.00  0.00     0.037 A 
BRANCH  51  65
ATOM     65  C   UNL A   1      44.158  28.725  35.398  1.00  0.00     0.058 A 
ATOM     66  C   UNL A   1      45.474  29.074  35.060  1.00  0.00     0.135 A 
ATOM     67  C   UNL A   1      43.969  27.733  36.373  1.00  0.00     0.135 A 
ATOM     68  F   UNL A   1      45.709  30.000  34.116  1.00  0.00    -0.206 F 
ATOM     69  C   UNL A   1      46.566  28.462  35.667  1.00  0.00     0.059 A 
ATOM     70  C   UNL A   1      45.047  27.116  37.002  1.00  0.00     0.059 A 
ATOM     71  F   UNL A   1      42.730  27.359  36.725  1.00  0.00    -0.206 F 
ATOM     72  C   UNL A   1      46.343  27.484  36.639  1.00  0.00     0.060 A 
BRANCH  72  73
ATOM     73  S   UNL A   1      47.772  26.710  37.427  1.00  0.00     0.124 S 
ATOM     74  O   UNL A   1      47.473  26.923  38.839  1.00  0.00    -0.237 OA
ATOM     75  O   UNL A   1      47.675  25.331  36.960  1.00  0.00    -0.237 OA
ATOM     76  O   UNL A   1      48.903  27.469  36.902  1.00  0.00    -0.744 OA
ENDBRANCH  72  73
ENDBRANCH  51  65
BRANCH  52  77
ATOM     77  C   UNL A   1      36.525  33.332  30.890  1.00  0.00     0.058 A 
ATOM     78  C   UNL A   1      35.212  33.185  31.354  1.00  0.00     0.135 A 
ATOM     79  C   UNL A   1      36.744  34.163  29.780  1.00  0.00     0.135 A 
ATOM     80  F   UNL A   1      34.957  32.397  32.409  1.00  0.00    -0.206 F 
ATOM     81  C   UNL A   1      34.148  33.830  30.733  1.00  0.00     0.059 A 
ATOM     82  C   UNL A   1      35.701  34.837  29.159  1.00  0.00     0.059 A 
ATOM     83  F   UNL A   1      37.989  34.347  29.313  1.00  0.00    -0.206 F 
ATOM     84  C   UNL A   1      34.403  34.654  29.635  1.00  0.00     0.060 A 
BRANCH  84  85
ATOM     85  S   UNL A   1      33.034  35.536  28.856  1.00  0.00     0.124 S 
ATOM     86  O   UNL A   1      32.470  34.498  28.001  1.00  0.00    -0.237 OA
ATOM     87  O   UNL A   1      32.220  35.933  30.001  1.00  0.00    -0.237 OA
ATOM     88  O   UNL A   1      33.702  36.634  28.164  1.00  0.00    -0.744 OA
ENDBRANCH  84  85
ENDBRANCH  52  77
BRANCH  64  89
ATOM     89  C   UNL A   1      39.858  34.332  36.902  1.00  0.00     0.058 A 
ATOM     90  C   UNL A   1      40.480  35.589  36.859  1.00  0.00     0.135 A 
ATOM     91  C   UNL A   1      39.062  34.025  38.015  1.00  0.00     0.135 A 
ATOM     92  F   UNL A   1      41.259  35.923  35.817  1.00  0.00    -0.206 F 
ATOM     93  C   UNL A   1      40.351  36.497  37.905  1.00  0.00     0.059 A 
ATOM     94  C   UNL A   1      38.904  34.926  39.064  1.00  0.00     0.059 A 
ATOM     95  F   UNL A   1      38.442  32.838  38.098  1.00  0.00    -0.206 F 
ATOM     96  C   UNL A   1      39.570  36.150  39.008  1.00  0.00     0.060 A 
BRANCH  96  97
ATOM     97  S   UNL A   1      39.417  37.320  40.375  1.00  0.00     0.124 S 
ATOM     98  O   UNL A   1      40.804  37.734  40.559  1.00  0.00    -0.237 OA
ATOM     99  O   UNL A   1      38.520  38.334  39.831  1.00  0.00    -0.237 OA
ATOM    100  O   UNL A   1      38.853  36.507  41.448  1.00  0.00    -0.744 OA
ENDBRANCH  96  97
ENDBRANCH  64  89
ENDBRANCH  38  39
ENDBRANCH  31  33
ENDBRANCH  30  31
ENDBRANCH  29  30
ENDBRANCH   1  29
TORSDOF 18
ENDMDL
MODEL 3
REMARK VINA RESULT:     -11.8      6.602     14.163
REMARK SMILES Cc1ccnc(C(=O)c2[nH]c3ccc(C(C)(C)C)cc3c2CC(=O)OCCOC(=O)c2ccc(-c3c4nc(c(-c5c(F)cc(S(=O)(=O)[O-])cc5F)c5ccc([nH]5)c(-c5c(F)cc(S(=O)(=O)[O-])cc5F)c5nc(c(-c6c(F)cc(S(=O)(=O)[O-])cc6F)c6ccc3[nH]6)C=C5)C=C4)cc2)c1
REMARK SMILES IDX 26 1 25 2 23 3 24 4 22 5 21 6 9 7 10 8 11 9 20 11 12 12
REMARK SMILES IDX 19 13 13 14 14 15 7 16 8 17 6 18 1 19 2 20 3 21 97 22 4 23
REMARK SMILES IDX 5 24 15 25 16 26 17 27 18 28 27 29 28 30 29 31 30 32 31 33
REMARK SMILES IDX 32 34 96 35 33 36 95 37 34 38 35 39 36 40 89 41 37 42 94 43
REMARK SMILES IDX 88 44 90 45 38 46 93 47 87 48 86 49 39 51 73 52 52 53 72 54
REMARK SMILES IDX 53 55 56 56 71 57 91 58 54 59 55 60 70 62 92 63 57 64 40 65
REMARK SMILES IDX 41 66 50 67 42 68 43 69 49 70 51 71 44 72 45 73 46 74 47 75
REMARK SMILES IDX 48 76 74 77 75 78 84 79 76 80 77 81 83 82 85 83 78 84 79 85
REMARK SMILES IDX 80 86 81 87 82 88 58 89 59 90 68 91 60 92 61 93 67 94 69 95
REMARK SMILES IDX 62 96 63 97 64 98 65 99 66 100
REMARK H PARENT 10 10 90 50 56 61
REMARK Flexibility Score: inf
ROOT
ATOM      1  C   UNL A   1      42.872  21.987  26.771  1.00  0.00     0.274 C 
ENDROOT
BRANCH   1   2
ATOM      2  O   UNL A   1      42.841  22.474  28.131  1.00  0.00    -0.462 OA
BRANCH   2   3
ATOM      3  C   UNL A   1      43.912  23.204  28.530  1.00  0.00     0.310 C 
ATOM      4  O   UNL A   1      45.069  22.962  28.194  1.00  0.00    -0.252 OA
BRANCH   3   5
ATOM      5  C   UNL A   1      43.573  24.458  29.306  1.00  0.00     0.161 C 
BRANCH   5   6
ATOM      6  C   UNL A   1      44.662  25.186  30.025  1.00  0.00     0.000 A 
ATOM      7  C   UNL A   1      45.594  26.078  29.494  1.00  0.00     0.093 A 
ATOM      8  N   UNL A   1      46.429  26.448  30.520  1.00  0.00    -0.352 N 
ATOM      9  C   UNL A   1      46.180  25.711  31.643  1.00  0.00     0.046 A 
ATOM     10  H   UNL A   1      47.115  27.150  30.454  1.00  0.00     0.167 HD
ATOM     11  C   UNL A   1      45.035  24.964  31.399  1.00  0.00     0.004 A 
ATOM     12  C   UNL A   1      46.882  25.659  32.846  1.00  0.00     0.027 A 
ATOM     13  C   UNL A   1      44.532  24.160  32.449  1.00  0.00     0.015 A 
ATOM     14  C   UNL A   1      46.377  24.833  33.855  1.00  0.00     0.006 A 
ATOM     15  C   UNL A   1      45.197  24.089  33.698  1.00  0.00    -0.042 A 
BRANCH   7  16
ATOM     16  C   UNL A   1      45.800  26.661  28.176  1.00  0.00     0.227 C 
ATOM     17  O   UNL A   1      45.903  25.927  27.194  1.00  0.00    -0.285 OA
BRANCH  16  18
ATOM     18  C   UNL A   1      45.580  28.145  27.977  1.00  0.00     0.113 A 
ATOM     19  C   UNL A   1      43.774  31.064  29.609  1.00  0.00     0.044 C 
ATOM     20  C   UNL A   1      44.543  30.218  28.637  1.00  0.00    -0.047 A 
ATOM     21  C   UNL A   1      44.780  30.698  27.348  1.00  0.00     0.023 A 
ATOM     22  C   UNL A   1      44.968  28.925  28.962  1.00  0.00     0.036 A 
ATOM     23  C   UNL A   1      45.417  29.871  26.441  1.00  0.00     0.112 A 
ATOM     24  N   UNL A   1      45.815  28.613  26.721  1.00  0.00    -0.253 NA
ENDBRANCH  16  18
ENDBRANCH   7  16
BRANCH  15  25
ATOM     25  C   UNL A   1      44.618  23.228  34.837  1.00  0.00    -0.013 C 
ATOM     26  C   UNL A   1      45.703  23.019  35.915  1.00  0.00     0.016 C 
ATOM     27  C   UNL A   1      43.397  23.927  35.469  1.00  0.00     0.016 C 
ATOM     28  C   UNL A   1      44.152  21.825  34.379  1.00  0.00     0.016 C 
ENDBRANCH  15  25
ENDBRANCH   5   6
ENDBRANCH   3   5
ENDBRANCH   2   3
ENDBRANCH   1   2
BRANCH   1  29
ATOM     29  C   UNL A   1      42.224  22.982  25.799  1.00  0.00     0.275 C 
BRANCH  29  30
ATOM     30  O   UNL A   1      41.365  23.929  26.470  1.00  0.00    -0.458 OA
BRANCH  30  31
ATOM     31  C   UNL A   1      41.600  25.207  26.108  1.00  0.00     0.338 C 
ATOM     32  O   UNL A   1      42.043  25.588  25.035  1.00  0.00    -0.246 OA
BRANCH  31  33
ATOM     33  C   UNL A   1      41.155  26.179  27.104  1.00  0.00     0.060 A 
ATOM     34  C   UNL A   1      41.830  27.397  27.161  1.00  0.00     0.016 A 
ATOM     35  C   UNL A   1      40.296  25.790  28.134  1.00  0.00     0.016 A 
ATOM     36  C   UNL A   1      41.726  28.189  28.295  1.00  0.00     0.010 A 
ATOM     37  C   UNL A   1      40.124  26.635  29.237  1.00  0.00     0.010 A 
ATOM     38  C   UNL A   1      40.865  27.822  29.341  1.00  0.00    -0.014 A 
BRANCH  38  39
ATOM     39  C   UNL A   1      40.738  28.735  30.505  1.00  0.00     0.031 A 
ATOM     40  C   UNL A   1      41.707  28.687  31.652  1.00  0.00     0.074 A 
ATOM     41  C   UNL A   1      39.776  29.678  30.467  1.00  0.00     0.049 A 
ATOM     42  N   UNL A   1      41.782  29.469  32.699  1.00  0.00    -0.248 NA
ATOM     43  C   UNL A   1      42.730  27.632  31.622  1.00  0.00     0.031 C 
ATOM     44  C   UNL A   1      38.791  29.831  29.393  1.00  0.00     0.029 A 
ATOM     45  N   UNL A   1      39.483  30.696  31.335  1.00  0.00    -0.354 N 
ATOM     46  C   UNL A   1      42.867  29.017  33.441  1.00  0.00     0.074 A 
ATOM     47  C   UNL A   1      43.404  27.868  32.741  1.00  0.00     0.031 C 
ATOM     48  C   UNL A   1      38.026  30.902  29.648  1.00  0.00     0.029 A 
ATOM     49  C   UNL A   1      38.430  31.477  30.926  1.00  0.00     0.049 A 
ATOM     50  H   UNL A   1      39.979  30.853  32.172  1.00  0.00     0.167 HD
ATOM     51  C   UNL A   1      43.371  29.519  34.594  1.00  0.00     0.037 A 
ATOM     52  C   UNL A   1      37.838  32.527  31.523  1.00  0.00     0.037 A 
ATOM     53  C   UNL A   1      42.809  30.639  35.306  1.00  0.00     0.049 A 
ATOM     54  C   UNL A   1      38.362  33.003  32.844  1.00  0.00     0.074 A 
ATOM     55  C   UNL A   1      43.233  31.209  36.496  1.00  0.00     0.029 A 
ATOM     56  N   UNL A   1      41.691  31.354  34.901  1.00  0.00    -0.354 N 
ATOM     57  N   UNL A   1      39.390  32.563  33.528  1.00  0.00    -0.248 NA
ATOM     58  C   UNL A   1      37.636  34.109  33.479  1.00  0.00     0.031 C 
ATOM     59  C   UNL A   1      42.351  32.246  36.826  1.00  0.00     0.029 A 
ATOM     60  C   UNL A   1      41.397  32.343  35.827  1.00  0.00     0.049 A 
ATOM     61  H   UNL A   1      41.182  31.185  34.076  1.00  0.00     0.167 HD
ATOM     62  C   UNL A   1      39.436  33.337  34.679  1.00  0.00     0.074 A 
ATOM     63  C   UNL A   1      38.346  34.291  34.584  1.00  0.00     0.031 C 
ATOM     64  C   UNL A   1      40.296  33.264  35.724  1.00  0.00     0.037 A 
BRANCH  51  65
ATOM     65  C   UNL A   1      44.590  28.856  35.170  1.00  0.00     0.058 A 
ATOM     66  C   UNL A   1      44.479  27.751  36.027  1.00  0.00     0.135 A 
ATOM     67  C   UNL A   1      45.878  29.288  34.815  1.00  0.00     0.135 A 
ATOM     68  F   UNL A   1      43.271  27.314  36.416  1.00  0.00    -0.206 F 
ATOM     69  C   UNL A   1      45.606  27.096  36.516  1.00  0.00     0.059 A 
ATOM     70  C   UNL A   1      47.018  28.641  35.283  1.00  0.00     0.059 A 
ATOM     71  F   UNL A   1      46.036  30.346  34.006  1.00  0.00    -0.206 F 
ATOM     72  C   UNL A   1      46.872  27.547  36.137  1.00  0.00     0.060 A 
BRANCH  72  73
ATOM     73  S   UNL A   1      48.322  26.676  36.769  1.00  0.00     0.124 S 
ATOM     74  O   UNL A   1      47.704  25.541  37.447  1.00  0.00    -0.237 OA
ATOM     75  O   UNL A   1      49.053  26.362  35.546  1.00  0.00    -0.237 OA
ATOM     76  O   UNL A   1      48.956  27.659  37.642  1.00  0.00    -0.744 OA
ENDBRANCH  72  73
ENDBRANCH  51  65
BRANCH  52  77
ATOM     77  C   UNL A   1      36.660  33.164  30.886  1.00  0.00     0.058 A 
ATOM     78  C   UNL A   1      35.365  32.954  31.377  1.00  0.00     0.135 A 
ATOM     79  C   UNL A   1      36.816  34.015  29.780  1.00  0.00     0.135 A 
ATOM     80  F   UNL A   1      35.170  32.145  32.430  1.00  0.00    -0.206 F 
ATOM     81  C   UNL A   1      34.260  33.558  30.788  1.00  0.00     0.059 A 
ATOM     82  C   UNL A   1      35.730  34.648  29.190  1.00  0.00     0.059 A 
ATOM     83  F   UNL A   1      38.040  34.258  29.287  1.00  0.00    -0.206 F 
ATOM     84  C   UNL A   1      34.453  34.403  29.693  1.00  0.00     0.060 A 
BRANCH  84  85
ATOM     85  S   UNL A   1      33.029  35.230  28.955  1.00  0.00     0.124 S 
ATOM     86  O   UNL A   1      33.651  36.415  28.375  1.00  0.00    -0.237 OA
ATOM     87  O   UNL A   1      32.541  34.236  28.005  1.00  0.00    -0.237 OA
ATOM     88  O   UNL A   1      32.157  35.468  30.101  1.00  0.00    -0.744 OA
ENDBRANCH  84  85
ENDBRANCH  52  77
BRANCH  64  89
ATOM     89  C   UNL A   1      40.075  34.244  36.838  1.00  0.00     0.058 A 
ATOM     90  C   UNL A   1      39.251  33.929  37.929  1.00  0.00     0.135 A 
ATOM     91  C   UNL A   1      40.668  35.514  36.800  1.00  0.00     0.135 A 
ATOM     92  F   UNL A   1      38.655  32.728  38.002  1.00  0.00    -0.206 F 
ATOM     93  C   UNL A   1      38.991  34.858  38.931  1.00  0.00     0.059 A 
ATOM     94  C   UNL A   1      40.437  36.452  37.802  1.00  0.00     0.059 A 
ATOM     95  F   UNL A   1      41.469  35.858  35.780  1.00  0.00    -0.206 F 
ATOM     96  C   UNL A   1      39.579  36.121  38.851  1.00  0.00     0.060 A 
BRANCH  96  97
ATOM     97  S   UNL A   1      39.227  37.334  40.141  1.00  0.00     0.124 S 
ATOM     98  O   UNL A   1      38.413  38.303  39.414  1.00  0.00    -0.237 OA
ATOM     99  O   UNL A   1      38.523  36.542  41.143  1.00  0.00    -0.237 OA
ATOM    100  O   UNL A   1      40.554  37.794  40.537  1.00  0.00    -0.744 OA
ENDBRANCH  96  97
ENDBRANCH  64  89
ENDBRANCH  38  39
ENDBRANCH  31  33
ENDBRANCH  30  31
ENDBRANCH  29  30
ENDBRANCH   1  29
TORSDOF 18
ENDMDL
