MODEL 1
REMARK VINA RESULT:     -11.6      0.000      0.000
REMARK SMILES CC1(C)C(C(=O)Nc2ccc(CC(=O)OCCOC(=O)c3ccc(-c4c5nc(c(-c6c(F)cc(S(=O)(=O)[O-])cc6F)c6ccc([nH]6)c(-c6c(F)cc(S(=O)(=O)[O-])cc6F)c6nc(c(-c7c(F)cc(S(=O)(=O)[O-])cc7F)c7ccc4[nH]7)C=C6)C=C5)cc3)cc2)C1(C)C
REMARK SMILES IDX 16 1 15 2 13 3 14 4 12 5 11 6 8 7 9 8 88 9 10 10 87 11 7 12
REMARK SMILES IDX 5 13 6 14 4 16 1 17 2 18 3 19 89 20 90 21 91 22 17 23 18 24
REMARK SMILES IDX 19 25 20 26 21 27 22 28 86 29 23 30 85 31 24 32 25 33 26 34
REMARK SMILES IDX 79 35 27 36 84 37 78 38 80 39 28 40 83 41 77 42 76 43 29 45
REMARK SMILES IDX 63 46 42 47 62 48 43 49 46 50 61 51 81 52 44 53 45 54 60 56
REMARK SMILES IDX 82 57 47 58 30 59 31 60 40 61 32 62 33 63 39 64 41 65 34 66
REMARK SMILES IDX 35 67 36 68 37 69 38 70 64 71 65 72 74 73 66 74 67 75 73 76
REMARK SMILES IDX 75 77 68 78 69 79 70 80 71 81 72 82 48 83 49 84 58 85 50 86
REMARK SMILES IDX 51 87 57 88 59 89 52 90 53 91 54 92 55 93 56 94
REMARK H PARENT 7 15 80 44 46 55
REMARK Flexibility Score: inf
ROOT
ATOM      1  C   UNL A   1      39.054  21.436  25.796  1.00  0.00     0.274 C 
ENDROOT
BRANCH   1   2
ATOM      2  O   UNL A   1      37.886  22.258  25.648  1.00  0.00    -0.462 OA
BRANCH   2   3
ATOM      3  C   UNL A   1      37.018  21.861  24.685  1.00  0.00     0.310 C 
ATOM      4  O   UNL A   1      36.895  22.393  23.587  1.00  0.00    -0.252 OA
BRANCH   3   5
ATOM      5  C   UNL A   1      36.159  20.706  25.107  1.00  0.00     0.158 C 
BRANCH   5   6
ATOM      6  C   UNL A   1      34.738  21.003  25.523  1.00  0.00    -0.037 A 
ATOM      7  C   UNL A   1      32.230  22.185  25.784  1.00  0.00     0.041 A 
ATOM      8  C   UNL A   1      32.377  21.071  24.955  1.00  0.00     0.026 A 
ATOM      9  C   UNL A   1      33.245  22.508  26.682  1.00  0.00     0.026 A 
ATOM     10  C   UNL A   1      33.643  20.495  24.808  1.00  0.00     0.006 A 
ATOM     11  C   UNL A   1      34.504  21.925  26.547  1.00  0.00     0.006 A 
BRANCH   7  12
ATOM     12  N   UNL A   1      31.165  23.076  25.530  1.00  0.00    -0.326 N 
ATOM     13  C   UNL A   1      31.300  24.443  25.690  1.00  0.00     0.228 C 
ATOM     14  O   UNL A   1      30.921  25.018  26.707  1.00  0.00    -0.274 OA
ATOM     15  H   UNL A   1      30.300  22.714  25.230  1.00  0.00     0.169 HD
BRANCH  13  16
ATOM     16  C   UNL A   1      31.734  25.285  24.511  1.00  0.00     0.091 C 
ATOM     17  C   UNL A   1      33.057  27.546  24.028  1.00  0.00     0.012 C 
ATOM     18  C   UNL A   1      33.043  26.109  24.508  1.00  0.00    -0.017 C 
ATOM     19  C   UNL A   1      33.966  25.953  25.704  1.00  0.00     0.012 C 
ATOM     20  C   UNL A   1      32.789  25.000  23.452  1.00  0.00    -0.017 C 
ATOM     21  C   UNL A   1      32.350  25.350  22.037  1.00  0.00     0.012 C 
ATOM     22  C   UNL A   1      33.692  23.798  23.409  1.00  0.00     0.012 C 
ENDBRANCH  13  16
ENDBRANCH   7  12
ENDBRANCH   5   6
ENDBRANCH   3   5
ENDBRANCH   2   3
ENDBRANCH   1   2
BRANCH   1  23
ATOM     23  C   UNL A   1      40.005  22.079  26.801  1.00  0.00     0.275 C 
BRANCH  23  24
ATOM     24  O   UNL A   1      39.804  23.505  26.822  1.00  0.00    -0.458 OA
BRANCH  24  25
ATOM     25  C   UNL A   1      40.917  24.261  26.674  1.00  0.00     0.338 C 
ATOM     26  O   UNL A   1      41.866  24.049  25.941  1.00  0.00    -0.246 OA
BRANCH  25  27
ATOM     27  C   UNL A   1      40.857  25.419  27.583  1.00  0.00     0.060 A 
ATOM     28  C   UNL A   1      41.905  26.340  27.638  1.00  0.00     0.016 A 
ATOM     29  C   UNL A   1      39.783  25.520  28.467  1.00  0.00     0.016 A 
ATOM     30  C   UNL A   1      41.906  27.337  28.616  1.00  0.00     0.010 A 
ATOM     31  C   UNL A   1      39.752  26.563  29.396  1.00  0.00     0.010 A 
ATOM     32  C   UNL A   1      40.824  27.467  29.497  1.00  0.00    -0.014 A 
BRANCH  32  33
ATOM     33  C   UNL A   1      40.795  28.538  30.530  1.00  0.00     0.031 A 
ATOM     34  C   UNL A   1      41.704  28.454  31.729  1.00  0.00     0.074 A 
ATOM     35  C   UNL A   1      39.915  29.554  30.425  1.00  0.00     0.049 A 
ATOM     36  N   UNL A   1      41.696  29.170  32.824  1.00  0.00    -0.248 NA
ATOM     37  C   UNL A   1      42.751  27.419  31.698  1.00  0.00     0.031 C 
ATOM     38  C   UNL A   1      38.987  29.759  29.311  1.00  0.00     0.029 A 
ATOM     39  N   UNL A   1      39.639  30.592  31.281  1.00  0.00    -0.354 N 
ATOM     40  C   UNL A   1      42.697  28.643  33.633  1.00  0.00     0.074 A 
ATOM     41  C   UNL A   1      43.297  27.546  32.900  1.00  0.00     0.031 C 
ATOM     42  C   UNL A   1      38.242  30.848  29.553  1.00  0.00     0.029 A 
ATOM     43  C   UNL A   1      38.593  31.382  30.865  1.00  0.00     0.049 A 
ATOM     44  H   UNL A   1      40.142  30.755  32.111  1.00  0.00     0.167 HD
ATOM     45  C   UNL A   1      43.076  29.034  34.872  1.00  0.00     0.037 A 
ATOM     46  C   UNL A   1      37.953  32.392  31.487  1.00  0.00     0.037 A 
ATOM     47  C   UNL A   1      42.512  30.157  35.575  1.00  0.00     0.049 A 
ATOM     48  C   UNL A   1      38.391  32.804  32.865  1.00  0.00     0.074 A 
ATOM     49  C   UNL A   1      42.875  30.669  36.810  1.00  0.00     0.029 A 
ATOM     50  N   UNL A   1      41.470  30.943  35.108  1.00  0.00    -0.354 N 
ATOM     51  N   UNL A   1      39.347  32.302  33.609  1.00  0.00    -0.248 NA
ATOM     52  C   UNL A   1      37.658  33.912  33.493  1.00  0.00     0.031 C 
ATOM     53  C   UNL A   1      42.028  31.743  37.105  1.00  0.00     0.029 A 
ATOM     54  C   UNL A   1      41.164  31.924  36.037  1.00  0.00     0.049 A 
ATOM     55  H   UNL A   1      41.014  30.822  34.243  1.00  0.00     0.167 HD
ATOM     56  C   UNL A   1      39.341  33.044  34.785  1.00  0.00     0.074 A 
ATOM     57  C   UNL A   1      38.297  34.038  34.648  1.00  0.00     0.031 C 
ATOM     58  C   UNL A   1      40.128  32.913  35.881  1.00  0.00     0.037 A 
BRANCH  45  59
ATOM     59  C   UNL A   1      44.140  28.235  35.572  1.00  0.00     0.058 A 
ATOM     60  C   UNL A   1      45.501  28.547  35.456  1.00  0.00     0.135 A 
ATOM     61  C   UNL A   1      43.778  27.182  36.431  1.00  0.00     0.135 A 
ATOM     62  F   UNL A   1      45.902  29.532  34.637  1.00  0.00    -0.206 F 
ATOM     63  C   UNL A   1      46.472  27.838  36.158  1.00  0.00     0.059 A 
ATOM     64  C   UNL A   1      44.729  26.473  37.158  1.00  0.00     0.059 A 
ATOM     65  F   UNL A   1      42.488  26.841  36.576  1.00  0.00    -0.206 F 
ATOM     66  C   UNL A   1      46.075  26.803  37.009  1.00  0.00     0.060 A 
BRANCH  66  67
ATOM     67  S   UNL A   1      47.341  25.911  37.936  1.00  0.00     0.124 S 
ATOM     68  O   UNL A   1      48.561  26.373  37.279  1.00  0.00    -0.237 OA
ATOM     69  O   UNL A   1      47.134  26.395  39.297  1.00  0.00    -0.237 OA
ATOM     70  O   UNL A   1      47.002  24.509  37.713  1.00  0.00    -0.744 OA
ENDBRANCH  66  67
ENDBRANCH  45  59
BRANCH  46  71
ATOM     71  C   UNL A   1      36.799  33.058  30.828  1.00  0.00     0.058 A 
ATOM     72  C   UNL A   1      36.990  33.980  29.789  1.00  0.00     0.135 A 
ATOM     73  C   UNL A   1      35.482  32.789  31.231  1.00  0.00     0.135 A 
ATOM     74  F   UNL A   1      38.232  34.277  29.377  1.00  0.00    -0.206 F 
ATOM     75  C   UNL A   1      35.918  34.629  29.185  1.00  0.00     0.059 A 
ATOM     76  C   UNL A   1      34.392  33.404  30.625  1.00  0.00     0.059 A 
ATOM     77  F   UNL A   1      35.245  31.903  32.211  1.00  0.00    -0.206 F 
ATOM     78  C   UNL A   1      34.622  34.334  29.611  1.00  0.00     0.060 A 
BRANCH  78  79
ATOM     79  S   UNL A   1      33.230  35.152  28.800  1.00  0.00     0.124 S 
ATOM     80  O   UNL A   1      32.695  34.072  27.981  1.00  0.00    -0.237 OA
ATOM     81  O   UNL A   1      32.407  35.562  29.935  1.00  0.00    -0.237 OA
ATOM     82  O   UNL A   1      33.866  36.245  28.071  1.00  0.00    -0.744 OA
ENDBRANCH  78  79
ENDBRANCH  46  71
BRANCH  58  83
ATOM     83  C   UNL A   1      39.916  33.888  37.002  1.00  0.00     0.058 A 
ATOM     84  C   UNL A   1      40.490  35.167  36.982  1.00  0.00     0.135 A 
ATOM     85  C   UNL A   1      39.091  33.553  38.089  1.00  0.00     0.135 A 
ATOM     86  F   UNL A   1      41.293  35.532  35.969  1.00  0.00    -0.206 F 
ATOM     87  C   UNL A   1      40.271  36.076  38.013  1.00  0.00     0.059 A 
ATOM     88  C   UNL A   1      38.840  34.454  39.118  1.00  0.00     0.059 A 
ATOM     89  F   UNL A   1      38.511  32.344  38.150  1.00  0.00    -0.206 F 
ATOM     90  C   UNL A   1      39.445  35.711  39.076  1.00  0.00     0.060 A 
BRANCH  90  91
ATOM     91  S   UNL A   1      39.139  36.908  40.393  1.00  0.00     0.124 S 
ATOM     92  O   UNL A   1      40.494  37.173  40.868  1.00  0.00    -0.237 OA
ATOM     93  O   UNL A   1      38.492  38.004  39.679  1.00  0.00    -0.237 OA
ATOM     94  O   UNL A   1      38.279  36.179  41.320  1.00  0.00    -0.744 OA
ENDBRANCH  90  91
ENDBRANCH  58  83
ENDBRANCH  32  33
ENDBRANCH  25  27
ENDBRANCH  24  25
ENDBRANCH  23  24
ENDBRANCH   1  23
TORSDOF 17
ENDMDL
MODEL 2
REMARK VINA RESULT:     -11.4      1.525      8.706
REMARK SMILES CC1(C)C(C(=O)Nc2ccc(CC(=O)OCCOC(=O)c3ccc(-c4c5nc(c(-c6c(F)cc(S(=O)(=O)[O-])cc6F)c6ccc([nH]6)c(-c6c(F)cc(S(=O)(=O)[O-])cc6F)c6nc(c(-c7c(F)cc(S(=O)(=O)[O-])cc7F)c7ccc4[nH]7)C=C6)C=C5)cc3)cc2)C1(C)C
REMARK SMILES IDX 16 1 15 2 13 3 14 4 12 5 11 6 8 7 9 8 88 9 10 10 87 11 7 12
REMARK SMILES IDX 5 13 6 14 4 16 1 17 2 18 3 19 89 20 90 21 91 22 17 23 18 24
REMARK SMILES IDX 19 25 20 26 21 27 22 28 86 29 23 30 85 31 24 32 25 33 26 34
REMARK SMILES IDX 79 35 27 36 84 37 78 38 80 39 28 40 83 41 77 42 76 43 29 45
REMARK SMILES IDX 63 46 42 47 62 48 43 49 46 50 61 51 81 52 44 53 45 54 60 56
REMARK SMILES IDX 82 57 47 58 30 59 31 60 40 61 32 62 33 63 39 64 41 65 34 66
REMARK SMILES IDX 35 67 36 68 37 69 38 70 64 71 65 72 74 73 66 74 67 75 73 76
REMARK SMILES IDX 75 77 68 78 69 79 70 80 71 81 72 82 48 83 49 84 58 85 50 86
REMARK SMILES IDX 51 87 57 88 59 89 52 90 53 91 54 92 55 93 56 94
REMARK H PARENT 7 15 80 44 46 55
REMARK Flexibility Score: inf
ROOT
ATOM      1  C   UNL A   1      44.060  22.671  25.647  1.00  0.00     0.274 C 
ENDROOT
BRANCH   1   2
ATOM      2  O   UNL A   1      43.001  21.878  25.087  1.00  0.00    -0.462 OA
BRANCH   2   3
ATOM      3  C   UNL A   1      42.479  20.941  25.918  1.00  0.00     0.310 C 
ATOM      4  O   UNL A   1      42.575  19.729  25.758  1.00  0.00    -0.252 OA
BRANCH   3   5
ATOM      5  C   UNL A   1      41.708  21.533  27.060  1.00  0.00     0.158 C 
BRANCH   5   6
ATOM      6  C   UNL A   1      40.271  21.923  26.810  1.00  0.00    -0.037 A 
ATOM      7  C   UNL A   1      37.962  23.024  25.710  1.00  0.00     0.041 A 
ATOM      8  C   UNL A   1      38.250  21.677  25.485  1.00  0.00     0.026 A 
ATOM      9  C   UNL A   1      38.654  23.715  26.702  1.00  0.00     0.026 A 
ATOM     10  C   UNL A   1      39.423  21.133  26.020  1.00  0.00     0.006 A 
ATOM     11  C   UNL A   1      39.816  23.170  27.247  1.00  0.00     0.006 A 
BRANCH   7  12
ATOM     12  N   UNL A   1      37.144  23.701  24.780  1.00  0.00    -0.326 N 
ATOM     13  C   UNL A   1      36.322  23.024  23.899  1.00  0.00     0.228 C 
ATOM     14  O   UNL A   1      36.656  22.803  22.737  1.00  0.00    -0.274 OA
ATOM     15  H   UNL A   1      37.159  24.685  24.758  1.00  0.00     0.169 HD
BRANCH  13  16
ATOM     16  C   UNL A   1      34.896  22.722  24.301  1.00  0.00     0.091 C 
ATOM     17  C   UNL A   1      32.993  23.717  25.878  1.00  0.00     0.012 C 
ATOM     18  C   UNL A   1      33.872  23.828  24.649  1.00  0.00    -0.017 C 
ATOM     19  C   UNL A   1      34.312  25.269  24.454  1.00  0.00     0.012 C 
ATOM     20  C   UNL A   1      33.614  22.831  23.487  1.00  0.00    -0.017 C 
ATOM     21  C   UNL A   1      32.671  21.649  23.663  1.00  0.00     0.012 C 
ATOM     22  C   UNL A   1      33.507  23.347  22.079  1.00  0.00     0.012 C 
ENDBRANCH  13  16
ENDBRANCH   7  12
ENDBRANCH   5   6
ENDBRANCH   3   5
ENDBRANCH   2   3
ENDBRANCH   1   2
BRANCH   1  23
ATOM     23  C   UNL A   1      43.878  24.128  25.233  1.00  0.00     0.275 C 
BRANCH  23  24
ATOM     24  O   UNL A   1      43.080  24.820  26.212  1.00  0.00    -0.458 OA
BRANCH  24  25
ATOM     25  C   UNL A   1      42.554  26.002  25.816  1.00  0.00     0.338 C 
ATOM     26  O   UNL A   1      42.458  26.429  24.680  1.00  0.00    -0.246 OA
BRANCH  25  27
ATOM     27  C   UNL A   1      42.118  26.772  26.994  1.00  0.00     0.060 A 
ATOM     28  C   UNL A   1      42.595  28.065  27.221  1.00  0.00     0.016 A 
ATOM     29  C   UNL A   1      41.302  26.148  27.937  1.00  0.00     0.016 A 
ATOM     30  C   UNL A   1      42.300  28.716  28.420  1.00  0.00     0.010 A 
ATOM     31  C   UNL A   1      40.948  26.831  29.102  1.00  0.00     0.010 A 
ATOM     32  C   UNL A   1      41.463  28.112  29.369  1.00  0.00    -0.014 A 
BRANCH  32  33
ATOM     33  C   UNL A   1      41.117  28.800  30.642  1.00  0.00     0.031 A 
ATOM     34  C   UNL A   1      39.956  29.758  30.690  1.00  0.00     0.074 A 
ATOM     35  C   UNL A   1      41.877  28.610  31.740  1.00  0.00     0.049 A 
ATOM     36  N   UNL A   1      39.614  30.596  31.635  1.00  0.00    -0.248 NA
ATOM     37  C   UNL A   1      39.072  29.790  29.514  1.00  0.00     0.031 C 
ATOM     38  C   UNL A   1      43.022  27.701  31.831  1.00  0.00     0.029 A 
ATOM     39  N   UNL A   1      41.816  29.191  32.983  1.00  0.00    -0.354 N 
ATOM     40  C   UNL A   1      38.510  31.289  31.151  1.00  0.00     0.074 A 
ATOM     41  C   UNL A   1      38.236  30.771  29.826  1.00  0.00     0.031 C 
ATOM     42  C   UNL A   1      43.558  27.791  33.058  1.00  0.00     0.029 A 
ATOM     43  C   UNL A   1      42.838  28.806  33.819  1.00  0.00     0.049 A 
ATOM     44  H   UNL A   1      41.109  29.823  33.249  1.00  0.00     0.167 HD
ATOM     45  C   UNL A   1      37.796  32.269  31.754  1.00  0.00     0.037 A 
ATOM     46  C   UNL A   1      43.188  29.252  35.041  1.00  0.00     0.037 A 
ATOM     47  C   UNL A   1      38.041  32.744  33.091  1.00  0.00     0.049 A 
ATOM     48  C   UNL A   1      42.381  30.344  35.687  1.00  0.00     0.074 A 
ATOM     49  C   UNL A   1      37.331  33.690  33.811  1.00  0.00     0.029 A 
ATOM     50  N   UNL A   1      39.072  32.311  33.910  1.00  0.00    -0.354 N 
ATOM     51  N   UNL A   1      41.333  30.979  35.219  1.00  0.00    -0.248 NA
ATOM     52  C   UNL A   1      42.808  30.788  37.020  1.00  0.00     0.031 C 
ATOM     53  C   UNL A   1      37.954  33.855  35.052  1.00  0.00     0.029 A 
ATOM     54  C   UNL A   1      39.029  32.984  35.121  1.00  0.00     0.049 A 
ATOM     55  H   UNL A   1      39.737  31.626  33.668  1.00  0.00     0.167 HD
ATOM     56  C   UNL A   1      40.966  31.885  36.208  1.00  0.00     0.074 A 
ATOM     57  C   UNL A   1      41.895  31.706  37.305  1.00  0.00     0.031 C 
ATOM     58  C   UNL A   1      39.954  32.786  36.207  1.00  0.00     0.037 A 
BRANCH  45  59
ATOM     59  C   UNL A   1      36.689  32.920  30.973  1.00  0.00     0.058 A 
ATOM     60  C   UNL A   1      35.340  32.619  31.204  1.00  0.00     0.135 A 
ATOM     61  C   UNL A   1      36.987  33.916  30.025  1.00  0.00     0.135 A 
ATOM     62  F   UNL A   1      35.001  31.666  32.086  1.00  0.00    -0.206 F 
ATOM     63  C   UNL A   1      34.322  33.274  30.518  1.00  0.00     0.059 A 
ATOM     64  C   UNL A   1      35.985  34.598  29.342  1.00  0.00     0.059 A 
ATOM     65  F   UNL A   1      38.263  34.240  29.765  1.00  0.00    -0.206 F 
ATOM     66  C   UNL A   1      34.655  34.264  29.590  1.00  0.00     0.060 A 
BRANCH  66  67
ATOM     67  S   UNL A   1      33.323  35.126  28.728  1.00  0.00     0.124 S 
ATOM     68  O   UNL A   1      34.072  36.101  27.939  1.00  0.00    -0.237 OA
ATOM     69  O   UNL A   1      32.692  34.051  27.970  1.00  0.00    -0.237 OA
ATOM     70  O   UNL A   1      32.520  35.682  29.811  1.00  0.00    -0.744 OA
ENDBRANCH  66  67
ENDBRANCH  45  59
BRANCH  46  71
ATOM     71  C   UNL A   1      44.387  28.694  35.721  1.00  0.00     0.058 A 
ATOM     72  C   UNL A   1      44.287  27.588  36.576  1.00  0.00     0.135 A 
ATOM     73  C   UNL A   1      45.656  29.262  35.530  1.00  0.00     0.135 A 
ATOM     74  F   UNL A   1      43.093  27.017  36.796  1.00  0.00    -0.206 F 
ATOM     75  C   UNL A   1      45.399  27.076  37.237  1.00  0.00     0.059 A 
ATOM     76  C   UNL A   1      46.787  28.752  36.158  1.00  0.00     0.059 A 
ATOM     77  F   UNL A   1      45.808  30.313  34.709  1.00  0.00    -0.206 F 
ATOM     78  C   UNL A   1      46.645  27.667  37.021  1.00  0.00     0.060 A 
BRANCH  78  79
ATOM     79  S   UNL A   1      48.093  26.977  37.854  1.00  0.00     0.124 S 
ATOM     80  O   UNL A   1      48.902  28.170  38.067  1.00  0.00    -0.237 OA
ATOM     81  O   UNL A   1      47.507  26.380  39.051  1.00  0.00    -0.237 OA
ATOM     82  O   UNL A   1      48.614  26.023  36.880  1.00  0.00    -0.744 OA
ENDBRANCH  78  79
ENDBRANCH  46  71
BRANCH  58  83
ATOM     83  C   UNL A   1      39.773  33.621  37.442  1.00  0.00     0.058 A 
ATOM     84  C   UNL A   1      40.424  34.854  37.597  1.00  0.00     0.135 A 
ATOM     85  C   UNL A   1      38.905  33.201  38.463  1.00  0.00     0.135 A 
ATOM     86  F   UNL A   1      41.270  35.294  36.653  1.00  0.00    -0.206 F 
ATOM     87  C   UNL A   1      40.234  35.635  38.733  1.00  0.00     0.059 A 
ATOM     88  C   UNL A   1      38.683  33.977  39.596  1.00  0.00     0.059 A 
ATOM     89  F   UNL A   1      38.252  32.032  38.357  1.00  0.00    -0.206 F 
ATOM     90  C   UNL A   1      39.362  35.188  39.726  1.00  0.00     0.060 A 
BRANCH  90  91
ATOM     91  S   UNL A   1      39.097  36.223  41.182  1.00  0.00     0.124 S 
ATOM     92  O   UNL A   1      37.866  35.658  41.724  1.00  0.00    -0.237 OA
ATOM     93  O   UNL A   1      40.304  35.980  41.965  1.00  0.00    -0.237 OA
ATOM     94  O   UNL A   1      38.980  37.567  40.624  1.00  0.00    -0.744 OA
ENDBRANCH  90  91
ENDBRANCH  58  83
ENDBRANCH  32  33
ENDBRANCH  25  27
ENDBRANCH  24  25
ENDBRANCH  23  24
ENDBRANCH   1  23
TORSDOF 17
ENDMDL
MODEL 3
REMARK VINA RESULT:     -11.4      0.942      8.363
REMARK SMILES CC1(C)C(C(=O)Nc2ccc(CC(=O)OCCOC(=O)c3ccc(-c4c5nc(c(-c6c(F)cc(S(=O)(=O)[O-])cc6F)c6ccc([nH]6)c(-c6c(F)cc(S(=O)(=O)[O-])cc6F)c6nc(c(-c7c(F)cc(S(=O)(=O)[O-])cc7F)c7ccc4[nH]7)C=C6)C=C5)cc3)cc2)C1(C)C
REMARK SMILES IDX 16 1 15 2 13 3 14 4 12 5 11 6 8 7 9 8 88 9 10 10 87 11 7 12
REMARK SMILES IDX 5 13 6 14 4 16 1 17 2 18 3 19 89 20 90 21 91 22 17 23 18 24
REMARK SMILES IDX 19 25 20 26 21 27 22 28 86 29 23 30 85 31 24 32 25 33 26 34
REMARK SMILES IDX 79 35 27 36 84 37 78 38 80 39 28 40 83 41 77 42 76 43 29 45
REMARK SMILES IDX 63 46 42 47 62 48 43 49 46 50 61 51 81 52 44 53 45 54 60 56
REMARK SMILES IDX 82 57 47 58 30 59 31 60 40 61 32 62 33 63 39 64 41 65 34 66
REMARK SMILES IDX 35 67 36 68 37 69 38 70 64 71 65 72 74 73 66 74 67 75 73 76
REMARK SMILES IDX 75 77 68 78 69 79 70 80 71 81 72 82 48 83 49 84 58 85 50 86
REMARK SMILES IDX 51 87 57 88 59 89 52 90 53 91 54 92 55 93 56 94
REMARK H PARENT 7 15 80 44 46 55
REMARK Flexibility Score: inf
ROOT
ATOM      1  C   UNL A   1      40.310  21.735  26.423  1.00  0.00     0.274 C 
ENDROOT
BRANCH   1   2
ATOM      2  O   UNL A   1      38.934  22.145  26.448  1.00  0.00    -0.462 OA
BRANCH   2   3
ATOM      3  C   UNL A   1      38.128  21.515  25.557  1.00  0.00     0.310 C 
ATOM      4  O   UNL A   1      38.347  20.411  25.068  1.00  0.00    -0.252 OA
BRANCH   3   5
ATOM      5  C   UNL A   1      36.928  22.328  25.171  1.00  0.00     0.158 C 
BRANCH   5   6
ATOM      6  C   UNL A   1      35.572  21.829  25.608  1.00  0.00    -0.037 A 
ATOM      7  C   UNL A   1      32.833  21.606  26.061  1.00  0.00     0.041 A 
ATOM      8  C   UNL A   1      33.412  20.888  25.014  1.00  0.00     0.026 A 
ATOM      9  C   UNL A   1      33.652  22.180  27.031  1.00  0.00     0.026 A 
ATOM     10  C   UNL A   1      34.784  21.020  24.775  1.00  0.00     0.006 A 
ATOM     11  C   UNL A   1      35.021  22.302  26.802  1.00  0.00     0.006 A 
BRANCH   7  12
ATOM     12  N   UNL A   1      31.459  21.920  25.983  1.00  0.00    -0.326 N 
ATOM     13  C   UNL A   1      30.986  23.198  26.212  1.00  0.00     0.228 C 
ATOM     14  O   UNL A   1      30.521  23.534  27.299  1.00  0.00    -0.274 OA
ATOM     15  H   UNL A   1      30.819  21.207  25.758  1.00  0.00     0.169 HD
BRANCH  13  16
ATOM     16  C   UNL A   1      30.842  24.153  25.048  1.00  0.00     0.091 C 
ATOM     17  C   UNL A   1      30.209  26.701  24.597  1.00  0.00     0.012 C 
ATOM     18  C   UNL A   1      31.159  25.663  25.160  1.00  0.00    -0.017 C 
ATOM     19  C   UNL A   1      31.748  26.155  26.471  1.00  0.00     0.012 C 
ATOM     20  C   UNL A   1      31.914  24.756  24.151  1.00  0.00    -0.017 C 
ATOM     21  C   UNL A   1      31.551  24.756  22.673  1.00  0.00     0.012 C 
ATOM     22  C   UNL A   1      33.397  24.561  24.298  1.00  0.00     0.012 C 
ENDBRANCH  13  16
ENDBRANCH   7  12
ENDBRANCH   5   6
ENDBRANCH   3   5
ENDBRANCH   2   3
ENDBRANCH   1   2
BRANCH   1  23
ATOM     23  C   UNL A   1      41.207  22.969  26.400  1.00  0.00     0.275 C 
BRANCH  23  24
ATOM     24  O   UNL A   1      40.411  24.157  26.564  1.00  0.00    -0.458 OA
BRANCH  24  25
ATOM     25  C   UNL A   1      41.049  25.331  26.343  1.00  0.00     0.338 C 
ATOM     26  O   UNL A   1      41.763  25.621  25.401  1.00  0.00    -0.246 OA
BRANCH  25  27
ATOM     27  C   UNL A   1      40.788  26.256  27.459  1.00  0.00     0.060 A 
ATOM     28  C   UNL A   1      41.571  27.398  27.639  1.00  0.00     0.016 A 
ATOM     29  C   UNL A   1      39.813  25.916  28.397  1.00  0.00     0.016 A 
ATOM     30  C   UNL A   1      41.417  28.176  28.789  1.00  0.00     0.010 A 
ATOM     31  C   UNL A   1      39.611  26.737  29.509  1.00  0.00     0.010 A 
ATOM     32  C   UNL A   1      40.427  27.861  29.730  1.00  0.00    -0.014 A 
BRANCH  32  33
ATOM     33  C   UNL A   1      40.230  28.691  30.950  1.00  0.00     0.031 A 
ATOM     34  C   UNL A   1      39.179  29.770  30.966  1.00  0.00     0.074 A 
ATOM     35  C   UNL A   1      41.030  28.516  32.021  1.00  0.00     0.049 A 
ATOM     36  N   UNL A   1      38.982  30.719  31.845  1.00  0.00    -0.248 NA
ATOM     37  C   UNL A   1      38.234  29.794  29.837  1.00  0.00     0.031 C 
ATOM     38  C   UNL A   1      42.078  27.500  32.140  1.00  0.00     0.029 A 
ATOM     39  N   UNL A   1      41.103  29.207  33.206  1.00  0.00    -0.354 N 
ATOM     40  C   UNL A   1      37.929  31.483  31.353  1.00  0.00     0.074 A 
ATOM     41  C   UNL A   1      37.525  30.884  30.098  1.00  0.00     0.031 C 
ATOM     42  C   UNL A   1      42.692  27.638  33.325  1.00  0.00     0.029 A 
ATOM     43  C   UNL A   1      42.127  28.787  34.022  1.00  0.00     0.049 A 
ATOM     44  H   UNL A   1      40.482  29.932  33.447  1.00  0.00     0.167 HD
ATOM     45  C   UNL A   1      37.358  32.583  31.897  1.00  0.00     0.037 A 
ATOM     46  C   UNL A   1      42.593  29.297  35.179  1.00  0.00     0.037 A 
ATOM     47  C   UNL A   1      37.729  33.144  33.170  1.00  0.00     0.049 A 
ATOM     48  C   UNL A   1      41.943  30.523  35.760  1.00  0.00     0.074 A 
ATOM     49  C   UNL A   1      37.165  34.221  33.833  1.00  0.00     0.029 A 
ATOM     50  N   UNL A   1      38.757  32.675  33.974  1.00  0.00    -0.354 N 
ATOM     51  N   UNL A   1      40.941  31.224  35.287  1.00  0.00    -0.248 NA
ATOM     52  C   UNL A   1      42.492  31.033  37.023  1.00  0.00     0.031 C 
ATOM     53  C   UNL A   1      37.874  34.424  35.022  1.00  0.00     0.029 A 
ATOM     54  C   UNL A   1      38.855  33.451  35.117  1.00  0.00     0.049 A 
ATOM     55  H   UNL A   1      39.332  31.903  33.764  1.00  0.00     0.167 HD
ATOM     56  C   UNL A   1      40.729  32.248  36.205  1.00  0.00     0.074 A 
ATOM     57  C   UNL A   1      41.698  32.065  37.267  1.00  0.00     0.031 C 
ATOM     58  C   UNL A   1      39.817  33.250  36.170  1.00  0.00     0.037 A 
BRANCH  45  59
ATOM     59  C   UNL A   1      36.280  33.280  31.115  1.00  0.00     0.058 A 
ATOM     60  C   UNL A   1      34.935  33.243  31.508  1.00  0.00     0.135 A 
ATOM     61  C   UNL A   1      36.615  34.057  29.991  1.00  0.00     0.135 A 
ATOM     62  F   UNL A   1      34.558  32.505  32.563  1.00  0.00    -0.206 F 
ATOM     63  C   UNL A   1      33.955  33.944  30.810  1.00  0.00     0.059 A 
ATOM     64  C   UNL A   1      35.655  34.781  29.291  1.00  0.00     0.059 A 
ATOM     65  F   UNL A   1      37.888  34.124  29.573  1.00  0.00    -0.206 F 
ATOM     66  C   UNL A   1      34.326  34.712  29.704  1.00  0.00     0.060 A 
BRANCH  66  67
ATOM     67  S   UNL A   1      33.050  35.639  28.825  1.00  0.00     0.124 S 
ATOM     68  O   UNL A   1      32.380  34.576  28.082  1.00  0.00    -0.237 OA
ATOM     69  O   UNL A   1      32.281  36.227  29.918  1.00  0.00    -0.237 OA
ATOM     70  O   UNL A   1      33.811  36.585  28.017  1.00  0.00    -0.744 OA
ENDBRANCH  66  67
ENDBRANCH  45  59
BRANCH  46  71
ATOM     71  C   UNL A   1      43.766  28.674  35.847  1.00  0.00     0.058 A 
ATOM     72  C   UNL A   1      43.607  27.622  36.760  1.00  0.00     0.135 A 
ATOM     73  C   UNL A   1      45.070  29.124  35.588  1.00  0.00     0.135 A 
ATOM     74  F   UNL A   1      42.379  27.165  37.047  1.00  0.00    -0.206 F 
ATOM     75  C   UNL A   1      44.696  27.051  37.410  1.00  0.00     0.059 A 
ATOM     76  C   UNL A   1      46.177  28.552  36.204  1.00  0.00     0.059 A 
ATOM     77  F   UNL A   1      45.277  30.119  34.710  1.00  0.00    -0.206 F 
ATOM     78  C   UNL A   1      45.978  27.525  37.125  1.00  0.00     0.060 A 
BRANCH  78  79
ATOM     79  S   UNL A   1      47.393  26.757  37.945  1.00  0.00     0.124 S 
ATOM     80  O   UNL A   1      48.366  26.706  36.860  1.00  0.00    -0.237 OA
ATOM     81  O   UNL A   1      47.682  27.703  39.018  1.00  0.00    -0.237 OA
ATOM     82  O   UNL A   1      46.865  25.468  38.383  1.00  0.00    -0.744 OA
ENDBRANCH  78  79
ENDBRANCH  46  71
BRANCH  58  83
ATOM     83  C   UNL A   1      39.798  34.204  37.330  1.00  0.00     0.058 A 
ATOM     84  C   UNL A   1      40.556  35.383  37.323  1.00  0.00     0.135 A 
ATOM     85  C   UNL A   1      38.975  33.955  38.441  1.00  0.00     0.135 A 
ATOM     86  F   UNL A   1      41.364  35.662  36.288  1.00  0.00    -0.206 F 
ATOM     87  C   UNL A   1      40.516  36.276  38.390  1.00  0.00     0.059 A 
ATOM     88  C   UNL A   1      38.903  34.845  39.507  1.00  0.00     0.059 A 
ATOM     89  F   UNL A   1      38.223  32.843  38.490  1.00  0.00    -0.206 F 
ATOM     90  C   UNL A   1      39.686  35.998  39.477  1.00  0.00     0.060 A 
BRANCH  90  91
ATOM     91  S   UNL A   1      39.616  37.178  40.842  1.00  0.00     0.124 S 
ATOM     92  O   UNL A   1      38.561  38.082  40.395  1.00  0.00    -0.237 OA
ATOM     93  O   UNL A   1      39.280  36.326  41.978  1.00  0.00    -0.237 OA
ATOM     94  O   UNL A   1      40.961  37.746  40.868  1.00  0.00    -0.744 OA
ENDBRANCH  90  91
ENDBRANCH  58  83
ENDBRANCH  32  33
ENDBRANCH  25  27
ENDBRANCH  24  25
ENDBRANCH  23  24
ENDBRANCH   1  23
TORSDOF 17
ENDMDL
