MODEL 1
REMARK VINA RESULT:     -11.4      0.000      0.000
REMARK SMILES COCC[C@@]1(C(=O)OCCOC(=O)c2ccc(-c3c4nc(c(-c5c(F)cc(S(=O)(=O)[O-])cc5F)c5ccc([nH]5)c(-c5c(F)cc(S(=O)(=O)[O-])cc5F)c5nc(c(-c6c(F)cc(S(=O)(=O)[O-])cc6F)c6ccc3[nH]6)C=C5)C=C4)cc2)CCC[N@@H+](Cc2cccc3c2OC(C)(C)C3)C1
REMARK SMILES IDX 9 1 8 2 6 3 7 4 5 5 80 6 96 7 81 8 83 9 82 10 4 12 3 13 2 14
REMARK SMILES IDX 1 15 84 16 85 17 86 18 90 19 87 20 89 21 91 22 88 23 95 24
REMARK SMILES IDX 92 25 93 26 94 27 10 28 11 29 12 30 13 31 14 32 15 33 79 34
REMARK SMILES IDX 16 35 78 36 17 37 18 38 19 39 72 40 20 41 77 42 71 43 73 44
REMARK SMILES IDX 21 45 76 46 70 47 69 48 22 50 56 51 35 52 55 53 36 54 39 55
REMARK SMILES IDX 54 56 74 57 37 58 38 59 53 61 75 62 40 63 23 64 24 65 33 66
REMARK SMILES IDX 25 67 26 68 32 69 34 70 27 71 28 72 29 73 30 74 31 75 57 76
REMARK SMILES IDX 58 77 67 78 59 79 60 80 66 81 68 82 61 83 62 84 63 85 64 86
REMARK SMILES IDX 65 87 41 88 42 89 51 90 43 91 44 92 50 93 52 94 45 95 46 96
REMARK SMILES IDX 47 97 48 98 49 99
REMARK H PARENT 83 11 73 49 39 60
REMARK Flexibility Score: inf
ROOT
ATOM      1  C   UNL A   1      31.751  29.645  26.361  1.00  0.00     0.274 C 
ENDROOT
BRANCH   1   2
ATOM      2  O   UNL A   1      31.913  29.450  24.940  1.00  0.00    -0.461 OA
BRANCH   2   3
ATOM      3  C   UNL A   1      32.131  28.174  24.524  1.00  0.00     0.318 C 
ATOM      4  O   UNL A   1      32.955  27.421  25.033  1.00  0.00    -0.251 OA
BRANCH   3   5
ATOM      5  C   UNL A   1      31.227  27.760  23.353  1.00  0.00     0.119 C 
ATOM      6  C   UNL A   1      29.856  27.334  23.952  1.00  0.00     0.030 C 
ATOM      7  C   UNL A   1      31.813  26.549  22.579  1.00  0.00     0.281 C 
ATOM      8  C   UNL A   1      29.941  26.027  24.732  1.00  0.00     0.063 C 
ATOM      9  N   UNL A   1      31.882  25.306  23.384  1.00  0.00    -0.330 N 
ATOM     10  C   UNL A   1      30.554  24.924  23.874  1.00  0.00     0.262 C 
ATOM     11  H   UNL A   1      32.452  25.508  24.204  1.00  0.00     0.348 HD
BRANCH   5  12
ATOM     12  C   UNL A   1      30.935  29.016  22.467  1.00  0.00     0.053 C 
BRANCH  12  13
ATOM     13  C   UNL A   1      29.482  29.477  22.323  1.00  0.00     0.161 C 
BRANCH  13  14
ATOM     14  O   UNL A   1      29.364  30.650  21.515  1.00  0.00    -0.385 OA
ATOM     15  C   UNL A   1      28.114  31.304  21.640  1.00  0.00     0.194 C 
ENDBRANCH  13  14
ENDBRANCH  12  13
ENDBRANCH   5  12
BRANCH   9  16
ATOM     16  C   UNL A   1      32.610  24.197  22.697  1.00  0.00     0.303 C 
BRANCH  16  17
ATOM     17  C   UNL A   1      32.687  22.904  23.480  1.00  0.00     0.049 A 
ATOM     18  C   UNL A   1      31.933  21.785  23.102  1.00  0.00     0.013 A 
ATOM     19  C   UNL A   1      33.675  22.694  24.427  1.00  0.00     0.132 A 
ATOM     20  C   UNL A   1      32.344  20.494  23.462  1.00  0.00     0.001 A 
ATOM     21  C   UNL A   1      34.160  21.423  24.689  1.00  0.00    -0.001 A 
ATOM     22  O   UNL A   1      34.298  23.666  25.167  1.00  0.00    -0.487 OA
ATOM     23  C   UNL A   1      33.517  20.304  24.197  1.00  0.00     0.008 A 
ATOM     24  C   UNL A   1      35.438  21.559  25.436  1.00  0.00     0.087 C 
ATOM     25  C   UNL A   1      35.182  22.935  26.073  1.00  0.00     0.108 C 
ATOM     26  C   UNL A   1      34.546  22.717  27.459  1.00  0.00     0.057 C 
ATOM     27  C   UNL A   1      36.438  23.793  26.212  1.00  0.00     0.057 C 
ENDBRANCH  16  17
ENDBRANCH   9  16
ENDBRANCH   3   5
ENDBRANCH   2   3
ENDBRANCH   1   2
BRANCH   1  28
ATOM     28  C   UNL A   1      32.704  30.731  26.847  1.00  0.00     0.275 C 
BRANCH  28  29
ATOM     29  O   UNL A   1      33.868  30.069  27.364  1.00  0.00    -0.458 OA
BRANCH  29  30
ATOM     30  C   UNL A   1      34.618  30.766  28.240  1.00  0.00     0.338 C 
ATOM     31  O   UNL A   1      34.267  31.686  28.965  1.00  0.00    -0.246 OA
BRANCH  30  32
ATOM     32  C   UNL A   1      35.943  30.133  28.291  1.00  0.00     0.060 A 
ATOM     33  C   UNL A   1      36.382  29.645  29.518  1.00  0.00     0.016 A 
ATOM     34  C   UNL A   1      36.795  30.128  27.190  1.00  0.00     0.016 A 
ATOM     35  C   UNL A   1      37.705  29.256  29.686  1.00  0.00     0.010 A 
ATOM     36  C   UNL A   1      38.096  29.627  27.338  1.00  0.00     0.010 A 
ATOM     37  C   UNL A   1      38.585  29.229  28.598  1.00  0.00    -0.014 A 
BRANCH  37  38
ATOM     38  C   UNL A   1      40.022  28.873  28.799  1.00  0.00     0.031 A 
ATOM     39  C   UNL A   1      40.964  29.886  29.400  1.00  0.00     0.074 A 
ATOM     40  C   UNL A   1      40.491  27.642  28.504  1.00  0.00     0.049 A 
ATOM     41  N   UNL A   1      42.271  29.889  29.422  1.00  0.00    -0.248 NA
ATOM     42  C   UNL A   1      40.352  31.057  30.048  1.00  0.00     0.031 C 
ATOM     43  C   UNL A   1      39.694  26.518  28.008  1.00  0.00     0.029 A 
ATOM     44  N   UNL A   1      41.762  27.123  28.596  1.00  0.00    -0.354 N 
ATOM     45  C   UNL A   1      42.639  31.096  30.009  1.00  0.00     0.074 A 
ATOM     46  C   UNL A   1      41.415  31.791  30.345  1.00  0.00     0.031 C 
ATOM     47  C   UNL A   1      40.478  25.434  27.895  1.00  0.00     0.029 A 
ATOM     48  C   UNL A   1      41.854  25.812  28.192  1.00  0.00     0.049 A 
ATOM     49  H   UNL A   1      42.532  27.642  28.921  1.00  0.00     0.167 HD
ATOM     50  C   UNL A   1      43.883  31.580  30.237  1.00  0.00     0.037 A 
ATOM     51  C   UNL A   1      42.927  25.015  28.017  1.00  0.00     0.037 A 
ATOM     52  C   UNL A   1      45.094  30.845  29.978  1.00  0.00     0.049 A 
ATOM     53  C   UNL A   1      44.302  25.580  28.243  1.00  0.00     0.074 A 
ATOM     54  C   UNL A   1      46.405  31.253  30.152  1.00  0.00     0.029 A 
ATOM     55  N   UNL A   1      45.141  29.535  29.524  1.00  0.00    -0.354 N 
ATOM     56  N   UNL A   1      44.644  26.775  28.662  1.00  0.00    -0.248 NA
ATOM     57  C   UNL A   1      45.439  24.703  27.931  1.00  0.00     0.031 C 
ATOM     58  C   UNL A   1      47.246  30.196  29.782  1.00  0.00     0.029 A 
ATOM     59  C   UNL A   1      46.456  29.120  29.410  1.00  0.00     0.049 A 
ATOM     60  H   UNL A   1      44.354  28.982  29.313  1.00  0.00     0.167 HD
ATOM     61  C   UNL A   1      46.033  26.794  28.662  1.00  0.00     0.074 A 
ATOM     62  C   UNL A   1      46.470  25.483  28.227  1.00  0.00     0.031 C 
ATOM     63  C   UNL A   1      46.872  27.809  28.981  1.00  0.00     0.037 A 
BRANCH  50  64
ATOM     64  C   UNL A   1      44.002  32.989  30.744  1.00  0.00     0.058 A 
ATOM     65  C   UNL A   1      44.113  33.288  32.109  1.00  0.00     0.135 A 
ATOM     66  C   UNL A   1      44.032  34.059  29.834  1.00  0.00     0.135 A 
ATOM     67  F   UNL A   1      44.070  32.306  33.023  1.00  0.00    -0.206 F 
ATOM     68  C   UNL A   1      44.230  34.601  32.557  1.00  0.00     0.059 A 
ATOM     69  C   UNL A   1      44.171  35.377  30.257  1.00  0.00     0.059 A 
ATOM     70  F   UNL A   1      43.927  33.828  28.515  1.00  0.00    -0.206 F 
ATOM     71  C   UNL A   1      44.255  35.639  31.623  1.00  0.00     0.060 A 
BRANCH  71  72
ATOM     72  S   UNL A   1      44.408  37.338  32.215  1.00  0.00     0.124 S 
ATOM     73  O   UNL A   1      43.527  37.323  33.378  1.00  0.00    -0.237 OA
ATOM     74  O   UNL A   1      45.835  37.444  32.503  1.00  0.00    -0.237 OA
ATOM     75  O   UNL A   1      43.941  38.135  31.084  1.00  0.00    -0.744 OA
ENDBRANCH  71  72
ENDBRANCH  50  64
BRANCH  51  76
ATOM     76  C   UNL A   1      42.749  23.621  27.527  1.00  0.00     0.058 A 
ATOM     77  C   UNL A   1      42.532  22.561  28.417  1.00  0.00     0.135 A 
ATOM     78  C   UNL A   1      42.790  23.324  26.155  1.00  0.00     0.135 A 
ATOM     79  F   UNL A   1      42.502  22.790  29.739  1.00  0.00    -0.206 F 
ATOM     80  C   UNL A   1      42.365  21.254  27.967  1.00  0.00     0.059 A 
ATOM     81  C   UNL A   1      42.597  22.032  25.679  1.00  0.00     0.059 A 
ATOM     82  F   UNL A   1      42.991  24.304  25.259  1.00  0.00    -0.206 F 
ATOM     83  C   UNL A   1      42.396  21.000  26.595  1.00  0.00     0.060 A 
BRANCH  83  84
ATOM     84  S   UNL A   1      42.126  19.314  26.009  1.00  0.00     0.124 S 
ATOM     85  O   UNL A   1      40.680  19.301  25.813  1.00  0.00    -0.237 OA
ATOM     86  O   UNL A   1      42.935  19.272  24.795  1.00  0.00    -0.237 OA
ATOM     87  O   UNL A   1      42.622  18.495  27.110  1.00  0.00    -0.744 OA
ENDBRANCH  83  84
ENDBRANCH  51  76
BRANCH  63  88
ATOM     88  C   UNL A   1      48.346  27.536  28.891  1.00  0.00     0.058 A 
ATOM     89  C   UNL A   1      49.073  27.824  27.726  1.00  0.00     0.135 A 
ATOM     90  C   UNL A   1      49.043  27.020  29.993  1.00  0.00     0.135 A 
ATOM     91  F   UNL A   1      48.449  28.312  26.642  1.00  0.00    -0.206 F 
ATOM     92  C   UNL A   1      50.443  27.593  27.652  1.00  0.00     0.059 A 
ATOM     93  C   UNL A   1      50.416  26.799  29.948  1.00  0.00     0.059 A 
ATOM     94  F   UNL A   1      48.392  26.735  31.133  1.00  0.00    -0.206 F 
ATOM     95  C   UNL A   1      51.105  27.078  28.769  1.00  0.00     0.060 A 
BRANCH  95  96
ATOM     96  S   UNL A   1      52.889  26.811  28.674  1.00  0.00     0.124 S 
ATOM     97  O   UNL A   1      53.174  26.266  29.997  1.00  0.00    -0.237 OA
ATOM     98  O   UNL A   1      53.007  25.871  27.563  1.00  0.00    -0.237 OA
ATOM     99  O   UNL A   1      53.418  28.145  28.416  1.00  0.00    -0.744 OA
ENDBRANCH  95  96
ENDBRANCH  63  88
ENDBRANCH  37  38
ENDBRANCH  30  32
ENDBRANCH  29  30
ENDBRANCH  28  29
ENDBRANCH   1  28
TORSDOF 19
ENDMDL
MODEL 2
REMARK VINA RESULT:     -11.1      5.056     10.748
REMARK SMILES COCC[C@@]1(C(=O)OCCOC(=O)c2ccc(-c3c4nc(c(-c5c(F)cc(S(=O)(=O)[O-])cc5F)c5ccc([nH]5)c(-c5c(F)cc(S(=O)(=O)[O-])cc5F)c5nc(c(-c6c(F)cc(S(=O)(=O)[O-])cc6F)c6ccc3[nH]6)C=C5)C=C4)cc2)CCC[N@@H+](Cc2cccc3c2OC(C)(C)C3)C1
REMARK SMILES IDX 9 1 8 2 6 3 7 4 5 5 80 6 96 7 81 8 83 9 82 10 4 12 3 13 2 14
REMARK SMILES IDX 1 15 84 16 85 17 86 18 90 19 87 20 89 21 91 22 88 23 95 24
REMARK SMILES IDX 92 25 93 26 94 27 10 28 11 29 12 30 13 31 14 32 15 33 79 34
REMARK SMILES IDX 16 35 78 36 17 37 18 38 19 39 72 40 20 41 77 42 71 43 73 44
REMARK SMILES IDX 21 45 76 46 70 47 69 48 22 50 56 51 35 52 55 53 36 54 39 55
REMARK SMILES IDX 54 56 74 57 37 58 38 59 53 61 75 62 40 63 23 64 24 65 33 66
REMARK SMILES IDX 25 67 26 68 32 69 34 70 27 71 28 72 29 73 30 74 31 75 57 76
REMARK SMILES IDX 58 77 67 78 59 79 60 80 66 81 68 82 61 83 62 84 63 85 64 86
REMARK SMILES IDX 65 87 41 88 42 89 51 90 43 91 44 92 50 93 52 94 45 95 46 96
REMARK SMILES IDX 47 97 48 98 49 99
REMARK H PARENT 83 11 73 49 39 60
REMARK Flexibility Score: inf
ROOT
ATOM      1  C   UNL A   1      36.755  23.653  25.172  1.00  0.00     0.274 C 
ENDROOT
BRANCH   1   2
ATOM      2  O   UNL A   1      35.648  22.800  25.534  1.00  0.00    -0.461 OA
BRANCH   2   3
ATOM      3  C   UNL A   1      34.437  23.403  25.669  1.00  0.00     0.318 C 
ATOM      4  O   UNL A   1      34.291  24.575  26.001  1.00  0.00    -0.251 OA
BRANCH   3   5
ATOM      5  C   UNL A   1      33.260  22.469  25.350  1.00  0.00     0.119 C 
ATOM      6  C   UNL A   1      33.399  22.038  23.861  1.00  0.00     0.030 C 
ATOM      7  C   UNL A   1      31.896  23.190  25.519  1.00  0.00     0.281 C 
ATOM      8  C   UNL A   1      33.130  23.186  22.895  1.00  0.00     0.063 C 
ATOM      9  N   UNL A   1      31.688  24.302  24.561  1.00  0.00    -0.330 N 
ATOM     10  C   UNL A   1      31.775  23.826  23.178  1.00  0.00     0.262 C 
ATOM     11  H   UNL A   1      32.454  24.962  24.694  1.00  0.00     0.348 HD
BRANCH   5  12
ATOM     12  C   UNL A   1      33.408  21.158  26.190  1.00  0.00     0.053 C 
BRANCH  12  13
ATOM     13  C   UNL A   1      33.564  19.832  25.439  1.00  0.00     0.161 C 
BRANCH  13  14
ATOM     14  O   UNL A   1      32.307  19.198  25.194  1.00  0.00    -0.385 OA
ATOM     15  C   UNL A   1      32.419  17.840  24.809  1.00  0.00     0.194 C 
ENDBRANCH  13  14
ENDBRANCH  12  13
ENDBRANCH   5  12
BRANCH   9  16
ATOM     16  C   UNL A   1      30.461  25.104  24.844  1.00  0.00     0.303 C 
BRANCH  16  17
ATOM     17  C   UNL A   1      30.385  26.432  24.120  1.00  0.00     0.049 A 
ATOM     18  C   UNL A   1      29.229  26.811  23.426  1.00  0.00     0.013 A 
ATOM     19  C   UNL A   1      31.337  27.417  24.324  1.00  0.00     0.132 A 
ATOM     20  C   UNL A   1      28.946  28.165  23.199  1.00  0.00     0.001 A 
ATOM     21  C   UNL A   1      31.016  28.759  24.214  1.00  0.00    -0.001 A 
ATOM     22  O   UNL A   1      32.647  27.208  24.676  1.00  0.00    -0.487 OA
ATOM     23  C   UNL A   1      29.810  29.157  23.670  1.00  0.00     0.008 A 
ATOM     24  C   UNL A   1      32.102  29.550  24.850  1.00  0.00     0.087 C 
ATOM     25  C   UNL A   1      33.248  28.540  24.676  1.00  0.00     0.108 C 
ATOM     26  C   UNL A   1      33.973  28.853  23.353  1.00  0.00     0.057 C 
ATOM     27  C   UNL A   1      34.253  28.543  25.826  1.00  0.00     0.057 C 
ENDBRANCH  16  17
ENDBRANCH   9  16
ENDBRANCH   3   5
ENDBRANCH   2   3
ENDBRANCH   1   2
BRANCH   1  28
ATOM     28  C   UNL A   1      38.023  23.181  25.873  1.00  0.00     0.275 C 
BRANCH  28  29
ATOM     29  O   UNL A   1      38.490  24.274  26.678  1.00  0.00    -0.458 OA
BRANCH  29  30
ATOM     30  C   UNL A   1      39.826  24.432  26.762  1.00  0.00     0.338 C 
ATOM     31  O   UNL A   1      40.685  23.974  26.023  1.00  0.00    -0.246 OA
BRANCH  30  32
ATOM     32  C   UNL A   1      40.091  25.389  27.845  1.00  0.00     0.060 A 
ATOM     33  C   UNL A   1      39.161  25.474  28.877  1.00  0.00     0.016 A 
ATOM     34  C   UNL A   1      41.161  26.277  27.792  1.00  0.00     0.016 A 
ATOM     35  C   UNL A   1      39.226  26.514  29.797  1.00  0.00     0.010 A 
ATOM     36  C   UNL A   1      41.286  27.254  28.789  1.00  0.00     0.010 A 
ATOM     37  C   UNL A   1      40.294  27.418  29.778  1.00  0.00    -0.014 A 
BRANCH  37  38
ATOM     38  C   UNL A   1      40.324  28.570  30.728  1.00  0.00     0.031 A 
ATOM     39  C   UNL A   1      41.391  28.633  31.792  1.00  0.00     0.074 A 
ATOM     40  C   UNL A   1      39.447  29.592  30.624  1.00  0.00     0.049 A 
ATOM     41  N   UNL A   1      41.450  29.382  32.862  1.00  0.00    -0.248 NA
ATOM     42  C   UNL A   1      42.534  27.718  31.638  1.00  0.00     0.031 C 
ATOM     43  C   UNL A   1      38.417  29.735  29.593  1.00  0.00     0.029 A 
ATOM     44  N   UNL A   1      39.294  30.721  31.395  1.00  0.00    -0.354 N 
ATOM     45  C   UNL A   1      42.589  28.974  33.550  1.00  0.00     0.074 A 
ATOM     46  C   UNL A   1      43.200  27.922  32.767  1.00  0.00     0.031 C 
ATOM     47  C   UNL A   1      37.781  30.905  29.761  1.00  0.00     0.029 A 
ATOM     48  C   UNL A   1      38.272  31.540  30.977  1.00  0.00     0.049 A 
ATOM     49  H   UNL A   1      39.864  30.923  32.172  1.00  0.00     0.167 HD
ATOM     50  C   UNL A   1      43.071  29.430  34.730  1.00  0.00     0.037 A 
ATOM     51  C   UNL A   1      37.741  32.645  31.538  1.00  0.00     0.037 A 
ATOM     52  C   UNL A   1      42.504  30.534  35.460  1.00  0.00     0.049 A 
ATOM     53  C   UNL A   1      38.267  33.117  32.865  1.00  0.00     0.074 A 
ATOM     54  C   UNL A   1      42.903  31.060  36.676  1.00  0.00     0.029 A 
ATOM     55  N   UNL A   1      41.438  31.306  35.022  1.00  0.00    -0.354 N 
ATOM     56  N   UNL A   1      39.256  32.633  33.579  1.00  0.00    -0.248 NA
ATOM     57  C   UNL A   1      37.580  34.259  33.484  1.00  0.00     0.031 C 
ATOM     58  C   UNL A   1      42.064  32.138  36.984  1.00  0.00     0.029 A 
ATOM     59  C   UNL A   1      41.165  32.302  35.944  1.00  0.00     0.049 A 
ATOM     60  H   UNL A   1      40.948  31.166  34.180  1.00  0.00     0.167 HD
ATOM     61  C   UNL A   1      39.306  33.409  34.731  1.00  0.00     0.074 A 
ATOM     62  C   UNL A   1      38.267  34.411  34.607  1.00  0.00     0.031 C 
ATOM     63  C   UNL A   1      40.130  33.295  35.801  1.00  0.00     0.037 A 
BRANCH  50  64
ATOM     64  C   UNL A   1      44.239  28.703  35.335  1.00  0.00     0.058 A 
ATOM     65  C   UNL A   1      44.078  27.618  36.207  1.00  0.00     0.135 A 
ATOM     66  C   UNL A   1      45.549  29.092  35.006  1.00  0.00     0.135 A 
ATOM     67  F   UNL A   1      42.849  27.219  36.569  1.00  0.00    -0.206 F 
ATOM     68  C   UNL A   1      45.175  26.955  36.751  1.00  0.00     0.059 A 
ATOM     69  C   UNL A   1      46.660  28.429  35.520  1.00  0.00     0.059 A 
ATOM     70  F   UNL A   1      45.760  30.127  34.176  1.00  0.00    -0.206 F 
ATOM     71  C   UNL A   1      46.462  27.370  36.403  1.00  0.00     0.060 A 
BRANCH  71  72
ATOM     72  S   UNL A   1      47.877  26.502  37.112  1.00  0.00     0.124 S 
ATOM     73  O   UNL A   1      47.330  26.042  38.385  1.00  0.00    -0.237 OA
ATOM     74  O   UNL A   1      48.137  25.461  36.122  1.00  0.00    -0.237 OA
ATOM     75  O   UNL A   1      48.900  27.540  37.207  1.00  0.00    -0.744 OA
ENDBRANCH  71  72
ENDBRANCH  50  64
BRANCH  51  76
ATOM     76  C   UNL A   1      36.593  33.334  30.888  1.00  0.00     0.058 A 
ATOM     77  C   UNL A   1      35.293  33.217  31.398  1.00  0.00     0.135 A 
ATOM     78  C   UNL A   1      36.777  34.127  29.743  1.00  0.00     0.135 A 
ATOM     79  F   UNL A   1      35.062  32.456  32.479  1.00  0.00    -0.206 F 
ATOM     80  C   UNL A   1      34.213  33.857  30.795  1.00  0.00     0.059 A 
ATOM     81  C   UNL A   1      35.720  34.800  29.141  1.00  0.00     0.059 A 
ATOM     82  F   UNL A   1      38.003  34.277  29.217  1.00  0.00    -0.206 F 
ATOM     83  C   UNL A   1      34.438  34.650  29.669  1.00  0.00     0.060 A 
BRANCH  83  84
ATOM     84  S   UNL A   1      33.047  35.524  28.920  1.00  0.00     0.124 S 
ATOM     85  O   UNL A   1      33.732  36.543  28.132  1.00  0.00    -0.237 OA
ATOM     86  O   UNL A   1      32.386  34.467  28.161  1.00  0.00    -0.237 OA
ATOM     87  O   UNL A   1      32.301  36.014  30.075  1.00  0.00    -0.744 OA
ENDBRANCH  83  84
ENDBRANCH  51  76
BRANCH  63  88
ATOM     88  C   UNL A   1      39.955  34.290  36.912  1.00  0.00     0.058 A 
ATOM     89  C   UNL A   1      40.524  35.571  36.842  1.00  0.00     0.135 A 
ATOM     90  C   UNL A   1      39.177  33.973  38.035  1.00  0.00     0.135 A 
ATOM     91  F   UNL A   1      41.283  35.917  35.790  1.00  0.00    -0.206 F 
ATOM     92  C   UNL A   1      40.341  36.500  37.860  1.00  0.00     0.059 A 
ATOM     93  C   UNL A   1      38.965  34.894  39.056  1.00  0.00     0.059 A 
ATOM     94  F   UNL A   1      38.606  32.763  38.143  1.00  0.00    -0.206 F 
ATOM     95  C   UNL A   1      39.560  36.151  38.964  1.00  0.00     0.060 A 
BRANCH  95  96
ATOM     96  S   UNL A   1      39.302  37.376  40.267  1.00  0.00     0.124 S 
ATOM     97  O   UNL A   1      40.675  37.712  40.628  1.00  0.00    -0.237 OA
ATOM     98  O   UNL A   1      38.555  38.421  39.574  1.00  0.00    -0.237 OA
ATOM     99  O   UNL A   1      38.548  36.642  41.277  1.00  0.00    -0.744 OA
ENDBRANCH  95  96
ENDBRANCH  63  88
ENDBRANCH  37  38
ENDBRANCH  30  32
ENDBRANCH  29  30
ENDBRANCH  28  29
ENDBRANCH   1  28
TORSDOF 19
ENDMDL
MODEL 3
REMARK VINA RESULT:     -11.0      3.581      9.994
REMARK SMILES COCC[C@@]1(C(=O)OCCOC(=O)c2ccc(-c3c4nc(c(-c5c(F)cc(S(=O)(=O)[O-])cc5F)c5ccc([nH]5)c(-c5c(F)cc(S(=O)(=O)[O-])cc5F)c5nc(c(-c6c(F)cc(S(=O)(=O)[O-])cc6F)c6ccc3[nH]6)C=C5)C=C4)cc2)CCC[N@@H+](Cc2cccc3c2OC(C)(C)C3)C1
REMARK SMILES IDX 9 1 8 2 6 3 7 4 5 5 80 6 96 7 81 8 83 9 82 10 4 12 3 13 2 14
REMARK SMILES IDX 1 15 84 16 85 17 86 18 90 19 87 20 89 21 91 22 88 23 95 24
REMARK SMILES IDX 92 25 93 26 94 27 10 28 11 29 12 30 13 31 14 32 15 33 79 34
REMARK SMILES IDX 16 35 78 36 17 37 18 38 19 39 72 40 20 41 77 42 71 43 73 44
REMARK SMILES IDX 21 45 76 46 70 47 69 48 22 50 56 51 35 52 55 53 36 54 39 55
REMARK SMILES IDX 54 56 74 57 37 58 38 59 53 61 75 62 40 63 23 64 24 65 33 66
REMARK SMILES IDX 25 67 26 68 32 69 34 70 27 71 28 72 29 73 30 74 31 75 57 76
REMARK SMILES IDX 58 77 67 78 59 79 60 80 66 81 68 82 61 83 62 84 63 85 64 86
REMARK SMILES IDX 65 87 41 88 42 89 51 90 43 91 44 92 50 93 52 94 45 95 46 96
REMARK SMILES IDX 47 97 48 98 49 99
REMARK H PARENT 83 11 73 49 39 60
REMARK Flexibility Score: inf
ROOT
ATOM      1  C   UNL A   1      36.578  21.689  24.584  1.00  0.00     0.274 C 
ENDROOT
BRANCH   1   2
ATOM      2  O   UNL A   1      35.490  21.109  25.336  1.00  0.00    -0.461 OA
BRANCH   2   3
ATOM      3  C   UNL A   1      34.428  21.919  25.586  1.00  0.00     0.318 C 
ATOM      4  O   UNL A   1      34.496  22.951  26.245  1.00  0.00    -0.251 OA
BRANCH   3   5
ATOM      5  C   UNL A   1      33.124  21.417  24.946  1.00  0.00     0.119 C 
ATOM      6  C   UNL A   1      33.310  21.481  23.402  1.00  0.00     0.030 C 
ATOM      7  C   UNL A   1      31.918  22.317  25.325  1.00  0.00     0.281 C 
ATOM      8  C   UNL A   1      33.360  22.913  22.880  1.00  0.00     0.063 C 
ATOM      9  N   UNL A   1      32.019  23.700  24.800  1.00  0.00    -0.330 N 
ATOM     10  C   UNL A   1      32.135  23.699  23.339  1.00  0.00     0.262 C 
ATOM     11  H   UNL A   1      32.883  24.099  25.164  1.00  0.00     0.348 HD
BRANCH   5  12
ATOM     12  C   UNL A   1      32.938  19.903  25.292  1.00  0.00     0.053 C 
BRANCH  12  13
ATOM     13  C   UNL A   1      32.414  18.971  24.196  1.00  0.00     0.161 C 
BRANCH  13  14
ATOM     14  O   UNL A   1      33.159  17.754  24.119  1.00  0.00    -0.385 OA
ATOM     15  C   UNL A   1      34.545  17.919  24.359  1.00  0.00     0.194 C 
ENDBRANCH  13  14
ENDBRANCH  12  13
ENDBRANCH   5  12
BRANCH   9  16
ATOM     16  C   UNL A   1      30.951  24.607  25.316  1.00  0.00     0.303 C 
BRANCH  16  17
ATOM     17  C   UNL A   1      30.739  25.868  24.506  1.00  0.00     0.049 A 
ATOM     18  C   UNL A   1      29.573  26.055  23.753  1.00  0.00     0.013 A 
ATOM     19  C   UNL A   1      31.552  26.977  24.675  1.00  0.00     0.132 A 
ATOM     20  C   UNL A   1      29.132  27.346  23.430  1.00  0.00     0.001 A 
ATOM     21  C   UNL A   1      31.070  28.259  24.469  1.00  0.00    -0.001 A 
ATOM     22  O   UNL A   1      32.862  26.958  25.081  1.00  0.00    -0.487 OA
ATOM     23  C   UNL A   1      29.846  28.466  23.863  1.00  0.00     0.008 A 
ATOM     24  C   UNL A   1      32.023  29.218  25.087  1.00  0.00     0.087 C 
ATOM     25  C   UNL A   1      33.292  28.353  25.014  1.00  0.00     0.108 C 
ATOM     26  C   UNL A   1      34.024  28.675  23.697  1.00  0.00     0.057 C 
ATOM     27  C   UNL A   1      34.243  28.553  26.193  1.00  0.00     0.057 C 
ENDBRANCH  16  17
ENDBRANCH   9  16
ENDBRANCH   3   5
ENDBRANCH   2   3
ENDBRANCH   1   2
BRANCH   1  28
ATOM     28  C   UNL A   1      37.878  21.557  25.369  1.00  0.00     0.275 C 
BRANCH  28  29
ATOM     29  O   UNL A   1      38.332  22.888  25.658  1.00  0.00    -0.458 OA
BRANCH  29  30
ATOM     30  C   UNL A   1      39.556  23.000  26.210  1.00  0.00     0.338 C 
ATOM     31  O   UNL A   1      40.521  22.265  26.055  1.00  0.00    -0.246 OA
BRANCH  30  32
ATOM     32  C   UNL A   1      39.595  24.270  26.949  1.00  0.00     0.060 A 
ATOM     33  C   UNL A   1      40.400  25.288  26.446  1.00  0.00     0.016 A 
ATOM     34  C   UNL A   1      38.957  24.423  28.176  1.00  0.00     0.016 A 
ATOM     35  C   UNL A   1      40.667  26.415  27.213  1.00  0.00     0.010 A 
ATOM     36  C   UNL A   1      39.138  25.613  28.894  1.00  0.00     0.010 A 
ATOM     37  C   UNL A   1      40.033  26.605  28.447  1.00  0.00    -0.014 A 
BRANCH  37  38
ATOM     38  C   UNL A   1      40.374  27.787  29.295  1.00  0.00     0.031 A 
ATOM     39  C   UNL A   1      41.692  27.823  30.029  1.00  0.00     0.074 A 
ATOM     40  C   UNL A   1      39.552  28.854  29.381  1.00  0.00     0.049 A 
ATOM     41  N   UNL A   1      42.075  28.604  31.004  1.00  0.00    -0.248 NA
ATOM     42  C   UNL A   1      42.706  26.837  29.618  1.00  0.00     0.031 C 
ATOM     43  C   UNL A   1      38.289  29.022  28.660  1.00  0.00     0.029 A 
ATOM     44  N   UNL A   1      39.669  30.016  30.107  1.00  0.00    -0.354 N 
ATOM     45  C   UNL A   1      43.337  28.153  31.380  1.00  0.00     0.074 A 
ATOM     46  C   UNL A   1      43.662  27.040  30.514  1.00  0.00     0.031 C 
ATOM     47  C   UNL A   1      37.779  30.233  28.934  1.00  0.00     0.029 A 
ATOM     48  C   UNL A   1      38.612  30.880  29.940  1.00  0.00     0.049 A 
ATOM     49  H   UNL A   1      40.437  30.211  30.691  1.00  0.00     0.167 HD
ATOM     50  C   UNL A   1      44.143  28.620  32.362  1.00  0.00     0.037 A 
ATOM     51  C   UNL A   1      38.306  32.033  30.568  1.00  0.00     0.037 A 
ATOM     52  C   UNL A   1      43.849  29.781  33.162  1.00  0.00     0.049 A 
ATOM     53  C   UNL A   1      39.194  32.519  31.679  1.00  0.00     0.074 A 
ATOM     54  C   UNL A   1      44.588  30.325  34.199  1.00  0.00     0.029 A 
ATOM     55  N   UNL A   1      42.742  30.599  32.990  1.00  0.00    -0.354 N 
ATOM     56  N   UNL A   1      40.316  32.002  32.124  1.00  0.00    -0.248 NA
ATOM     57  C   UNL A   1      38.756  33.721  32.403  1.00  0.00     0.031 C 
ATOM     58  C   UNL A   1      43.916  31.460  34.668  1.00  0.00     0.029 A 
ATOM     59  C   UNL A   1      42.777  31.641  33.900  1.00  0.00     0.049 A 
ATOM     60  H   UNL A   1      42.036  30.459  32.319  1.00  0.00     0.167 HD
ATOM     61  C   UNL A   1      40.714  32.814  33.179  1.00  0.00     0.074 A 
ATOM     62  C   UNL A   1      39.730  33.871  33.290  1.00  0.00     0.031 C 
ATOM     63  C   UNL A   1      41.791  32.688  33.993  1.00  0.00     0.037 A 
BRANCH  50  64
ATOM     64  C   UNL A   1      45.395  27.847  32.666  1.00  0.00     0.058 A 
ATOM     65  C   UNL A   1      45.436  26.833  33.632  1.00  0.00     0.135 A 
ATOM     66  C   UNL A   1      46.573  28.116  31.947  1.00  0.00     0.135 A 
ATOM     67  F   UNL A   1      44.344  26.549  34.360  1.00  0.00    -0.206 F 
ATOM     68  C   UNL A   1      46.605  26.124  33.892  1.00  0.00     0.059 A 
ATOM     69  C   UNL A   1      47.747  27.405  32.175  1.00  0.00     0.059 A 
ATOM     70  F   UNL A   1      46.589  29.079  31.012  1.00  0.00    -0.206 F 
ATOM     71  C   UNL A   1      47.757  26.420  33.160  1.00  0.00     0.060 A 
BRANCH  71  72
ATOM     72  S   UNL A   1      49.268  25.494  33.504  1.00  0.00     0.124 S 
ATOM     73  O   UNL A   1      49.702  26.099  34.760  1.00  0.00    -0.237 OA
ATOM     74  O   UNL A   1      48.782  24.120  33.597  1.00  0.00    -0.237 OA
ATOM     75  O   UNL A   1      50.112  25.779  32.347  1.00  0.00    -0.744 OA
ENDBRANCH  71  72
ENDBRANCH  50  64
BRANCH  51  76
ATOM     76  C   UNL A   1      37.059  32.766  30.217  1.00  0.00     0.058 A 
ATOM     77  C   UNL A   1      37.073  33.820  29.294  1.00  0.00     0.135 A 
ATOM     78  C   UNL A   1      35.827  32.422  30.797  1.00  0.00     0.135 A 
ATOM     79  F   UNL A   1      38.228  34.200  28.725  1.00  0.00    -0.206 F 
ATOM     80  C   UNL A   1      35.912  34.512  28.960  1.00  0.00     0.059 A 
ATOM     81  C   UNL A   1      34.649  33.078  30.457  1.00  0.00     0.059 A 
ATOM     82  F   UNL A   1      35.758  31.416  31.683  1.00  0.00    -0.206 F 
ATOM     83  C   UNL A   1      34.704  34.131  29.545  1.00  0.00     0.060 A 
BRANCH  83  84
ATOM     84  S   UNL A   1      33.189  34.991  29.071  1.00  0.00     0.124 S 
ATOM     85  O   UNL A   1      32.501  35.100  30.353  1.00  0.00    -0.237 OA
ATOM     86  O   UNL A   1      33.701  36.239  28.514  1.00  0.00    -0.237 OA
ATOM     87  O   UNL A   1      32.581  34.086  28.101  1.00  0.00    -0.744 OA
ENDBRANCH  83  84
ENDBRANCH  51  76
BRANCH  63  88
ATOM     88  C   UNL A   1      41.972  33.730  35.059  1.00  0.00     0.058 A 
ATOM     89  C   UNL A   1      41.412  33.573  36.336  1.00  0.00     0.135 A 
ATOM     90  C   UNL A   1      42.745  34.873  34.813  1.00  0.00     0.135 A 
ATOM     91  F   UNL A   1      40.658  32.499  36.617  1.00  0.00    -0.206 F 
ATOM     92  C   UNL A   1      41.600  34.526  37.331  1.00  0.00     0.059 A 
ATOM     93  C   UNL A   1      42.963  35.830  35.799  1.00  0.00     0.059 A 
ATOM     94  F   UNL A   1      43.307  35.064  33.608  1.00  0.00    -0.206 F 
ATOM     95  C   UNL A   1      42.377  35.653  37.051  1.00  0.00     0.060 A 
BRANCH  95  96
ATOM     96  S   UNL A   1      42.641  36.872  38.358  1.00  0.00     0.124 S 
ATOM     97  O   UNL A   1      43.425  37.884  37.660  1.00  0.00    -0.237 OA
ATOM     98  O   UNL A   1      41.278  37.257  38.710  1.00  0.00    -0.237 OA
ATOM     99  O   UNL A   1      43.356  36.118  39.383  1.00  0.00    -0.744 OA
ENDBRANCH  95  96
ENDBRANCH  63  88
ENDBRANCH  37  38
ENDBRANCH  30  32
ENDBRANCH  29  30
ENDBRANCH  28  29
ENDBRANCH   1  28
TORSDOF 19
ENDMDL
