MODEL 1
REMARK VINA RESULT:     -10.2      0.000      0.000
REMARK SMILES CSCC[C@H](NC(=O)c1nc(C(C)C)n[nH]1)C(=O)OCCOC(=O)c1ccc(-c2c3nc(c(-c4c(F)cc(S(=O)(=O)[O-])cc4F)c4ccc([nH]4)c(-c4c(F)cc(S(=O)(=O)[O-])cc4F)c4nc(c(-c5c(F)cc(S(=O)(=O)[O-])cc5F)c5ccc2[nH]5)C=C4)C=C3)cc1
REMARK SMILES IDX 20 1 19 2 17 3 18 4 5 5 4 6 3 7 2 8 1 9 6 10 7 11 8 13 9 14
REMARK SMILES IDX 10 15 16 16 11 17 15 18 12 20 13 21 14 22 21 23 22 24 23 25
REMARK SMILES IDX 24 26 25 27 26 28 90 29 27 30 89 31 28 32 29 33 30 34 83 35
REMARK SMILES IDX 31 36 88 37 82 38 84 39 32 40 87 41 81 42 80 43 33 45 67 46
REMARK SMILES IDX 46 47 66 48 47 49 50 50 65 51 85 52 48 53 49 54 64 56 86 57
REMARK SMILES IDX 51 58 34 59 35 60 44 61 36 62 37 63 43 64 45 65 38 66 39 67
REMARK SMILES IDX 40 68 41 69 42 70 68 71 69 72 78 73 70 74 71 75 77 76 79 77
REMARK SMILES IDX 72 78 73 79 74 80 75 81 76 82 52 83 53 84 62 85 54 86 55 87
REMARK SMILES IDX 61 88 63 89 56 90 57 91 58 92 59 93 60 94
REMARK H PARENT 6 12 16 19 84 44 50 55
REMARK Flexibility Score: inf
ROOT
ATOM      1  C   UNL A   1      37.750  23.618  25.874  1.00  0.00     0.274 C 
ENDROOT
BRANCH   1   2
ATOM      2  O   UNL A   1      36.961  22.463  25.524  1.00  0.00    -0.461 OA
BRANCH   2   3
ATOM      3  C   UNL A   1      36.374  22.504  24.290  1.00  0.00     0.328 C 
ATOM      4  O   UNL A   1      36.945  22.882  23.274  1.00  0.00    -0.250 OA
BRANCH   3   5
ATOM      5  C   UNL A   1      34.877  22.137  24.339  1.00  0.00     0.193 C 
BRANCH   5   6
ATOM      6  C   UNL A   1      34.116  23.117  23.428  1.00  0.00     0.048 C 
BRANCH   6   7
ATOM      7  C   UNL A   1      33.824  24.508  24.004  1.00  0.00     0.072 C 
BRANCH   7   8
ATOM      8  S   UNL A   1      32.084  25.045  23.976  1.00  0.00    -0.165 SA
ATOM      9  C   UNL A   1      31.226  23.546  24.519  1.00  0.00     0.085 C 
ENDBRANCH   7   8
ENDBRANCH   6   7
ENDBRANCH   5   6
BRANCH   5  10
ATOM     10  N   UNL A   1      34.380  22.203  25.724  1.00  0.00    -0.336 N 
ATOM     11  C   UNL A   1      33.705  21.256  26.457  1.00  0.00     0.289 C 
ATOM     12  H   UNL A   1      34.557  23.049  26.194  1.00  0.00     0.164 HD
ATOM     13  O   UNL A   1      33.336  21.563  27.593  1.00  0.00    -0.266 OA
BRANCH  11  14
ATOM     14  C   UNL A   1      33.392  19.968  25.885  1.00  0.00     0.214 A 
ATOM     15  N   UNL A   1      33.480  19.589  24.626  1.00  0.00    -0.207 NA
ATOM     16  N   UNL A   1      32.912  18.923  26.619  1.00  0.00    -0.255 N 
ATOM     17  C   UNL A   1      32.975  18.309  24.635  1.00  0.00     0.153 A 
ATOM     18  N   UNL A   1      32.593  17.874  25.843  1.00  0.00    -0.158 NA
ATOM     19  H   UNL A   1      32.813  18.935  27.598  1.00  0.00     0.192 HD
BRANCH  17  20
ATOM     20  C   UNL A   1      32.819  17.515  23.376  1.00  0.00     0.053 C 
ATOM     21  C   UNL A   1      32.345  18.364  22.195  1.00  0.00     0.016 C 
ATOM     22  C   UNL A   1      34.119  16.792  23.012  1.00  0.00     0.016 C 
ENDBRANCH  17  20
ENDBRANCH  11  14
ENDBRANCH   5  10
ENDBRANCH   3   5
ENDBRANCH   2   3
ENDBRANCH   1   2
BRANCH   1  23
ATOM     23  C   UNL A   1      39.252  23.320  25.869  1.00  0.00     0.275 C 
BRANCH  23  24
ATOM     24  O   UNL A   1      39.941  24.007  26.928  1.00  0.00    -0.458 OA
BRANCH  24  25
ATOM     25  C   UNL A   1      40.459  25.214  26.581  1.00  0.00     0.338 C 
ATOM     26  O   UNL A   1      40.703  25.593  25.450  1.00  0.00    -0.246 OA
BRANCH  25  27
ATOM     27  C   UNL A   1      40.530  26.101  27.765  1.00  0.00     0.060 A 
ATOM     28  C   UNL A   1      39.495  26.009  28.703  1.00  0.00     0.016 A 
ATOM     29  C   UNL A   1      41.574  27.012  27.955  1.00  0.00     0.016 A 
ATOM     30  C   UNL A   1      39.499  26.826  29.833  1.00  0.00     0.010 A 
ATOM     31  C   UNL A   1      41.567  27.845  29.078  1.00  0.00     0.010 A 
ATOM     32  C   UNL A   1      40.525  27.761  30.016  1.00  0.00    -0.014 A 
BRANCH  32  33
ATOM     33  C   UNL A   1      40.462  28.706  31.152  1.00  0.00     0.031 A 
ATOM     34  C   UNL A   1      39.491  29.848  31.106  1.00  0.00     0.074 A 
ATOM     35  C   UNL A   1      41.250  28.523  32.226  1.00  0.00     0.049 A 
ATOM     36  N   UNL A   1      39.274  30.785  31.993  1.00  0.00    -0.248 NA
ATOM     37  C   UNL A   1      38.646  29.945  29.905  1.00  0.00     0.031 C 
ATOM     38  C   UNL A   1      42.201  27.426  32.400  1.00  0.00     0.029 A 
ATOM     39  N   UNL A   1      41.377  29.265  33.372  1.00  0.00    -0.354 N 
ATOM     40  C   UNL A   1      38.255  31.570  31.470  1.00  0.00     0.074 A 
ATOM     41  C   UNL A   1      37.915  31.017  30.176  1.00  0.00     0.031 C 
ATOM     42  C   UNL A   1      42.823  27.572  33.583  1.00  0.00     0.029 A 
ATOM     43  C   UNL A   1      42.331  28.783  34.236  1.00  0.00     0.049 A 
ATOM     44  H   UNL A   1      40.836  30.066  33.559  1.00  0.00     0.167 HD
ATOM     45  C   UNL A   1      37.654  32.650  32.022  1.00  0.00     0.037 A 
ATOM     46  C   UNL A   1      42.766  29.278  35.410  1.00  0.00     0.037 A 
ATOM     47  C   UNL A   1      38.019  33.222  33.290  1.00  0.00     0.049 A 
ATOM     48  C   UNL A   1      42.157  30.543  35.953  1.00  0.00     0.074 A 
ATOM     49  C   UNL A   1      37.481  34.329  33.925  1.00  0.00     0.029 A 
ATOM     50  N   UNL A   1      39.029  32.742  34.110  1.00  0.00    -0.354 N 
ATOM     51  N   UNL A   1      41.184  31.268  35.456  1.00  0.00    -0.248 NA
ATOM     52  C   UNL A   1      42.710  31.061  37.213  1.00  0.00     0.031 C 
ATOM     53  C   UNL A   1      38.190  34.536  35.115  1.00  0.00     0.029 A 
ATOM     54  C   UNL A   1      39.148  33.541  35.233  1.00  0.00     0.049 A 
ATOM     55  H   UNL A   1      39.580  31.948  33.921  1.00  0.00     0.167 HD
ATOM     56  C   UNL A   1      40.994  32.316  36.350  1.00  0.00     0.074 A 
ATOM     57  C   UNL A   1      41.951  32.130  37.422  1.00  0.00     0.031 C 
ATOM     58  C   UNL A   1      40.107  33.339  36.291  1.00  0.00     0.037 A 
BRANCH  45  59
ATOM     59  C   UNL A   1      36.554  33.294  31.231  1.00  0.00     0.058 A 
ATOM     60  C   UNL A   1      36.833  34.076  30.100  1.00  0.00     0.135 A 
ATOM     61  C   UNL A   1      35.212  33.133  31.607  1.00  0.00     0.135 A 
ATOM     62  F   UNL A   1      38.102  34.275  29.711  1.00  0.00    -0.206 F 
ATOM     63  C   UNL A   1      35.819  34.703  29.383  1.00  0.00     0.059 A 
ATOM     64  C   UNL A   1      34.180  33.738  30.897  1.00  0.00     0.059 A 
ATOM     65  F   UNL A   1      34.896  32.398  32.686  1.00  0.00    -0.206 F 
ATOM     66  C   UNL A   1      34.495  34.535  29.796  1.00  0.00     0.060 A 
BRANCH  66  67
ATOM     67  S   UNL A   1      33.186  35.376  28.881  1.00  0.00     0.124 S 
ATOM     68  O   UNL A   1      32.411  35.971  29.965  1.00  0.00    -0.237 OA
ATOM     69  O   UNL A   1      33.934  36.313  28.048  1.00  0.00    -0.237 OA
ATOM     70  O   UNL A   1      32.528  34.291  28.160  1.00  0.00    -0.744 OA
ENDBRANCH  66  67
ENDBRANCH  45  59
BRANCH  46  71
ATOM     71  C   UNL A   1      43.852  28.585  36.149  1.00  0.00     0.058 A 
ATOM     72  C   UNL A   1      45.186  28.998  36.029  1.00  0.00     0.135 A 
ATOM     73  C   UNL A   1      43.574  27.493  36.986  1.00  0.00     0.135 A 
ATOM     74  F   UNL A   1      45.499  30.030  35.231  1.00  0.00    -0.206 F 
ATOM     75  C   UNL A   1      46.212  28.347  36.706  1.00  0.00     0.059 A 
ATOM     76  C   UNL A   1      44.580  26.837  37.687  1.00  0.00     0.059 A 
ATOM     77  F   UNL A   1      42.311  27.066  37.138  1.00  0.00    -0.206 F 
ATOM     78  C   UNL A   1      45.898  27.265  37.533  1.00  0.00     0.060 A 
BRANCH  78  79
ATOM     79  S   UNL A   1      47.227  26.448  38.444  1.00  0.00     0.124 S 
ATOM     80  O   UNL A   1      47.361  27.317  39.607  1.00  0.00    -0.237 OA
ATOM     81  O   UNL A   1      46.666  25.125  38.695  1.00  0.00    -0.237 OA
ATOM     82  O   UNL A   1      48.342  26.478  37.501  1.00  0.00    -0.744 OA
ENDBRANCH  78  79
ENDBRANCH  46  71
BRANCH  58  83
ATOM     83  C   UNL A   1      40.115  34.327  37.421  1.00  0.00     0.058 A 
ATOM     84  C   UNL A   1      40.830  35.531  37.335  1.00  0.00     0.135 A 
ATOM     85  C   UNL A   1      39.356  34.093  38.577  1.00  0.00     0.135 A 
ATOM     86  F   UNL A   1      41.578  35.796  36.251  1.00  0.00    -0.206 F 
ATOM     87  C   UNL A   1      40.799  36.468  38.362  1.00  0.00     0.059 A 
ATOM     88  C   UNL A   1      39.295  35.024  39.610  1.00  0.00     0.059 A 
ATOM     89  F   UNL A   1      38.648  32.959  38.704  1.00  0.00    -0.206 F 
ATOM     90  C   UNL A   1      40.027  36.206  39.496  1.00  0.00     0.060 A 
BRANCH  90  91
ATOM     91  S   UNL A   1      39.950  37.448  40.805  1.00  0.00     0.124 S 
ATOM     92  O   UNL A   1      38.745  38.185  40.440  1.00  0.00    -0.237 OA
ATOM     93  O   UNL A   1      39.853  36.634  42.012  1.00  0.00    -0.237 OA
ATOM     94  O   UNL A   1      41.206  38.178  40.649  1.00  0.00    -0.744 OA
ENDBRANCH  90  91
ENDBRANCH  58  83
ENDBRANCH  32  33
ENDBRANCH  25  27
ENDBRANCH  24  25
ENDBRANCH  23  24
ENDBRANCH   1  23
TORSDOF 20
ENDMDL
MODEL 2
REMARK VINA RESULT:     -10.2      3.087      8.856
REMARK SMILES CSCC[C@H](NC(=O)c1nc(C(C)C)n[nH]1)C(=O)OCCOC(=O)c1ccc(-c2c3nc(c(-c4c(F)cc(S(=O)(=O)[O-])cc4F)c4ccc([nH]4)c(-c4c(F)cc(S(=O)(=O)[O-])cc4F)c4nc(c(-c5c(F)cc(S(=O)(=O)[O-])cc5F)c5ccc2[nH]5)C=C4)C=C3)cc1
REMARK SMILES IDX 20 1 19 2 17 3 18 4 5 5 4 6 3 7 2 8 1 9 6 10 7 11 8 13 9 14
REMARK SMILES IDX 10 15 16 16 11 17 15 18 12 20 13 21 14 22 21 23 22 24 23 25
REMARK SMILES IDX 24 26 25 27 26 28 90 29 27 30 89 31 28 32 29 33 30 34 83 35
REMARK SMILES IDX 31 36 88 37 82 38 84 39 32 40 87 41 81 42 80 43 33 45 67 46
REMARK SMILES IDX 46 47 66 48 47 49 50 50 65 51 85 52 48 53 49 54 64 56 86 57
REMARK SMILES IDX 51 58 34 59 35 60 44 61 36 62 37 63 43 64 45 65 38 66 39 67
REMARK SMILES IDX 40 68 41 69 42 70 68 71 69 72 78 73 70 74 71 75 77 76 79 77
REMARK SMILES IDX 72 78 73 79 74 80 75 81 76 82 52 83 53 84 62 85 54 86 55 87
REMARK SMILES IDX 61 88 63 89 56 90 57 91 58 92 59 93 60 94
REMARK H PARENT 6 12 16 19 84 44 50 55
REMARK Flexibility Score: inf
ROOT
ATOM      1  C   UNL A   1      35.811  23.025  23.617  1.00  0.00     0.274 C 
ENDROOT
BRANCH   1   2
ATOM      2  O   UNL A   1      34.553  23.707  23.790  1.00  0.00    -0.461 OA
BRANCH   2   3
ATOM      3  C   UNL A   1      33.483  23.139  23.155  1.00  0.00     0.328 C 
ATOM      4  O   UNL A   1      33.272  23.237  21.952  1.00  0.00    -0.250 OA
BRANCH   3   5
ATOM      5  C   UNL A   1      32.508  22.462  24.139  1.00  0.00     0.193 C 
BRANCH   5   6
ATOM      6  C   UNL A   1      31.197  23.268  24.139  1.00  0.00     0.048 C 
BRANCH   6   7
ATOM      7  C   UNL A   1      30.862  24.040  25.421  1.00  0.00     0.072 C 
BRANCH   7   8
ATOM      8  S   UNL A   1      30.640  25.839  25.246  1.00  0.00    -0.165 SA
ATOM      9  C   UNL A   1      32.300  26.371  24.758  1.00  0.00     0.085 C 
ENDBRANCH   7   8
ENDBRANCH   6   7
ENDBRANCH   5   6
BRANCH   5  10
ATOM     10  N   UNL A   1      33.099  22.406  25.488  1.00  0.00    -0.336 N 
ATOM     11  C   UNL A   1      33.443  21.314  26.247  1.00  0.00     0.289 C 
ATOM     12  H   UNL A   1      33.272  23.280  25.906  1.00  0.00     0.164 HD
ATOM     13  O   UNL A   1      33.874  21.516  27.384  1.00  0.00    -0.266 OA
BRANCH  11  14
ATOM     14  C   UNL A   1      33.247  19.976  25.742  1.00  0.00     0.214 A 
ATOM     15  N   UNL A   1      33.371  19.541  24.504  1.00  0.00    -0.207 NA
ATOM     16  N   UNL A   1      32.862  18.930  26.530  1.00  0.00    -0.255 N 
ATOM     17  C   UNL A   1      32.983  18.224  24.580  1.00  0.00     0.153 A 
ATOM     18  N   UNL A   1      32.639  17.819  25.810  1.00  0.00    -0.158 NA
ATOM     19  H   UNL A   1      32.761  18.984  27.508  1.00  0.00     0.192 HD
BRANCH  17  20
ATOM     20  C   UNL A   1      32.901  17.356  23.363  1.00  0.00     0.053 C 
ATOM     21  C   UNL A   1      32.516  18.135  22.104  1.00  0.00     0.016 C 
ATOM     22  C   UNL A   1      34.212  16.601  23.132  1.00  0.00     0.016 C 
ENDBRANCH  17  20
ENDBRANCH  11  14
ENDBRANCH   5  10
ENDBRANCH   3   5
ENDBRANCH   2   3
ENDBRANCH   1   2
BRANCH   1  23
ATOM     23  C   UNL A   1      36.542  22.803  24.945  1.00  0.00     0.275 C 
BRANCH  23  24
ATOM     24  O   UNL A   1      37.669  23.683  25.092  1.00  0.00    -0.458 OA
BRANCH  24  25
ATOM     25  C   UNL A   1      38.644  23.226  25.921  1.00  0.00     0.338 C 
ATOM     26  O   UNL A   1      39.098  22.096  25.941  1.00  0.00    -0.246 OA
BRANCH  25  27
ATOM     27  C   UNL A   1      39.224  24.345  26.697  1.00  0.00     0.060 A 
ATOM     28  C   UNL A   1      38.804  24.497  28.024  1.00  0.00     0.016 A 
ATOM     29  C   UNL A   1      40.146  25.239  26.144  1.00  0.00     0.016 A 
ATOM     30  C   UNL A   1      39.305  25.540  28.802  1.00  0.00     0.010 A 
ATOM     31  C   UNL A   1      40.633  26.296  26.919  1.00  0.00     0.010 A 
ATOM     32  C   UNL A   1      40.207  26.455  28.248  1.00  0.00    -0.014 A 
BRANCH  32  33
ATOM     33  C   UNL A   1      40.642  27.627  29.039  1.00  0.00     0.031 A 
ATOM     34  C   UNL A   1      41.997  27.618  29.682  1.00  0.00     0.074 A 
ATOM     35  C   UNL A   1      39.837  28.697  29.158  1.00  0.00     0.049 A 
ATOM     36  N   UNL A   1      42.571  28.539  30.413  1.00  0.00    -0.248 NA
ATOM     37  C   UNL A   1      42.820  26.417  29.468  1.00  0.00     0.031 C 
ATOM     38  C   UNL A   1      38.518  28.834  28.542  1.00  0.00     0.029 A 
ATOM     39  N   UNL A   1      40.015  29.872  29.843  1.00  0.00    -0.354 N 
ATOM     40  C   UNL A   1      43.828  28.041  30.729  1.00  0.00     0.074 A 
ATOM     41  C   UNL A   1      43.924  26.724  30.133  1.00  0.00     0.031 C 
ATOM     42  C   UNL A   1      37.998  30.026  28.888  1.00  0.00     0.029 A 
ATOM     43  C   UNL A   1      38.939  30.722  29.764  1.00  0.00     0.049 A 
ATOM     44  H   UNL A   1      40.835  30.085  30.342  1.00  0.00     0.167 HD
ATOM     45  C   UNL A   1      44.814  28.630  31.444  1.00  0.00     0.037 A 
ATOM     46  C   UNL A   1      38.733  31.917  30.349  1.00  0.00     0.037 A 
ATOM     47  C   UNL A   1      44.704  29.921  32.068  1.00  0.00     0.049 A 
ATOM     48  C   UNL A   1      39.803  32.504  31.230  1.00  0.00     0.074 A 
ATOM     49  C   UNL A   1      45.642  30.595  32.831  1.00  0.00     0.029 A 
ATOM     50  N   UNL A   1      43.577  30.728  32.015  1.00  0.00    -0.354 N 
ATOM     51  N   UNL A   1      40.993  32.029  31.509  1.00  0.00    -0.248 NA
ATOM     52  C   UNL A   1      39.499  33.786  31.883  1.00  0.00     0.031 C 
ATOM     53  C   UNL A   1      45.069  31.796  33.266  1.00  0.00     0.029 A 
ATOM     54  C   UNL A   1      43.786  31.882  32.750  1.00  0.00     0.049 A 
ATOM     55  H   UNL A   1      42.750  30.512  31.526  1.00  0.00     0.167 HD
ATOM     56  C   UNL A   1      41.588  32.962  32.352  1.00  0.00     0.074 A 
ATOM     57  C   UNL A   1      40.628  34.031  32.536  1.00  0.00     0.031 C 
ATOM     58  C   UNL A   1      42.818  32.937  32.921  1.00  0.00     0.037 A 
BRANCH  45  59
ATOM     59  C   UNL A   1      46.090  27.858  31.607  1.00  0.00     0.058 A 
ATOM     60  C   UNL A   1      47.166  28.034  30.724  1.00  0.00     0.135 A 
ATOM     61  C   UNL A   1      46.238  26.930  32.649  1.00  0.00     0.135 A 
ATOM     62  F   UNL A   1      47.065  28.897  29.700  1.00  0.00    -0.206 F 
ATOM     63  C   UNL A   1      48.337  27.295  30.850  1.00  0.00     0.059 A 
ATOM     64  C   UNL A   1      47.406  26.190  32.804  1.00  0.00     0.059 A 
ATOM     65  F   UNL A   1      45.233  26.721  33.516  1.00  0.00    -0.206 F 
ATOM     66  C   UNL A   1      48.443  26.368  31.889  1.00  0.00     0.060 A 
BRANCH  66  67
ATOM     67  S   UNL A   1      49.954  25.390  32.028  1.00  0.00     0.124 S 
ATOM     68  O   UNL A   1      50.909  26.397  32.483  1.00  0.00    -0.237 OA
ATOM     69  O   UNL A   1      49.587  24.376  33.012  1.00  0.00    -0.237 OA
ATOM     70  O   UNL A   1      50.162  24.894  30.672  1.00  0.00    -0.744 OA
ENDBRANCH  66  67
ENDBRANCH  45  59
BRANCH  46  71
ATOM     71  C   UNL A   1      37.450  32.635  30.137  1.00  0.00     0.058 A 
ATOM     72  C   UNL A   1      36.300  32.288  30.859  1.00  0.00     0.135 A 
ATOM     73  C   UNL A   1      37.352  33.679  29.204  1.00  0.00     0.135 A 
ATOM     74  F   UNL A   1      36.345  31.289  31.753  1.00  0.00    -0.206 F 
ATOM     75  C   UNL A   1      35.090  32.946  30.659  1.00  0.00     0.059 A 
ATOM     76  C   UNL A   1      36.159  34.363  28.999  1.00  0.00     0.059 A 
ATOM     77  F   UNL A   1      38.429  34.050  28.495  1.00  0.00    -0.206 F 
ATOM     78  C   UNL A   1      35.031  33.982  29.724  1.00  0.00     0.060 A 
BRANCH  78  79
ATOM     79  S   UNL A   1      33.469  34.862  29.495  1.00  0.00     0.124 S 
ATOM     80  O   UNL A   1      33.899  36.024  28.726  1.00  0.00    -0.237 OA
ATOM     81  O   UNL A   1      32.661  33.882  28.776  1.00  0.00    -0.237 OA
ATOM     82  O   UNL A   1      33.038  35.133  30.863  1.00  0.00    -0.744 OA
ENDBRANCH  78  79
ENDBRANCH  46  71
BRANCH  58  83
ATOM     83  C   UNL A   1      43.205  34.104  33.782  1.00  0.00     0.058 A 
ATOM     84  C   UNL A   1      43.642  35.313  33.222  1.00  0.00     0.135 A 
ATOM     85  C   UNL A   1      43.082  34.031  35.178  1.00  0.00     0.135 A 
ATOM     86  F   UNL A   1      43.783  35.429  31.891  1.00  0.00    -0.206 F 
ATOM     87  C   UNL A   1      43.954  36.411  34.017  1.00  0.00     0.059 A 
ATOM     88  C   UNL A   1      43.371  35.121  35.992  1.00  0.00     0.059 A 
ATOM     89  F   UNL A   1      42.661  32.898  35.762  1.00  0.00    -0.206 F 
ATOM     90  C   UNL A   1      43.814  36.306  35.403  1.00  0.00     0.060 A 
BRANCH  90  91
ATOM     91  S   UNL A   1      44.173  37.749  36.427  1.00  0.00     0.124 S 
ATOM     92  O   UNL A   1      45.473  37.396  36.987  1.00  0.00    -0.237 OA
ATOM     93  O   UNL A   1      44.177  38.837  35.454  1.00  0.00    -0.237 OA
ATOM     94  O   UNL A   1      43.064  37.772  37.376  1.00  0.00    -0.744 OA
ENDBRANCH  90  91
ENDBRANCH  58  83
ENDBRANCH  32  33
ENDBRANCH  25  27
ENDBRANCH  24  25
ENDBRANCH  23  24
ENDBRANCH   1  23
TORSDOF 20
ENDMDL
MODEL 3
REMARK VINA RESULT:     -10.1      4.556      9.107
REMARK SMILES CSCC[C@H](NC(=O)c1nc(C(C)C)n[nH]1)C(=O)OCCOC(=O)c1ccc(-c2c3nc(c(-c4c(F)cc(S(=O)(=O)[O-])cc4F)c4ccc([nH]4)c(-c4c(F)cc(S(=O)(=O)[O-])cc4F)c4nc(c(-c5c(F)cc(S(=O)(=O)[O-])cc5F)c5ccc2[nH]5)C=C4)C=C3)cc1
REMARK SMILES IDX 20 1 19 2 17 3 18 4 5 5 4 6 3 7 2 8 1 9 6 10 7 11 8 13 9 14
REMARK SMILES IDX 10 15 16 16 11 17 15 18 12 20 13 21 14 22 21 23 22 24 23 25
REMARK SMILES IDX 24 26 25 27 26 28 90 29 27 30 89 31 28 32 29 33 30 34 83 35
REMARK SMILES IDX 31 36 88 37 82 38 84 39 32 40 87 41 81 42 80 43 33 45 67 46
REMARK SMILES IDX 46 47 66 48 47 49 50 50 65 51 85 52 48 53 49 54 64 56 86 57
REMARK SMILES IDX 51 58 34 59 35 60 44 61 36 62 37 63 43 64 45 65 38 66 39 67
REMARK SMILES IDX 40 68 41 69 42 70 68 71 69 72 78 73 70 74 71 75 77 76 79 77
REMARK SMILES IDX 72 78 73 79 74 80 75 81 76 82 52 83 53 84 62 85 54 86 55 87
REMARK SMILES IDX 61 88 63 89 56 90 57 91 58 92 59 93 60 94
REMARK H PARENT 6 12 16 19 84 44 50 55
REMARK Flexibility Score: inf
ROOT
ATOM      1  C   UNL A   1      36.143  22.892  23.516  1.00  0.00     0.274 C 
ENDROOT
BRANCH   1   2
ATOM      2  O   UNL A   1      34.904  23.507  23.924  1.00  0.00    -0.461 OA
BRANCH   2   3
ATOM      3  C   UNL A   1      33.780  23.025  23.314  1.00  0.00     0.328 C 
ATOM      4  O   UNL A   1      33.588  23.067  22.105  1.00  0.00    -0.250 OA
BRANCH   3   5
ATOM      5  C   UNL A   1      32.727  22.532  24.327  1.00  0.00     0.193 C 
BRANCH   5   6
ATOM      6  C   UNL A   1      31.569  23.546  24.341  1.00  0.00     0.048 C 
BRANCH   6   7
ATOM      7  C   UNL A   1      31.244  24.203  25.689  1.00  0.00     0.072 C 
BRANCH   7   8
ATOM      8  S   UNL A   1      30.733  25.950  25.634  1.00  0.00    -0.165 SA
ATOM      9  C   UNL A   1      30.064  26.087  23.958  1.00  0.00     0.085 C 
ENDBRANCH   7   8
ENDBRANCH   6   7
ENDBRANCH   5   6
BRANCH   5  10
ATOM     10  N   UNL A   1      33.330  22.394  25.665  1.00  0.00    -0.336 N 
ATOM     11  C   UNL A   1      33.623  21.258  26.379  1.00  0.00     0.289 C 
ATOM     12  H   UNL A   1      33.556  23.241  26.112  1.00  0.00     0.164 HD
ATOM     13  O   UNL A   1      34.078  21.394  27.517  1.00  0.00    -0.266 OA
BRANCH  11  14
ATOM     14  C   UNL A   1      33.348  19.952  25.829  1.00  0.00     0.214 A 
ATOM     15  N   UNL A   1      33.470  19.547  24.580  1.00  0.00    -0.207 NA
ATOM     16  N   UNL A   1      32.875  18.912  26.576  1.00  0.00    -0.255 N 
ATOM     17  C   UNL A   1      32.991  18.257  24.607  1.00  0.00     0.153 A 
ATOM     18  N   UNL A   1      32.593  17.841  25.817  1.00  0.00    -0.158 NA
ATOM     19  H   UNL A   1      32.756  18.944  27.553  1.00  0.00     0.192 HD
BRANCH  17  20
ATOM     20  C   UNL A   1      32.877  17.434  23.363  1.00  0.00     0.053 C 
ATOM     21  C   UNL A   1      32.450  18.256  22.145  1.00  0.00     0.016 C 
ATOM     22  C   UNL A   1      34.185  16.698  23.064  1.00  0.00     0.016 C 
ENDBRANCH  17  20
ENDBRANCH  11  14
ENDBRANCH   5  10
ENDBRANCH   3   5
ENDBRANCH   2   3
ENDBRANCH   1   2
BRANCH   1  23
ATOM     23  C   UNL A   1      36.870  22.216  24.683  1.00  0.00     0.275 C 
BRANCH  23  24
ATOM     24  O   UNL A   1      37.327  23.170  25.658  1.00  0.00    -0.458 OA
BRANCH  24  25
ATOM     25  C   UNL A   1      38.587  22.955  26.119  1.00  0.00     0.338 C 
ATOM     26  O   UNL A   1      39.272  21.972  25.904  1.00  0.00    -0.246 OA
BRANCH  25  27
ATOM     27  C   UNL A   1      39.102  24.172  26.786  1.00  0.00     0.060 A 
ATOM     28  C   UNL A   1      39.807  25.091  25.999  1.00  0.00     0.016 A 
ATOM     29  C   UNL A   1      38.917  24.410  28.151  1.00  0.00     0.016 A 
ATOM     30  C   UNL A   1      40.328  26.250  26.573  1.00  0.00     0.010 A 
ATOM     31  C   UNL A   1      39.457  25.563  28.730  1.00  0.00     0.010 A 
ATOM     32  C   UNL A   1      40.171  26.482  27.944  1.00  0.00    -0.014 A 
BRANCH  32  33
ATOM     33  C   UNL A   1      40.827  27.652  28.569  1.00  0.00     0.031 A 
ATOM     34  C   UNL A   1      42.322  27.681  28.687  1.00  0.00     0.074 A 
ATOM     35  C   UNL A   1      40.088  28.688  29.001  1.00  0.00     0.049 A 
ATOM     36  N   UNL A   1      43.093  28.607  29.196  1.00  0.00    -0.248 NA
ATOM     37  C   UNL A   1      43.047  26.517  28.154  1.00  0.00     0.031 C 
ATOM     38  C   UNL A   1      38.633  28.789  28.901  1.00  0.00     0.029 A 
ATOM     39  N   UNL A   1      40.466  29.854  29.618  1.00  0.00    -0.354 N 
ATOM     40  C   UNL A   1      44.393  28.150  29.027  1.00  0.00     0.074 A 
ATOM     41  C   UNL A   1      44.307  26.851  28.393  1.00  0.00     0.031 C 
ATOM     42  C   UNL A   1      38.238  29.952  29.448  1.00  0.00     0.029 A 
ATOM     43  C   UNL A   1      39.409  30.664  29.956  1.00  0.00     0.049 A 
ATOM     44  H   UNL A   1      41.404  30.087  29.800  1.00  0.00     0.167 HD
ATOM     45  C   UNL A   1      45.553  28.761  29.365  1.00  0.00     0.037 A 
ATOM     46  C   UNL A   1      39.393  31.837  30.616  1.00  0.00     0.037 A 
ATOM     47  C   UNL A   1      45.637  30.032  30.030  1.00  0.00     0.049 A 
ATOM     48  C   UNL A   1      40.690  32.445  31.078  1.00  0.00     0.074 A 
ATOM     49  C   UNL A   1      46.766  30.725  30.432  1.00  0.00     0.029 A 
ATOM     50  N   UNL A   1      44.544  30.797  30.409  1.00  0.00    -0.354 N 
ATOM     51  N   UNL A   1      41.914  32.010  30.899  1.00  0.00    -0.248 NA
ATOM     52  C   UNL A   1      40.603  33.701  31.839  1.00  0.00     0.031 C 
ATOM     53  C   UNL A   1      46.354  31.894  31.083  1.00  0.00     0.029 A 
ATOM     54  C   UNL A   1      44.969  31.942  31.060  1.00  0.00     0.049 A 
ATOM     55  H   UNL A   1      43.603  30.560  30.239  1.00  0.00     0.167 HD
ATOM     56  C   UNL A   1      42.744  32.946  31.507  1.00  0.00     0.074 A 
ATOM     57  C   UNL A   1      41.883  33.974  32.056  1.00  0.00     0.031 C 
ATOM     58  C   UNL A   1      44.096  32.955  31.600  1.00  0.00     0.037 A 
BRANCH  45  59
ATOM     59  C   UNL A   1      46.824  28.033  29.037  1.00  0.00     0.058 A 
ATOM     60  C   UNL A   1      47.430  28.158  27.778  1.00  0.00     0.135 A 
ATOM     61  C   UNL A   1      47.438  27.201  29.985  1.00  0.00     0.135 A 
ATOM     62  F   UNL A   1      46.870  28.928  26.831  1.00  0.00    -0.206 F 
ATOM     63  C   UNL A   1      48.589  27.459  27.458  1.00  0.00     0.059 A 
ATOM     64  C   UNL A   1      48.606  26.503  29.693  1.00  0.00     0.059 A 
ATOM     65  F   UNL A   1      46.892  27.045  31.202  1.00  0.00    -0.206 F 
ATOM     66  C   UNL A   1      49.164  26.626  28.420  1.00  0.00     0.060 A 
BRANCH  66  67
ATOM     67  S   UNL A   1      50.651  25.698  27.988  1.00  0.00     0.124 S 
ATOM     68  O   UNL A   1      51.206  26.524  26.919  1.00  0.00    -0.237 OA
ATOM     69  O   UNL A   1      51.399  25.696  29.241  1.00  0.00    -0.237 OA
ATOM     70  O   UNL A   1      50.129  24.400  27.573  1.00  0.00    -0.744 OA
ENDBRANCH  66  67
ENDBRANCH  45  59
BRANCH  46  71
ATOM     71  C   UNL A   1      38.099  32.510  30.898  1.00  0.00     0.058 A 
ATOM     72  C   UNL A   1      37.469  32.373  32.143  1.00  0.00     0.135 A 
ATOM     73  C   UNL A   1      37.469  33.301  29.925  1.00  0.00     0.135 A 
ATOM     74  F   UNL A   1      38.030  31.617  33.099  1.00  0.00    -0.206 F 
ATOM     75  C   UNL A   1      36.251  32.989  32.412  1.00  0.00     0.059 A 
ATOM     76  C   UNL A   1      36.260  33.942  30.177  1.00  0.00     0.059 A 
ATOM     77  F   UNL A   1      38.039  33.469  28.722  1.00  0.00    -0.206 F 
ATOM     78  C   UNL A   1      35.654  33.771  31.421  1.00  0.00     0.060 A 
BRANCH  78  79
ATOM     79  S   UNL A   1      34.093  34.603  31.788  1.00  0.00     0.124 S 
ATOM     80  O   UNL A   1      34.559  35.898  32.272  1.00  0.00    -0.237 OA
ATOM     81  O   UNL A   1      33.428  34.607  30.489  1.00  0.00    -0.237 OA
ATOM     82  O   UNL A   1      33.483  33.736  32.791  1.00  0.00    -0.744 OA
ENDBRANCH  78  79
ENDBRANCH  46  71
BRANCH  58  83
ATOM     83  C   UNL A   1      44.732  34.117  32.306  1.00  0.00     0.058 A 
ATOM     84  C   UNL A   1      45.015  34.073  33.679  1.00  0.00     0.135 A 
ATOM     85  C   UNL A   1      45.114  35.263  31.591  1.00  0.00     0.135 A 
ATOM     86  F   UNL A   1      44.662  33.001  34.407  1.00  0.00    -0.206 F 
ATOM     87  C   UNL A   1      45.649  35.131  34.323  1.00  0.00     0.059 A 
ATOM     88  C   UNL A   1      45.764  36.325  32.210  1.00  0.00     0.059 A 
ATOM     89  F   UNL A   1      44.871  35.350  30.273  1.00  0.00    -0.206 F 
ATOM     90  C   UNL A   1      46.021  36.253  33.580  1.00  0.00     0.060 A 
BRANCH  90  91
ATOM     91  S   UNL A   1      46.887  37.601  34.412  1.00  0.00     0.124 S 
ATOM     92  O   UNL A   1      45.846  38.621  34.480  1.00  0.00    -0.237 OA
ATOM     93  O   UNL A   1      47.267  36.998  35.685  1.00  0.00    -0.237 OA
ATOM     94  O   UNL A   1      47.997  37.895  33.511  1.00  0.00    -0.744 OA
ENDBRANCH  90  91
ENDBRANCH  58  83
ENDBRANCH  32  33
ENDBRANCH  25  27
ENDBRANCH  24  25
ENDBRANCH  23  24
ENDBRANCH   1  23
TORSDOF 20
ENDMDL
