MODEL 1
REMARK VINA RESULT:     -10.9      0.000      0.000
REMARK SMILES CN1CC(=O)N(CC(=O)N2CCCC[C@H]2C(=O)OCCOC(=O)c2ccc(-c3c4nc(c(-c5c(F)cc(S(=O)(=O)[O-])cc5F)c5ccc([nH]5)c(-c5c(F)cc(S(=O)(=O)[O-])cc5F)c5nc(c(-c6c(F)cc(S(=O)(=O)[O-])cc6F)c6ccc3[nH]6)C=C5)C=C4)cc2)C1=O
REMARK SMILES IDX 19 1 18 2 16 3 17 4 15 5 10 6 11 7 12 8 14 9 13 10 8 11 9 12
REMARK SMILES IDX 7 13 6 14 1 15 2 16 3 17 90 18 4 19 91 20 5 21 20 22 21 23
REMARK SMILES IDX 22 24 23 25 24 26 25 27 89 28 26 29 88 30 27 31 28 32 29 33
REMARK SMILES IDX 82 34 30 35 87 36 81 37 83 38 31 39 86 40 80 41 79 42 32 44
REMARK SMILES IDX 66 45 45 46 65 47 46 48 49 49 64 50 84 51 47 52 48 53 63 55
REMARK SMILES IDX 85 56 50 57 33 58 34 59 43 60 35 61 36 62 42 63 44 64 37 65
REMARK SMILES IDX 38 66 39 67 40 68 41 69 67 70 68 71 77 72 69 73 70 74 76 75
REMARK SMILES IDX 78 76 71 77 72 78 73 79 74 80 75 81 51 82 52 83 61 84 53 85
REMARK SMILES IDX 54 86 60 87 62 88 55 89 56 90 57 91 58 92 59 93
REMARK H PARENT 83 43 49 54
REMARK Flexibility Score: inf
ROOT
ATOM      1  C   UNL A   1      33.507  27.472  25.095  1.00  0.00     0.274 C 
ENDROOT
BRANCH   1   2
ATOM      2  O   UNL A   1      34.019  26.382  25.889  1.00  0.00    -0.461 OA
BRANCH   2   3
ATOM      3  C   UNL A   1      34.356  25.264  25.187  1.00  0.00     0.328 C 
ATOM      4  O   UNL A   1      34.106  25.096  23.999  1.00  0.00    -0.250 OA
BRANCH   3   5
ATOM      5  C   UNL A   1      34.931  24.150  26.085  1.00  0.00     0.195 C 
ATOM      6  N   UNL A   1      34.042  22.964  26.074  1.00  0.00    -0.327 N 
ATOM      7  C   UNL A   1      34.283  21.992  25.003  1.00  0.00     0.120 C 
ATOM      8  C   UNL A   1      35.738  21.589  24.859  1.00  0.00     0.022 C 
ATOM      9  C   UNL A   1      36.403  23.785  25.834  1.00  0.00     0.037 C 
ATOM     10  C   UNL A   1      36.611  22.820  24.676  1.00  0.00     0.005 C 
BRANCH   6  11
ATOM     11  C   UNL A   1      32.831  22.836  26.763  1.00  0.00     0.243 C 
ATOM     12  O   UNL A   1      32.839  22.637  27.987  1.00  0.00    -0.273 OA
BRANCH  11  13
ATOM     13  C   UNL A   1      31.462  22.720  26.062  1.00  0.00     0.230 C 
BRANCH  13  14
ATOM     14  N   UNL A   1      31.075  23.729  25.106  1.00  0.00    -0.253 N 
ATOM     15  C   UNL A   1      29.802  26.970  24.153  1.00  0.00     0.149 C 
ATOM     16  N   UNL A   1      30.360  25.644  24.240  1.00  0.00    -0.318 N 
ATOM     17  C   UNL A   1      30.640  24.832  23.083  1.00  0.00     0.221 C 
ATOM     18  C   UNL A   1      30.688  25.000  25.418  1.00  0.00     0.327 C 
ATOM     19  C   UNL A   1      31.132  23.559  23.751  1.00  0.00     0.250 C 
ATOM     20  O   UNL A   1      30.587  25.492  26.529  1.00  0.00    -0.248 OA
ATOM     21  O   UNL A   1      31.496  22.559  23.151  1.00  0.00    -0.272 OA
ENDBRANCH  13  14
ENDBRANCH  11  13
ENDBRANCH   6  11
ENDBRANCH   3   5
ENDBRANCH   2   3
ENDBRANCH   1   2
BRANCH   1  22
ATOM     22  C   UNL A   1      33.947  28.828  25.645  1.00  0.00     0.275 C 
BRANCH  22  23
ATOM     23  O   UNL A   1      34.046  28.778  27.079  1.00  0.00    -0.458 OA
BRANCH  23  24
ATOM     24  C   UNL A   1      34.467  29.915  27.678  1.00  0.00     0.338 C 
ATOM     25  O   UNL A   1      33.784  30.890  27.949  1.00  0.00    -0.246 OA
BRANCH  24  26
ATOM     26  C   UNL A   1      35.901  29.831  28.027  1.00  0.00     0.060 A 
ATOM     27  C   UNL A   1      36.889  30.052  27.070  1.00  0.00     0.016 A 
ATOM     28  C   UNL A   1      36.261  29.358  29.289  1.00  0.00     0.016 A 
ATOM     29  C   UNL A   1      38.205  29.659  27.321  1.00  0.00     0.010 A 
ATOM     30  C   UNL A   1      37.604  29.097  29.580  1.00  0.00     0.010 A 
ATOM     31  C   UNL A   1      38.595  29.201  28.586  1.00  0.00    -0.014 A 
BRANCH  31  32
ATOM     32  C   UNL A   1      40.007  28.820  28.896  1.00  0.00     0.031 A 
ATOM     33  C   UNL A   1      40.977  29.865  29.392  1.00  0.00     0.074 A 
ATOM     34  C   UNL A   1      40.453  27.563  28.685  1.00  0.00     0.049 A 
ATOM     35  N   UNL A   1      42.285  29.872  29.345  1.00  0.00    -0.248 NA
ATOM     36  C   UNL A   1      40.397  31.075  30.001  1.00  0.00     0.031 C 
ATOM     37  C   UNL A   1      39.634  26.417  28.282  1.00  0.00     0.029 A 
ATOM     38  N   UNL A   1      41.726  27.043  28.757  1.00  0.00    -0.354 N 
ATOM     39  C   UNL A   1      42.680  31.114  29.832  1.00  0.00     0.074 A 
ATOM     40  C   UNL A   1      41.474  31.827  30.196  1.00  0.00     0.031 C 
ATOM     41  C   UNL A   1      40.413  25.334  28.160  1.00  0.00     0.029 A 
ATOM     42  C   UNL A   1      41.801  25.732  28.342  1.00  0.00     0.049 A 
ATOM     43  H   UNL A   1      42.503  27.556  29.074  1.00  0.00     0.167 HD
ATOM     44  C   UNL A   1      43.935  31.611  29.944  1.00  0.00     0.037 A 
ATOM     45  C   UNL A   1      42.860  24.955  28.045  1.00  0.00     0.037 A 
ATOM     46  C   UNL A   1      45.128  30.854  29.655  1.00  0.00     0.049 A 
ATOM     47  C   UNL A   1      44.241  25.529  28.147  1.00  0.00     0.074 A 
ATOM     48  C   UNL A   1      46.448  31.258  29.747  1.00  0.00     0.029 A 
ATOM     49  N   UNL A   1      45.144  29.529  29.246  1.00  0.00    -0.354 N 
ATOM     50  N   UNL A   1      44.604  26.739  28.497  1.00  0.00    -0.248 NA
ATOM     51  C   UNL A   1      45.359  24.645  27.786  1.00  0.00     0.031 C 
ATOM     52  C   UNL A   1      47.262  30.187  29.367  1.00  0.00     0.029 A 
ATOM     53  C   UNL A   1      46.450  29.102  29.079  1.00  0.00     0.049 A 
ATOM     54  H   UNL A   1      44.344  28.974  29.096  1.00  0.00     0.167 HD
ATOM     55  C   UNL A   1      45.990  26.756  28.420  1.00  0.00     0.074 A 
ATOM     56  C   UNL A   1      46.403  25.435  27.993  1.00  0.00     0.031 C 
ATOM     57  C   UNL A   1      46.843  27.776  28.679  1.00  0.00     0.037 A 
BRANCH  44  58
ATOM     58  C   UNL A   1      44.106  33.049  30.356  1.00  0.00     0.058 A 
ATOM     59  C   UNL A   1      44.157  34.097  29.427  1.00  0.00     0.135 A 
ATOM     60  C   UNL A   1      44.127  33.385  31.723  1.00  0.00     0.135 A 
ATOM     61  F   UNL A   1      44.156  33.835  28.111  1.00  0.00    -0.206 F 
ATOM     62  C   UNL A   1      44.229  35.428  29.835  1.00  0.00     0.059 A 
ATOM     63  C   UNL A   1      44.174  34.708  32.153  1.00  0.00     0.059 A 
ATOM     64  F   UNL A   1      44.079  32.421  32.656  1.00  0.00    -0.206 F 
ATOM     65  C   UNL A   1      44.232  35.723  31.201  1.00  0.00     0.060 A 
BRANCH  65  66
ATOM     66  S   UNL A   1      44.289  37.454  31.716  1.00  0.00     0.124 S 
ATOM     67  O   UNL A   1      43.528  37.412  32.961  1.00  0.00    -0.237 OA
ATOM     68  O   UNL A   1      45.721  37.693  31.857  1.00  0.00    -0.237 OA
ATOM     69  O   UNL A   1      43.645  38.159  30.613  1.00  0.00    -0.744 OA
ENDBRANCH  65  66
ENDBRANCH  44  58
BRANCH  45  70
ATOM     70  C   UNL A   1      42.635  23.576  27.533  1.00  0.00     0.058 A 
ATOM     71  C   UNL A   1      42.620  23.304  26.159  1.00  0.00     0.135 A 
ATOM     72  C   UNL A   1      42.472  22.495  28.417  1.00  0.00     0.135 A 
ATOM     73  F   UNL A   1      42.758  24.305  25.276  1.00  0.00    -0.206 F 
ATOM     74  C   UNL A   1      42.453  22.010  25.676  1.00  0.00     0.059 A 
ATOM     75  C   UNL A   1      42.334  21.190  27.958  1.00  0.00     0.059 A 
ATOM     76  F   UNL A   1      42.492  22.700  29.743  1.00  0.00    -0.206 F 
ATOM     77  C   UNL A   1      42.315  20.958  26.585  1.00  0.00     0.060 A 
BRANCH  77  78
ATOM     78  S   UNL A   1      42.163  19.273  25.954  1.00  0.00     0.124 S 
ATOM     79  O   UNL A   1      43.007  19.329  24.766  1.00  0.00    -0.237 OA
ATOM     80  O   UNL A   1      42.675  18.476  27.064  1.00  0.00    -0.237 OA
ATOM     81  O   UNL A   1      40.731  19.137  25.706  1.00  0.00    -0.744 OA
ENDBRANCH  77  78
ENDBRANCH  45  70
BRANCH  57  82
ATOM     82  C   UNL A   1      48.313  27.493  28.572  1.00  0.00     0.058 A 
ATOM     83  C   UNL A   1      49.025  27.733  27.389  1.00  0.00     0.135 A 
ATOM     84  C   UNL A   1      49.027  27.048  29.696  1.00  0.00     0.135 A 
ATOM     85  F   UNL A   1      48.383  28.149  26.285  1.00  0.00    -0.206 F 
ATOM     86  C   UNL A   1      50.400  27.537  27.321  1.00  0.00     0.059 A 
ATOM     87  C   UNL A   1      50.404  26.865  29.656  1.00  0.00     0.059 A 
ATOM     88  F   UNL A   1      48.387  26.810  30.852  1.00  0.00    -0.206 F 
ATOM     89  C   UNL A   1      51.082  27.109  28.462  1.00  0.00     0.060 A 
BRANCH  89  90
ATOM     90  S   UNL A   1      52.876  26.919  28.381  1.00  0.00     0.124 S 
ATOM     91  O   UNL A   1      53.176  26.395  29.709  1.00  0.00    -0.237 OA
ATOM     92  O   UNL A   1      53.041  25.980  27.275  1.00  0.00    -0.237 OA
ATOM     93  O   UNL A   1      53.349  28.275  28.119  1.00  0.00    -0.744 OA
ENDBRANCH  89  90
ENDBRANCH  57  82
ENDBRANCH  31  32
ENDBRANCH  24  26
ENDBRANCH  23  24
ENDBRANCH  22  23
ENDBRANCH   1  22
TORSDOF 17
ENDMDL
MODEL 2
REMARK VINA RESULT:     -10.8      0.816      2.729
REMARK SMILES CN1CC(=O)N(CC(=O)N2CCCC[C@H]2C(=O)OCCOC(=O)c2ccc(-c3c4nc(c(-c5c(F)cc(S(=O)(=O)[O-])cc5F)c5ccc([nH]5)c(-c5c(F)cc(S(=O)(=O)[O-])cc5F)c5nc(c(-c6c(F)cc(S(=O)(=O)[O-])cc6F)c6ccc3[nH]6)C=C5)C=C4)cc2)C1=O
REMARK SMILES IDX 19 1 18 2 16 3 17 4 15 5 10 6 11 7 12 8 14 9 13 10 8 11 9 12
REMARK SMILES IDX 7 13 6 14 1 15 2 16 3 17 90 18 4 19 91 20 5 21 20 22 21 23
REMARK SMILES IDX 22 24 23 25 24 26 25 27 89 28 26 29 88 30 27 31 28 32 29 33
REMARK SMILES IDX 82 34 30 35 87 36 81 37 83 38 31 39 86 40 80 41 79 42 32 44
REMARK SMILES IDX 66 45 45 46 65 47 46 48 49 49 64 50 84 51 47 52 48 53 63 55
REMARK SMILES IDX 85 56 50 57 33 58 34 59 43 60 35 61 36 62 42 63 44 64 37 65
REMARK SMILES IDX 38 66 39 67 40 68 41 69 67 70 68 71 77 72 69 73 70 74 76 75
REMARK SMILES IDX 78 76 71 77 72 78 73 79 74 80 75 81 51 82 52 83 61 84 53 85
REMARK SMILES IDX 54 86 60 87 62 88 55 89 56 90 57 91 58 92 59 93
REMARK H PARENT 83 43 49 54
REMARK Flexibility Score: inf
ROOT
ATOM      1  C   UNL A   1      33.667  27.024  26.028  1.00  0.00     0.274 C 
ENDROOT
BRANCH   1   2
ATOM      2  O   UNL A   1      33.400  26.718  24.644  1.00  0.00    -0.461 OA
BRANCH   2   3
ATOM      3  C   UNL A   1      33.415  25.392  24.332  1.00  0.00     0.328 C 
ATOM      4  O   UNL A   1      34.412  24.681  24.396  1.00  0.00    -0.250 OA
BRANCH   3   5
ATOM      5  C   UNL A   1      32.084  24.911  23.718  1.00  0.00     0.195 C 
ATOM      6  N   UNL A   1      30.995  24.981  24.719  1.00  0.00    -0.327 N 
ATOM      7  C   UNL A   1      30.292  26.264  24.814  1.00  0.00     0.120 C 
ATOM      8  C   UNL A   1      29.842  26.815  23.473  1.00  0.00     0.022 C 
ATOM      9  C   UNL A   1      31.696  25.559  22.379  1.00  0.00     0.037 C 
ATOM     10  C   UNL A   1      31.023  26.916  22.522  1.00  0.00     0.005 C 
BRANCH   6  11
ATOM     11  C   UNL A   1      30.784  24.083  25.771  1.00  0.00     0.243 C 
ATOM     12  O   UNL A   1      30.492  24.514  26.897  1.00  0.00    -0.273 OA
BRANCH  11  13
ATOM     13  C   UNL A   1      31.095  22.575  25.678  1.00  0.00     0.230 C 
BRANCH  13  14
ATOM     14  N   UNL A   1      32.440  22.119  25.934  1.00  0.00    -0.253 N 
ATOM     15  C   UNL A   1      35.595  20.641  24.990  1.00  0.00     0.149 C 
ATOM     16  N   UNL A   1      34.472  21.280  25.628  1.00  0.00    -0.318 N 
ATOM     17  C   UNL A   1      34.445  21.600  27.033  1.00  0.00     0.221 C 
ATOM     18  C   UNL A   1      33.307  21.656  24.988  1.00  0.00     0.327 C 
ATOM     19  C   UNL A   1      33.044  22.175  27.158  1.00  0.00     0.250 C 
ATOM     20  O   UNL A   1      33.103  21.534  23.792  1.00  0.00    -0.248 OA
ATOM     21  O   UNL A   1      32.560  22.595  28.198  1.00  0.00    -0.272 OA
ENDBRANCH  13  14
ENDBRANCH  11  13
ENDBRANCH   6  11
ENDBRANCH   3   5
ENDBRANCH   2   3
ENDBRANCH   1   2
BRANCH   1  22
ATOM     22  C   UNL A   1      33.557  28.522  26.307  1.00  0.00     0.275 C 
BRANCH  22  23
ATOM     23  O   UNL A   1      33.874  28.800  27.682  1.00  0.00    -0.458 OA
BRANCH  23  24
ATOM     24  C   UNL A   1      34.381  30.028  27.931  1.00  0.00     0.338 C 
ATOM     25  O   UNL A   1      33.761  31.080  27.954  1.00  0.00    -0.246 OA
BRANCH  24  26
ATOM     26  C   UNL A   1      35.826  29.956  28.231  1.00  0.00     0.060 A 
ATOM     27  C   UNL A   1      36.779  30.162  27.237  1.00  0.00     0.016 A 
ATOM     28  C   UNL A   1      36.231  29.506  29.488  1.00  0.00     0.016 A 
ATOM     29  C   UNL A   1      38.105  29.778  27.449  1.00  0.00     0.010 A 
ATOM     30  C   UNL A   1      37.585  29.256  29.737  1.00  0.00     0.010 A 
ATOM     31  C   UNL A   1      38.541  29.344  28.708  1.00  0.00    -0.014 A 
BRANCH  31  32
ATOM     32  C   UNL A   1      39.963  28.973  28.975  1.00  0.00     0.031 A 
ATOM     33  C   UNL A   1      40.944  30.028  29.430  1.00  0.00     0.074 A 
ATOM     34  C   UNL A   1      40.410  27.717  28.761  1.00  0.00     0.049 A 
ATOM     35  N   UNL A   1      42.249  30.041  29.340  1.00  0.00    -0.248 NA
ATOM     36  C   UNL A   1      40.377  31.241  30.046  1.00  0.00     0.031 C 
ATOM     37  C   UNL A   1      39.585  26.563  28.395  1.00  0.00     0.029 A 
ATOM     38  N   UNL A   1      41.687  27.204  28.796  1.00  0.00    -0.354 N 
ATOM     39  C   UNL A   1      42.653  31.291  29.803  1.00  0.00     0.074 A 
ATOM     40  C   UNL A   1      41.455  32.000  30.200  1.00  0.00     0.031 C 
ATOM     41  C   UNL A   1      40.365  25.483  28.257  1.00  0.00     0.029 A 
ATOM     42  C   UNL A   1      41.756  25.891  28.391  1.00  0.00     0.049 A 
ATOM     43  H   UNL A   1      42.471  27.725  29.083  1.00  0.00     0.167 HD
ATOM     44  C   UNL A   1      43.908  31.795  29.870  1.00  0.00     0.037 A 
ATOM     45  C   UNL A   1      42.809  25.117  28.066  1.00  0.00     0.037 A 
ATOM     46  C   UNL A   1      45.095  31.042  29.549  1.00  0.00     0.049 A 
ATOM     47  C   UNL A   1      44.190  25.698  28.118  1.00  0.00     0.074 A 
ATOM     48  C   UNL A   1      46.416  31.454  29.595  1.00  0.00     0.029 A 
ATOM     49  N   UNL A   1      45.106  29.713  29.152  1.00  0.00    -0.354 N 
ATOM     50  N   UNL A   1      44.557  26.914  28.446  1.00  0.00    -0.248 NA
ATOM     51  C   UNL A   1      45.300  24.817  27.730  1.00  0.00     0.031 C 
ATOM     52  C   UNL A   1      47.223  30.384  29.198  1.00  0.00     0.029 A 
ATOM     53  C   UNL A   1      46.408  29.292  28.946  1.00  0.00     0.049 A 
ATOM     54  H   UNL A   1      44.305  29.152  29.033  1.00  0.00     0.167 HD
ATOM     55  C   UNL A   1      45.940  26.937  28.323  1.00  0.00     0.074 A 
ATOM     56  C   UNL A   1      46.346  25.615  27.895  1.00  0.00     0.031 C 
ATOM     57  C   UNL A   1      46.795  27.964  28.546  1.00  0.00     0.037 A 
BRANCH  44  58
ATOM     58  C   UNL A   1      44.085  33.238  30.264  1.00  0.00     0.058 A 
ATOM     59  C   UNL A   1      44.353  33.629  31.582  1.00  0.00     0.135 A 
ATOM     60  C   UNL A   1      44.074  34.237  29.273  1.00  0.00     0.135 A 
ATOM     61  F   UNL A   1      44.361  32.722  32.570  1.00  0.00    -0.206 F 
ATOM     62  C   UNL A   1      44.599  34.962  31.909  1.00  0.00     0.059 A 
ATOM     63  C   UNL A   1      44.340  35.570  29.573  1.00  0.00     0.059 A 
ATOM     64  F   UNL A   1      43.824  33.918  27.994  1.00  0.00    -0.206 F 
ATOM     65  C   UNL A   1      44.595  35.924  30.896  1.00  0.00     0.060 A 
BRANCH  65  66
ATOM     66  S   UNL A   1      44.951  37.643  31.328  1.00  0.00     0.124 S 
ATOM     67  O   UNL A   1      46.262  37.831  30.716  1.00  0.00    -0.237 OA
ATOM     68  O   UNL A   1      43.849  38.360  30.695  1.00  0.00    -0.237 OA
ATOM     69  O   UNL A   1      44.935  37.637  32.787  1.00  0.00    -0.744 OA
ENDBRANCH  65  66
ENDBRANCH  44  58
BRANCH  45  70
ATOM     70  C   UNL A   1      42.575  23.731  27.575  1.00  0.00     0.058 A 
ATOM     71  C   UNL A   1      42.458  23.456  26.206  1.00  0.00     0.135 A 
ATOM     72  C   UNL A   1      42.508  22.649  28.469  1.00  0.00     0.135 A 
ATOM     73  F   UNL A   1      42.503  24.458  25.314  1.00  0.00    -0.206 F 
ATOM     74  C   UNL A   1      42.282  22.158  25.738  1.00  0.00     0.059 A 
ATOM     75  C   UNL A   1      42.363  21.340  28.023  1.00  0.00     0.059 A 
ATOM     76  F   UNL A   1      42.628  22.857  29.789  1.00  0.00    -0.206 F 
ATOM     77  C   UNL A   1      42.241  21.105  26.656  1.00  0.00     0.060 A 
BRANCH  77  78
ATOM     78  S   UNL A   1      42.077  19.415  26.040  1.00  0.00     0.124 S 
ATOM     79  O   UNL A   1      42.559  18.642  27.178  1.00  0.00    -0.237 OA
ATOM     80  O   UNL A   1      40.648  19.321  25.762  1.00  0.00    -0.237 OA
ATOM     81  O   UNL A   1      42.937  19.405  24.860  1.00  0.00    -0.744 OA
ENDBRANCH  77  78
ENDBRANCH  45  70
BRANCH  57  82
ATOM     82  C   UNL A   1      48.262  27.688  28.394  1.00  0.00     0.058 A 
ATOM     83  C   UNL A   1      49.038  27.216  29.462  1.00  0.00     0.135 A 
ATOM     84  C   UNL A   1      48.877  27.828  27.140  1.00  0.00     0.135 A 
ATOM     85  F   UNL A   1      48.496  27.076  30.682  1.00  0.00    -0.206 F 
ATOM     86  C   UNL A   1      50.381  26.894  29.292  1.00  0.00     0.059 A 
ATOM     87  C   UNL A   1      50.213  27.494  26.944  1.00  0.00     0.059 A 
ATOM     88  F   UNL A   1      48.172  28.273  26.087  1.00  0.00    -0.206 F 
ATOM     89  C   UNL A   1      50.957  27.031  28.028  1.00  0.00     0.060 A 
BRANCH  89  90
ATOM     90  S   UNL A   1      52.683  26.550  27.804  1.00  0.00     0.124 S 
ATOM     91  O   UNL A   1      53.092  26.277  29.178  1.00  0.00    -0.237 OA
ATOM     92  O   UNL A   1      52.572  25.384  26.932  1.00  0.00    -0.237 OA
ATOM     93  O   UNL A   1      53.287  27.728  27.191  1.00  0.00    -0.744 OA
ENDBRANCH  89  90
ENDBRANCH  57  82
ENDBRANCH  31  32
ENDBRANCH  24  26
ENDBRANCH  23  24
ENDBRANCH  22  23
ENDBRANCH   1  22
TORSDOF 17
ENDMDL
MODEL 3
REMARK VINA RESULT:     -10.8      2.047      3.333
REMARK SMILES CN1CC(=O)N(CC(=O)N2CCCC[C@H]2C(=O)OCCOC(=O)c2ccc(-c3c4nc(c(-c5c(F)cc(S(=O)(=O)[O-])cc5F)c5ccc([nH]5)c(-c5c(F)cc(S(=O)(=O)[O-])cc5F)c5nc(c(-c6c(F)cc(S(=O)(=O)[O-])cc6F)c6ccc3[nH]6)C=C5)C=C4)cc2)C1=O
REMARK SMILES IDX 19 1 18 2 16 3 17 4 15 5 10 6 11 7 12 8 14 9 13 10 8 11 9 12
REMARK SMILES IDX 7 13 6 14 1 15 2 16 3 17 90 18 4 19 91 20 5 21 20 22 21 23
REMARK SMILES IDX 22 24 23 25 24 26 25 27 89 28 26 29 88 30 27 31 28 32 29 33
REMARK SMILES IDX 82 34 30 35 87 36 81 37 83 38 31 39 86 40 80 41 79 42 32 44
REMARK SMILES IDX 66 45 45 46 65 47 46 48 49 49 64 50 84 51 47 52 48 53 63 55
REMARK SMILES IDX 85 56 50 57 33 58 34 59 43 60 35 61 36 62 42 63 44 64 37 65
REMARK SMILES IDX 38 66 39 67 40 68 41 69 67 70 68 71 77 72 69 73 70 74 76 75
REMARK SMILES IDX 78 76 71 77 72 78 73 79 74 80 75 81 51 82 52 83 61 84 53 85
REMARK SMILES IDX 54 86 60 87 62 88 55 89 56 90 57 91 58 92 59 93
REMARK H PARENT 83 43 49 54
REMARK Flexibility Score: inf
ROOT
ATOM      1  C   UNL A   1      32.034  29.068  26.114  1.00  0.00     0.274 C 
ENDROOT
BRANCH   1   2
ATOM      2  O   UNL A   1      32.062  27.790  25.444  1.00  0.00    -0.461 OA
BRANCH   2   3
ATOM      3  C   UNL A   1      31.003  26.975  25.709  1.00  0.00     0.328 C 
ATOM      4  O   UNL A   1      30.668  26.627  26.836  1.00  0.00    -0.250 OA
BRANCH   3   5
ATOM      5  C   UNL A   1      30.371  26.387  24.431  1.00  0.00     0.195 C 
ATOM      6  N   UNL A   1      30.898  27.074  23.229  1.00  0.00    -0.327 N 
ATOM      7  C   UNL A   1      32.135  26.524  22.666  1.00  0.00     0.120 C 
ATOM      8  C   UNL A   1      32.102  25.020  22.470  1.00  0.00     0.022 C 
ATOM      9  C   UNL A   1      30.424  24.855  24.306  1.00  0.00     0.037 C 
ATOM     10  C   UNL A   1      31.748  24.325  23.774  1.00  0.00     0.005 C 
BRANCH   6  11
ATOM     11  C   UNL A   1      30.526  28.344  22.777  1.00  0.00     0.243 C 
ATOM     12  O   UNL A   1      31.393  29.123  22.354  1.00  0.00    -0.273 OA
BRANCH  11  13
ATOM     13  C   UNL A   1      29.111  28.932  22.960  1.00  0.00     0.230 C 
BRANCH  13  14
ATOM     14  N   UNL A   1      28.883  30.322  22.647  1.00  0.00    -0.253 N 
ATOM     15  C   UNL A   1      28.999  33.862  23.345  1.00  0.00     0.149 C 
ATOM     16  N   UNL A   1      28.856  32.536  22.797  1.00  0.00    -0.318 N 
ATOM     17  C   UNL A   1      28.221  32.275  21.531  1.00  0.00     0.221 C 
ATOM     18  C   UNL A   1      29.299  31.377  23.405  1.00  0.00     0.327 C 
ATOM     19  C   UNL A   1      28.289  30.757  21.496  1.00  0.00     0.250 C 
ATOM     20  O   UNL A   1      29.908  31.336  24.461  1.00  0.00    -0.248 OA
ATOM     21  O   UNL A   1      27.862  30.067  20.583  1.00  0.00    -0.272 OA
ENDBRANCH  13  14
ENDBRANCH  11  13
ENDBRANCH   6  11
ENDBRANCH   3   5
ENDBRANCH   2   3
ENDBRANCH   1   2
BRANCH   1  22
ATOM     22  C   UNL A   1      33.097  29.157  27.206  1.00  0.00     0.275 C 
BRANCH  22  23
ATOM     23  O   UNL A   1      33.993  30.251  26.945  1.00  0.00    -0.458 OA
BRANCH  23  24
ATOM     24  C   UNL A   1      34.620  30.767  28.026  1.00  0.00     0.338 C 
ATOM     25  O   UNL A   1      34.186  31.626  28.777  1.00  0.00    -0.246 OA
BRANCH  24  26
ATOM     26  C   UNL A   1      35.932  30.120  28.238  1.00  0.00     0.060 A 
ATOM     27  C   UNL A   1      36.305  29.645  29.493  1.00  0.00     0.016 A 
ATOM     28  C   UNL A   1      36.869  30.142  27.205  1.00  0.00     0.016 A 
ATOM     29  C   UNL A   1      37.642  29.338  29.755  1.00  0.00     0.010 A 
ATOM     30  C   UNL A   1      38.176  29.699  27.440  1.00  0.00     0.010 A 
ATOM     31  C   UNL A   1      38.598  29.332  28.731  1.00  0.00    -0.014 A 
BRANCH  31  32
ATOM     32  C   UNL A   1      40.025  28.961  28.974  1.00  0.00     0.031 A 
ATOM     33  C   UNL A   1      41.013  30.016  29.410  1.00  0.00     0.074 A 
ATOM     34  C   UNL A   1      40.467  27.704  28.756  1.00  0.00     0.049 A 
ATOM     35  N   UNL A   1      42.317  30.028  29.297  1.00  0.00    -0.248 NA
ATOM     36  C   UNL A   1      40.457  31.230  30.032  1.00  0.00     0.031 C 
ATOM     37  C   UNL A   1      39.635  26.550  28.407  1.00  0.00     0.029 A 
ATOM     38  N   UNL A   1      41.744  27.190  28.770  1.00  0.00    -0.354 N 
ATOM     39  C   UNL A   1      42.729  31.278  29.750  1.00  0.00     0.074 A 
ATOM     40  C   UNL A   1      41.539  31.989  30.165  1.00  0.00     0.031 C 
ATOM     41  C   UNL A   1      40.412  25.469  28.258  1.00  0.00     0.029 A 
ATOM     42  C   UNL A   1      41.806  25.876  28.366  1.00  0.00     0.049 A 
ATOM     43  H   UNL A   1      42.533  27.711  29.042  1.00  0.00     0.167 HD
ATOM     44  C   UNL A   1      43.986  31.783  29.794  1.00  0.00     0.037 A 
ATOM     45  C   UNL A   1      42.852  25.100  28.026  1.00  0.00     0.037 A 
ATOM     46  C   UNL A   1      45.166  31.028  29.454  1.00  0.00     0.049 A 
ATOM     47  C   UNL A   1      44.234  25.681  28.053  1.00  0.00     0.074 A 
ATOM     48  C   UNL A   1      46.488  31.439  29.477  1.00  0.00     0.029 A 
ATOM     49  N   UNL A   1      45.169  29.698  29.060  1.00  0.00    -0.354 N 
ATOM     50  N   UNL A   1      44.607  26.897  28.371  1.00  0.00    -0.248 NA
ATOM     51  C   UNL A   1      45.337  24.798  27.647  1.00  0.00     0.031 C 
ATOM     52  C   UNL A   1      47.287  30.367  29.069  1.00  0.00     0.029 A 
ATOM     53  C   UNL A   1      46.468  29.275  28.834  1.00  0.00     0.049 A 
ATOM     54  H   UNL A   1      44.366  29.137  28.957  1.00  0.00     0.167 HD
ATOM     55  C   UNL A   1      45.988  26.919  28.225  1.00  0.00     0.074 A 
ATOM     56  C   UNL A   1      46.386  25.596  27.793  1.00  0.00     0.031 C 
ATOM     57  C   UNL A   1      46.847  27.946  28.430  1.00  0.00     0.037 A 
BRANCH  44  58
ATOM     58  C   UNL A   1      44.170  33.226  30.181  1.00  0.00     0.058 A 
ATOM     59  C   UNL A   1      44.067  34.272  29.254  1.00  0.00     0.135 A 
ATOM     60  C   UNL A   1      44.362  33.566  31.532  1.00  0.00     0.135 A 
ATOM     61  F   UNL A   1      43.899  34.006  27.950  1.00  0.00    -0.206 F 
ATOM     62  C   UNL A   1      44.155  35.606  29.650  1.00  0.00     0.059 A 
ATOM     63  C   UNL A   1      44.429  34.891  31.954  1.00  0.00     0.059 A 
ATOM     64  F   UNL A   1      44.466  32.604  32.463  1.00  0.00    -0.206 F 
ATOM     65  C   UNL A   1      44.331  35.905  31.003  1.00  0.00     0.060 A 
BRANCH  65  66
ATOM     66  S   UNL A   1      44.407  37.638  31.507  1.00  0.00     0.124 S 
ATOM     67  O   UNL A   1      45.848  37.850  31.605  1.00  0.00    -0.237 OA
ATOM     68  O   UNL A   1      43.742  38.317  30.400  1.00  0.00    -0.237 OA
ATOM     69  O   UNL A   1      43.684  37.656  32.775  1.00  0.00    -0.744 OA
ENDBRANCH  65  66
ENDBRANCH  44  58
BRANCH  45  70
ATOM     70  C   UNL A   1      42.609  23.714  27.542  1.00  0.00     0.058 A 
ATOM     71  C   UNL A   1      42.529  23.426  26.173  1.00  0.00     0.135 A 
ATOM     72  C   UNL A   1      42.495  22.643  28.445  1.00  0.00     0.135 A 
ATOM     73  F   UNL A   1      42.618  24.417  25.273  1.00  0.00    -0.206 F 
ATOM     74  C   UNL A   1      42.344  22.126  25.714  1.00  0.00     0.059 A 
ATOM     75  C   UNL A   1      42.341  21.332  28.009  1.00  0.00     0.059 A 
ATOM     76  F   UNL A   1      42.579  22.863  29.766  1.00  0.00    -0.206 F 
ATOM     77  C   UNL A   1      42.257  21.084  26.640  1.00  0.00     0.060 A 
BRANCH  77  78
ATOM     78  S   UNL A   1      42.082  19.391  26.037  1.00  0.00     0.124 S 
ATOM     79  O   UNL A   1      42.546  18.622  27.187  1.00  0.00    -0.237 OA
ATOM     80  O   UNL A   1      40.655  19.307  25.747  1.00  0.00    -0.237 OA
ATOM     81  O   UNL A   1      42.953  19.362  24.866  1.00  0.00    -0.744 OA
ENDBRANCH  77  78
ENDBRANCH  45  70
BRANCH  57  82
ATOM     82  C   UNL A   1      48.311  27.669  28.253  1.00  0.00     0.058 A 
ATOM     83  C   UNL A   1      49.107  27.206  29.310  1.00  0.00     0.135 A 
ATOM     84  C   UNL A   1      48.903  27.799  26.987  1.00  0.00     0.135 A 
ATOM     85  F   UNL A   1      48.587  27.076  30.542  1.00  0.00    -0.206 F 
ATOM     86  C   UNL A   1      50.446  26.883  29.119  1.00  0.00     0.059 A 
ATOM     87  C   UNL A   1      50.235  27.463  26.769  1.00  0.00     0.059 A 
ATOM     88  F   UNL A   1      48.179  28.235  25.943  1.00  0.00    -0.206 F 
ATOM     89  C   UNL A   1      50.999  27.009  27.843  1.00  0.00     0.060 A 
BRANCH  89  90
ATOM     90  S   UNL A   1      52.721  26.526  27.592  1.00  0.00     0.124 S 
ATOM     91  O   UNL A   1      53.180  26.350  28.966  1.00  0.00    -0.237 OA
ATOM     92  O   UNL A   1      52.591  25.303  26.805  1.00  0.00    -0.237 OA
ATOM     93  O   UNL A   1      53.292  27.665  26.879  1.00  0.00    -0.744 OA
ENDBRANCH  89  90
ENDBRANCH  57  82
ENDBRANCH  31  32
ENDBRANCH  24  26
ENDBRANCH  23  24
ENDBRANCH  22  23
ENDBRANCH   1  22
TORSDOF 17
ENDMDL
