MODEL 1
REMARK VINA RESULT:     -11.5      0.000      0.000
REMARK SMILES O=C(OCCOC(=O)[C@@H]1CCC(=O)N(CCCOC2CCCCC2)[C@H]1c1ccco1)c1ccc(-c2c3nc(c(-c4c(F)cc(S(=O)(=O)[O-])cc4F)c4ccc([nH]4)c(-c4c(F)cc(S(=O)(=O)[O-])cc4F)c4nc(c(-c5c(F)cc(S(=O)(=O)[O-])cc5F)c5ccc2[nH]5)C=C4)C=C3)cc1
REMARK SMILES IDX 5 1 4 2 3 3 2 4 1 5 31 6 32 7 96 8 33 9 95 10 34 11 35 12
REMARK SMILES IDX 36 13 89 14 37 15 94 16 88 17 90 18 38 19 93 20 87 21 86 22
REMARK SMILES IDX 39 24 73 25 52 26 72 27 53 28 56 29 71 30 91 31 54 32 55 33
REMARK SMILES IDX 70 35 92 36 57 37 40 38 41 39 50 40 42 41 43 42 49 43 51 44
REMARK SMILES IDX 44 45 45 46 46 47 47 48 48 49 74 50 75 51 84 52 76 53 77 54
REMARK SMILES IDX 83 55 85 56 78 57 79 58 80 59 81 60 82 61 58 62 59 63 68 64
REMARK SMILES IDX 60 65 61 66 67 67 69 68 62 69 63 70 64 71 65 72 66 73 6 74
REMARK SMILES IDX 7 75 8 76 9 77 10 78 25 79 11 80 14 81 12 82 13 83 26 84
REMARK SMILES IDX 27 85 30 86 28 87 29 88 15 89 16 90 17 91 18 92 19 93 20 94
REMARK SMILES IDX 24 95 21 96 23 97 22 98
REMARK H PARENT 90 23 56 34
REMARK Flexibility Score: inf
ROOT
ATOM      1  C   UNL A   1      36.407  22.663  23.538  1.00  0.00     0.274 C 
ENDROOT
BRANCH   1   2
ATOM      2  C   UNL A   1      37.280  21.974  24.585  1.00  0.00     0.275 C 
BRANCH   2   3
ATOM      3  O   UNL A   1      37.630  22.836  25.673  1.00  0.00    -0.458 OA
BRANCH   3   4
ATOM      4  C   UNL A   1      38.788  22.937  26.359  1.00  0.00     0.338 C 
ATOM      5  O   UNL A   1      39.412  21.892  26.556  1.00  0.00    -0.246 OA
BRANCH   4   6
ATOM      6  C   UNL A   1      39.352  24.203  26.956  1.00  0.00     0.060 A 
ATOM      7  C   UNL A   1      39.315  24.614  28.296  1.00  0.00     0.016 A 
ATOM      8  C   UNL A   1      40.034  25.037  26.051  1.00  0.00     0.016 A 
ATOM      9  C   UNL A   1      39.999  25.757  28.735  1.00  0.00     0.010 A 
ATOM     10  C   UNL A   1      40.694  26.193  26.475  1.00  0.00     0.010 A 
ATOM     11  C   UNL A   1      40.693  26.552  27.825  1.00  0.00    -0.014 A 
BRANCH  11  12
ATOM     12  C   UNL A   1      41.290  27.844  28.236  1.00  0.00     0.031 A 
ATOM     13  C   UNL A   1      42.760  27.976  28.167  1.00  0.00     0.074 A 
ATOM     14  C   UNL A   1      40.555  28.830  28.778  1.00  0.00     0.049 A 
ATOM     15  N   UNL A   1      43.497  28.972  28.560  1.00  0.00    -0.248 NA
ATOM     16  C   UNL A   1      43.494  26.819  27.638  1.00  0.00     0.031 C 
ATOM     17  C   UNL A   1      39.133  28.714  28.953  1.00  0.00     0.029 A 
ATOM     18  N   UNL A   1      40.841  30.062  29.308  1.00  0.00    -0.354 N 
ATOM     19  C   UNL A   1      44.795  28.552  28.360  1.00  0.00     0.074 A 
ATOM     20  C   UNL A   1      44.742  27.202  27.839  1.00  0.00     0.031 C 
ATOM     21  C   UNL A   1      38.655  29.790  29.589  1.00  0.00     0.029 A 
ATOM     22  C   UNL A   1      39.732  30.725  29.799  1.00  0.00     0.049 A 
ATOM     23  H   UNL A   1      41.751  30.438  29.337  1.00  0.00     0.167 HD
ATOM     24  C   UNL A   1      45.925  29.245  28.608  1.00  0.00     0.037 A 
ATOM     25  C   UNL A   1      39.582  31.952  30.334  1.00  0.00     0.037 A 
ATOM     26  C   UNL A   1      45.931  30.556  29.193  1.00  0.00     0.049 A 
ATOM     27  C   UNL A   1      40.838  32.741  30.520  1.00  0.00     0.074 A 
ATOM     28  C   UNL A   1      47.012  31.350  29.514  1.00  0.00     0.029 A 
ATOM     29  N   UNL A   1      44.788  31.257  29.575  1.00  0.00    -0.354 N 
ATOM     30  N   UNL A   1      42.066  32.360  30.262  1.00  0.00    -0.248 NA
ATOM     31  C   UNL A   1      40.721  34.087  31.088  1.00  0.00     0.031 C 
ATOM     32  C   UNL A   1      46.528  32.511  30.126  1.00  0.00     0.029 A 
ATOM     33  C   UNL A   1      45.140  32.472  30.133  1.00  0.00     0.049 A 
ATOM     34  H   UNL A   1      43.865  30.934  29.461  1.00  0.00     0.167 HD
ATOM     35  C   UNL A   1      42.877  33.412  30.642  1.00  0.00     0.074 A 
ATOM     36  C   UNL A   1      41.994  34.462  31.123  1.00  0.00     0.031 C 
ATOM     37  C   UNL A   1      44.227  33.490  30.606  1.00  0.00     0.037 A 
BRANCH  24  38
ATOM     38  C   UNL A   1      47.197  28.518  28.308  1.00  0.00     0.058 A 
ATOM     39  C   UNL A   1      47.756  28.525  27.016  1.00  0.00     0.135 A 
ATOM     40  C   UNL A   1      47.763  27.667  29.268  1.00  0.00     0.135 A 
ATOM     41  F   UNL A   1      47.215  29.285  26.049  1.00  0.00    -0.206 F 
ATOM     42  C   UNL A   1      48.783  27.658  26.669  1.00  0.00     0.059 A 
ATOM     43  C   UNL A   1      48.815  26.816  28.951  1.00  0.00     0.059 A 
ATOM     44  F   UNL A   1      47.250  27.608  30.507  1.00  0.00    -0.206 F 
ATOM     45  C   UNL A   1      49.292  26.794  27.640  1.00  0.00     0.060 A 
BRANCH  45  46
ATOM     46  S   UNL A   1      50.557  25.604  27.153  1.00  0.00     0.124 S 
ATOM     47  O   UNL A   1      50.003  24.362  27.682  1.00  0.00    -0.237 OA
ATOM     48  O   UNL A   1      50.557  25.727  25.698  1.00  0.00    -0.237 OA
ATOM     49  O   UNL A   1      51.756  26.095  27.822  1.00  0.00    -0.744 OA
ENDBRANCH  45  46
ENDBRANCH  24  38
BRANCH  25  50
ATOM     50  C   UNL A   1      38.230  32.500  30.662  1.00  0.00     0.058 A 
ATOM     51  C   UNL A   1      37.688  32.364  31.952  1.00  0.00     0.135 A 
ATOM     52  C   UNL A   1      37.473  33.229  29.729  1.00  0.00     0.135 A 
ATOM     53  F   UNL A   1      38.358  31.674  32.888  1.00  0.00    -0.206 F 
ATOM     54  C   UNL A   1      36.460  32.924  32.304  1.00  0.00     0.059 A 
ATOM     55  C   UNL A   1      36.255  33.823  30.063  1.00  0.00     0.059 A 
ATOM     56  F   UNL A   1      37.937  33.405  28.482  1.00  0.00    -0.206 F 
ATOM     57  C   UNL A   1      35.752  33.660  31.353  1.00  0.00     0.060 A 
BRANCH  57  58
ATOM     58  S   UNL A   1      34.190  34.437  31.833  1.00  0.00     0.124 S 
ATOM     59  O   UNL A   1      33.503  34.534  30.551  1.00  0.00    -0.237 OA
ATOM     60  O   UNL A   1      33.642  33.470  32.779  1.00  0.00    -0.237 OA
ATOM     61  O   UNL A   1      34.615  35.706  32.418  1.00  0.00    -0.744 OA
ENDBRANCH  57  58
ENDBRANCH  25  50
BRANCH  37  62
ATOM     62  C   UNL A   1      44.837  34.765  31.094  1.00  0.00     0.058 A 
ATOM     63  C   UNL A   1      45.257  34.913  32.422  1.00  0.00     0.135 A 
ATOM     64  C   UNL A   1      45.113  35.795  30.183  1.00  0.00     0.135 A 
ATOM     65  F   UNL A   1      44.994  33.957  33.328  1.00  0.00    -0.206 F 
ATOM     66  C   UNL A   1      45.953  36.042  32.831  1.00  0.00     0.059 A 
ATOM     67  C   UNL A   1      45.830  36.919  30.565  1.00  0.00     0.059 A 
ATOM     68  F   UNL A   1      44.723  35.689  28.903  1.00  0.00    -0.206 F 
ATOM     69  C   UNL A   1      46.252  37.029  31.889  1.00  0.00     0.060 A 
BRANCH  69  70
ATOM     70  S   UNL A   1      47.264  38.429  32.403  1.00  0.00     0.124 S 
ATOM     71  O   UNL A   1      48.135  37.812  33.398  1.00  0.00    -0.237 OA
ATOM     72  O   UNL A   1      47.906  38.822  31.153  1.00  0.00    -0.237 OA
ATOM     73  O   UNL A   1      46.288  39.380  32.925  1.00  0.00    -0.744 OA
ENDBRANCH  69  70
ENDBRANCH  37  62
ENDBRANCH  11  12
ENDBRANCH   4   6
ENDBRANCH   3   4
ENDBRANCH   2   3
ENDBRANCH   1   2
BRANCH   1  74
ATOM     74  O   UNL A   1      35.049  22.870  23.997  1.00  0.00    -0.462 OA
BRANCH  74  75
ATOM     75  C   UNL A   1      34.421  23.996  23.541  1.00  0.00     0.311 C 
ATOM     76  O   UNL A   1      34.013  24.118  22.402  1.00  0.00    -0.252 OA
BRANCH  75  77
ATOM     77  C   UNL A   1      34.159  25.009  24.662  1.00  0.00     0.130 C 
ATOM     78  C   UNL A   1      34.151  24.275  26.000  1.00  0.00     0.028 C 
ATOM     79  C   UNL A   1      32.858  25.836  24.545  1.00  0.00     0.166 C 
ATOM     80  C   UNL A   1      32.858  23.504  26.217  1.00  0.00     0.101 C 
ATOM     81  N   UNL A   1      31.650  25.008  24.595  1.00  0.00    -0.332 N 
ATOM     82  C   UNL A   1      31.657  23.822  25.331  1.00  0.00     0.223 C 
ATOM     83  O   UNL A   1      30.721  23.020  25.297  1.00  0.00    -0.275 OA
BRANCH  79  84
ATOM     84  C   UNL A   1      32.800  26.886  25.649  1.00  0.00     0.127 A 
ATOM     85  C   UNL A   1      31.854  27.211  26.612  1.00  0.00     0.048 A 
ATOM     86  O   UNL A   1      33.891  27.693  25.820  1.00  0.00    -0.467 OA
ATOM     87  C   UNL A   1      32.428  28.202  27.442  1.00  0.00     0.042 A 
ATOM     88  C   UNL A   1      33.658  28.479  26.902  1.00  0.00     0.195 A 
ENDBRANCH  79  84
BRANCH  81  89
ATOM     89  C   UNL A   1      30.394  25.308  23.846  1.00  0.00     0.122 C 
BRANCH  89  90
ATOM     90  C   UNL A   1      29.775  26.707  23.614  1.00  0.00     0.050 C 
BRANCH  90  91
ATOM     91  C   UNL A   1      30.488  27.859  22.899  1.00  0.00     0.162 C 
BRANCH  91  92
ATOM     92  O   UNL A   1      29.823  28.561  21.854  1.00  0.00    -0.378 OA
BRANCH  92  93
ATOM     93  C   UNL A   1      29.696  29.966  22.099  1.00  0.00     0.118 C 
ATOM     94  C   UNL A   1      28.450  30.389  21.347  1.00  0.00     0.032 C 
ATOM     95  C   UNL A   1      29.632  30.238  23.608  1.00  0.00     0.032 C 
ATOM     96  C   UNL A   1      27.851  31.698  21.767  1.00  0.00     0.003 C 
ATOM     97  C   UNL A   1      29.042  31.612  23.932  1.00  0.00     0.003 C 
ATOM     98  C   UNL A   1      27.683  31.785  23.264  1.00  0.00     0.000 C 
ENDBRANCH  92  93
ENDBRANCH  91  92
ENDBRANCH  90  91
ENDBRANCH  89  90
ENDBRANCH  81  89
ENDBRANCH  75  77
ENDBRANCH  74  75
ENDBRANCH   1  74
TORSDOF 20
ENDMDL
MODEL 2
REMARK VINA RESULT:     -11.4      2.729      3.504
REMARK SMILES O=C(OCCOC(=O)[C@@H]1CCC(=O)N(CCCOC2CCCCC2)[C@H]1c1ccco1)c1ccc(-c2c3nc(c(-c4c(F)cc(S(=O)(=O)[O-])cc4F)c4ccc([nH]4)c(-c4c(F)cc(S(=O)(=O)[O-])cc4F)c4nc(c(-c5c(F)cc(S(=O)(=O)[O-])cc5F)c5ccc2[nH]5)C=C4)C=C3)cc1
REMARK SMILES IDX 5 1 4 2 3 3 2 4 1 5 31 6 32 7 96 8 33 9 95 10 34 11 35 12
REMARK SMILES IDX 36 13 89 14 37 15 94 16 88 17 90 18 38 19 93 20 87 21 86 22
REMARK SMILES IDX 39 24 73 25 52 26 72 27 53 28 56 29 71 30 91 31 54 32 55 33
REMARK SMILES IDX 70 35 92 36 57 37 40 38 41 39 50 40 42 41 43 42 49 43 51 44
REMARK SMILES IDX 44 45 45 46 46 47 47 48 48 49 74 50 75 51 84 52 76 53 77 54
REMARK SMILES IDX 83 55 85 56 78 57 79 58 80 59 81 60 82 61 58 62 59 63 68 64
REMARK SMILES IDX 60 65 61 66 67 67 69 68 62 69 63 70 64 71 65 72 66 73 6 74
REMARK SMILES IDX 7 75 8 76 9 77 10 78 25 79 11 80 14 81 12 82 13 83 26 84
REMARK SMILES IDX 27 85 30 86 28 87 29 88 15 89 16 90 17 91 18 92 19 93 20 94
REMARK SMILES IDX 24 95 21 96 23 97 22 98
REMARK H PARENT 90 23 56 34
REMARK Flexibility Score: inf
ROOT
ATOM      1  C   UNL A   1      36.406  22.435  23.796  1.00  0.00     0.274 C 
ENDROOT
BRANCH   1   2
ATOM      2  C   UNL A   1      37.250  22.136  25.034  1.00  0.00     0.275 C 
BRANCH   2   3
ATOM      3  O   UNL A   1      37.887  23.301  25.569  1.00  0.00    -0.458 OA
BRANCH   3   4
ATOM      4  C   UNL A   1      39.063  23.422  26.220  1.00  0.00     0.338 C 
ATOM      5  O   UNL A   1      39.766  22.412  26.294  1.00  0.00    -0.246 OA
BRANCH   4   6
ATOM      6  C   UNL A   1      39.562  24.664  26.915  1.00  0.00     0.060 A 
ATOM      7  C   UNL A   1      40.374  25.679  26.387  1.00  0.00     0.016 A 
ATOM      8  C   UNL A   1      39.110  24.833  28.236  1.00  0.00     0.016 A 
ATOM      9  C   UNL A   1      40.652  26.849  27.108  1.00  0.00     0.010 A 
ATOM     10  C   UNL A   1      39.407  25.982  28.972  1.00  0.00     0.010 A 
ATOM     11  C   UNL A   1      40.168  27.006  28.405  1.00  0.00    -0.014 A 
BRANCH  11  12
ATOM     12  C   UNL A   1      40.577  28.159  29.241  1.00  0.00     0.031 A 
ATOM     13  C   UNL A   1      41.870  28.071  29.950  1.00  0.00     0.074 A 
ATOM     14  C   UNL A   1      39.761  29.204  29.466  1.00  0.00     0.049 A 
ATOM     15  N   UNL A   1      42.379  28.912  30.800  1.00  0.00    -0.248 NA
ATOM     16  C   UNL A   1      42.662  26.858  29.712  1.00  0.00     0.031 C 
ATOM     17  C   UNL A   1      38.454  29.292  28.873  1.00  0.00     0.029 A 
ATOM     18  N   UNL A   1      39.839  30.336  30.235  1.00  0.00    -0.354 N 
ATOM     19  C   UNL A   1      43.546  28.316  31.233  1.00  0.00     0.074 A 
ATOM     20  C   UNL A   1      43.650  27.031  30.572  1.00  0.00     0.031 C 
ATOM     21  C   UNL A   1      37.816  30.379  29.321  1.00  0.00     0.029 A 
ATOM     22  C   UNL A   1      38.704  31.122  30.180  1.00  0.00     0.049 A 
ATOM     23  H   UNL A   1      40.628  30.565  30.777  1.00  0.00     0.167 HD
ATOM     24  C   UNL A   1      44.436  28.809  32.117  1.00  0.00     0.037 A 
ATOM     25  C   UNL A   1      38.409  32.316  30.732  1.00  0.00     0.037 A 
ATOM     26  C   UNL A   1      44.255  30.058  32.802  1.00  0.00     0.049 A 
ATOM     27  C   UNL A   1      39.447  32.889  31.641  1.00  0.00     0.074 A 
ATOM     28  C   UNL A   1      45.075  30.653  33.738  1.00  0.00     0.029 A 
ATOM     29  N   UNL A   1      43.151  30.895  32.642  1.00  0.00    -0.354 N 
ATOM     30  N   UNL A   1      40.588  32.345  31.994  1.00  0.00    -0.248 NA
ATOM     31  C   UNL A   1      39.174  34.192  32.254  1.00  0.00     0.031 C 
ATOM     32  C   UNL A   1      44.451  31.826  34.175  1.00  0.00     0.029 A 
ATOM     33  C   UNL A   1      43.268  31.998  33.468  1.00  0.00     0.049 A 
ATOM     34  H   UNL A   1      42.399  30.725  32.030  1.00  0.00     0.167 HD
ATOM     35  C   UNL A   1      41.171  33.231  32.878  1.00  0.00     0.074 A 
ATOM     36  C   UNL A   1      40.268  34.365  32.986  1.00  0.00     0.031 C 
ATOM     37  C   UNL A   1      42.341  33.105  33.547  1.00  0.00     0.037 A 
BRANCH  24  38
ATOM     38  C   UNL A   1      45.603  27.921  32.407  1.00  0.00     0.058 A 
ATOM     39  C   UNL A   1      45.578  27.005  33.476  1.00  0.00     0.135 A 
ATOM     40  C   UNL A   1      46.815  28.109  31.727  1.00  0.00     0.135 A 
ATOM     41  F   UNL A   1      44.453  26.830  34.190  1.00  0.00    -0.206 F 
ATOM     42  C   UNL A   1      46.732  26.366  33.906  1.00  0.00     0.059 A 
ATOM     43  C   UNL A   1      47.975  27.451  32.119  1.00  0.00     0.059 A 
ATOM     44  F   UNL A   1      46.895  28.988  30.716  1.00  0.00    -0.206 F 
ATOM     45  C   UNL A   1      47.930  26.611  33.232  1.00  0.00     0.060 A 
BRANCH  45  46
ATOM     46  S   UNL A   1      49.440  25.852  33.860  1.00  0.00     0.124 S 
ATOM     47  O   UNL A   1      49.087  25.622  35.258  1.00  0.00    -0.237 OA
ATOM     48  O   UNL A   1      49.555  24.655  33.032  1.00  0.00    -0.237 OA
ATOM     49  O   UNL A   1      50.454  26.874  33.627  1.00  0.00    -0.744 OA
ENDBRANCH  45  46
ENDBRANCH  24  38
BRANCH  25  50
ATOM     50  C   UNL A   1      37.142  33.037  30.399  1.00  0.00     0.058 A 
ATOM     51  C   UNL A   1      37.036  33.811  29.230  1.00  0.00     0.135 A 
ATOM     52  C   UNL A   1      35.987  32.922  31.191  1.00  0.00     0.135 A 
ATOM     53  F   UNL A   1      38.105  33.966  28.433  1.00  0.00    -0.206 F 
ATOM     54  C   UNL A   1      35.846  34.439  28.861  1.00  0.00     0.059 A 
ATOM     55  C   UNL A   1      34.777  33.517  30.831  1.00  0.00     0.059 A 
ATOM     56  F   UNL A   1      36.017  32.190  32.315  1.00  0.00    -0.206 F 
ATOM     57  C   UNL A   1      34.717  34.280  29.666  1.00  0.00     0.060 A 
BRANCH  57  58
ATOM     58  S   UNL A   1      33.160  35.045  29.149  1.00  0.00     0.124 S 
ATOM     59  O   UNL A   1      32.412  35.065  30.400  1.00  0.00    -0.237 OA
ATOM     60  O   UNL A   1      33.604  36.342  28.649  1.00  0.00    -0.237 OA
ATOM     61  O   UNL A   1      32.660  34.125  28.131  1.00  0.00    -0.744 OA
ENDBRANCH  57  58
ENDBRANCH  25  50
BRANCH  37  62
ATOM     62  C   UNL A   1      42.719  34.234  34.452  1.00  0.00     0.058 A 
ATOM     63  C   UNL A   1      42.407  34.212  35.818  1.00  0.00     0.135 A 
ATOM     64  C   UNL A   1      43.510  35.283  33.961  1.00  0.00     0.135 A 
ATOM     65  F   UNL A   1      41.635  33.234  36.322  1.00  0.00    -0.206 F 
ATOM     66  C   UNL A   1      42.886  35.190  36.678  1.00  0.00     0.059 A 
ATOM     67  C   UNL A   1      44.021  36.255  34.807  1.00  0.00     0.059 A 
ATOM     68  F   UNL A   1      43.826  35.338  32.657  1.00  0.00    -0.206 F 
ATOM     69  C   UNL A   1      43.709  36.196  36.165  1.00  0.00     0.060 A 
BRANCH  69  70
ATOM     70  S   UNL A   1      44.428  37.386  37.312  1.00  0.00     0.124 S 
ATOM     71  O   UNL A   1      44.822  38.462  36.409  1.00  0.00    -0.237 OA
ATOM     72  O   UNL A   1      43.305  37.679  38.197  1.00  0.00    -0.237 OA
ATOM     73  O   UNL A   1      45.525  36.645  37.925  1.00  0.00    -0.744 OA
ENDBRANCH  69  70
ENDBRANCH  37  62
ENDBRANCH  11  12
ENDBRANCH   4   6
ENDBRANCH   3   4
ENDBRANCH   2   3
ENDBRANCH   1   2
BRANCH   1  74
ATOM     74  O   UNL A   1      35.044  22.797  24.128  1.00  0.00    -0.462 OA
BRANCH  74  75
ATOM     75  C   UNL A   1      34.615  24.016  23.682  1.00  0.00     0.311 C 
ATOM     76  O   UNL A   1      34.385  24.256  22.512  1.00  0.00    -0.252 OA
BRANCH  75  77
ATOM     77  C   UNL A   1      34.317  24.984  24.833  1.00  0.00     0.130 C 
ATOM     78  C   UNL A   1      34.105  24.180  26.113  1.00  0.00     0.028 C 
ATOM     79  C   UNL A   1      33.107  25.927  24.637  1.00  0.00     0.166 C 
ATOM     80  C   UNL A   1      32.738  23.513  26.145  1.00  0.00     0.101 C 
ATOM     81  N   UNL A   1      31.838  25.205  24.508  1.00  0.00    -0.332 N 
ATOM     82  C   UNL A   1      31.670  23.985  25.163  1.00  0.00     0.223 C 
ATOM     83  O   UNL A   1      30.681  23.270  24.981  1.00  0.00    -0.275 OA
BRANCH  79  84
ATOM     84  C   UNL A   1      33.015  26.914  25.795  1.00  0.00     0.127 A 
ATOM     85  C   UNL A   1      33.900  27.835  26.340  1.00  0.00     0.048 A 
ATOM     86  O   UNL A   1      31.826  27.003  26.465  1.00  0.00    -0.467 OA
ATOM     87  C   UNL A   1      33.193  28.558  27.329  1.00  0.00     0.042 A 
ATOM     88  C   UNL A   1      31.943  27.996  27.384  1.00  0.00     0.195 A 
ENDBRANCH  79  84
BRANCH  81  89
ATOM     89  C   UNL A   1      30.698  25.655  23.655  1.00  0.00     0.122 C 
BRANCH  89  90
ATOM     90  C   UNL A   1      30.704  26.849  22.670  1.00  0.00     0.050 C 
BRANCH  90  91
ATOM     91  C   UNL A   1      29.927  28.152  22.887  1.00  0.00     0.162 C 
BRANCH  91  92
ATOM     92  O   UNL A   1      29.540  28.938  21.765  1.00  0.00    -0.378 OA
BRANCH  92  93
ATOM     93  C   UNL A   1      28.628  29.992  22.091  1.00  0.00     0.118 C 
ATOM     94  C   UNL A   1      29.127  30.556  23.406  1.00  0.00     0.032 C 
ATOM     95  C   UNL A   1      28.578  31.021  20.954  1.00  0.00     0.032 C 
ATOM     96  C   UNL A   1      28.619  31.921  23.761  1.00  0.00     0.003 C 
ATOM     97  C   UNL A   1      28.011  32.368  21.407  1.00  0.00     0.003 C 
ATOM     98  C   UNL A   1      28.774  32.893  22.617  1.00  0.00     0.000 C 
ENDBRANCH  92  93
ENDBRANCH  91  92
ENDBRANCH  90  91
ENDBRANCH  89  90
ENDBRANCH  81  89
ENDBRANCH  75  77
ENDBRANCH  74  75
ENDBRANCH   1  74
TORSDOF 20
ENDMDL
MODEL 3
REMARK VINA RESULT:     -11.4      3.503      9.214
REMARK SMILES O=C(OCCOC(=O)[C@@H]1CCC(=O)N(CCCOC2CCCCC2)[C@H]1c1ccco1)c1ccc(-c2c3nc(c(-c4c(F)cc(S(=O)(=O)[O-])cc4F)c4ccc([nH]4)c(-c4c(F)cc(S(=O)(=O)[O-])cc4F)c4nc(c(-c5c(F)cc(S(=O)(=O)[O-])cc5F)c5ccc2[nH]5)C=C4)C=C3)cc1
REMARK SMILES IDX 5 1 4 2 3 3 2 4 1 5 31 6 32 7 96 8 33 9 95 10 34 11 35 12
REMARK SMILES IDX 36 13 89 14 37 15 94 16 88 17 90 18 38 19 93 20 87 21 86 22
REMARK SMILES IDX 39 24 73 25 52 26 72 27 53 28 56 29 71 30 91 31 54 32 55 33
REMARK SMILES IDX 70 35 92 36 57 37 40 38 41 39 50 40 42 41 43 42 49 43 51 44
REMARK SMILES IDX 44 45 45 46 46 47 47 48 48 49 74 50 75 51 84 52 76 53 77 54
REMARK SMILES IDX 83 55 85 56 78 57 79 58 80 59 81 60 82 61 58 62 59 63 68 64
REMARK SMILES IDX 60 65 61 66 67 67 69 68 62 69 63 70 64 71 65 72 66 73 6 74
REMARK SMILES IDX 7 75 8 76 9 77 10 78 25 79 11 80 14 81 12 82 13 83 26 84
REMARK SMILES IDX 27 85 30 86 28 87 29 88 15 89 16 90 17 91 18 92 19 93 20 94
REMARK SMILES IDX 24 95 21 96 23 97 22 98
REMARK H PARENT 90 23 56 34
REMARK Flexibility Score: inf
ROOT
ATOM      1  C   UNL A   1      34.479  29.172  26.619  1.00  0.00     0.274 C 
ENDROOT
BRANCH   1   2
ATOM      2  C   UNL A   1      34.508  30.191  27.756  1.00  0.00     0.275 C 
BRANCH   2   3
ATOM      3  O   UNL A   1      35.274  29.748  28.881  1.00  0.00    -0.458 OA
BRANCH   3   4
ATOM      4  C   UNL A   1      36.325  30.331  29.496  1.00  0.00     0.338 C 
ATOM      5  O   UNL A   1      36.075  31.256  30.271  1.00  0.00    -0.246 OA
BRANCH   4   6
ATOM      6  C   UNL A   1      37.778  29.990  29.271  1.00  0.00     0.060 A 
ATOM      7  C   UNL A   1      38.778  29.804  30.236  1.00  0.00     0.016 A 
ATOM      8  C   UNL A   1      38.144  29.793  27.926  1.00  0.00     0.016 A 
ATOM      9  C   UNL A   1      40.062  29.357  29.888  1.00  0.00     0.010 A 
ATOM     10  C   UNL A   1      39.428  29.376  27.570  1.00  0.00     0.010 A 
ATOM     11  C   UNL A   1      40.392  29.140  28.552  1.00  0.00    -0.014 A 
BRANCH  11  12
ATOM     12  C   UNL A   1      41.781  28.820  28.149  1.00  0.00     0.031 A 
ATOM     13  C   UNL A   1      42.074  27.435  27.727  1.00  0.00     0.074 A 
ATOM     14  C   UNL A   1      42.785  29.706  28.277  1.00  0.00     0.049 A 
ATOM     15  N   UNL A   1      43.225  26.913  27.423  1.00  0.00    -0.248 NA
ATOM     16  C   UNL A   1      40.934  26.510  27.693  1.00  0.00     0.031 C 
ATOM     17  C   UNL A   1      42.567  31.038  28.772  1.00  0.00     0.029 A 
ATOM     18  N   UNL A   1      44.138  29.661  28.067  1.00  0.00    -0.354 N 
ATOM     19  C   UNL A   1      42.960  25.579  27.194  1.00  0.00     0.074 A 
ATOM     20  C   UNL A   1      41.545  25.370  27.422  1.00  0.00     0.031 C 
ATOM     21  C   UNL A   1      43.732  31.686  28.883  1.00  0.00     0.029 A 
ATOM     22  C   UNL A   1      44.788  30.839  28.385  1.00  0.00     0.049 A 
ATOM     23  H   UNL A   1      44.604  28.865  27.723  1.00  0.00     0.167 HD
ATOM     24  C   UNL A   1      43.839  24.622  26.836  1.00  0.00     0.037 A 
ATOM     25  C   UNL A   1      46.076  31.215  28.271  1.00  0.00     0.037 A 
ATOM     26  C   UNL A   1      45.247  24.861  26.691  1.00  0.00     0.049 A 
ATOM     27  C   UNL A   1      47.023  30.164  27.788  1.00  0.00     0.074 A 
ATOM     28  C   UNL A   1      46.241  23.966  26.356  1.00  0.00     0.029 A 
ATOM     29  N   UNL A   1      45.866  26.091  26.906  1.00  0.00    -0.354 N 
ATOM     30  N   UNL A   1      46.749  28.912  27.504  1.00  0.00    -0.248 NA
ATOM     31  C   UNL A   1      48.433  30.531  27.636  1.00  0.00     0.031 C 
ATOM     32  C   UNL A   1      47.465  24.642  26.407  1.00  0.00     0.029 A 
ATOM     33  C   UNL A   1      47.231  25.976  26.715  1.00  0.00     0.049 A 
ATOM     34  H   UNL A   1      45.399  26.921  27.155  1.00  0.00     0.167 HD
ATOM     35  C   UNL A   1      47.951  28.334  27.148  1.00  0.00     0.074 A 
ATOM     36  C   UNL A   1      48.955  29.382  27.224  1.00  0.00     0.031 C 
ATOM     37  C   UNL A   1      48.198  27.048  26.805  1.00  0.00     0.037 A 
BRANCH  24  38
ATOM     38  C   UNL A   1      43.258  23.252  26.677  1.00  0.00     0.058 A 
ATOM     39  C   UNL A   1      42.953  22.454  27.795  1.00  0.00     0.135 A 
ATOM     40  C   UNL A   1      43.172  22.670  25.405  1.00  0.00     0.135 A 
ATOM     41  F   UNL A   1      43.071  22.954  29.036  1.00  0.00    -0.206 F 
ATOM     42  C   UNL A   1      42.656  21.104  27.658  1.00  0.00     0.059 A 
ATOM     43  C   UNL A   1      42.842  21.329  25.244  1.00  0.00     0.059 A 
ATOM     44  F   UNL A   1      43.476  23.385  24.310  1.00  0.00    -0.206 F 
ATOM     45  C   UNL A   1      42.623  20.548  26.378  1.00  0.00     0.060 A 
BRANCH  45  46
ATOM     46  S   UNL A   1      42.334  18.775  26.220  1.00  0.00     0.124 S 
ATOM     47  O   UNL A   1      43.353  18.404  25.243  1.00  0.00    -0.237 OA
ATOM     48  O   UNL A   1      42.560  18.299  27.581  1.00  0.00    -0.237 OA
ATOM     49  O   UNL A   1      40.955  18.699  25.752  1.00  0.00    -0.744 OA
ENDBRANCH  45  46
ENDBRANCH  24  38
BRANCH  25  50
ATOM     50  C   UNL A   1      46.508  32.618  28.557  1.00  0.00     0.058 A 
ATOM     51  C   UNL A   1      47.038  32.970  29.811  1.00  0.00     0.135 A 
ATOM     52  C   UNL A   1      46.471  33.625  27.578  1.00  0.00     0.135 A 
ATOM     53  F   UNL A   1      47.095  32.055  30.792  1.00  0.00    -0.206 F 
ATOM     54  C   UNL A   1      47.511  34.253  30.083  1.00  0.00     0.059 A 
ATOM     55  C   UNL A   1      46.962  34.909  27.815  1.00  0.00     0.059 A 
ATOM     56  F   UNL A   1      45.986  33.353  26.357  1.00  0.00    -0.206 F 
ATOM     57  C   UNL A   1      47.476  35.217  29.074  1.00  0.00     0.060 A 
BRANCH  57  58
ATOM     58  S   UNL A   1      48.149  36.863  29.413  1.00  0.00     0.124 S 
ATOM     59  O   UNL A   1      47.031  37.503  30.095  1.00  0.00    -0.237 OA
ATOM     60  O   UNL A   1      49.311  36.557  30.241  1.00  0.00    -0.237 OA
ATOM     61  O   UNL A   1      48.454  37.379  28.082  1.00  0.00    -0.744 OA
ENDBRANCH  57  58
ENDBRANCH  25  50
BRANCH  37  62
ATOM     62  C   UNL A   1      49.614  26.704  26.472  1.00  0.00     0.058 A 
ATOM     63  C   UNL A   1      50.443  26.048  27.392  1.00  0.00     0.135 A 
ATOM     64  C   UNL A   1      50.096  26.926  25.174  1.00  0.00     0.135 A 
ATOM     65  F   UNL A   1      50.025  25.836  28.651  1.00  0.00    -0.206 F 
ATOM     66  C   UNL A   1      51.706  25.603  27.028  1.00  0.00     0.059 A 
ATOM     67  C   UNL A   1      51.344  26.466  24.781  1.00  0.00     0.059 A 
ATOM     68  F   UNL A   1      49.331  27.554  24.267  1.00  0.00    -0.206 F 
ATOM     69  C   UNL A   1      52.138  25.799  25.714  1.00  0.00     0.060 A 
BRANCH  69  70
ATOM     70  S   UNL A   1      53.726  25.105  25.219  1.00  0.00     0.124 S 
ATOM     71  O   UNL A   1      54.617  25.656  26.235  1.00  0.00    -0.237 OA
ATOM     72  O   UNL A   1      53.475  23.670  25.303  1.00  0.00    -0.237 OA
ATOM     73  O   UNL A   1      53.915  25.624  23.867  1.00  0.00    -0.744 OA
ENDBRANCH  69  70
ENDBRANCH  37  62
ENDBRANCH  11  12
ENDBRANCH   4   6
ENDBRANCH   3   4
ENDBRANCH   2   3
ENDBRANCH   1   2
BRANCH   1  74
ATOM     74  O   UNL A   1      33.134  28.748  26.289  1.00  0.00    -0.462 OA
BRANCH  74  75
ATOM     75  C   UNL A   1      32.859  27.420  26.462  1.00  0.00     0.311 C 
ATOM     76  O   UNL A   1      31.898  27.013  27.086  1.00  0.00    -0.252 OA
BRANCH  75  77
ATOM     77  C   UNL A   1      33.806  26.521  25.658  1.00  0.00     0.130 C 
ATOM     78  C   UNL A   1      33.824  26.994  24.207  1.00  0.00     0.028 C 
ATOM     79  C   UNL A   1      33.494  25.007  25.680  1.00  0.00     0.166 C 
ATOM     80  C   UNL A   1      32.571  26.568  23.455  1.00  0.00     0.101 C 
ATOM     81  N   UNL A   1      32.193  24.685  25.088  1.00  0.00    -0.332 N 
ATOM     82  C   UNL A   1      31.685  25.485  24.064  1.00  0.00     0.223 C 
ATOM     83  O   UNL A   1      30.540  25.345  23.625  1.00  0.00    -0.275 OA
BRANCH  79  84
ATOM     84  C   UNL A   1      34.589  24.233  24.954  1.00  0.00     0.127 A 
ATOM     85  C   UNL A   1      35.919  23.959  25.241  1.00  0.00     0.048 A 
ATOM     86  O   UNL A   1      34.259  23.610  23.782  1.00  0.00    -0.467 OA
ATOM     87  C   UNL A   1      36.389  23.075  24.241  1.00  0.00     0.042 A 
ATOM     88  C   UNL A   1      35.348  22.916  23.362  1.00  0.00     0.195 A 
ENDBRANCH  79  84
BRANCH  81  89
ATOM     89  C   UNL A   1      31.311  23.572  25.551  1.00  0.00     0.122 C 
BRANCH  89  90
ATOM     90  C   UNL A   1      31.769  22.163  25.997  1.00  0.00     0.050 C 
BRANCH  90  91
ATOM     91  C   UNL A   1      32.364  21.110  25.056  1.00  0.00     0.162 C 
BRANCH  91  92
ATOM     92  O   UNL A   1      31.878  19.772  25.097  1.00  0.00    -0.378 OA
BRANCH  92  93
ATOM     93  C   UNL A   1      32.897  18.800  25.353  1.00  0.00     0.118 C 
ATOM     94  C   UNL A   1      32.261  17.464  25.026  1.00  0.00     0.032 C 
ATOM     95  C   UNL A   1      34.148  19.111  24.521  1.00  0.00     0.032 C 
ATOM     96  C   UNL A   1      33.214  16.329  24.800  1.00  0.00     0.003 C 
ATOM     97  C   UNL A   1      35.075  17.902  24.380  1.00  0.00     0.003 C 
ATOM     98  C   UNL A   1      34.313  16.700  23.834  1.00  0.00     0.000 C 
ENDBRANCH  92  93
ENDBRANCH  91  92
ENDBRANCH  90  91
ENDBRANCH  89  90
ENDBRANCH  81  89
ENDBRANCH  75  77
ENDBRANCH  74  75
ENDBRANCH   1  74
TORSDOF 20
ENDMDL
