MODEL 1
REMARK VINA RESULT:      -9.4      0.000      0.000
REMARK SMILES CCC([NH3+])(CC)C(=O)N(CCC(=O)OCCOC(=O)c1ccc(-c2c3nc(c(-c4c(F)cc(S(=O)(=O)[O-])cc4F)c4ccc([nH]4)c(-c4c(F)cc(S(=O)(=O)[O-])cc4F)c4nc(c(-c5c(F)cc(S(=O)(=O)[O-])cc5F)c5ccc2[nH]5)C=C4)C=C3)cc1)C(C)C
REMARK SMILES IDX 15 1 14 2 12 3 13 4 11 5 10 6 9 7 7 8 8 9 3 10 2 11 1 12
REMARK SMILES IDX 4 13 5 17 6 18 86 19 87 20 88 21 16 22 17 23 18 24 19 25
REMARK SMILES IDX 20 26 21 27 85 28 22 29 84 30 23 31 24 32 25 33 78 34 26 35
REMARK SMILES IDX 83 36 77 37 79 38 27 39 82 40 76 41 75 42 28 44 62 45 41 46
REMARK SMILES IDX 61 47 42 48 45 49 60 50 80 51 43 52 44 53 59 55 81 56 46 57
REMARK SMILES IDX 29 58 30 59 39 60 31 61 32 62 38 63 40 64 33 65 34 66 35 67
REMARK SMILES IDX 36 68 37 69 63 70 64 71 73 72 65 73 66 74 72 75 74 76 67 77
REMARK SMILES IDX 68 78 69 79 70 80 71 81 47 82 48 83 57 84 49 85 50 86 56 87
REMARK SMILES IDX 58 88 51 89 52 90 53 91 54 92 55 93
REMARK H PARENT 4 14 4 15 4 16 79 43 45 54
REMARK Flexibility Score: inf
ROOT
ATOM      1  C   UNL A   1      33.977  31.228  27.571  1.00  0.00     0.274 C 
ENDROOT
BRANCH   1   2
ATOM      2  O   UNL A   1      34.021  29.793  27.443  1.00  0.00    -0.462 OA
BRANCH   2   3
ATOM      3  C   UNL A   1      32.887  29.154  27.070  1.00  0.00     0.307 C 
ATOM      4  O   UNL A   1      31.762  29.627  27.143  1.00  0.00    -0.252 OA
BRANCH   3   5
ATOM      5  C   UNL A   1      33.171  27.753  26.579  1.00  0.00     0.144 C 
BRANCH   5   6
ATOM      6  C   UNL A   1      34.007  27.697  25.297  1.00  0.00     0.131 C 
BRANCH   6   7
ATOM      7  N   UNL A   1      33.220  27.452  24.075  1.00  0.00    -0.334 N 
BRANCH   7   8
ATOM      8  C   UNL A   1      32.448  28.386  23.376  1.00  0.00     0.284 C 
ATOM      9  O   UNL A   1      32.976  29.049  22.474  1.00  0.00    -0.268 OA
BRANCH   8  10
ATOM     10  C   UNL A   1      30.927  28.650  23.712  1.00  0.00     0.173 C 
BRANCH  10  11
ATOM     11  C   UNL A   1      30.103  28.693  22.379  1.00  0.00     0.075 C 
ATOM     12  C   UNL A   1      29.698  30.079  21.869  1.00  0.00     0.011 C 
ENDBRANCH  10  11
BRANCH  10  13
ATOM     13  N   UNL A   1      30.755  29.980  24.346  1.00  0.00    -0.345 N 
ATOM     14  H   UNL A   1      31.612  30.239  24.833  1.00  0.00     0.345 HD
ATOM     15  H   UNL A   1      29.983  29.943  25.012  1.00  0.00     0.345 HD
ATOM     16  H   UNL A   1      30.549  30.675  23.627  1.00  0.00     0.345 HD
ENDBRANCH  10  13
BRANCH  10  17
ATOM     17  C   UNL A   1      30.307  27.556  24.619  1.00  0.00     0.075 C 
ATOM     18  C   UNL A   1      29.576  26.447  23.867  1.00  0.00     0.011 C 
ENDBRANCH  10  17
ENDBRANCH   8  10
ENDBRANCH   7   8
BRANCH   7  19
ATOM     19  C   UNL A   1      33.158  26.036  23.641  1.00  0.00     0.079 C 
ATOM     20  C   UNL A   1      33.254  25.870  22.122  1.00  0.00     0.031 C 
ATOM     21  C   UNL A   1      34.155  25.137  24.377  1.00  0.00     0.031 C 
ENDBRANCH   7  19
ENDBRANCH   6   7
ENDBRANCH   5   6
ENDBRANCH   3   5
ENDBRANCH   2   3
ENDBRANCH   1   2
BRANCH   1  22
ATOM     22  C   UNL A   1      34.932  31.709  28.666  1.00  0.00     0.275 C 
BRANCH  22  23
ATOM     23  O   UNL A   1      35.633  30.593  29.242  1.00  0.00    -0.458 OA
BRANCH  23  24
ATOM     24  C   UNL A   1      36.545  30.894  30.195  1.00  0.00     0.338 C 
ATOM     25  O   UNL A   1      36.333  31.367  31.297  1.00  0.00    -0.246 OA
BRANCH  24  26
ATOM     26  C   UNL A   1      37.862  30.404  29.759  1.00  0.00     0.060 A 
ATOM     27  C   UNL A   1      38.866  30.257  30.719  1.00  0.00     0.016 A 
ATOM     28  C   UNL A   1      38.113  30.117  28.416  1.00  0.00     0.016 A 
ATOM     29  C   UNL A   1      40.128  29.808  30.343  1.00  0.00     0.010 A 
ATOM     30  C   UNL A   1      39.382  29.666  28.040  1.00  0.00     0.010 A 
ATOM     31  C   UNL A   1      40.396  29.512  29.001  1.00  0.00    -0.014 A 
BRANCH  31  32
ATOM     32  C   UNL A   1      41.756  29.071  28.611  1.00  0.00     0.031 A 
ATOM     33  C   UNL A   1      42.882  30.064  28.577  1.00  0.00     0.074 A 
ATOM     34  C   UNL A   1      41.977  27.775  28.322  1.00  0.00     0.049 A 
ATOM     35  N   UNL A   1      44.130  29.884  28.235  1.00  0.00    -0.248 NA
ATOM     36  C   UNL A   1      42.560  31.441  28.982  1.00  0.00     0.031 C 
ATOM     37  C   UNL A   1      40.962  26.721  28.342  1.00  0.00     0.029 A 
ATOM     38  N   UNL A   1      43.127  27.124  27.953  1.00  0.00    -0.354 N 
ATOM     39  C   UNL A   1      44.747  31.121  28.385  1.00  0.00     0.074 A 
ATOM     40  C   UNL A   1      43.725  32.052  28.816  1.00  0.00     0.031 C 
ATOM     41  C   UNL A   1      41.533  25.555  27.995  1.00  0.00     0.029 A 
ATOM     42  C   UNL A   1      42.943  25.785  27.697  1.00  0.00     0.049 A 
ATOM     43  H   UNL A   1      44.000  27.572  27.878  1.00  0.00     0.167 HD
ATOM     44  C   UNL A   1      46.048  31.446  28.192  1.00  0.00     0.037 A 
ATOM     45  C   UNL A   1      43.811  24.856  27.251  1.00  0.00     0.037 A 
ATOM     46  C   UNL A   1      47.056  30.513  27.757  1.00  0.00     0.049 A 
ATOM     47  C   UNL A   1      45.242  25.253  27.004  1.00  0.00     0.074 A 
ATOM     48  C   UNL A   1      48.400  30.744  27.517  1.00  0.00     0.029 A 
ATOM     49  N   UNL A   1      46.832  29.167  27.500  1.00  0.00    -0.354 N 
ATOM     50  N   UNL A   1      45.809  26.428  27.148  1.00  0.00    -0.248 NA
ATOM     51  C   UNL A   1      46.153  24.199  26.540  1.00  0.00     0.031 C 
ATOM     52  C   UNL A   1      48.981  29.547  27.082  1.00  0.00     0.029 A 
ATOM     53  C   UNL A   1      48.009  28.559  27.095  1.00  0.00     0.049 A 
ATOM     54  H   UNL A   1      45.964  28.712  27.593  1.00  0.00     0.167 HD
ATOM     55  C   UNL A   1      47.145  26.250  26.807  1.00  0.00     0.074 A 
ATOM     56  C   UNL A   1      47.307  24.850  26.474  1.00  0.00     0.031 C 
ATOM     57  C   UNL A   1      48.148  27.163  26.765  1.00  0.00     0.037 A 
BRANCH  44  58
ATOM     58  C   UNL A   1      46.453  32.870  28.444  1.00  0.00     0.058 A 
ATOM     59  C   UNL A   1      46.921  33.289  29.699  1.00  0.00     0.135 A 
ATOM     60  C   UNL A   1      46.413  33.820  27.410  1.00  0.00     0.135 A 
ATOM     61  F   UNL A   1      46.961  32.428  30.728  1.00  0.00    -0.206 F 
ATOM     62  C   UNL A   1      47.318  34.603  29.927  1.00  0.00     0.059 A 
ATOM     63  C   UNL A   1      46.828  35.135  27.609  1.00  0.00     0.059 A 
ATOM     64  F   UNL A   1      45.970  33.475  26.191  1.00  0.00    -0.206 F 
ATOM     65  C   UNL A   1      47.269  35.519  28.875  1.00  0.00     0.060 A 
BRANCH  65  66
ATOM     66  S   UNL A   1      47.801  37.217  29.182  1.00  0.00     0.124 S 
ATOM     67  O   UNL A   1      46.530  37.933  29.133  1.00  0.00    -0.237 OA
ATOM     68  O   UNL A   1      48.421  37.115  30.500  1.00  0.00    -0.237 OA
ATOM     69  O   UNL A   1      48.718  37.491  28.081  1.00  0.00    -0.744 OA
ENDBRANCH  65  66
ENDBRANCH  44  58
BRANCH  45  70
ATOM     70  C   UNL A   1      43.346  23.469  26.985  1.00  0.00     0.058 A 
ATOM     71  C   UNL A   1      43.129  23.009  25.678  1.00  0.00     0.135 A 
ATOM     72  C   UNL A   1      43.101  22.576  28.040  1.00  0.00     0.135 A 
ATOM     73  F   UNL A   1      43.342  23.826  24.636  1.00  0.00    -0.206 F 
ATOM     74  C   UNL A   1      42.662  21.722  25.426  1.00  0.00     0.059 A 
ATOM     75  C   UNL A   1      42.661  21.277  27.813  1.00  0.00     0.059 A 
ATOM     76  F   UNL A   1      43.307  22.962  29.309  1.00  0.00    -0.206 F 
ATOM     77  C   UNL A   1      42.429  20.863  26.502  1.00  0.00     0.060 A 
BRANCH  77  78
ATOM     78  S   UNL A   1      41.854  19.185  26.168  1.00  0.00     0.124 S 
ATOM     79  O   UNL A   1      42.652  18.829  25.000  1.00  0.00    -0.237 OA
ATOM     80  O   UNL A   1      42.189  18.490  27.407  1.00  0.00    -0.237 OA
ATOM     81  O   UNL A   1      40.425  19.363  25.926  1.00  0.00    -0.744 OA
ENDBRANCH  77  78
ENDBRANCH  45  70
BRANCH  57  82
ATOM     82  C   UNL A   1      49.509  26.664  26.367  1.00  0.00     0.058 A 
ATOM     83  C   UNL A   1      50.351  26.013  27.283  1.00  0.00     0.135 A 
ATOM     84  C   UNL A   1      49.969  26.821  25.049  1.00  0.00     0.135 A 
ATOM     85  F   UNL A   1      49.960  25.842  28.555  1.00  0.00    -0.206 F 
ATOM     86  C   UNL A   1      51.618  25.570  26.916  1.00  0.00     0.059 A 
ATOM     87  C   UNL A   1      51.221  26.361  24.653  1.00  0.00     0.059 A 
ATOM     88  F   UNL A   1      49.197  27.425  24.131  1.00  0.00    -0.206 F 
ATOM     89  C   UNL A   1      52.046  25.753  25.599  1.00  0.00     0.060 A 
BRANCH  89  90
ATOM     90  S   UNL A   1      53.689  25.171  25.133  1.00  0.00     0.124 S 
ATOM     91  O   UNL A   1      53.569  23.736  25.366  1.00  0.00    -0.237 OA
ATOM     92  O   UNL A   1      53.784  25.581  23.736  1.00  0.00    -0.237 OA
ATOM     93  O   UNL A   1      54.574  25.884  26.050  1.00  0.00    -0.744 OA
ENDBRANCH  89  90
ENDBRANCH  57  82
ENDBRANCH  31  32
ENDBRANCH  24  26
ENDBRANCH  23  24
ENDBRANCH  22  23
ENDBRANCH   1  22
TORSDOF 22
ENDMDL
MODEL 2
REMARK VINA RESULT:      -9.2      3.226      4.300
REMARK SMILES CCC([NH3+])(CC)C(=O)N(CCC(=O)OCCOC(=O)c1ccc(-c2c3nc(c(-c4c(F)cc(S(=O)(=O)[O-])cc4F)c4ccc([nH]4)c(-c4c(F)cc(S(=O)(=O)[O-])cc4F)c4nc(c(-c5c(F)cc(S(=O)(=O)[O-])cc5F)c5ccc2[nH]5)C=C4)C=C3)cc1)C(C)C
REMARK SMILES IDX 15 1 14 2 12 3 13 4 11 5 10 6 9 7 7 8 8 9 3 10 2 11 1 12
REMARK SMILES IDX 4 13 5 17 6 18 86 19 87 20 88 21 16 22 17 23 18 24 19 25
REMARK SMILES IDX 20 26 21 27 85 28 22 29 84 30 23 31 24 32 25 33 78 34 26 35
REMARK SMILES IDX 83 36 77 37 79 38 27 39 82 40 76 41 75 42 28 44 62 45 41 46
REMARK SMILES IDX 61 47 42 48 45 49 60 50 80 51 43 52 44 53 59 55 81 56 46 57
REMARK SMILES IDX 29 58 30 59 39 60 31 61 32 62 38 63 40 64 33 65 34 66 35 67
REMARK SMILES IDX 36 68 37 69 63 70 64 71 73 72 65 73 66 74 72 75 74 76 67 77
REMARK SMILES IDX 68 78 69 79 70 80 71 81 47 82 48 83 57 84 49 85 50 86 56 87
REMARK SMILES IDX 58 88 51 89 52 90 53 91 54 92 55 93
REMARK H PARENT 4 14 4 15 4 16 79 43 45 54
REMARK Flexibility Score: inf
ROOT
ATOM      1  C   UNL A   1      32.980  28.647  24.791  1.00  0.00     0.274 C 
ENDROOT
BRANCH   1   2
ATOM      2  O   UNL A   1      32.152  27.595  25.324  1.00  0.00    -0.462 OA
BRANCH   2   3
ATOM      3  C   UNL A   1      31.958  26.492  24.562  1.00  0.00     0.307 C 
ATOM      4  O   UNL A   1      30.918  25.850  24.516  1.00  0.00    -0.252 OA
BRANCH   3   5
ATOM      5  C   UNL A   1      33.203  26.119  23.791  1.00  0.00     0.144 C 
BRANCH   5   6
ATOM      6  C   UNL A   1      34.115  25.127  24.519  1.00  0.00     0.131 C 
BRANCH   6   7
ATOM      7  N   UNL A   1      34.296  23.846  23.812  1.00  0.00    -0.334 N 
BRANCH   7   8
ATOM      8  C   UNL A   1      33.448  23.298  22.845  1.00  0.00     0.284 C 
ATOM      9  O   UNL A   1      33.707  23.473  21.647  1.00  0.00    -0.268 OA
BRANCH   8  10
ATOM     10  C   UNL A   1      32.150  22.480  23.221  1.00  0.00     0.173 C 
BRANCH  10  11
ATOM     11  C   UNL A   1      32.000  21.266  22.241  1.00  0.00     0.075 C 
ATOM     12  C   UNL A   1      32.194  19.871  22.842  1.00  0.00     0.011 C 
ENDBRANCH  10  11
BRANCH  10  13
ATOM     13  N   UNL A   1      30.935  23.313  23.035  1.00  0.00    -0.345 N 
ATOM     14  H   UNL A   1      30.319  22.868  22.355  1.00  0.00     0.345 HD
ATOM     15  H   UNL A   1      31.204  24.237  22.698  1.00  0.00     0.345 HD
ATOM     16  H   UNL A   1      30.447  23.405  23.927  1.00  0.00     0.345 HD
ENDBRANCH  10  13
BRANCH  10  17
ATOM     17  C   UNL A   1      32.182  21.921  24.667  1.00  0.00     0.075 C 
ATOM     18  C   UNL A   1      31.313  22.684  25.663  1.00  0.00     0.011 C 
ENDBRANCH  10  17
ENDBRANCH   8  10
ENDBRANCH   7   8
BRANCH   7  19
ATOM     19  C   UNL A   1      35.433  23.021  24.288  1.00  0.00     0.079 C 
ATOM     20  C   UNL A   1      36.611  23.003  23.309  1.00  0.00     0.031 C 
ATOM     21  C   UNL A   1      35.878  23.373  25.709  1.00  0.00     0.031 C 
ENDBRANCH   7  19
ENDBRANCH   6   7
ENDBRANCH   5   6
ENDBRANCH   3   5
ENDBRANCH   2   3
ENDBRANCH   1   2
BRANCH   1  22
ATOM     22  C   UNL A   1      33.208  29.744  25.834  1.00  0.00     0.275 C 
BRANCH  22  23
ATOM     23  O   UNL A   1      34.116  29.286  26.850  1.00  0.00    -0.458 OA
BRANCH  23  24
ATOM     24  C   UNL A   1      34.540  30.220  27.731  1.00  0.00     0.338 C 
ATOM     25  O   UNL A   1      33.875  31.093  28.260  1.00  0.00    -0.246 OA
BRANCH  24  26
ATOM     26  C   UNL A   1      35.935  29.925  28.097  1.00  0.00     0.060 A 
ATOM     27  C   UNL A   1      36.910  29.990  27.099  1.00  0.00     0.016 A 
ATOM     28  C   UNL A   1      36.274  29.565  29.403  1.00  0.00     0.016 A 
ATOM     29  C   UNL A   1      38.237  29.707  27.404  1.00  0.00     0.010 A 
ATOM     30  C   UNL A   1      37.608  29.280  29.707  1.00  0.00     0.010 A 
ATOM     31  C   UNL A   1      38.596  29.346  28.709  1.00  0.00    -0.014 A 
BRANCH  31  32
ATOM     32  C   UNL A   1      40.007  29.010  29.010  1.00  0.00     0.031 A 
ATOM     33  C   UNL A   1      40.894  30.028  29.667  1.00  0.00     0.074 A 
ATOM     34  C   UNL A   1      40.474  27.780  28.721  1.00  0.00     0.049 A 
ATOM     35  N   UNL A   1      42.159  29.940  29.984  1.00  0.00    -0.248 NA
ATOM     36  C   UNL A   1      40.274  31.317  30.013  1.00  0.00     0.031 C 
ATOM     37  C   UNL A   1      39.696  26.707  28.101  1.00  0.00     0.029 A 
ATOM     38  N   UNL A   1      41.715  27.227  28.910  1.00  0.00    -0.354 N 
ATOM     39  C   UNL A   1      42.490  31.156  30.569  1.00  0.00     0.074 A 
ATOM     40  C   UNL A   1      41.300  31.979  30.531  1.00  0.00     0.031 C 
ATOM     41  C   UNL A   1      40.479  25.626  27.955  1.00  0.00     0.029 A 
ATOM     42  C   UNL A   1      41.820  25.939  28.440  1.00  0.00     0.049 A 
ATOM     43  H   UNL A   1      42.459  27.707  29.340  1.00  0.00     0.167 HD
ATOM     44  C   UNL A   1      43.674  31.544  31.100  1.00  0.00     0.037 A 
ATOM     45  C   UNL A   1      42.885  25.115  28.387  1.00  0.00     0.037 A 
ATOM     46  C   UNL A   1      44.855  30.718  31.127  1.00  0.00     0.049 A 
ATOM     47  C   UNL A   1      44.201  25.586  28.946  1.00  0.00     0.074 A 
ATOM     48  C   UNL A   1      46.109  31.022  31.628  1.00  0.00     0.029 A 
ATOM     49  N   UNL A   1      44.926  29.422  30.635  1.00  0.00    -0.354 N 
ATOM     50  N   UNL A   1      44.498  26.741  29.493  1.00  0.00    -0.248 NA
ATOM     51  C   UNL A   1      45.325  24.642  28.884  1.00  0.00     0.031 C 
ATOM     52  C   UNL A   1      46.948  29.923  31.408  1.00  0.00     0.029 A 
ATOM     53  C   UNL A   1      46.205  28.918  30.812  1.00  0.00     0.049 A 
ATOM     54  H   UNL A   1      44.179  28.933  30.222  1.00  0.00     0.167 HD
ATOM     55  C   UNL A   1      45.838  26.656  29.856  1.00  0.00     0.074 A 
ATOM     56  C   UNL A   1      46.286  25.329  29.487  1.00  0.00     0.031 C 
ATOM     57  C   UNL A   1      46.631  27.593  30.435  1.00  0.00     0.037 A 
BRANCH  44  58
ATOM     58  C   UNL A   1      43.754  32.924  31.688  1.00  0.00     0.058 A 
ATOM     59  C   UNL A   1      43.469  33.161  33.042  1.00  0.00     0.135 A 
ATOM     60  C   UNL A   1      44.157  34.016  30.902  1.00  0.00     0.135 A 
ATOM     61  F   UNL A   1      43.060  32.158  33.834  1.00  0.00    -0.206 F 
ATOM     62  C   UNL A   1      43.565  34.436  33.593  1.00  0.00     0.059 A 
ATOM     63  C   UNL A   1      44.282  35.295  31.438  1.00  0.00     0.059 A 
ATOM     64  F   UNL A   1      44.436  33.845  29.601  1.00  0.00    -0.206 F 
ATOM     65  C   UNL A   1      43.973  35.497  32.783  1.00  0.00     0.060 A 
BRANCH  65  66
ATOM     66  S   UNL A   1      44.106  37.142  33.516  1.00  0.00     0.124 S 
ATOM     67  O   UNL A   1      43.595  37.983  32.438  1.00  0.00    -0.237 OA
ATOM     68  O   UNL A   1      43.248  37.028  34.692  1.00  0.00    -0.237 OA
ATOM     69  O   UNL A   1      45.532  37.276  33.794  1.00  0.00    -0.744 OA
ENDBRANCH  65  66
ENDBRANCH  44  58
BRANCH  45  70
ATOM     70  C   UNL A   1      42.757  23.772  27.761  1.00  0.00     0.058 A 
ATOM     71  C   UNL A   1      42.477  22.632  28.528  1.00  0.00     0.135 A 
ATOM     72  C   UNL A   1      42.925  23.603  26.378  1.00  0.00     0.135 A 
ATOM     73  F   UNL A   1      42.316  22.739  29.855  1.00  0.00    -0.206 F 
ATOM     74  C   UNL A   1      42.390  21.368  27.951  1.00  0.00     0.059 A 
ATOM     75  C   UNL A   1      42.815  22.355  25.774  1.00  0.00     0.059 A 
ATOM     76  F   UNL A   1      43.181  24.664  25.597  1.00  0.00    -0.206 F 
ATOM     77  C   UNL A   1      42.563  21.240  26.571  1.00  0.00     0.060 A 
BRANCH  77  78
ATOM     78  S   UNL A   1      42.418  19.604  25.823  1.00  0.00     0.124 S 
ATOM     79  O   UNL A   1      43.332  19.717  24.692  1.00  0.00    -0.237 OA
ATOM     80  O   UNL A   1      42.848  18.728  26.908  1.00  0.00    -0.237 OA
ATOM     81  O   UNL A   1      41.000  19.516  25.483  1.00  0.00    -0.744 OA
ENDBRANCH  77  78
ENDBRANCH  45  70
BRANCH  57  82
ATOM     82  C   UNL A   1      48.053  27.200  30.723  1.00  0.00     0.058 A 
ATOM     83  C   UNL A   1      48.400  26.491  31.884  1.00  0.00     0.135 A 
ATOM     84  C   UNL A   1      49.078  27.522  29.819  1.00  0.00     0.135 A 
ATOM     85  F   UNL A   1      47.458  26.164  32.782  1.00  0.00    -0.206 F 
ATOM     86  C   UNL A   1      49.720  26.147  32.156  1.00  0.00     0.059 A 
ATOM     87  C   UNL A   1      50.401  27.163  30.058  1.00  0.00     0.059 A 
ATOM     88  F   UNL A   1      48.798  28.188  28.687  1.00  0.00    -0.206 F 
ATOM     89  C   UNL A   1      50.714  26.491  31.239  1.00  0.00     0.060 A 
BRANCH  89  90
ATOM     90  S   UNL A   1      52.423  26.036  31.601  1.00  0.00     0.124 S 
ATOM     91  O   UNL A   1      52.832  27.117  32.493  1.00  0.00    -0.237 OA
ATOM     92  O   UNL A   1      52.275  24.724  32.222  1.00  0.00    -0.237 OA
ATOM     93  O   UNL A   1      53.059  26.032  30.287  1.00  0.00    -0.744 OA
ENDBRANCH  89  90
ENDBRANCH  57  82
ENDBRANCH  31  32
ENDBRANCH  24  26
ENDBRANCH  23  24
ENDBRANCH  22  23
ENDBRANCH   1  22
TORSDOF 22
ENDMDL
MODEL 3
REMARK VINA RESULT:      -9.2      3.099      4.357
REMARK SMILES CCC([NH3+])(CC)C(=O)N(CCC(=O)OCCOC(=O)c1ccc(-c2c3nc(c(-c4c(F)cc(S(=O)(=O)[O-])cc4F)c4ccc([nH]4)c(-c4c(F)cc(S(=O)(=O)[O-])cc4F)c4nc(c(-c5c(F)cc(S(=O)(=O)[O-])cc5F)c5ccc2[nH]5)C=C4)C=C3)cc1)C(C)C
REMARK SMILES IDX 15 1 14 2 12 3 13 4 11 5 10 6 9 7 7 8 8 9 3 10 2 11 1 12
REMARK SMILES IDX 4 13 5 17 6 18 86 19 87 20 88 21 16 22 17 23 18 24 19 25
REMARK SMILES IDX 20 26 21 27 85 28 22 29 84 30 23 31 24 32 25 33 78 34 26 35
REMARK SMILES IDX 83 36 77 37 79 38 27 39 82 40 76 41 75 42 28 44 62 45 41 46
REMARK SMILES IDX 61 47 42 48 45 49 60 50 80 51 43 52 44 53 59 55 81 56 46 57
REMARK SMILES IDX 29 58 30 59 39 60 31 61 32 62 38 63 40 64 33 65 34 66 35 67
REMARK SMILES IDX 36 68 37 69 63 70 64 71 73 72 65 73 66 74 72 75 74 76 67 77
REMARK SMILES IDX 68 78 69 79 70 80 71 81 47 82 48 83 57 84 49 85 50 86 56 87
REMARK SMILES IDX 58 88 51 89 52 90 53 91 54 92 55 93
REMARK H PARENT 4 14 4 15 4 16 79 43 45 54
REMARK Flexibility Score: inf
ROOT
ATOM      1  C   UNL A   1      32.728  28.627  25.407  1.00  0.00     0.274 C 
ENDROOT
BRANCH   1   2
ATOM      2  O   UNL A   1      31.687  27.645  25.232  1.00  0.00    -0.462 OA
BRANCH   2   3
ATOM      3  C   UNL A   1      31.760  26.505  25.958  1.00  0.00     0.307 C 
ATOM      4  O   UNL A   1      30.900  26.113  26.733  1.00  0.00    -0.252 OA
BRANCH   3   5
ATOM      5  C   UNL A   1      33.063  25.775  25.722  1.00  0.00     0.144 C 
BRANCH   5   6
ATOM      6  C   UNL A   1      33.069  24.328  26.223  1.00  0.00     0.131 C 
BRANCH   6   7
ATOM      7  N   UNL A   1      33.519  23.346  25.220  1.00  0.00    -0.334 N 
BRANCH   7   8
ATOM      8  C   UNL A   1      34.816  23.194  24.722  1.00  0.00     0.284 C 
ATOM      9  O   UNL A   1      35.141  23.796  23.689  1.00  0.00    -0.268 OA
BRANCH   8  10
ATOM     10  C   UNL A   1      35.885  22.258  25.412  1.00  0.00     0.173 C 
BRANCH  10  11
ATOM     11  C   UNL A   1      35.880  20.858  24.707  1.00  0.00     0.075 C 
ATOM     12  C   UNL A   1      37.081  19.948  24.980  1.00  0.00     0.011 C 
ENDBRANCH  10  11
BRANCH  10  13
ATOM     13  N   UNL A   1      35.523  22.007  26.829  1.00  0.00    -0.345 N 
ATOM     14  H   UNL A   1      36.101  21.252  27.200  1.00  0.00     0.345 HD
ATOM     15  H   UNL A   1      34.540  21.743  26.888  1.00  0.00     0.345 HD
ATOM     16  H   UNL A   1      35.681  22.855  27.375  1.00  0.00     0.345 HD
ENDBRANCH  10  13
BRANCH  10  17
ATOM     17  C   UNL A   1      37.327  22.823  25.334  1.00  0.00     0.075 C 
ATOM     18  C   UNL A   1      37.561  24.083  26.162  1.00  0.00     0.011 C 
ENDBRANCH  10  17
ENDBRANCH   8  10
ENDBRANCH   7   8
BRANCH   7  19
ATOM     19  C   UNL A   1      32.439  22.538  24.604  1.00  0.00     0.079 C 
ATOM     20  C   UNL A   1      32.200  21.208  25.325  1.00  0.00     0.031 C 
ATOM     21  C   UNL A   1      31.139  23.321  24.407  1.00  0.00     0.031 C 
ENDBRANCH   7  19
ENDBRANCH   6   7
ENDBRANCH   5   6
ENDBRANCH   3   5
ENDBRANCH   2   3
ENDBRANCH   1   2
BRANCH   1  22
ATOM     22  C   UNL A   1      32.664  29.249  26.804  1.00  0.00     0.275 C 
BRANCH  22  23
ATOM     23  O   UNL A   1      33.914  29.063  27.490  1.00  0.00    -0.458 OA
BRANCH  23  24
ATOM     24  C   UNL A   1      34.469  30.175  28.022  1.00  0.00     0.338 C 
ATOM     25  O   UNL A   1      33.901  31.203  28.345  1.00  0.00    -0.246 OA
BRANCH  24  26
ATOM     26  C   UNL A   1      35.885  29.901  28.317  1.00  0.00     0.060 A 
ATOM     27  C   UNL A   1      36.813  30.018  27.279  1.00  0.00     0.016 A 
ATOM     28  C   UNL A   1      36.290  29.510  29.594  1.00  0.00     0.016 A 
ATOM     29  C   UNL A   1      38.158  29.756  27.516  1.00  0.00     0.010 A 
ATOM     30  C   UNL A   1      37.643  29.246  29.830  1.00  0.00     0.010 A 
ATOM     31  C   UNL A   1      38.583  29.365  28.791  1.00  0.00    -0.014 A 
BRANCH  31  32
ATOM     32  C   UNL A   1      40.013  29.052  29.018  1.00  0.00     0.031 A 
ATOM     33  C   UNL A   1      40.925  30.100  29.589  1.00  0.00     0.074 A 
ATOM     34  C   UNL A   1      40.476  27.819  28.742  1.00  0.00     0.049 A 
ATOM     35  N   UNL A   1      42.208  30.033  29.833  1.00  0.00    -0.248 NA
ATOM     36  C   UNL A   1      40.313  31.393  29.930  1.00  0.00     0.031 C 
ATOM     37  C   UNL A   1      39.675  26.718  28.203  1.00  0.00     0.029 A 
ATOM     38  N   UNL A   1      41.733  27.284  28.874  1.00  0.00    -0.354 N 
ATOM     39  C   UNL A   1      42.559  31.271  30.359  1.00  0.00     0.074 A 
ATOM     40  C   UNL A   1      41.359  32.082  30.366  1.00  0.00     0.031 C 
ATOM     41  C   UNL A   1      40.461  25.640  28.046  1.00  0.00     0.029 A 
ATOM     42  C   UNL A   1      41.825  25.982  28.440  1.00  0.00     0.049 A 
ATOM     43  H   UNL A   1      42.496  27.784  29.244  1.00  0.00     0.167 HD
ATOM     44  C   UNL A   1      43.768  31.687  30.806  1.00  0.00     0.037 A 
ATOM     45  C   UNL A   1      42.894  25.167  28.351  1.00  0.00     0.037 A 
ATOM     46  C   UNL A   1      44.957  30.874  30.789  1.00  0.00     0.049 A 
ATOM     47  C   UNL A   1      44.235  25.668  28.815  1.00  0.00     0.074 A 
ATOM     48  C   UNL A   1      46.235  31.207  31.205  1.00  0.00     0.029 A 
ATOM     49  N   UNL A   1      45.015  29.564  30.336  1.00  0.00    -0.354 N 
ATOM     50  N   UNL A   1      44.551  26.843  29.307  1.00  0.00    -0.248 NA
ATOM     51  C   UNL A   1      45.364  24.734  28.717  1.00  0.00     0.031 C 
ATOM     52  C   UNL A   1      47.072  30.109  30.971  1.00  0.00     0.029 A 
ATOM     53  C   UNL A   1      46.307  29.078  30.452  1.00  0.00     0.049 A 
ATOM     54  H   UNL A   1      44.250  29.055  29.984  1.00  0.00     0.167 HD
ATOM     55  C   UNL A   1      45.911  26.783  29.592  1.00  0.00     0.074 A 
ATOM     56  C   UNL A   1      46.351  25.449  29.240  1.00  0.00     0.031 C 
ATOM     57  C   UNL A   1      46.725  27.746  30.093  1.00  0.00     0.037 A 
BRANCH  44  58
ATOM     58  C   UNL A   1      43.866  33.086  31.344  1.00  0.00     0.058 A 
ATOM     59  C   UNL A   1      43.625  33.370  32.698  1.00  0.00     0.135 A 
ATOM     60  C   UNL A   1      44.244  34.151  30.510  1.00  0.00     0.135 A 
ATOM     61  F   UNL A   1      43.241  32.394  33.536  1.00  0.00    -0.206 F 
ATOM     62  C   UNL A   1      43.737  34.662  33.202  1.00  0.00     0.059 A 
ATOM     63  C   UNL A   1      44.385  35.448  30.997  1.00  0.00     0.059 A 
ATOM     64  F   UNL A   1      44.481  33.936  29.206  1.00  0.00    -0.206 F 
ATOM     65  C   UNL A   1      44.120  35.695  32.344  1.00  0.00     0.060 A 
BRANCH  65  66
ATOM     66  S   UNL A   1      44.276  37.363  33.016  1.00  0.00     0.124 S 
ATOM     67  O   UNL A   1      43.739  38.169  31.923  1.00  0.00    -0.237 OA
ATOM     68  O   UNL A   1      43.449  37.294  34.217  1.00  0.00    -0.237 OA
ATOM     69  O   UNL A   1      45.709  37.503  33.252  1.00  0.00    -0.744 OA
ENDBRANCH  65  66
ENDBRANCH  44  58
BRANCH  45  70
ATOM     70  C   UNL A   1      42.745  23.803  27.776  1.00  0.00     0.058 A 
ATOM     71  C   UNL A   1      42.781  23.586  26.391  1.00  0.00     0.135 A 
ATOM     72  C   UNL A   1      42.554  22.688  28.607  1.00  0.00     0.135 A 
ATOM     73  F   UNL A   1      42.953  24.620  25.555  1.00  0.00    -0.206 F 
ATOM     74  C   UNL A   1      42.609  22.316  25.847  1.00  0.00     0.059 A 
ATOM     75  C   UNL A   1      42.408  21.405  28.089  1.00  0.00     0.059 A 
ATOM     76  F   UNL A   1      42.526  22.839  29.940  1.00  0.00    -0.206 F 
ATOM     77  C   UNL A   1      42.421  21.231  26.707  1.00  0.00     0.060 A 
BRANCH  77  78
ATOM     78  S   UNL A   1      42.231  19.582  25.998  1.00  0.00     0.124 S 
ATOM     79  O   UNL A   1      43.154  19.640  24.870  1.00  0.00    -0.237 OA
ATOM     80  O   UNL A   1      42.628  18.720  27.106  1.00  0.00    -0.237 OA
ATOM     81  O   UNL A   1      40.813  19.529  25.651  1.00  0.00    -0.744 OA
ENDBRANCH  77  78
ENDBRANCH  45  70
BRANCH  57  82
ATOM     82  C   UNL A   1      48.167  27.376  30.308  1.00  0.00     0.058 A 
ATOM     83  C   UNL A   1      48.588  26.699  31.464  1.00  0.00     0.135 A 
ATOM     84  C   UNL A   1      49.135  27.687  29.340  1.00  0.00     0.135 A 
ATOM     85  F   UNL A   1      47.702  26.383  32.422  1.00  0.00    -0.206 F 
ATOM     86  C   UNL A   1      49.925  26.376  31.669  1.00  0.00     0.059 A 
ATOM     87  C   UNL A   1      50.473  27.349  29.511  1.00  0.00     0.059 A 
ATOM     88  F   UNL A   1      48.782  28.323  28.211  1.00  0.00    -0.206 F 
ATOM     89  C   UNL A   1      50.862  26.710  30.688  1.00  0.00     0.060 A 
BRANCH  89  90
ATOM     90  S   UNL A   1      52.594  26.283  30.963  1.00  0.00     0.124 S 
ATOM     91  O   UNL A   1      52.474  25.094  31.801  1.00  0.00    -0.237 OA
ATOM     92  O   UNL A   1      53.081  26.056  29.606  1.00  0.00    -0.237 OA
ATOM     93  O   UNL A   1      53.133  27.467  31.626  1.00  0.00    -0.744 OA
ENDBRANCH  89  90
ENDBRANCH  57  82
ENDBRANCH  31  32
ENDBRANCH  24  26
ENDBRANCH  23  24
ENDBRANCH  22  23
ENDBRANCH   1  22
TORSDOF 22
ENDMDL
