MODEL 1
REMARK VINA RESULT:     -12.3      0.000      0.000
REMARK SMILES Cc1ccc(Nc2c(Cl)cccc2Cl)c(CC(=O)OCCOC(=O)c2ccc(-c3c4nc(c(-c5c(F)cc(S(=O)(=O)[O-])cc5F)c5ccc([nH]5)c(-c5c(F)cc(S(=O)(=O)[O-])cc5F)c5nc(c(-c6c(F)cc(S(=O)(=O)[O-])cc6F)c6ccc3[nH]6)C=C5)C=C4)cc2)c1
REMARK SMILES IDX 20 1 19 2 17 3 18 4 16 5 15 6 1 7 2 8 3 9 91 10 4 11 5 12
REMARK SMILES IDX 6 13 7 15 8 16 13 17 9 18 10 19 12 20 14 21 11 22 21 23
REMARK SMILES IDX 22 24 23 25 24 26 25 27 26 28 90 29 27 30 89 31 28 32 29 33
REMARK SMILES IDX 30 34 83 35 31 36 88 37 82 38 84 39 32 40 87 41 81 42 80 43
REMARK SMILES IDX 33 45 67 46 46 47 66 48 47 49 50 50 65 51 85 52 48 53 49 54
REMARK SMILES IDX 64 56 86 57 51 58 34 59 35 60 44 61 36 62 37 63 43 64 45 65
REMARK SMILES IDX 38 66 39 67 40 68 41 69 42 70 68 71 69 72 78 73 70 74 71 75
REMARK SMILES IDX 77 76 79 77 72 78 73 79 74 80 75 81 76 82 52 83 53 84 62 85
REMARK SMILES IDX 54 86 55 87 61 88 63 89 56 90 57 91 58 92 59 93 60 94
REMARK H PARENT 6 14 84 44 50 55
REMARK Flexibility Score: inf
ROOT
ATOM      1  C   UNL A   1      32.850  28.946  27.079  1.00  0.00     0.274 C 
ENDROOT
BRANCH   1   2
ATOM      2  O   UNL A   1      33.142  27.816  26.261  1.00  0.00    -0.462 OA
BRANCH   2   3
ATOM      3  C   UNL A   1      32.621  27.863  25.005  1.00  0.00     0.310 C 
ATOM      4  O   UNL A   1      31.447  27.955  24.757  1.00  0.00    -0.252 OA
BRANCH   3   5
ATOM      5  C   UNL A   1      33.774  27.785  24.013  1.00  0.00     0.160 C 
BRANCH   5   6
ATOM      6  C   UNL A   1      33.703  26.500  23.230  1.00  0.00    -0.013 A 
ATOM      7  C   UNL A   1      32.312  25.636  19.817  1.00  0.00     0.044 C 
ATOM      8  C   UNL A   1      32.901  25.476  21.183  1.00  0.00    -0.051 A 
ATOM      9  C   UNL A   1      32.965  24.231  21.813  1.00  0.00     0.005 A 
ATOM     10  C   UNL A   1      33.273  26.607  21.899  1.00  0.00     0.009 A 
ATOM     11  C   UNL A   1      33.452  24.114  23.121  1.00  0.00     0.026 A 
ATOM     12  C   UNL A   1      33.872  25.234  23.841  1.00  0.00     0.042 A 
BRANCH  12  13
ATOM     13  N   UNL A   1      34.293  25.128  25.178  1.00  0.00    -0.353 N 
ATOM     14  H   UNL A   1      34.737  25.935  25.523  1.00  0.00     0.167 HD
BRANCH  13  15
ATOM     15  C   UNL A   1      34.198  24.072  26.124  1.00  0.00     0.076 A 
ATOM     16  C   UNL A   1      32.974  23.738  26.736  1.00  0.00     0.066 A 
ATOM     17  C   UNL A   1      35.249  23.139  26.244  1.00  0.00     0.066 A 
ATOM     18  Cl  UNL A   1      31.599  24.790  26.655  1.00  0.00    -0.082 Cl
ATOM     19  C   UNL A   1      32.814  22.531  27.431  1.00  0.00     0.023 A 
ATOM     20  C   UNL A   1      35.071  21.908  26.890  1.00  0.00     0.023 A 
ATOM     21  Cl  UNL A   1      36.845  23.504  25.684  1.00  0.00    -0.082 Cl
ATOM     22  C   UNL A   1      33.852  21.604  27.484  1.00  0.00     0.003 A 
ENDBRANCH  13  15
ENDBRANCH  12  13
ENDBRANCH   5   6
ENDBRANCH   3   5
ENDBRANCH   2   3
ENDBRANCH   1   2
BRANCH   1  23
ATOM     23  C   UNL A   1      34.010  29.965  27.070  1.00  0.00     0.275 C 
BRANCH  23  24
ATOM     24  O   UNL A   1      35.245  29.582  27.765  1.00  0.00    -0.458 OA
BRANCH  24  25
ATOM     25  C   UNL A   1      36.072  30.225  28.649  1.00  0.00     0.338 C 
ATOM     26  O   UNL A   1      35.587  31.038  29.434  1.00  0.00    -0.246 OA
BRANCH  25  27
ATOM     27  C   UNL A   1      37.407  29.661  28.950  1.00  0.00     0.060 A 
ATOM     28  C   UNL A   1      37.615  28.799  30.047  1.00  0.00     0.016 A 
ATOM     29  C   UNL A   1      38.371  29.743  27.985  1.00  0.00     0.016 A 
ATOM     30  C   UNL A   1      38.722  27.937  30.047  1.00  0.00     0.010 A 
ATOM     31  C   UNL A   1      39.170  28.655  27.791  1.00  0.00     0.010 A 
ATOM     32  C   UNL A   1      39.472  27.840  28.873  1.00  0.00    -0.014 A 
BRANCH  32  33
ATOM     33  C   UNL A   1      40.774  27.209  28.699  1.00  0.00     0.031 A 
ATOM     34  C   UNL A   1      40.944  25.819  28.261  1.00  0.00     0.074 A 
ATOM     35  C   UNL A   1      41.842  28.021  28.917  1.00  0.00     0.049 A 
ATOM     36  N   UNL A   1      41.664  24.953  28.887  1.00  0.00    -0.248 NA
ATOM     37  C   UNL A   1      40.360  25.315  27.016  1.00  0.00     0.031 C 
ATOM     38  C   UNL A   1      43.257  27.748  28.780  1.00  0.00     0.029 A 
ATOM     39  N   UNL A   1      41.851  29.340  29.386  1.00  0.00    -0.354 N 
ATOM     40  C   UNL A   1      41.916  23.942  27.984  1.00  0.00     0.074 A 
ATOM     41  C   UNL A   1      40.961  24.120  26.909  1.00  0.00     0.031 C 
ATOM     42  C   UNL A   1      43.934  28.681  29.487  1.00  0.00     0.029 A 
ATOM     43  C   UNL A   1      42.969  29.542  30.164  1.00  0.00     0.049 A 
ATOM     44  H   UNL A   1      41.164  30.017  29.189  1.00  0.00     0.167 HD
ATOM     45  C   UNL A   1      43.076  23.227  28.042  1.00  0.00     0.037 A 
ATOM     46  C   UNL A   1      42.826  29.760  31.506  1.00  0.00     0.037 A 
ATOM     47  C   UNL A   1      44.015  23.849  28.975  1.00  0.00     0.049 A 
ATOM     48  C   UNL A   1      43.290  28.556  32.290  1.00  0.00     0.074 A 
ATOM     49  C   UNL A   1      45.070  24.720  28.745  1.00  0.00     0.029 A 
ATOM     50  N   UNL A   1      43.718  23.956  30.333  1.00  0.00    -0.354 N 
ATOM     51  N   UNL A   1      43.519  27.395  31.740  1.00  0.00    -0.248 NA
ATOM     52  C   UNL A   1      43.559  28.549  33.724  1.00  0.00     0.031 C 
ATOM     53  C   UNL A   1      45.355  25.408  29.946  1.00  0.00     0.029 A 
ATOM     54  C   UNL A   1      44.487  24.950  30.920  1.00  0.00     0.049 A 
ATOM     55  H   UNL A   1      43.058  23.403  30.809  1.00  0.00     0.167 HD
ATOM     56  C   UNL A   1      44.000  26.521  32.671  1.00  0.00     0.074 A 
ATOM     57  C   UNL A   1      44.007  27.290  33.904  1.00  0.00     0.031 C 
ATOM     58  C   UNL A   1      44.380  25.252  32.339  1.00  0.00     0.037 A 
BRANCH  45  59
ATOM     59  C   UNL A   1      43.461  22.236  26.963  1.00  0.00     0.058 A 
ATOM     60  C   UNL A   1      42.936  20.929  26.910  1.00  0.00     0.135 A 
ATOM     61  C   UNL A   1      44.367  22.559  25.929  1.00  0.00     0.135 A 
ATOM     62  F   UNL A   1      42.031  20.495  27.796  1.00  0.00    -0.206 F 
ATOM     63  C   UNL A   1      43.328  19.991  25.954  1.00  0.00     0.059 A 
ATOM     64  C   UNL A   1      44.790  21.628  24.969  1.00  0.00     0.059 A 
ATOM     65  F   UNL A   1      44.875  23.799  25.832  1.00  0.00    -0.206 F 
ATOM     66  C   UNL A   1      44.267  20.341  24.994  1.00  0.00     0.060 A 
BRANCH  66  67
ATOM     67  S   UNL A   1      44.791  19.084  23.810  1.00  0.00     0.124 S 
ATOM     68  O   UNL A   1      44.473  19.714  22.531  1.00  0.00    -0.237 OA
ATOM     69  O   UNL A   1      46.211  18.953  24.114  1.00  0.00    -0.237 OA
ATOM     70  O   UNL A   1      43.965  17.930  24.153  1.00  0.00    -0.744 OA
ENDBRANCH  66  67
ENDBRANCH  45  59
BRANCH  46  71
ATOM     71  C   UNL A   1      41.714  30.700  31.869  1.00  0.00     0.058 A 
ATOM     72  C   UNL A   1      41.884  32.055  31.513  1.00  0.00     0.135 A 
ATOM     73  C   UNL A   1      40.404  30.289  32.167  1.00  0.00     0.135 A 
ATOM     74  F   UNL A   1      43.112  32.523  31.236  1.00  0.00    -0.206 F 
ATOM     75  C   UNL A   1      40.808  32.916  31.307  1.00  0.00     0.059 A 
ATOM     76  C   UNL A   1      39.303  31.142  31.979  1.00  0.00     0.059 A 
ATOM     77  F   UNL A   1      40.159  29.019  32.522  1.00  0.00    -0.206 F 
ATOM     78  C   UNL A   1      39.516  32.430  31.482  1.00  0.00     0.060 A 
BRANCH  78  79
ATOM     79  S   UNL A   1      38.156  33.437  30.835  1.00  0.00     0.124 S 
ATOM     80  O   UNL A   1      38.571  34.789  31.185  1.00  0.00    -0.237 OA
ATOM     81  O   UNL A   1      38.206  33.100  29.413  1.00  0.00    -0.237 OA
ATOM     82  O   UNL A   1      36.992  32.924  31.544  1.00  0.00    -0.744 OA
ENDBRANCH  78  79
ENDBRANCH  46  71
BRANCH  58  83
ATOM     83  C   UNL A   1      44.834  24.204  33.312  1.00  0.00     0.058 A 
ATOM     84  C   UNL A   1      44.070  23.085  33.664  1.00  0.00     0.135 A 
ATOM     85  C   UNL A   1      46.155  24.247  33.821  1.00  0.00     0.135 A 
ATOM     86  F   UNL A   1      42.840  22.897  33.161  1.00  0.00    -0.206 F 
ATOM     87  C   UNL A   1      44.561  22.096  34.515  1.00  0.00     0.059 A 
ATOM     88  C   UNL A   1      46.683  23.243  34.619  1.00  0.00     0.059 A 
ATOM     89  F   UNL A   1      46.983  25.268  33.550  1.00  0.00    -0.206 F 
ATOM     90  C   UNL A   1      45.869  22.183  34.984  1.00  0.00     0.060 A 
BRANCH  90  91
ATOM     91  S   UNL A   1      46.542  20.889  36.036  1.00  0.00     0.124 S 
ATOM     92  O   UNL A   1      47.905  21.366  36.243  1.00  0.00    -0.237 OA
ATOM     93  O   UNL A   1      45.672  20.935  37.207  1.00  0.00    -0.237 OA
ATOM     94  O   UNL A   1      46.406  19.693  35.210  1.00  0.00    -0.744 OA
ENDBRANCH  90  91
ENDBRANCH  58  83
ENDBRANCH  32  33
ENDBRANCH  25  27
ENDBRANCH  24  25
ENDBRANCH  23  24
ENDBRANCH   1  23
TORSDOF 17
ENDMDL
MODEL 2
REMARK VINA RESULT:     -12.2      1.235      2.490
REMARK SMILES Cc1ccc(Nc2c(Cl)cccc2Cl)c(CC(=O)OCCOC(=O)c2ccc(-c3c4nc(c(-c5c(F)cc(S(=O)(=O)[O-])cc5F)c5ccc([nH]5)c(-c5c(F)cc(S(=O)(=O)[O-])cc5F)c5nc(c(-c6c(F)cc(S(=O)(=O)[O-])cc6F)c6ccc3[nH]6)C=C5)C=C4)cc2)c1
REMARK SMILES IDX 20 1 19 2 17 3 18 4 16 5 15 6 1 7 2 8 3 9 91 10 4 11 5 12
REMARK SMILES IDX 6 13 7 15 8 16 13 17 9 18 10 19 12 20 14 21 11 22 21 23
REMARK SMILES IDX 22 24 23 25 24 26 25 27 26 28 90 29 27 30 89 31 28 32 29 33
REMARK SMILES IDX 30 34 83 35 31 36 88 37 82 38 84 39 32 40 87 41 81 42 80 43
REMARK SMILES IDX 33 45 67 46 46 47 66 48 47 49 50 50 65 51 85 52 48 53 49 54
REMARK SMILES IDX 64 56 86 57 51 58 34 59 35 60 44 61 36 62 37 63 43 64 45 65
REMARK SMILES IDX 38 66 39 67 40 68 41 69 42 70 68 71 69 72 78 73 70 74 71 75
REMARK SMILES IDX 77 76 79 77 72 78 73 79 74 80 75 81 76 82 52 83 53 84 62 85
REMARK SMILES IDX 54 86 55 87 61 88 63 89 56 90 57 91 58 92 59 93 60 94
REMARK H PARENT 6 14 84 44 50 55
REMARK Flexibility Score: inf
ROOT
ATOM      1  C   UNL A   1      33.189  28.987  26.253  1.00  0.00     0.274 C 
ENDROOT
BRANCH   1   2
ATOM      2  O   UNL A   1      32.042  28.178  26.502  1.00  0.00    -0.462 OA
BRANCH   2   3
ATOM      3  C   UNL A   1      32.242  26.838  26.372  1.00  0.00     0.310 C 
ATOM      4  O   UNL A   1      31.453  25.995  26.712  1.00  0.00    -0.252 OA
BRANCH   3   5
ATOM      5  C   UNL A   1      33.608  26.625  25.731  1.00  0.00     0.160 C 
BRANCH   5   6
ATOM      6  C   UNL A   1      33.711  25.229  25.175  1.00  0.00    -0.013 A 
ATOM      7  C   UNL A   1      35.174  22.015  26.536  1.00  0.00     0.044 C 
ATOM      8  C   UNL A   1      34.564  22.997  25.587  1.00  0.00    -0.051 A 
ATOM      9  C   UNL A   1      34.504  22.751  24.213  1.00  0.00     0.005 A 
ATOM     10  C   UNL A   1      34.163  24.241  26.060  1.00  0.00     0.009 A 
ATOM     11  C   UNL A   1      33.996  23.714  23.334  1.00  0.00     0.026 A 
ATOM     12  C   UNL A   1      33.548  24.953  23.796  1.00  0.00     0.042 A 
BRANCH  12  13
ATOM     13  N   UNL A   1      33.104  25.948  22.907  1.00  0.00    -0.353 N 
ATOM     14  H   UNL A   1      33.721  26.122  22.160  1.00  0.00     0.167 HD
BRANCH  13  15
ATOM     15  C   UNL A   1      31.932  26.751  22.886  1.00  0.00     0.076 A 
ATOM     16  C   UNL A   1      30.663  26.209  23.167  1.00  0.00     0.066 A 
ATOM     17  C   UNL A   1      32.043  28.157  22.889  1.00  0.00     0.066 A 
ATOM     18  Cl  UNL A   1      30.391  24.498  23.207  1.00  0.00    -0.082 Cl
ATOM     19  C   UNL A   1      29.563  27.037  23.436  1.00  0.00     0.023 A 
ATOM     20  C   UNL A   1      30.957  28.981  23.214  1.00  0.00     0.023 A 
ATOM     21  Cl  UNL A   1      33.502  28.946  22.396  1.00  0.00    -0.082 Cl
ATOM     22  C   UNL A   1      29.716  28.420  23.488  1.00  0.00     0.003 A 
ENDBRANCH  13  15
ENDBRANCH  12  13
ENDBRANCH   5   6
ENDBRANCH   3   5
ENDBRANCH   2   3
ENDBRANCH   1   2
BRANCH   1  23
ATOM     23  C   UNL A   1      33.659  29.710  27.533  1.00  0.00     0.275 C 
BRANCH  23  24
ATOM     24  O   UNL A   1      35.058  29.522  27.936  1.00  0.00    -0.458 OA
BRANCH  24  25
ATOM     25  C   UNL A   1      35.971  30.313  28.582  1.00  0.00     0.338 C 
ATOM     26  O   UNL A   1      35.577  31.315  29.176  1.00  0.00    -0.246 OA
BRANCH  25  27
ATOM     27  C   UNL A   1      37.304  29.767  28.924  1.00  0.00     0.060 A 
ATOM     28  C   UNL A   1      37.491  28.906  30.026  1.00  0.00     0.016 A 
ATOM     29  C   UNL A   1      38.297  29.865  27.990  1.00  0.00     0.016 A 
ATOM     30  C   UNL A   1      38.608  28.060  30.060  1.00  0.00     0.010 A 
ATOM     31  C   UNL A   1      39.117  28.789  27.820  1.00  0.00     0.010 A 
ATOM     32  C   UNL A   1      39.397  27.976  28.910  1.00  0.00    -0.014 A 
BRANCH  32  33
ATOM     33  C   UNL A   1      40.713  27.364  28.775  1.00  0.00     0.031 A 
ATOM     34  C   UNL A   1      40.916  25.980  28.334  1.00  0.00     0.074 A 
ATOM     35  C   UNL A   1      41.761  28.189  29.035  1.00  0.00     0.049 A 
ATOM     36  N   UNL A   1      41.627  25.119  28.979  1.00  0.00    -0.248 NA
ATOM     37  C   UNL A   1      40.382  25.476  27.067  1.00  0.00     0.031 C 
ATOM     38  C   UNL A   1      43.184  27.936  28.945  1.00  0.00     0.029 A 
ATOM     39  N   UNL A   1      41.736  29.504  29.513  1.00  0.00    -0.354 N 
ATOM     40  C   UNL A   1      41.923  24.118  28.078  1.00  0.00     0.074 A 
ATOM     41  C   UNL A   1      41.002  24.290  26.972  1.00  0.00     0.031 C 
ATOM     42  C   UNL A   1      43.823  28.872  29.680  1.00  0.00     0.029 A 
ATOM     43  C   UNL A   1      42.824  29.715  30.330  1.00  0.00     0.049 A 
ATOM     44  H   UNL A   1      41.047  30.174  29.297  1.00  0.00     0.167 HD
ATOM     45  C   UNL A   1      43.090  23.418  28.170  1.00  0.00     0.037 A 
ATOM     46  C   UNL A   1      42.632  29.922  31.668  1.00  0.00     0.037 A 
ATOM     47  C   UNL A   1      43.988  24.047  29.139  1.00  0.00     0.049 A 
ATOM     48  C   UNL A   1      43.086  28.719  32.459  1.00  0.00     0.074 A 
ATOM     49  C   UNL A   1      45.038  24.933  28.951  1.00  0.00     0.029 A 
ATOM     50  N   UNL A   1      43.644  24.139  30.487  1.00  0.00    -0.354 N 
ATOM     51  N   UNL A   1      43.350  27.565  31.910  1.00  0.00    -0.248 NA
ATOM     52  C   UNL A   1      43.307  28.705  33.901  1.00  0.00     0.031 C 
ATOM     53  C   UNL A   1      45.273  25.616  30.165  1.00  0.00     0.029 A 
ATOM     54  C   UNL A   1      44.378  25.140  31.106  1.00  0.00     0.049 A 
ATOM     55  H   UNL A   1      42.975  23.574  30.936  1.00  0.00     0.167 HD
ATOM     56  C   UNL A   1      43.811  26.692  32.850  1.00  0.00     0.074 A 
ATOM     57  C   UNL A   1      43.765  27.452  34.088  1.00  0.00     0.031 C 
ATOM     58  C   UNL A   1      44.220  25.430  32.523  1.00  0.00     0.037 A 
BRANCH  45  59
ATOM     59  C   UNL A   1      43.525  22.440  27.098  1.00  0.00     0.058 A 
ATOM     60  C   UNL A   1      42.905  21.187  26.917  1.00  0.00     0.135 A 
ATOM     61  C   UNL A   1      44.576  22.723  26.200  1.00  0.00     0.135 A 
ATOM     62  F   UNL A   1      41.864  20.800  27.664  1.00  0.00    -0.206 F 
ATOM     63  C   UNL A   1      43.336  20.257  25.971  1.00  0.00     0.059 A 
ATOM     64  C   UNL A   1      45.039  21.797  25.254  1.00  0.00     0.059 A 
ATOM     65  F   UNL A   1      45.192  23.916  26.227  1.00  0.00    -0.206 F 
ATOM     66  C   UNL A   1      44.413  20.561  25.151  1.00  0.00     0.060 A 
BRANCH  66  67
ATOM     67  S   UNL A   1      44.977  19.310  23.979  1.00  0.00     0.124 S 
ATOM     68  O   UNL A   1      46.423  19.317  24.191  1.00  0.00    -0.237 OA
ATOM     69  O   UNL A   1      44.276  18.119  24.444  1.00  0.00    -0.237 OA
ATOM     70  O   UNL A   1      44.540  19.833  22.688  1.00  0.00    -0.744 OA
ENDBRANCH  66  67
ENDBRANCH  45  59
BRANCH  46  71
ATOM     71  C   UNL A   1      41.496  30.845  31.999  1.00  0.00     0.058 A 
ATOM     72  C   UNL A   1      41.657  32.203  31.652  1.00  0.00     0.135 A 
ATOM     73  C   UNL A   1      40.184  30.414  32.256  1.00  0.00     0.135 A 
ATOM     74  F   UNL A   1      42.886  32.690  31.415  1.00  0.00    -0.206 F 
ATOM     75  C   UNL A   1      40.575  33.048  31.416  1.00  0.00     0.059 A 
ATOM     76  C   UNL A   1      39.077  31.251  32.036  1.00  0.00     0.059 A 
ATOM     77  F   UNL A   1      39.947  29.139  32.599  1.00  0.00    -0.206 F 
ATOM     78  C   UNL A   1      39.286  32.543  31.550  1.00  0.00     0.060 A 
BRANCH  78  79
ATOM     79  S   UNL A   1      37.931  33.532  30.864  1.00  0.00     0.124 S 
ATOM     80  O   UNL A   1      38.288  34.883  31.278  1.00  0.00    -0.237 OA
ATOM     81  O   UNL A   1      38.064  33.243  29.437  1.00  0.00    -0.237 OA
ATOM     82  O   UNL A   1      36.748  32.963  31.495  1.00  0.00    -0.744 OA
ENDBRANCH  78  79
ENDBRANCH  46  71
BRANCH  58  83
ATOM     83  C   UNL A   1      44.655  24.381  33.503  1.00  0.00     0.058 A 
ATOM     84  C   UNL A   1      43.769  23.545  34.194  1.00  0.00     0.135 A 
ATOM     85  C   UNL A   1      46.034  24.104  33.666  1.00  0.00     0.135 A 
ATOM     86  F   UNL A   1      42.441  23.659  34.038  1.00  0.00    -0.206 F 
ATOM     87  C   UNL A   1      44.220  22.534  35.040  1.00  0.00     0.059 A 
ATOM     88  C   UNL A   1      46.501  23.064  34.454  1.00  0.00     0.059 A 
ATOM     89  F   UNL A   1      46.977  24.835  33.053  1.00  0.00    -0.206 F 
ATOM     90  C   UNL A   1      45.587  22.299  35.160  1.00  0.00     0.060 A 
BRANCH  90  91
ATOM     91  S   UNL A   1      46.189  20.961  36.202  1.00  0.00     0.124 S 
ATOM     92  O   UNL A   1      45.726  21.390  37.517  1.00  0.00    -0.237 OA
ATOM     93  O   UNL A   1      45.519  19.789  35.647  1.00  0.00    -0.237 OA
ATOM     94  O   UNL A   1      47.633  21.007  35.990  1.00  0.00    -0.744 OA
ENDBRANCH  90  91
ENDBRANCH  58  83
ENDBRANCH  32  33
ENDBRANCH  25  27
ENDBRANCH  24  25
ENDBRANCH  23  24
ENDBRANCH   1  23
TORSDOF 17
ENDMDL
MODEL 3
REMARK VINA RESULT:     -12.0      1.437      2.017
REMARK SMILES Cc1ccc(Nc2c(Cl)cccc2Cl)c(CC(=O)OCCOC(=O)c2ccc(-c3c4nc(c(-c5c(F)cc(S(=O)(=O)[O-])cc5F)c5ccc([nH]5)c(-c5c(F)cc(S(=O)(=O)[O-])cc5F)c5nc(c(-c6c(F)cc(S(=O)(=O)[O-])cc6F)c6ccc3[nH]6)C=C5)C=C4)cc2)c1
REMARK SMILES IDX 20 1 19 2 17 3 18 4 16 5 15 6 1 7 2 8 3 9 91 10 4 11 5 12
REMARK SMILES IDX 6 13 7 15 8 16 13 17 9 18 10 19 12 20 14 21 11 22 21 23
REMARK SMILES IDX 22 24 23 25 24 26 25 27 26 28 90 29 27 30 89 31 28 32 29 33
REMARK SMILES IDX 30 34 83 35 31 36 88 37 82 38 84 39 32 40 87 41 81 42 80 43
REMARK SMILES IDX 33 45 67 46 46 47 66 48 47 49 50 50 65 51 85 52 48 53 49 54
REMARK SMILES IDX 64 56 86 57 51 58 34 59 35 60 44 61 36 62 37 63 43 64 45 65
REMARK SMILES IDX 38 66 39 67 40 68 41 69 42 70 68 71 69 72 78 73 70 74 71 75
REMARK SMILES IDX 77 76 79 77 72 78 73 79 74 80 75 81 76 82 52 83 53 84 62 85
REMARK SMILES IDX 54 86 55 87 61 88 63 89 56 90 57 91 58 92 59 93 60 94
REMARK H PARENT 6 14 84 44 50 55
REMARK Flexibility Score: inf
ROOT
ATOM      1  C   UNL A   1      33.152  30.015  27.211  1.00  0.00     0.274 C 
ENDROOT
BRANCH   1   2
ATOM      2  O   UNL A   1      33.325  28.614  27.413  1.00  0.00    -0.462 OA
BRANCH   2   3
ATOM      3  C   UNL A   1      32.361  27.828  26.860  1.00  0.00     0.310 C 
ATOM      4  O   UNL A   1      31.378  27.446  27.439  1.00  0.00    -0.252 OA
BRANCH   3   5
ATOM      5  C   UNL A   1      32.756  27.543  25.416  1.00  0.00     0.160 C 
BRANCH   5   6
ATOM      6  C   UNL A   1      31.526  27.380  24.562  1.00  0.00    -0.013 A 
ATOM      7  C   UNL A   1      29.197  29.857  22.898  1.00  0.00     0.044 C 
ATOM      8  C   UNL A   1      29.757  28.563  23.401  1.00  0.00    -0.051 A 
ATOM      9  C   UNL A   1      28.990  27.397  23.439  1.00  0.00     0.005 A 
ATOM     10  C   UNL A   1      31.027  28.546  23.964  1.00  0.00     0.009 A 
ATOM     11  C   UNL A   1      29.509  26.215  23.980  1.00  0.00     0.026 A 
ATOM     12  C   UNL A   1      30.798  26.167  24.512  1.00  0.00     0.042 A 
BRANCH  12  13
ATOM     13  N   UNL A   1      31.295  25.001  25.121  1.00  0.00    -0.353 N 
ATOM     14  H   UNL A   1      31.501  25.105  26.078  1.00  0.00     0.167 HD
BRANCH  13  15
ATOM     15  C   UNL A   1      31.556  23.699  24.613  1.00  0.00     0.076 A 
ATOM     16  C   UNL A   1      32.382  23.498  23.490  1.00  0.00     0.066 A 
ATOM     17  C   UNL A   1      31.249  22.566  25.395  1.00  0.00     0.066 A 
ATOM     18  Cl  UNL A   1      32.845  24.807  22.453  1.00  0.00    -0.082 Cl
ATOM     19  C   UNL A   1      32.875  22.225  23.170  1.00  0.00     0.023 A 
ATOM     20  C   UNL A   1      31.788  21.305  25.106  1.00  0.00     0.023 A 
ATOM     21  Cl  UNL A   1      30.113  22.650  26.696  1.00  0.00    -0.082 Cl
ATOM     22  C   UNL A   1      32.602  21.135  23.992  1.00  0.00     0.003 A 
ENDBRANCH  13  15
ENDBRANCH  12  13
ENDBRANCH   5   6
ENDBRANCH   3   5
ENDBRANCH   2   3
ENDBRANCH   1   2
BRANCH   1  23
ATOM     23  C   UNL A   1      34.502  30.762  27.250  1.00  0.00     0.275 C 
BRANCH  23  24
ATOM     24  O   UNL A   1      35.604  30.121  27.977  1.00  0.00    -0.458 OA
BRANCH  24  25
ATOM     25  C   UNL A   1      36.269  30.415  29.139  1.00  0.00     0.338 C 
ATOM     26  O   UNL A   1      35.643  30.905  30.076  1.00  0.00    -0.246 OA
BRANCH  25  27
ATOM     27  C   UNL A   1      37.576  29.777  29.418  1.00  0.00     0.060 A 
ATOM     28  C   UNL A   1      37.702  28.726  30.350  1.00  0.00     0.016 A 
ATOM     29  C   UNL A   1      38.604  30.013  28.549  1.00  0.00     0.016 A 
ATOM     30  C   UNL A   1      38.798  27.856  30.266  1.00  0.00     0.010 A 
ATOM     31  C   UNL A   1      39.405  28.962  28.213  1.00  0.00     0.010 A 
ATOM     32  C   UNL A   1      39.626  27.958  29.145  1.00  0.00    -0.014 A 
BRANCH  32  33
ATOM     33  C   UNL A   1      40.932  27.342  28.944  1.00  0.00     0.031 A 
ATOM     34  C   UNL A   1      41.108  25.964  28.472  1.00  0.00     0.074 A 
ATOM     35  C   UNL A   1      41.995  28.158  29.171  1.00  0.00     0.049 A 
ATOM     36  N   UNL A   1      41.842  25.089  29.071  1.00  0.00    -0.248 NA
ATOM     37  C   UNL A   1      40.517  25.484  27.221  1.00  0.00     0.031 C 
ATOM     38  C   UNL A   1      43.411  27.900  29.015  1.00  0.00     0.029 A 
ATOM     39  N   UNL A   1      41.998  29.465  29.671  1.00  0.00    -0.354 N 
ATOM     40  C   UNL A   1      42.093  24.102  28.142  1.00  0.00     0.074 A 
ATOM     41  C   UNL A   1      41.126  24.297  27.081  1.00  0.00     0.031 C 
ATOM     42  C   UNL A   1      44.086  28.821  29.737  1.00  0.00     0.029 A 
ATOM     43  C   UNL A   1      43.121  29.658  30.443  1.00  0.00     0.049 A 
ATOM     44  H   UNL A   1      41.304  30.141  29.496  1.00  0.00     0.167 HD
ATOM     45  C   UNL A   1      43.259  23.395  28.172  1.00  0.00     0.037 A 
ATOM     46  C   UNL A   1      42.989  29.844  31.791  1.00  0.00     0.037 A 
ATOM     47  C   UNL A   1      44.201  24.004  29.112  1.00  0.00     0.049 A 
ATOM     48  C   UNL A   1      43.470  28.626  32.542  1.00  0.00     0.074 A 
ATOM     49  C   UNL A   1      45.247  24.888  28.892  1.00  0.00     0.029 A 
ATOM     50  N   UNL A   1      43.917  24.076  30.474  1.00  0.00    -0.354 N 
ATOM     51  N   UNL A   1      43.704  27.479  31.963  1.00  0.00    -0.248 NA
ATOM     52  C   UNL A   1      43.753  28.587  33.973  1.00  0.00     0.031 C 
ATOM     53  C   UNL A   1      45.538  25.551  30.106  1.00  0.00     0.029 A 
ATOM     54  C   UNL A   1      44.683  25.063  31.077  1.00  0.00     0.049 A 
ATOM     55  H   UNL A   1      43.266  23.507  30.943  1.00  0.00     0.167 HD
ATOM     56  C   UNL A   1      44.201  26.589  32.869  1.00  0.00     0.074 A 
ATOM     57  C   UNL A   1      44.212  27.329  34.119  1.00  0.00     0.031 C 
ATOM     58  C   UNL A   1      44.588  25.331  32.504  1.00  0.00     0.037 A 
BRANCH  45  59
ATOM     59  C   UNL A   1      43.642  22.433  27.067  1.00  0.00     0.058 A 
ATOM     60  C   UNL A   1      43.021  21.178  26.905  1.00  0.00     0.135 A 
ATOM     61  C   UNL A   1      44.642  22.733  26.118  1.00  0.00     0.135 A 
ATOM     62  F   UNL A   1      42.023  20.776  27.701  1.00  0.00    -0.206 F 
ATOM     63  C   UNL A   1      43.406  20.262  25.925  1.00  0.00     0.059 A 
ATOM     64  C   UNL A   1      45.060  21.822  25.137  1.00  0.00     0.059 A 
ATOM     65  F   UNL A   1      45.252  23.930  26.126  1.00  0.00    -0.206 F 
ATOM     66  C   UNL A   1      44.436  20.583  25.053  1.00  0.00     0.060 A 
BRANCH  66  67
ATOM     67  S   UNL A   1      44.944  19.349  23.837  1.00  0.00     0.124 S 
ATOM     68  O   UNL A   1      44.191  18.171  24.259  1.00  0.00    -0.237 OA
ATOM     69  O   UNL A   1      44.512  19.960  22.585  1.00  0.00    -0.237 OA
ATOM     70  O   UNL A   1      46.388  19.260  24.027  1.00  0.00    -0.744 OA
ENDBRANCH  66  67
ENDBRANCH  45  59
BRANCH  46  71
ATOM     71  C   UNL A   1      41.873  30.766  32.186  1.00  0.00     0.058 A 
ATOM     72  C   UNL A   1      42.028  32.131  31.860  1.00  0.00     0.135 A 
ATOM     73  C   UNL A   1      40.569  30.337  32.487  1.00  0.00     0.135 A 
ATOM     74  F   UNL A   1      43.250  32.615  31.583  1.00  0.00    -0.206 F 
ATOM     75  C   UNL A   1      40.943  32.986  31.684  1.00  0.00     0.059 A 
ATOM     76  C   UNL A   1      39.460  31.185  32.329  1.00  0.00     0.059 A 
ATOM     77  F   UNL A   1      40.338  29.058  32.814  1.00  0.00    -0.206 F 
ATOM     78  C   UNL A   1      39.658  32.486  31.860  1.00  0.00     0.060 A 
BRANCH  78  79
ATOM     79  S   UNL A   1      38.282  33.497  31.250  1.00  0.00     0.124 S 
ATOM     80  O   UNL A   1      38.652  34.833  31.697  1.00  0.00    -0.237 OA
ATOM     81  O   UNL A   1      38.372  33.256  29.810  1.00  0.00    -0.237 OA
ATOM     82  O   UNL A   1      37.120  32.905  31.897  1.00  0.00    -0.744 OA
ENDBRANCH  78  79
ENDBRANCH  46  71
BRANCH  58  83
ATOM     83  C   UNL A   1      45.059  24.264  33.447  1.00  0.00     0.058 A 
ATOM     84  C   UNL A   1      44.257  23.205  33.890  1.00  0.00     0.135 A 
ATOM     85  C   UNL A   1      46.423  24.219  33.828  1.00  0.00     0.135 A 
ATOM     86  F   UNL A   1      42.974  23.099  33.510  1.00  0.00    -0.206 F 
ATOM     87  C   UNL A   1      44.757  22.194  34.708  1.00  0.00     0.059 A 
ATOM     88  C   UNL A   1      46.954  23.190  34.590  1.00  0.00     0.059 A 
ATOM     89  F   UNL A   1      47.289  25.176  33.462  1.00  0.00    -0.206 F 
ATOM     90  C   UNL A   1      46.108  22.194  35.049  1.00  0.00     0.060 A 
BRANCH  90  91
ATOM     91  S   UNL A   1      46.788  20.868  36.056  1.00  0.00     0.124 S 
ATOM     92  O   UNL A   1      45.592  20.381  36.736  1.00  0.00    -0.237 OA
ATOM     93  O   UNL A   1      47.361  19.965  35.063  1.00  0.00    -0.237 OA
ATOM     94  O   UNL A   1      47.759  21.561  36.897  1.00  0.00    -0.744 OA
ENDBRANCH  90  91
ENDBRANCH  58  83
ENDBRANCH  32  33
ENDBRANCH  25  27
ENDBRANCH  24  25
ENDBRANCH  23  24
ENDBRANCH   1  23
TORSDOF 17
ENDMDL
