MODEL 1
REMARK VINA RESULT:     -12.0      0.000      0.000
REMARK SMILES C[C@H](c1cccc(-c2cc(C(=O)OCCOC(=O)c3ccc(-c4c5nc(c(-c6c(F)cc(S(=O)(=O)[O-])cc6F)c6ccc([nH]6)c(-c6c(F)cc(S(=O)(=O)[O-])cc6F)c6nc(c(-c7c(F)cc(S(=O)(=O)[O-])cc7F)c7ccc4[nH]7)C=C6)C=C5)cc3)cc(S(=O)(=O)N3CCOCC3)c2)c1)[NH+](C)C
REMARK SMILES IDX 14 1 13 2 11 3 12 4 10 5 8 6 9 7 96 8 86 9 85 10 7 11 3 12
REMARK SMILES IDX 4 13 97 14 5 15 6 16 2 17 1 18 98 19 99 20 100 21 87 23
REMARK SMILES IDX 88 24 89 25 90 26 91 27 95 28 92 29 94 30 93 31 15 32 16 33
REMARK SMILES IDX 17 34 18 35 19 36 20 37 84 38 21 39 83 40 22 41 23 42 24 43
REMARK SMILES IDX 77 44 25 45 82 46 76 47 78 48 26 49 81 50 75 51 74 52 27 54
REMARK SMILES IDX 61 55 40 56 60 57 41 58 44 59 59 60 79 61 42 62 43 63 58 65
REMARK SMILES IDX 80 66 45 67 28 68 29 69 38 70 30 71 31 72 37 73 39 74 32 75
REMARK SMILES IDX 33 76 34 77 35 78 36 79 62 80 63 81 72 82 64 83 65 84 71 85
REMARK SMILES IDX 73 86 66 87 67 88 68 89 69 90 70 91 46 92 47 93 56 94 48 95
REMARK SMILES IDX 49 96 55 97 57 98 50 99 51 100 52 101 53 102 54 103
REMARK H PARENT 98 22 78 53 44 64
REMARK Flexibility Score: inf
ROOT
ATOM      1  C   UNL A   1      33.826  31.745  27.622  1.00  0.00     0.275 C 
ENDROOT
BRANCH   1   2
ATOM      2  O   UNL A   1      33.291  30.529  27.059  1.00  0.00    -0.458 OA
BRANCH   2   3
ATOM      3  C   UNL A   1      34.183  29.538  26.812  1.00  0.00     0.338 C 
ATOM      4  O   UNL A   1      35.262  29.369  27.352  1.00  0.00    -0.246 OA
BRANCH   3   5
ATOM      5  C   UNL A   1      33.567  28.550  25.896  1.00  0.00     0.062 A 
ATOM      6  C   UNL A   1      33.034  26.210  25.508  1.00  0.00    -0.016 A 
ATOM      7  C   UNL A   1      33.757  27.186  26.186  1.00  0.00     0.024 A 
ATOM      8  C   UNL A   1      32.259  26.619  24.428  1.00  0.00     0.030 A 
ATOM      9  C   UNL A   1      32.132  27.953  24.064  1.00  0.00     0.084 A 
ATOM     10  C   UNL A   1      32.756  28.942  24.823  1.00  0.00     0.037 A 
BRANCH   6  11
ATOM     11  C   UNL A   1      32.957  24.804  25.917  1.00  0.00    -0.018 A 
ATOM     12  C   UNL A   1      33.933  22.553  25.909  1.00  0.00     0.010 A 
ATOM     13  C   UNL A   1      32.706  22.038  26.352  1.00  0.00     0.010 A 
ATOM     14  C   UNL A   1      34.045  23.943  25.721  1.00  0.00     0.018 A 
ATOM     15  C   UNL A   1      31.614  22.879  26.551  1.00  0.00     0.001 A 
ATOM     16  C   UNL A   1      31.735  24.251  26.325  1.00  0.00     0.009 A 
BRANCH  12  17
ATOM     17  C   UNL A   1      35.092  21.600  25.614  1.00  0.00     0.211 C 
ATOM     18  C   UNL A   1      34.611  20.337  24.874  1.00  0.00     0.081 C 
BRANCH  17  19
ATOM     19  N   UNL A   1      36.261  22.279  25.020  1.00  0.00    -0.334 N 
ATOM     20  C   UNL A   1      37.498  21.519  25.191  1.00  0.00     0.333 C 
ATOM     21  C   UNL A   1      36.107  22.697  23.632  1.00  0.00     0.333 C 
ATOM     22  H   UNL A   1      36.325  23.141  25.561  1.00  0.00     0.348 HD
ENDBRANCH  17  19
ENDBRANCH  12  17
ENDBRANCH   6  11
BRANCH   9  23
ATOM     23  S   UNL A   1      31.139  28.394  22.661  1.00  0.00     0.243 S 
ATOM     24  O   UNL A   1      31.811  29.510  22.021  1.00  0.00    -0.207 OA
ATOM     25  O   UNL A   1      30.874  27.164  21.955  1.00  0.00    -0.207 OA
BRANCH  23  26
ATOM     26  N   UNL A   1      29.690  28.955  23.300  1.00  0.00    -0.193 NA
ATOM     27  C   UNL A   1      28.522  28.066  23.504  1.00  0.00     0.131 C 
ATOM     28  C   UNL A   1      29.470  30.388  23.590  1.00  0.00     0.131 C 
ATOM     29  C   UNL A   1      27.215  28.696  22.996  1.00  0.00     0.177 C 
ATOM     30  C   UNL A   1      28.131  30.875  23.027  1.00  0.00     0.177 C 
ATOM     31  O   UNL A   1      27.048  30.044  23.457  1.00  0.00    -0.379 OA
ENDBRANCH  23  26
ENDBRANCH   9  23
ENDBRANCH   3   5
ENDBRANCH   2   3
ENDBRANCH   1   2
BRANCH   1  32
ATOM     32  C   UNL A   1      32.750  32.832  27.637  1.00  0.00     0.275 C 
BRANCH  32  33
ATOM     33  O   UNL A   1      33.385  34.123  27.656  1.00  0.00    -0.458 OA
BRANCH  33  34
ATOM     34  C   UNL A   1      33.358  34.793  28.833  1.00  0.00     0.338 C 
ATOM     35  O   UNL A   1      32.514  35.584  29.217  1.00  0.00    -0.246 OA
BRANCH  34  36
ATOM     36  C   UNL A   1      34.517  34.384  29.650  1.00  0.00     0.060 A 
ATOM     37  C   UNL A   1      35.797  34.616  29.162  1.00  0.00     0.016 A 
ATOM     38  C   UNL A   1      34.351  33.676  30.836  1.00  0.00     0.016 A 
ATOM     39  C   UNL A   1      36.905  34.042  29.782  1.00  0.00     0.010 A 
ATOM     40  C   UNL A   1      35.481  33.221  31.535  1.00  0.00     0.010 A 
ATOM     41  C   UNL A   1      36.776  33.360  30.999  1.00  0.00    -0.014 A 
BRANCH  41  42
ATOM     42  C   UNL A   1      37.980  32.798  31.694  1.00  0.00     0.031 A 
ATOM     43  C   UNL A   1      38.749  31.640  31.100  1.00  0.00     0.074 A 
ATOM     44  C   UNL A   1      38.400  33.315  32.871  1.00  0.00     0.049 A 
ATOM     45  N   UNL A   1      39.686  30.901  31.641  1.00  0.00    -0.248 NA
ATOM     46  C   UNL A   1      38.407  31.248  29.724  1.00  0.00     0.031 C 
ATOM     47  C   UNL A   1      37.789  34.448  33.569  1.00  0.00     0.029 A 
ATOM     48  N   UNL A   1      39.443  32.954  33.693  1.00  0.00    -0.354 N 
ATOM     49  C   UNL A   1      39.993  29.919  30.704  1.00  0.00     0.074 A 
ATOM     50  C   UNL A   1      39.148  30.162  29.554  1.00  0.00     0.031 C 
ATOM     51  C   UNL A   1      38.492  34.723  34.676  1.00  0.00     0.029 A 
ATOM     52  C   UNL A   1      39.533  33.716  34.836  1.00  0.00     0.049 A 
ATOM     53  H   UNL A   1      40.067  32.222  33.483  1.00  0.00     0.167 HD
ATOM     54  C   UNL A   1      40.888  28.905  30.796  1.00  0.00     0.037 A 
ATOM     55  C   UNL A   1      40.314  33.596  35.928  1.00  0.00     0.037 A 
ATOM     56  C   UNL A   1      41.774  28.700  31.914  1.00  0.00     0.049 A 
ATOM     57  C   UNL A   1      41.285  32.457  36.020  1.00  0.00     0.074 A 
ATOM     58  C   UNL A   1      42.748  27.726  32.073  1.00  0.00     0.029 A 
ATOM     59  N   UNL A   1      41.802  29.479  33.061  1.00  0.00    -0.354 N 
ATOM     60  N   UNL A   1      41.529  31.513  35.143  1.00  0.00    -0.248 NA
ATOM     61  C   UNL A   1      42.065  32.347  37.260  1.00  0.00     0.031 C 
ATOM     62  C   UNL A   1      43.332  27.891  33.334  1.00  0.00     0.029 A 
ATOM     63  C   UNL A   1      42.754  28.992  33.944  1.00  0.00     0.049 A 
ATOM     64  H   UNL A   1      41.229  30.262  33.224  1.00  0.00     0.167 HD
ATOM     65  C   UNL A   1      42.483  30.691  35.728  1.00  0.00     0.074 A 
ATOM     66  C   UNL A   1      42.794  31.264  37.022  1.00  0.00     0.031 C 
ATOM     67  C   UNL A   1      43.043  29.557  35.238  1.00  0.00     0.037 A 
BRANCH  54  68
ATOM     68  C   UNL A   1      40.924  27.902  29.673  1.00  0.00     0.058 A 
ATOM     69  C   UNL A   1      39.944  26.910  29.516  1.00  0.00     0.135 A 
ATOM     70  C   UNL A   1      41.958  27.954  28.721  1.00  0.00     0.135 A 
ATOM     71  F   UNL A   1      38.942  26.805  30.404  1.00  0.00    -0.206 F 
ATOM     72  C   UNL A   1      40.005  25.984  28.478  1.00  0.00     0.059 A 
ATOM     73  C   UNL A   1      42.024  27.054  27.661  1.00  0.00     0.059 A 
ATOM     74  F   UNL A   1      42.920  28.884  28.819  1.00  0.00    -0.206 F 
ATOM     75  C   UNL A   1      41.053  26.060  27.559  1.00  0.00     0.060 A 
BRANCH  75  76
ATOM     76  S   UNL A   1      41.135  24.839  26.232  1.00  0.00     0.124 S 
ATOM     77  O   UNL A   1      39.779  24.299  26.251  1.00  0.00    -0.237 OA
ATOM     78  O   UNL A   1      41.473  25.658  25.072  1.00  0.00    -0.237 OA
ATOM     79  O   UNL A   1      42.182  23.923  26.676  1.00  0.00    -0.744 OA
ENDBRANCH  75  76
ENDBRANCH  54  68
BRANCH  55  80
ATOM     80  C   UNL A   1      40.144  34.556  37.053  1.00  0.00     0.058 A 
ATOM     81  C   UNL A   1      40.836  35.774  37.079  1.00  0.00     0.135 A 
ATOM     82  C   UNL A   1      39.230  34.299  38.089  1.00  0.00     0.135 A 
ATOM     83  F   UNL A   1      41.733  36.057  36.124  1.00  0.00    -0.206 F 
ATOM     84  C   UNL A   1      40.616  36.713  38.083  1.00  0.00     0.059 A 
ATOM     85  C   UNL A   1      38.972  35.233  39.086  1.00  0.00     0.059 A 
ATOM     86  F   UNL A   1      38.536  33.150  38.103  1.00  0.00    -0.206 F 
ATOM     87  C   UNL A   1      39.671  36.439  39.075  1.00  0.00     0.060 A 
BRANCH  87  88
ATOM     88  S   UNL A   1      39.312  37.705  40.311  1.00  0.00     0.124 S 
ATOM     89  O   UNL A   1      40.598  38.381  40.423  1.00  0.00    -0.237 OA
ATOM     90  O   UNL A   1      38.244  38.468  39.670  1.00  0.00    -0.237 OA
ATOM     91  O   UNL A   1      38.902  36.927  41.477  1.00  0.00    -0.744 OA
ENDBRANCH  87  88
ENDBRANCH  55  80
BRANCH  67  92
ATOM     92  C   UNL A   1      44.049  28.857  36.108  1.00  0.00     0.058 A 
ATOM     93  C   UNL A   1      45.391  29.268  36.151  1.00  0.00     0.135 A 
ATOM     94  C   UNL A   1      43.662  27.789  36.932  1.00  0.00     0.135 A 
ATOM     95  F   UNL A   1      45.813  30.278  35.374  1.00  0.00    -0.206 F 
ATOM     96  C   UNL A   1      46.320  28.629  36.965  1.00  0.00     0.059 A 
ATOM     97  C   UNL A   1      44.569  27.150  37.772  1.00  0.00     0.059 A 
ATOM     98  F   UNL A   1      42.389  27.363  36.934  1.00  0.00    -0.206 F 
ATOM     99  C   UNL A   1      45.899  27.570  37.772  1.00  0.00     0.060 A 
BRANCH  99 100
ATOM    100  S   UNL A   1      47.108  26.764  38.845  1.00  0.00     0.124 S 
ATOM    101  O   UNL A   1      48.037  26.203  37.870  1.00  0.00    -0.237 OA
ATOM    102  O   UNL A   1      47.617  27.880  39.637  1.00  0.00    -0.237 OA
ATOM    103  O   UNL A   1      46.309  25.792  39.585  1.00  0.00    -0.744 OA
ENDBRANCH  99 100
ENDBRANCH  67  92
ENDBRANCH  41  42
ENDBRANCH  34  36
ENDBRANCH  33  34
ENDBRANCH  32  33
ENDBRANCH   1  32
TORSDOF 19
ENDMDL
MODEL 2
REMARK VINA RESULT:     -11.8      6.167     11.178
REMARK SMILES C[C@H](c1cccc(-c2cc(C(=O)OCCOC(=O)c3ccc(-c4c5nc(c(-c6c(F)cc(S(=O)(=O)[O-])cc6F)c6ccc([nH]6)c(-c6c(F)cc(S(=O)(=O)[O-])cc6F)c6nc(c(-c7c(F)cc(S(=O)(=O)[O-])cc7F)c7ccc4[nH]7)C=C6)C=C5)cc3)cc(S(=O)(=O)N3CCOCC3)c2)c1)[NH+](C)C
REMARK SMILES IDX 14 1 13 2 11 3 12 4 10 5 8 6 9 7 96 8 86 9 85 10 7 11 3 12
REMARK SMILES IDX 4 13 97 14 5 15 6 16 2 17 1 18 98 19 99 20 100 21 87 23
REMARK SMILES IDX 88 24 89 25 90 26 91 27 95 28 92 29 94 30 93 31 15 32 16 33
REMARK SMILES IDX 17 34 18 35 19 36 20 37 84 38 21 39 83 40 22 41 23 42 24 43
REMARK SMILES IDX 77 44 25 45 82 46 76 47 78 48 26 49 81 50 75 51 74 52 27 54
REMARK SMILES IDX 61 55 40 56 60 57 41 58 44 59 59 60 79 61 42 62 43 63 58 65
REMARK SMILES IDX 80 66 45 67 28 68 29 69 38 70 30 71 31 72 37 73 39 74 32 75
REMARK SMILES IDX 33 76 34 77 35 78 36 79 62 80 63 81 72 82 64 83 65 84 71 85
REMARK SMILES IDX 73 86 66 87 67 88 68 89 69 90 70 91 46 92 47 93 56 94 48 95
REMARK SMILES IDX 49 96 55 97 57 98 50 99 51 100 52 101 53 102 54 103
REMARK H PARENT 98 22 78 53 44 64
REMARK Flexibility Score: inf
ROOT
ATOM      1  C   UNL A   1      33.995  31.229  27.309  1.00  0.00     0.275 C 
ENDROOT
BRANCH   1   2
ATOM      2  O   UNL A   1      33.535  29.862  27.264  1.00  0.00    -0.458 OA
BRANCH   2   3
ATOM      3  C   UNL A   1      34.453  28.931  26.900  1.00  0.00     0.338 C 
ATOM      4  O   UNL A   1      35.602  28.839  27.294  1.00  0.00    -0.246 OA
BRANCH   3   5
ATOM      5  C   UNL A   1      33.791  27.896  26.072  1.00  0.00     0.062 A 
ATOM      6  C   UNL A   1      31.884  27.346  24.669  1.00  0.00    -0.016 A 
ATOM      7  C   UNL A   1      32.483  28.161  25.623  1.00  0.00     0.024 A 
ATOM      8  C   UNL A   1      32.550  26.178  24.311  1.00  0.00     0.030 A 
ATOM      9  C   UNL A   1      33.802  25.849  24.815  1.00  0.00     0.084 A 
ATOM     10  C   UNL A   1      34.456  26.730  25.675  1.00  0.00     0.037 A 
BRANCH   6  11
ATOM     11  C   UNL A   1      30.655  27.685  23.945  1.00  0.00    -0.018 A 
ATOM     12  C   UNL A   1      29.359  29.313  22.643  1.00  0.00     0.010 A 
ATOM     13  C   UNL A   1      28.209  28.541  22.855  1.00  0.00     0.010 A 
ATOM     14  C   UNL A   1      30.578  28.855  23.176  1.00  0.00     0.018 A 
ATOM     15  C   UNL A   1      28.266  27.375  23.616  1.00  0.00     0.001 A 
ATOM     16  C   UNL A   1      29.477  26.957  24.167  1.00  0.00     0.009 A 
BRANCH  12  17
ATOM     17  C   UNL A   1      29.256  30.632  21.878  1.00  0.00     0.211 C 
ATOM     18  C   UNL A   1      28.013  30.662  20.969  1.00  0.00     0.081 C 
BRANCH  17  19
ATOM     19  N   UNL A   1      29.442  31.817  22.739  1.00  0.00    -0.334 N 
ATOM     20  C   UNL A   1      28.630  32.954  22.313  1.00  0.00     0.333 C 
ATOM     21  C   UNL A   1      29.284  31.585  24.171  1.00  0.00     0.333 C 
ATOM     22  H   UNL A   1      30.427  32.045  22.606  1.00  0.00     0.348 HD
ENDBRANCH  17  19
ENDBRANCH  12  17
ENDBRANCH   6  11
BRANCH   9  23
ATOM     23  S   UNL A   1      34.579  24.331  24.326  1.00  0.00     0.243 S 
ATOM     24  O   UNL A   1      34.448  24.253  22.883  1.00  0.00    -0.207 OA
ATOM     25  O   UNL A   1      35.869  24.314  24.972  1.00  0.00    -0.207 OA
BRANCH  23  26
ATOM     26  N   UNL A   1      33.638  23.113  25.001  1.00  0.00    -0.193 NA
ATOM     27  C   UNL A   1      33.527  21.770  24.384  1.00  0.00     0.131 C 
ATOM     28  C   UNL A   1      32.789  23.352  26.186  1.00  0.00     0.131 C 
ATOM     29  C   UNL A   1      32.072  21.278  24.319  1.00  0.00     0.177 C 
ATOM     30  C   UNL A   1      31.371  22.809  25.979  1.00  0.00     0.177 C 
ATOM     31  O   UNL A   1      31.390  21.437  25.570  1.00  0.00    -0.379 OA
ENDBRANCH  23  26
ENDBRANCH   9  23
ENDBRANCH   3   5
ENDBRANCH   2   3
ENDBRANCH   1   2
BRANCH   1  32
ATOM     32  C   UNL A   1      34.400  31.596  28.738  1.00  0.00     0.275 C 
BRANCH  32  33
ATOM     33  O   UNL A   1      35.835  31.625  28.827  1.00  0.00    -0.458 OA
BRANCH  33  34
ATOM     34  C   UNL A   1      36.382  31.100  29.949  1.00  0.00     0.338 C 
ATOM     35  O   UNL A   1      35.895  31.066  31.066  1.00  0.00    -0.246 OA
BRANCH  34  36
ATOM     36  C   UNL A   1      37.689  30.501  29.617  1.00  0.00     0.060 A 
ATOM     37  C   UNL A   1      38.583  30.229  30.646  1.00  0.00     0.016 A 
ATOM     38  C   UNL A   1      38.083  30.310  28.296  1.00  0.00     0.016 A 
ATOM     39  C   UNL A   1      39.904  29.887  30.363  1.00  0.00     0.010 A 
ATOM     40  C   UNL A   1      39.372  29.828  28.020  1.00  0.00     0.010 A 
ATOM     41  C   UNL A   1      40.319  29.648  29.047  1.00  0.00    -0.014 A 
BRANCH  41  42
ATOM     42  C   UNL A   1      41.726  29.219  28.753  1.00  0.00     0.031 A 
ATOM     43  C   UNL A   1      42.863  30.215  28.786  1.00  0.00     0.074 A 
ATOM     44  C   UNL A   1      42.005  27.931  28.450  1.00  0.00     0.049 A 
ATOM     45  N   UNL A   1      44.100  30.076  28.376  1.00  0.00    -0.248 NA
ATOM     46  C   UNL A   1      42.567  31.548  29.333  1.00  0.00     0.031 C 
ATOM     47  C   UNL A   1      41.031  26.839  28.399  1.00  0.00     0.029 A 
ATOM     48  N   UNL A   1      43.193  27.319  28.123  1.00  0.00    -0.354 N 
ATOM     49  C   UNL A   1      44.706  31.317  28.549  1.00  0.00     0.074 A 
ATOM     50  C   UNL A   1      43.703  32.196  29.111  1.00  0.00     0.031 C 
ATOM     51  C   UNL A   1      41.662  25.690  28.117  1.00  0.00     0.029 A 
ATOM     52  C   UNL A   1      43.065  25.976  27.848  1.00  0.00     0.049 A 
ATOM     53  H   UNL A   1      44.054  27.796  28.090  1.00  0.00     0.167 HD
ATOM     54  C   UNL A   1      45.976  31.692  28.259  1.00  0.00     0.037 A 
ATOM     55  C   UNL A   1      43.947  25.076  27.372  1.00  0.00     0.037 A 
ATOM     56  C   UNL A   1      46.993  30.802  27.759  1.00  0.00     0.049 A 
ATOM     57  C   UNL A   1      45.342  25.513  27.039  1.00  0.00     0.074 A 
ATOM     58  C   UNL A   1      48.322  31.083  27.481  1.00  0.00     0.029 A 
ATOM     59  N   UNL A   1      46.803  29.460  27.465  1.00  0.00    -0.354 N 
ATOM     60  N   UNL A   1      45.883  26.701  27.167  1.00  0.00    -0.248 NA
ATOM     61  C   UNL A   1      46.238  24.498  26.469  1.00  0.00     0.031 C 
ATOM     62  C   UNL A   1      48.921  29.922  26.979  1.00  0.00     0.029 A 
ATOM     63  C   UNL A   1      47.979  28.906  26.983  1.00  0.00     0.049 A 
ATOM     64  H   UNL A   1      45.956  28.972  27.581  1.00  0.00     0.167 HD
ATOM     65  C   UNL A   1      47.180  26.579  26.685  1.00  0.00     0.074 A 
ATOM     66  C   UNL A   1      47.352  25.196  26.289  1.00  0.00     0.031 C 
ATOM     67  C   UNL A   1      48.137  27.534  26.573  1.00  0.00     0.037 A 
BRANCH  54  68
ATOM     68  C   UNL A   1      46.331  33.145  28.428  1.00  0.00     0.058 A 
ATOM     69  C   UNL A   1      46.182  34.083  27.395  1.00  0.00     0.135 A 
ATOM     70  C   UNL A   1      46.811  33.609  29.666  1.00  0.00     0.135 A 
ATOM     71  F   UNL A   1      45.741  33.694  26.189  1.00  0.00    -0.206 F 
ATOM     72  C   UNL A   1      46.530  35.420  27.571  1.00  0.00     0.059 A 
ATOM     73  C   UNL A   1      47.141  34.945  29.871  1.00  0.00     0.059 A 
ATOM     74  F   UNL A   1      46.969  32.756  30.691  1.00  0.00    -0.206 F 
ATOM     75  C   UNL A   1      47.015  35.840  28.811  1.00  0.00     0.060 A 
BRANCH  75  76
ATOM     76  S   UNL A   1      47.486  37.571  29.018  1.00  0.00     0.124 S 
ATOM     77  O   UNL A   1      48.397  37.760  27.894  1.00  0.00    -0.237 OA
ATOM     78  O   UNL A   1      46.203  38.260  28.915  1.00  0.00    -0.237 OA
ATOM     79  O   UNL A   1      48.104  37.600  30.341  1.00  0.00    -0.744 OA
ENDBRANCH  75  76
ENDBRANCH  54  68
BRANCH  55  80
ATOM     80  C   UNL A   1      43.496  23.680  27.118  1.00  0.00     0.058 A 
ATOM     81  C   UNL A   1      43.269  22.786  28.173  1.00  0.00     0.135 A 
ATOM     82  C   UNL A   1      43.216  23.239  25.813  1.00  0.00     0.135 A 
ATOM     83  F   UNL A   1      43.539  23.154  29.433  1.00  0.00    -0.206 F 
ATOM     84  C   UNL A   1      42.765  21.508  27.947  1.00  0.00     0.059 A 
ATOM     85  C   UNL A   1      42.684  21.978  25.565  1.00  0.00     0.059 A 
ATOM     86  F   UNL A   1      43.408  24.061  24.770  1.00  0.00    -0.206 F 
ATOM     87  C   UNL A   1      42.462  21.119  26.640  1.00  0.00     0.060 A 
BRANCH  87  88
ATOM     88  S   UNL A   1      41.707  19.502  26.366  1.00  0.00     0.124 S 
ATOM     89  O   UNL A   1      42.268  19.130  25.073  1.00  0.00    -0.237 OA
ATOM     90  O   UNL A   1      42.186  18.737  27.514  1.00  0.00    -0.237 OA
ATOM     91  O   UNL A   1      40.276  19.795  26.374  1.00  0.00    -0.744 OA
ENDBRANCH  87  88
ENDBRANCH  55  80
BRANCH  67  92
ATOM     92  C   UNL A   1      49.458  27.114  25.993  1.00  0.00     0.058 A 
ATOM     93  C   UNL A   1      49.708  27.185  24.613  1.00  0.00     0.135 A 
ATOM     94  C   UNL A   1      50.496  26.668  26.825  1.00  0.00     0.135 A 
ATOM     95  F   UNL A   1      48.744  27.595  23.773  1.00  0.00    -0.206 F 
ATOM     96  C   UNL A   1      50.934  26.809  24.077  1.00  0.00     0.059 A 
ATOM     97  C   UNL A   1      51.739  26.309  26.313  1.00  0.00     0.059 A 
ATOM     98  F   UNL A   1      50.311  26.588  28.153  1.00  0.00    -0.206 F 
ATOM     99  C   UNL A   1      51.944  26.372  24.936  1.00  0.00     0.060 A 
BRANCH  99 100
ATOM    100  S   UNL A   1      53.542  25.910  24.231  1.00  0.00     0.124 S 
ATOM    101  O   UNL A   1      54.421  26.921  24.809  1.00  0.00    -0.237 OA
ATOM    102  O   UNL A   1      53.724  24.551  24.729  1.00  0.00    -0.237 OA
ATOM    103  O   UNL A   1      53.321  26.019  22.791  1.00  0.00    -0.744 OA
ENDBRANCH  99 100
ENDBRANCH  67  92
ENDBRANCH  41  42
ENDBRANCH  34  36
ENDBRANCH  33  34
ENDBRANCH  32  33
ENDBRANCH   1  32
TORSDOF 19
ENDMDL
MODEL 3
REMARK VINA RESULT:     -11.7      0.633      7.979
REMARK SMILES C[C@H](c1cccc(-c2cc(C(=O)OCCOC(=O)c3ccc(-c4c5nc(c(-c6c(F)cc(S(=O)(=O)[O-])cc6F)c6ccc([nH]6)c(-c6c(F)cc(S(=O)(=O)[O-])cc6F)c6nc(c(-c7c(F)cc(S(=O)(=O)[O-])cc7F)c7ccc4[nH]7)C=C6)C=C5)cc3)cc(S(=O)(=O)N3CCOCC3)c2)c1)[NH+](C)C
REMARK SMILES IDX 14 1 13 2 11 3 12 4 10 5 8 6 9 7 96 8 86 9 85 10 7 11 3 12
REMARK SMILES IDX 4 13 97 14 5 15 6 16 2 17 1 18 98 19 99 20 100 21 87 23
REMARK SMILES IDX 88 24 89 25 90 26 91 27 95 28 92 29 94 30 93 31 15 32 16 33
REMARK SMILES IDX 17 34 18 35 19 36 20 37 84 38 21 39 83 40 22 41 23 42 24 43
REMARK SMILES IDX 77 44 25 45 82 46 76 47 78 48 26 49 81 50 75 51 74 52 27 54
REMARK SMILES IDX 61 55 40 56 60 57 41 58 44 59 59 60 79 61 42 62 43 63 58 65
REMARK SMILES IDX 80 66 45 67 28 68 29 69 38 70 30 71 31 72 37 73 39 74 32 75
REMARK SMILES IDX 33 76 34 77 35 78 36 79 62 80 63 81 72 82 64 83 65 84 71 85
REMARK SMILES IDX 73 86 66 87 67 88 68 89 69 90 70 91 46 92 47 93 56 94 48 95
REMARK SMILES IDX 49 96 55 97 57 98 50 99 51 100 52 101 53 102 54 103
REMARK H PARENT 98 22 78 53 44 64
REMARK Flexibility Score: inf
ROOT
ATOM      1  C   UNL A   1      33.667  32.069  27.684  1.00  0.00     0.275 C 
ENDROOT
BRANCH   1   2
ATOM      2  O   UNL A   1      33.181  30.887  27.014  1.00  0.00    -0.458 OA
BRANCH   2   3
ATOM      3  C   UNL A   1      34.058  29.858  26.898  1.00  0.00     0.338 C 
ATOM      4  O   UNL A   1      35.082  29.691  27.536  1.00  0.00    -0.246 OA
BRANCH   3   5
ATOM      5  C   UNL A   1      33.489  28.837  25.989  1.00  0.00     0.062 A 
ATOM      6  C   UNL A   1      33.044  26.475  25.628  1.00  0.00    -0.016 A 
ATOM      7  C   UNL A   1      33.724  27.484  26.301  1.00  0.00     0.024 A 
ATOM      8  C   UNL A   1      32.267  26.841  24.533  1.00  0.00     0.030 A 
ATOM      9  C   UNL A   1      32.098  28.165  24.150  1.00  0.00     0.084 A 
ATOM     10  C   UNL A   1      32.678  29.185  24.901  1.00  0.00     0.037 A 
BRANCH   6  11
ATOM     11  C   UNL A   1      33.012  25.073  26.055  1.00  0.00    -0.018 A 
ATOM     12  C   UNL A   1      34.002  22.828  25.989  1.00  0.00     0.010 A 
ATOM     13  C   UNL A   1      32.820  22.309  26.535  1.00  0.00     0.010 A 
ATOM     14  C   UNL A   1      34.087  24.217  25.779  1.00  0.00     0.018 A 
ATOM     15  C   UNL A   1      31.741  23.145  26.816  1.00  0.00     0.001 A 
ATOM     16  C   UNL A   1      31.832  24.514  26.567  1.00  0.00     0.009 A 
BRANCH  12  17
ATOM     17  C   UNL A   1      35.140  21.881  25.609  1.00  0.00     0.211 C 
ATOM     18  C   UNL A   1      34.613  20.624  24.890  1.00  0.00     0.081 C 
BRANCH  17  19
ATOM     19  N   UNL A   1      36.267  22.568  24.946  1.00  0.00    -0.334 N 
ATOM     20  C   UNL A   1      37.566  22.032  25.347  1.00  0.00     0.333 C 
ATOM     21  C   UNL A   1      36.180  22.661  23.493  1.00  0.00     0.333 C 
ATOM     22  H   UNL A   1      36.184  23.525  25.287  1.00  0.00     0.348 HD
ENDBRANCH  17  19
ENDBRANCH  12  17
ENDBRANCH   6  11
BRANCH   9  23
ATOM     23  S   UNL A   1      31.107  28.551  22.729  1.00  0.00     0.243 S 
ATOM     24  O   UNL A   1      31.759  29.667  22.069  1.00  0.00    -0.207 OA
ATOM     25  O   UNL A   1      30.875  27.299  22.049  1.00  0.00    -0.207 OA
BRANCH  23  26
ATOM     26  N   UNL A   1      29.640  29.094  23.343  1.00  0.00    -0.193 NA
ATOM     27  C   UNL A   1      28.459  28.206  23.462  1.00  0.00     0.131 C 
ATOM     28  C   UNL A   1      29.421  30.512  23.696  1.00  0.00     0.131 C 
ATOM     29  C   UNL A   1      27.176  28.873  22.941  1.00  0.00     0.177 C 
ATOM     30  C   UNL A   1      28.107  31.039  23.111  1.00  0.00     0.177 C 
ATOM     31  O   UNL A   1      27.003  30.198  23.461  1.00  0.00    -0.379 OA
ENDBRANCH  23  26
ENDBRANCH   9  23
ENDBRANCH   3   5
ENDBRANCH   2   3
ENDBRANCH   1   2
BRANCH   1  32
ATOM     32  C   UNL A   1      32.630  33.188  27.587  1.00  0.00     0.275 C 
BRANCH  32  33
ATOM     33  O   UNL A   1      33.300  34.459  27.658  1.00  0.00    -0.458 OA
BRANCH  33  34
ATOM     34  C   UNL A   1      33.285  35.084  28.859  1.00  0.00     0.338 C 
ATOM     35  O   UNL A   1      32.514  35.952  29.234  1.00  0.00    -0.246 OA
BRANCH  34  36
ATOM     36  C   UNL A   1      34.345  34.518  29.714  1.00  0.00     0.060 A 
ATOM     37  C   UNL A   1      35.663  34.579  29.278  1.00  0.00     0.016 A 
ATOM     38  C   UNL A   1      34.040  33.831  30.885  1.00  0.00     0.016 A 
ATOM     39  C   UNL A   1      36.659  33.857  29.933  1.00  0.00     0.010 A 
ATOM     40  C   UNL A   1      35.070  33.224  31.621  1.00  0.00     0.010 A 
ATOM     41  C   UNL A   1      36.392  33.191  31.136  1.00  0.00    -0.014 A 
BRANCH  41  42
ATOM     42  C   UNL A   1      37.482  32.468  31.870  1.00  0.00     0.031 A 
ATOM     43  C   UNL A   1      37.940  32.933  33.233  1.00  0.00     0.074 A 
ATOM     44  C   UNL A   1      38.080  31.385  31.323  1.00  0.00     0.049 A 
ATOM     45  N   UNL A   1      38.986  32.561  33.928  1.00  0.00    -0.248 NA
ATOM     46  C   UNL A   1      37.127  33.966  33.894  1.00  0.00     0.031 C 
ATOM     47  C   UNL A   1      37.741  30.789  30.029  1.00  0.00     0.029 A 
ATOM     48  N   UNL A   1      39.102  30.590  31.787  1.00  0.00    -0.354 N 
ATOM     49  C   UNL A   1      38.996  33.360  35.068  1.00  0.00     0.074 A 
ATOM     50  C   UNL A   1      37.845  34.232  34.976  1.00  0.00     0.031 C 
ATOM     51  C   UNL A   1      38.497  29.701  29.827  1.00  0.00     0.029 A 
ATOM     52  C   UNL A   1      39.458  29.584  30.917  1.00  0.00     0.049 A 
ATOM     53  H   UNL A   1      39.538  30.726  32.659  1.00  0.00     0.167 HD
ATOM     54  C   UNL A   1      39.886  33.372  36.092  1.00  0.00     0.037 A 
ATOM     55  C   UNL A   1      40.475  28.701  30.943  1.00  0.00     0.037 A 
ATOM     56  C   UNL A   1      40.996  32.462  36.215  1.00  0.00     0.049 A 
ATOM     57  C   UNL A   1      41.459  28.742  32.073  1.00  0.00     0.074 A 
ATOM     58  C   UNL A   1      41.922  32.370  37.242  1.00  0.00     0.029 A 
ATOM     59  N   UNL A   1      41.332  31.485  35.290  1.00  0.00    -0.354 N 
ATOM     60  N   UNL A   1      41.478  29.534  33.118  1.00  0.00    -0.248 NA
ATOM     61  C   UNL A   1      42.578  27.792  32.014  1.00  0.00     0.031 C 
ATOM     62  C   UNL A   1      42.843  31.366  36.915  1.00  0.00     0.029 A 
ATOM     63  C   UNL A   1      42.466  30.804  35.706  1.00  0.00     0.049 A 
ATOM     64  H   UNL A   1      40.838  31.302  34.459  1.00  0.00     0.167 HD
ATOM     65  C   UNL A   1      42.614  29.185  33.837  1.00  0.00     0.074 A 
ATOM     66  C   UNL A   1      43.242  28.091  33.123  1.00  0.00     0.031 C 
ATOM     67  C   UNL A   1      43.096  29.731  34.980  1.00  0.00     0.037 A 
BRANCH  54  68
ATOM     68  C   UNL A   1      39.726  34.439  37.143  1.00  0.00     0.058 A 
ATOM     69  C   UNL A   1      40.183  35.753  36.959  1.00  0.00     0.135 A 
ATOM     70  C   UNL A   1      39.079  34.136  38.354  1.00  0.00     0.135 A 
ATOM     71  F   UNL A   1      40.821  36.093  35.828  1.00  0.00    -0.206 F 
ATOM     72  C   UNL A   1      40.037  36.719  37.951  1.00  0.00     0.059 A 
ATOM     73  C   UNL A   1      38.899  35.093  39.349  1.00  0.00     0.059 A 
ATOM     74  F   UNL A   1      38.618  32.896  38.582  1.00  0.00    -0.206 F 
ATOM     75  C   UNL A   1      39.400  36.378  39.145  1.00  0.00     0.060 A 
BRANCH  75  76
ATOM     76  S   UNL A   1      39.238  37.633  40.433  1.00  0.00     0.124 S 
ATOM     77  O   UNL A   1      40.560  38.251  40.403  1.00  0.00    -0.237 OA
ATOM     78  O   UNL A   1      38.143  38.457  39.932  1.00  0.00    -0.237 OA
ATOM     79  O   UNL A   1      38.936  36.855  41.631  1.00  0.00    -0.744 OA
ENDBRANCH  75  76
ENDBRANCH  54  68
BRANCH  55  80
ATOM     80  C   UNL A   1      40.641  27.749  29.810  1.00  0.00     0.058 A 
ATOM     81  C   UNL A   1      39.758  26.676  29.628  1.00  0.00     0.135 A 
ATOM     82  C   UNL A   1      41.648  27.940  28.849  1.00  0.00     0.135 A 
ATOM     83  F   UNL A   1      38.793  26.441  30.528  1.00  0.00    -0.206 F 
ATOM     84  C   UNL A   1      39.856  25.835  28.523  1.00  0.00     0.059 A 
ATOM     85  C   UNL A   1      41.748  27.131  27.723  1.00  0.00     0.059 A 
ATOM     86  F   UNL A   1      42.512  28.959  28.975  1.00  0.00    -0.206 F 
ATOM     87  C   UNL A   1      40.846  26.079  27.568  1.00  0.00     0.060 A 
BRANCH  87  88
ATOM     88  S   UNL A   1      40.899  25.052  26.085  1.00  0.00     0.124 S 
ATOM     89  O   UNL A   1      41.773  23.966  26.509  1.00  0.00    -0.237 OA
ATOM     90  O   UNL A   1      39.493  24.704  25.899  1.00  0.00    -0.237 OA
ATOM     91  O   UNL A   1      41.452  25.951  25.075  1.00  0.00    -0.744 OA
ENDBRANCH  87  88
ENDBRANCH  55  80
BRANCH  67  92
ATOM     92  C   UNL A   1      44.371  29.155  35.531  1.00  0.00     0.058 A 
ATOM     93  C   UNL A   1      44.357  28.079  36.432  1.00  0.00     0.135 A 
ATOM     94  C   UNL A   1      45.616  29.660  35.130  1.00  0.00     0.135 A 
ATOM     95  F   UNL A   1      43.191  27.566  36.855  1.00  0.00    -0.206 F 
ATOM     96  C   UNL A   1      45.536  27.537  36.933  1.00  0.00     0.059 A 
ATOM     97  C   UNL A   1      46.809  29.118  35.600  1.00  0.00     0.059 A 
ATOM     98  F   UNL A   1      45.684  30.684  34.264  1.00  0.00    -0.206 F 
ATOM     99  C   UNL A   1      46.758  28.064  36.511  1.00  0.00     0.060 A 
BRANCH  99 100
ATOM    100  S   UNL A   1      48.283  27.336  37.147  1.00  0.00     0.124 S 
ATOM    101  O   UNL A   1      48.322  27.874  38.503  1.00  0.00    -0.237 OA
ATOM    102  O   UNL A   1      48.016  25.905  37.040  1.00  0.00    -0.237 OA
ATOM    103  O   UNL A   1      49.307  27.846  36.239  1.00  0.00    -0.744 OA
ENDBRANCH  99 100
ENDBRANCH  67  92
ENDBRANCH  41  42
ENDBRANCH  34  36
ENDBRANCH  33  34
ENDBRANCH  32  33
ENDBRANCH   1  32
TORSDOF 19
ENDMDL
