MODEL 1
REMARK VINA RESULT:     -11.7      0.000      0.000
REMARK SMILES O=C(CSc1nc(O)cc(=O)[nH]1)Nc1cccc(C(=O)OCCOC(=O)c2ccc(-c3c4nc(c(-c5c(F)cc(S(=O)(=O)[O-])cc5F)c5ccc([nH]5)c(-c5c(F)cc(S(=O)(=O)[O-])cc5F)c5nc(c(-c6c(F)cc(S(=O)(=O)[O-])cc6F)c6ccc3[nH]6)C=C5)C=C4)cc2)c1
REMARK SMILES IDX 22 1 21 2 19 3 20 4 18 5 14 6 15 7 93 8 16 9 17 10 13 11
REMARK SMILES IDX 1 12 2 13 3 15 4 16 5 17 6 18 12 19 7 20 10 21 9 23 11 24
REMARK SMILES IDX 8 25 23 27 24 28 25 29 26 30 27 31 28 32 92 33 29 34 91 35
REMARK SMILES IDX 30 36 31 37 32 38 85 39 33 40 90 41 84 42 86 43 34 44 89 45
REMARK SMILES IDX 83 46 82 47 35 49 69 50 48 51 68 52 49 53 52 54 67 55 87 56
REMARK SMILES IDX 50 57 51 58 66 60 88 61 53 62 36 63 37 64 46 65 38 66 39 67
REMARK SMILES IDX 45 68 47 69 40 70 41 71 42 72 43 73 44 74 70 75 71 76 80 77
REMARK SMILES IDX 72 78 73 79 79 80 81 81 74 82 75 83 76 84 77 85 78 86 54 87
REMARK SMILES IDX 55 88 64 89 56 90 57 91 63 92 65 93 58 94 59 95 60 96 61 97
REMARK SMILES IDX 62 98
REMARK H PARENT 13 14 12 22 8 26 86 48 52 59
REMARK Flexibility Score: inf
ROOT
ATOM      1  C   UNL A   1      42.826  21.750  26.130  1.00  0.00     0.275 C 
ENDROOT
BRANCH   1   2
ATOM      2  O   UNL A   1      41.584  21.145  25.718  1.00  0.00    -0.458 OA
BRANCH   2   3
ATOM      3  C   UNL A   1      40.634  20.996  26.675  1.00  0.00     0.338 C 
ATOM      4  O   UNL A   1      40.738  20.358  27.710  1.00  0.00    -0.246 OA
BRANCH   3   5
ATOM      5  C   UNL A   1      39.461  21.848  26.358  1.00  0.00     0.062 A 
ATOM      6  C   UNL A   1      37.345  22.222  25.256  1.00  0.00     0.042 A 
ATOM      7  C   UNL A   1      37.405  23.576  25.611  1.00  0.00     0.026 A 
ATOM      8  C   UNL A   1      38.397  21.369  25.591  1.00  0.00     0.041 A 
ATOM      9  C   UNL A   1      38.437  24.042  26.421  1.00  0.00     0.003 A 
ATOM     10  C   UNL A   1      39.437  23.166  26.834  1.00  0.00     0.016 A 
BRANCH   6  11
ATOM     11  N   UNL A   1      36.165  21.785  24.630  1.00  0.00    -0.325 N 
ATOM     12  O   UNL A   1      34.777  21.430  26.468  1.00  0.00    -0.274 OA
ATOM     13  C   UNL A   1      34.963  21.497  25.256  1.00  0.00     0.234 C 
ATOM     14  H   UNL A   1      36.196  21.673  23.653  1.00  0.00     0.169 HD
BRANCH  13  15
ATOM     15  C   UNL A   1      33.805  21.314  24.290  1.00  0.00     0.178 C 
BRANCH  15  16
ATOM     16  S   UNL A   1      32.378  20.506  25.076  1.00  0.00    -0.078 SA
BRANCH  16  17
ATOM     17  C   UNL A   1      32.737  18.822  24.825  1.00  0.00     0.172 A 
ATOM     18  N   UNL A   1      32.431  17.969  25.745  1.00  0.00    -0.189 NA
ATOM     19  N   UNL A   1      33.399  18.509  23.678  1.00  0.00    -0.301 N 
ATOM     20  C   UNL A   1      32.819  16.680  25.527  1.00  0.00     0.218 A 
ATOM     21  C   UNL A   1      33.784  17.230  23.408  1.00  0.00     0.255 A 
ATOM     22  H   UNL A   1      33.605  19.221  23.030  1.00  0.00     0.172 HD
ATOM     23  C   UNL A   1      33.463  16.244  24.444  1.00  0.00     0.139 A 
ATOM     24  O   UNL A   1      34.369  16.913  22.380  1.00  0.00    -0.269 OA
BRANCH  20  25
ATOM     25  O   UNL A   1      32.530  15.805  26.540  1.00  0.00    -0.493 OA
ATOM     26  H   UNL A   1      31.982  15.062  26.375  1.00  0.00     0.295 HD
ENDBRANCH  20  25
ENDBRANCH  16  17
ENDBRANCH  15  16
ENDBRANCH  13  15
ENDBRANCH   6  11
ENDBRANCH   3   5
ENDBRANCH   2   3
ENDBRANCH   1   2
BRANCH   1  27
ATOM     27  C   UNL A   1      43.008  23.121  25.479  1.00  0.00     0.275 C 
BRANCH  27  28
ATOM     28  O   UNL A   1      42.695  24.162  26.422  1.00  0.00    -0.458 OA
BRANCH  28  29
ATOM     29  C   UNL A   1      42.384  25.366  25.890  1.00  0.00     0.338 C 
ATOM     30  O   UNL A   1      42.391  25.689  24.715  1.00  0.00    -0.246 OA
BRANCH  29  31
ATOM     31  C   UNL A   1      41.912  26.253  26.964  1.00  0.00     0.060 A 
ATOM     32  C   UNL A   1      42.225  27.605  26.868  1.00  0.00     0.016 A 
ATOM     33  C   UNL A   1      41.285  25.759  28.104  1.00  0.00     0.016 A 
ATOM     34  C   UNL A   1      41.972  28.470  27.926  1.00  0.00     0.010 A 
ATOM     35  C   UNL A   1      40.970  26.642  29.148  1.00  0.00     0.010 A 
ATOM     36  C   UNL A   1      41.338  28.001  29.083  1.00  0.00    -0.014 A 
BRANCH  36  37
ATOM     37  C   UNL A   1      41.130  28.919  30.239  1.00  0.00     0.031 A 
ATOM     38  C   UNL A   1      42.071  28.870  31.415  1.00  0.00     0.074 A 
ATOM     39  C   UNL A   1      40.133  29.826  30.223  1.00  0.00     0.049 A 
ATOM     40  N   UNL A   1      41.991  29.487  32.567  1.00  0.00    -0.248 NA
ATOM     41  C   UNL A   1      43.256  28.008  31.281  1.00  0.00     0.031 C 
ATOM     42  C   UNL A   1      39.182  30.023  29.127  1.00  0.00     0.029 A 
ATOM     43  N   UNL A   1      39.758  30.764  31.156  1.00  0.00    -0.354 N 
ATOM     44  C   UNL A   1      43.081  29.050  33.311  1.00  0.00     0.074 A 
ATOM     45  C   UNL A   1      43.806  28.111  32.481  1.00  0.00     0.031 C 
ATOM     46  C   UNL A   1      38.356  31.036  29.436  1.00  0.00     0.029 A 
ATOM     47  C   UNL A   1      38.666  31.511  30.779  1.00  0.00     0.049 A 
ATOM     48  H   UNL A   1      40.226  30.888  32.013  1.00  0.00     0.167 HD
ATOM     49  C   UNL A   1      43.445  29.400  34.568  1.00  0.00     0.037 A 
ATOM     50  C   UNL A   1      37.968  32.449  31.452  1.00  0.00     0.037 A 
ATOM     51  C   UNL A   1      42.750  30.372  35.371  1.00  0.00     0.049 A 
ATOM     52  C   UNL A   1      38.373  32.800  32.857  1.00  0.00     0.074 A 
ATOM     53  C   UNL A   1      43.043  30.798  36.656  1.00  0.00     0.029 A 
ATOM     54  N   UNL A   1      41.631  31.086  34.962  1.00  0.00    -0.354 N 
ATOM     55  N   UNL A   1      39.373  32.334  33.567  1.00  0.00    -0.248 NA
ATOM     56  C   UNL A   1      37.546  33.791  33.559  1.00  0.00     0.031 C 
ATOM     57  C   UNL A   1      42.085  31.746  37.034  1.00  0.00     0.029 A 
ATOM     58  C   UNL A   1      41.219  31.940  35.972  1.00  0.00     0.049 A 
ATOM     59  H   UNL A   1      41.196  30.997  34.084  1.00  0.00     0.167 HD
ATOM     60  C   UNL A   1      39.302  32.984  34.794  1.00  0.00     0.074 A 
ATOM     61  C   UNL A   1      38.173  33.889  34.723  1.00  0.00     0.031 C 
ATOM     62  C   UNL A   1      40.096  32.840  35.883  1.00  0.00     0.037 A 
BRANCH  49  63
ATOM     63  C   UNL A   1      44.633  28.701  35.170  1.00  0.00     0.058 A 
ATOM     64  C   UNL A   1      44.502  27.522  35.919  1.00  0.00     0.135 A 
ATOM     65  C   UNL A   1      45.928  29.207  34.968  1.00  0.00     0.135 A 
ATOM     66  F   UNL A   1      43.287  27.004  36.158  1.00  0.00    -0.206 F 
ATOM     67  C   UNL A   1      45.610  26.885  36.472  1.00  0.00     0.059 A 
ATOM     68  C   UNL A   1      47.052  28.574  35.489  1.00  0.00     0.059 A 
ATOM     69  F   UNL A   1      46.110  30.332  34.258  1.00  0.00    -0.206 F 
ATOM     70  C   UNL A   1      46.881  27.421  36.253  1.00  0.00     0.060 A 
BRANCH  70  71
ATOM     71  S   UNL A   1      48.309  26.587  36.979  1.00  0.00     0.124 S 
ATOM     72  O   UNL A   1      49.383  27.526  36.666  1.00  0.00    -0.237 OA
ATOM     73  O   UNL A   1      47.938  26.497  38.387  1.00  0.00    -0.237 OA
ATOM     74  O   UNL A   1      48.359  25.315  36.265  1.00  0.00    -0.744 OA
ENDBRANCH  70  71
ENDBRANCH  49  63
BRANCH  50  75
ATOM     75  C   UNL A   1      36.789  33.096  30.816  1.00  0.00     0.058 A 
ATOM     76  C   UNL A   1      35.487  32.838  31.271  1.00  0.00     0.135 A 
ATOM     77  C   UNL A   1      36.941  33.992  29.746  1.00  0.00     0.135 A 
ATOM     78  F   UNL A   1      35.288  31.979  32.283  1.00  0.00    -0.206 F 
ATOM     79  C   UNL A   1      34.378  33.437  30.683  1.00  0.00     0.059 A 
ATOM     80  C   UNL A   1      35.850  34.623  29.160  1.00  0.00     0.059 A 
ATOM     81  F   UNL A   1      38.166  34.279  29.278  1.00  0.00    -0.206 F 
ATOM     82  C   UNL A   1      34.569  34.332  29.629  1.00  0.00     0.060 A 
BRANCH  82  83
ATOM     83  S   UNL A   1      33.130  35.147  28.904  1.00  0.00     0.124 S 
ATOM     84  O   UNL A   1      32.261  35.294  30.065  1.00  0.00    -0.237 OA
ATOM     85  O   UNL A   1      33.705  36.380  28.376  1.00  0.00    -0.237 OA
ATOM     86  O   UNL A   1      32.680  34.193  27.894  1.00  0.00    -0.744 OA
ENDBRANCH  82  83
ENDBRANCH  50  75
BRANCH  62  87
ATOM     87  C   UNL A   1      39.793  33.703  37.076  1.00  0.00     0.058 A 
ATOM     88  C   UNL A   1      38.834  33.329  38.029  1.00  0.00     0.135 A 
ATOM     89  C   UNL A   1      40.498  34.899  37.286  1.00  0.00     0.135 A 
ATOM     90  F   UNL A   1      38.127  32.198  37.870  1.00  0.00    -0.206 F 
ATOM     91  C   UNL A   1      38.566  34.124  39.140  1.00  0.00     0.059 A 
ATOM     92  C   UNL A   1      40.264  35.697  38.401  1.00  0.00     0.059 A 
ATOM     93  F   UNL A   1      41.432  35.295  36.408  1.00  0.00    -0.206 F 
ATOM     94  C   UNL A   1      39.287  35.307  39.316  1.00  0.00     0.060 A 
BRANCH  94  95
ATOM     95  S   UNL A   1      38.951  36.318  40.773  1.00  0.00     0.124 S 
ATOM     96  O   UNL A   1      38.387  37.522  40.173  1.00  0.00    -0.237 OA
ATOM     97  O   UNL A   1      38.015  35.487  41.525  1.00  0.00    -0.237 OA
ATOM     98  O   UNL A   1      40.267  36.479  41.385  1.00  0.00    -0.744 OA
ENDBRANCH  94  95
ENDBRANCH  62  87
ENDBRANCH  36  37
ENDBRANCH  29  31
ENDBRANCH  28  29
ENDBRANCH  27  28
ENDBRANCH   1  27
TORSDOF 19
ENDMDL
MODEL 2
REMARK VINA RESULT:     -11.7      6.400     14.084
REMARK SMILES O=C(CSc1nc(O)cc(=O)[nH]1)Nc1cccc(C(=O)OCCOC(=O)c2ccc(-c3c4nc(c(-c5c(F)cc(S(=O)(=O)[O-])cc5F)c5ccc([nH]5)c(-c5c(F)cc(S(=O)(=O)[O-])cc5F)c5nc(c(-c6c(F)cc(S(=O)(=O)[O-])cc6F)c6ccc3[nH]6)C=C5)C=C4)cc2)c1
REMARK SMILES IDX 22 1 21 2 19 3 20 4 18 5 14 6 15 7 93 8 16 9 17 10 13 11
REMARK SMILES IDX 1 12 2 13 3 15 4 16 5 17 6 18 12 19 7 20 10 21 9 23 11 24
REMARK SMILES IDX 8 25 23 27 24 28 25 29 26 30 27 31 28 32 92 33 29 34 91 35
REMARK SMILES IDX 30 36 31 37 32 38 85 39 33 40 90 41 84 42 86 43 34 44 89 45
REMARK SMILES IDX 83 46 82 47 35 49 69 50 48 51 68 52 49 53 52 54 67 55 87 56
REMARK SMILES IDX 50 57 51 58 66 60 88 61 53 62 36 63 37 64 46 65 38 66 39 67
REMARK SMILES IDX 45 68 47 69 40 70 41 71 42 72 43 73 44 74 70 75 71 76 80 77
REMARK SMILES IDX 72 78 73 79 79 80 81 81 74 82 75 83 76 84 77 85 78 86 54 87
REMARK SMILES IDX 55 88 64 89 56 90 57 91 63 92 65 93 58 94 59 95 60 96 61 97
REMARK SMILES IDX 62 98
REMARK H PARENT 13 14 12 22 8 26 86 48 52 59
REMARK Flexibility Score: inf
ROOT
ATOM      1  C   UNL A   1      37.082  32.320  34.462  1.00  0.00     0.275 C 
ENDROOT
BRANCH   1   2
ATOM      2  O   UNL A   1      38.411  32.689  34.042  1.00  0.00    -0.458 OA
BRANCH   2   3
ATOM      3  C   UNL A   1      38.564  33.942  33.545  1.00  0.00     0.338 C 
ATOM      4  O   UNL A   1      38.766  34.959  34.186  1.00  0.00    -0.246 OA
BRANCH   3   5
ATOM      5  C   UNL A   1      38.590  33.896  32.061  1.00  0.00     0.062 A 
ATOM      6  C   UNL A   1      37.545  34.223  29.909  1.00  0.00     0.042 A 
ATOM      7  C   UNL A   1      38.617  33.565  29.294  1.00  0.00     0.026 A 
ATOM      8  C   UNL A   1      37.511  34.347  31.298  1.00  0.00     0.041 A 
ATOM      9  C   UNL A   1      39.718  33.164  30.047  1.00  0.00     0.003 A 
ATOM     10  C   UNL A   1      39.723  33.376  31.423  1.00  0.00     0.016 A 
BRANCH   6  11
ATOM     11  N   UNL A   1      36.581  34.791  29.059  1.00  0.00    -0.325 N 
ATOM     12  O   UNL A   1      34.844  33.248  29.239  1.00  0.00    -0.274 OA
ATOM     13  C   UNL A   1      35.296  34.318  28.843  1.00  0.00     0.234 C 
ATOM     14  H   UNL A   1      36.844  35.603  28.569  1.00  0.00     0.169 HD
BRANCH  13  15
ATOM     15  C   UNL A   1      34.410  35.294  28.088  1.00  0.00     0.178 C 
BRANCH  15  16
ATOM     16  S   UNL A   1      32.733  35.378  28.787  1.00  0.00    -0.078 SA
BRANCH  16  17
ATOM     17  C   UNL A   1      33.047  35.952  30.399  1.00  0.00     0.172 A 
ATOM     18  N   UNL A   1      32.971  37.218  30.643  1.00  0.00    -0.189 NA
ATOM     19  N   UNL A   1      33.431  35.016  31.310  1.00  0.00    -0.301 N 
ATOM     20  C   UNL A   1      33.315  37.612  31.902  1.00  0.00     0.218 A 
ATOM     21  C   UNL A   1      33.760  35.362  32.587  1.00  0.00     0.255 A 
ATOM     22  H   UNL A   1      33.473  34.070  31.041  1.00  0.00     0.172 HD
ATOM     23  C   UNL A   1      33.698  36.796  32.885  1.00  0.00     0.139 A 
ATOM     24  O   UNL A   1      34.096  34.544  33.433  1.00  0.00    -0.269 OA
BRANCH  20  25
ATOM     25  O   UNL A   1      33.278  38.963  32.121  1.00  0.00    -0.493 OA
ATOM     26  H   UNL A   1      34.069  39.465  32.087  1.00  0.00     0.295 HD
ENDBRANCH  20  25
ENDBRANCH  16  17
ENDBRANCH  15  16
ENDBRANCH  13  15
ENDBRANCH   6  11
ENDBRANCH   3   5
ENDBRANCH   2   3
ENDBRANCH   1   2
BRANCH   1  27
ATOM     27  C   UNL A   1      36.228  31.900  33.265  1.00  0.00     0.275 C 
BRANCH  27  28
ATOM     28  O   UNL A   1      36.801  30.742  32.631  1.00  0.00    -0.458 OA
BRANCH  28  29
ATOM     29  C   UNL A   1      36.599  30.638  31.298  1.00  0.00     0.338 C 
ATOM     30  O   UNL A   1      35.636  31.019  30.656  1.00  0.00    -0.246 OA
BRANCH  29  31
ATOM     31  C   UNL A   1      37.804  30.068  30.677  1.00  0.00     0.060 A 
ATOM     32  C   UNL A   1      38.804  29.599  31.521  1.00  0.00     0.016 A 
ATOM     33  C   UNL A   1      38.009  30.104  29.301  1.00  0.00     0.016 A 
ATOM     34  C   UNL A   1      40.040  29.215  31.015  1.00  0.00     0.010 A 
ATOM     35  C   UNL A   1      39.233  29.657  28.781  1.00  0.00     0.010 A 
ATOM     36  C   UNL A   1      40.272  29.236  29.634  1.00  0.00    -0.014 A 
BRANCH  36  37
ATOM     37  C   UNL A   1      41.621  28.887  29.104  1.00  0.00     0.031 A 
ATOM     38  C   UNL A   1      42.712  29.926  29.084  1.00  0.00     0.074 A 
ATOM     39  C   UNL A   1      41.889  27.634  28.681  1.00  0.00     0.049 A 
ATOM     40  N   UNL A   1      43.906  29.864  28.549  1.00  0.00    -0.248 NA
ATOM     41  C   UNL A   1      42.421  31.207  29.747  1.00  0.00     0.031 C 
ATOM     42  C   UNL A   1      40.945  26.515  28.697  1.00  0.00     0.029 A 
ATOM     43  N   UNL A   1      43.040  27.088  28.166  1.00  0.00    -0.354 N 
ATOM     44  C   UNL A   1      44.485  31.110  28.765  1.00  0.00     0.074 A 
ATOM     45  C   UNL A   1      43.511  31.909  29.476  1.00  0.00     0.031 C 
ATOM     46  C   UNL A   1      41.562  25.412  28.244  1.00  0.00     0.029 A 
ATOM     47  C   UNL A   1      42.919  25.758  27.836  1.00  0.00     0.049 A 
ATOM     48  H   UNL A   1      43.871  27.600  28.045  1.00  0.00     0.167 HD
ATOM     49  C   UNL A   1      45.717  31.545  28.405  1.00  0.00     0.037 A 
ATOM     50  C   UNL A   1      43.788  24.919  27.237  1.00  0.00     0.037 A 
ATOM     51  C   UNL A   1      46.703  30.731  27.743  1.00  0.00     0.049 A 
ATOM     52  C   UNL A   1      45.139  25.433  26.821  1.00  0.00     0.074 A 
ATOM     53  C   UNL A   1      47.981  31.081  27.341  1.00  0.00     0.029 A 
ATOM     54  N   UNL A   1      46.530  29.397  27.401  1.00  0.00    -0.354 N 
ATOM     55  N   UNL A   1      45.650  26.631  26.981  1.00  0.00    -0.248 NA
ATOM     56  C   UNL A   1      46.026  24.488  26.127  1.00  0.00     0.031 C 
ATOM     57  C   UNL A   1      48.569  29.968  26.729  1.00  0.00     0.029 A 
ATOM     58  C   UNL A   1      47.673  28.914  26.785  1.00  0.00     0.049 A 
ATOM     59  H   UNL A   1      45.715  28.873  27.570  1.00  0.00     0.167 HD
ATOM     60  C   UNL A   1      46.921  26.579  26.420  1.00  0.00     0.074 A 
ATOM     61  C   UNL A   1      47.108  25.228  25.932  1.00  0.00     0.031 C 
ATOM     62  C   UNL A   1      47.846  27.564  26.311  1.00  0.00     0.037 A 
BRANCH  49  63
ATOM     63  C   UNL A   1      46.058  32.983  28.691  1.00  0.00     0.058 A 
ATOM     64  C   UNL A   1      46.699  33.374  29.876  1.00  0.00     0.135 A 
ATOM     65  C   UNL A   1      45.760  33.981  27.747  1.00  0.00     0.135 A 
ATOM     66  F   UNL A   1      46.990  32.466  30.820  1.00  0.00    -0.206 F 
ATOM     67  C   UNL A   1      47.007  34.709  30.129  1.00  0.00     0.059 A 
ATOM     68  C   UNL A   1      46.081  35.316  27.967  1.00  0.00     0.059 A 
ATOM     69  F   UNL A   1      45.148  33.659  26.596  1.00  0.00    -0.206 F 
ATOM     70  C   UNL A   1      46.691  35.672  29.169  1.00  0.00     0.060 A 
BRANCH  70  71
ATOM     71  S   UNL A   1      47.093  37.400  29.511  1.00  0.00     0.124 S 
ATOM     72  O   UNL A   1      45.810  37.906  29.989  1.00  0.00    -0.237 OA
ATOM     73  O   UNL A   1      48.143  37.284  30.517  1.00  0.00    -0.237 OA
ATOM     74  O   UNL A   1      47.526  37.911  28.214  1.00  0.00    -0.744 OA
ENDBRANCH  70  71
ENDBRANCH  49  63
BRANCH  50  75
ATOM     75  C   UNL A   1      43.392  23.511  26.961  1.00  0.00     0.058 A 
ATOM     76  C   UNL A   1      43.117  23.077  25.656  1.00  0.00     0.135 A 
ATOM     77  C   UNL A   1      43.291  22.569  27.997  1.00  0.00     0.135 A 
ATOM     78  F   UNL A   1      43.188  23.944  24.633  1.00  0.00    -0.206 F 
ATOM     79  C   UNL A   1      42.745  21.764  25.387  1.00  0.00     0.059 A 
ATOM     80  C   UNL A   1      42.947  21.245  27.751  1.00  0.00     0.059 A 
ATOM     81  F   UNL A   1      43.552  22.930  29.263  1.00  0.00    -0.206 F 
ATOM     82  C   UNL A   1      42.666  20.853  26.442  1.00  0.00     0.060 A 
BRANCH  82  83
ATOM     83  S   UNL A   1      42.234  19.137  26.082  1.00  0.00     0.124 S 
ATOM     84  O   UNL A   1      40.808  19.248  25.795  1.00  0.00    -0.237 OA
ATOM     85  O   UNL A   1      43.092  18.835  24.941  1.00  0.00    -0.237 OA
ATOM     86  O   UNL A   1      42.578  18.440  27.317  1.00  0.00    -0.744 OA
ENDBRANCH  82  83
ENDBRANCH  50  75
BRANCH  62  87
ATOM     87  C   UNL A   1      49.159  27.208  25.671  1.00  0.00     0.058 A 
ATOM     88  C   UNL A   1      49.326  27.230  24.277  1.00  0.00     0.135 A 
ATOM     89  C   UNL A   1      50.270  26.879  26.462  1.00  0.00     0.135 A 
ATOM     90  F   UNL A   1      48.292  27.532  23.476  1.00  0.00    -0.206 F 
ATOM     91  C   UNL A   1      50.547  26.914  23.689  1.00  0.00     0.059 A 
ATOM     92  C   UNL A   1      51.507  26.583  25.896  1.00  0.00     0.059 A 
ATOM     93  F   UNL A   1      50.163  26.853  27.800  1.00  0.00    -0.206 F 
ATOM     94  C   UNL A   1      51.631  26.591  24.507  1.00  0.00     0.060 A 
BRANCH  94  95
ATOM     95  S   UNL A   1      53.218  26.208  23.736  1.00  0.00     0.124 S 
ATOM     96  O   UNL A   1      53.515  24.899  24.308  1.00  0.00    -0.237 OA
ATOM     97  O   UNL A   1      52.887  26.217  22.314  1.00  0.00    -0.237 OA
ATOM     98  O   UNL A   1      54.082  27.298  24.178  1.00  0.00    -0.744 OA
ENDBRANCH  94  95
ENDBRANCH  62  87
ENDBRANCH  36  37
ENDBRANCH  29  31
ENDBRANCH  28  29
ENDBRANCH  27  28
ENDBRANCH   1  27
TORSDOF 19
ENDMDL
MODEL 3
REMARK VINA RESULT:     -11.6      1.033      8.233
REMARK SMILES O=C(CSc1nc(O)cc(=O)[nH]1)Nc1cccc(C(=O)OCCOC(=O)c2ccc(-c3c4nc(c(-c5c(F)cc(S(=O)(=O)[O-])cc5F)c5ccc([nH]5)c(-c5c(F)cc(S(=O)(=O)[O-])cc5F)c5nc(c(-c6c(F)cc(S(=O)(=O)[O-])cc6F)c6ccc3[nH]6)C=C5)C=C4)cc2)c1
REMARK SMILES IDX 22 1 21 2 19 3 20 4 18 5 14 6 15 7 93 8 16 9 17 10 13 11
REMARK SMILES IDX 1 12 2 13 3 15 4 16 5 17 6 18 12 19 7 20 10 21 9 23 11 24
REMARK SMILES IDX 8 25 23 27 24 28 25 29 26 30 27 31 28 32 92 33 29 34 91 35
REMARK SMILES IDX 30 36 31 37 32 38 85 39 33 40 90 41 84 42 86 43 34 44 89 45
REMARK SMILES IDX 83 46 82 47 35 49 69 50 48 51 68 52 49 53 52 54 67 55 87 56
REMARK SMILES IDX 50 57 51 58 66 60 88 61 53 62 36 63 37 64 46 65 38 66 39 67
REMARK SMILES IDX 45 68 47 69 40 70 41 71 42 72 43 73 44 74 70 75 71 76 80 77
REMARK SMILES IDX 72 78 73 79 79 80 81 81 74 82 75 83 76 84 77 85 78 86 54 87
REMARK SMILES IDX 55 88 64 89 56 90 57 91 63 92 65 93 58 94 59 95 60 96 61 97
REMARK SMILES IDX 62 98
REMARK H PARENT 13 14 12 22 8 26 86 48 52 59
REMARK Flexibility Score: inf
ROOT
ATOM      1  C   UNL A   1      43.021  21.989  26.354  1.00  0.00     0.275 C 
ENDROOT
BRANCH   1   2
ATOM      2  O   UNL A   1      41.805  21.925  25.581  1.00  0.00    -0.458 OA
BRANCH   2   3
ATOM      3  C   UNL A   1      40.754  21.289  26.156  1.00  0.00     0.338 C 
ATOM      4  O   UNL A   1      40.761  20.176  26.654  1.00  0.00    -0.246 OA
BRANCH   3   5
ATOM      5  C   UNL A   1      39.588  22.204  26.226  1.00  0.00     0.062 A 
ATOM      6  C   UNL A   1      37.289  22.755  25.732  1.00  0.00     0.042 A 
ATOM      7  C   UNL A   1      37.510  24.062  26.185  1.00  0.00     0.026 A 
ATOM      8  C   UNL A   1      38.342  21.840  25.710  1.00  0.00     0.041 A 
ATOM      9  C   UNL A   1      38.734  24.410  26.749  1.00  0.00     0.003 A 
ATOM     10  C   UNL A   1      39.755  23.465  26.813  1.00  0.00     0.016 A 
BRANCH   6  11
ATOM     11  N   UNL A   1      35.968  22.421  25.386  1.00  0.00    -0.325 N 
ATOM     12  O   UNL A   1      35.943  22.953  23.117  1.00  0.00    -0.274 OA
ATOM     13  C   UNL A   1      35.417  22.470  24.115  1.00  0.00     0.234 C 
ATOM     14  H   UNL A   1      35.378  22.125  26.115  1.00  0.00     0.169 HD
BRANCH  13  15
ATOM     15  C   UNL A   1      34.060  21.793  24.017  1.00  0.00     0.178 C 
BRANCH  15  16
ATOM     16  S   UNL A   1      33.779  20.621  25.379  1.00  0.00    -0.078 SA
BRANCH  16  17
ATOM     17  C   UNL A   1      33.692  19.103  24.532  1.00  0.00     0.172 A 
ATOM     18  N   UNL A   1      32.894  18.991  23.523  1.00  0.00    -0.189 NA
ATOM     19  N   UNL A   1      34.435  18.083  25.041  1.00  0.00    -0.301 N 
ATOM     20  C   UNL A   1      32.806  17.752  22.958  1.00  0.00     0.218 A 
ATOM     21  C   UNL A   1      34.396  16.835  24.493  1.00  0.00     0.255 A 
ATOM     22  H   UNL A   1      35.012  18.248  25.822  1.00  0.00     0.172 HD
ATOM     23  C   UNL A   1      33.485  16.676  23.356  1.00  0.00     0.139 A 
ATOM     24  O   UNL A   1      35.061  15.900  24.919  1.00  0.00    -0.269 OA
BRANCH  20  25
ATOM     25  O   UNL A   1      31.915  17.646  21.924  1.00  0.00    -0.493 OA
ATOM     26  H   UNL A   1      31.903  16.873  21.394  1.00  0.00     0.295 HD
ENDBRANCH  20  25
ENDBRANCH  16  17
ENDBRANCH  15  16
ENDBRANCH  13  15
ENDBRANCH   6  11
ENDBRANCH   3   5
ENDBRANCH   2   3
ENDBRANCH   1   2
BRANCH   1  27
ATOM     27  C   UNL A   1      43.824  23.242  26.005  1.00  0.00     0.275 C 
BRANCH  27  28
ATOM     28  O   UNL A   1      43.538  24.291  26.948  1.00  0.00    -0.458 OA
BRANCH  28  29
ATOM     29  C   UNL A   1      43.108  25.459  26.418  1.00  0.00     0.338 C 
ATOM     30  O   UNL A   1      43.078  25.780  25.243  1.00  0.00    -0.246 OA
BRANCH  29  31
ATOM     31  C   UNL A   1      42.555  26.295  27.494  1.00  0.00     0.060 A 
ATOM     32  C   UNL A   1      43.053  27.586  27.627  1.00  0.00     0.016 A 
ATOM     33  C   UNL A   1      41.660  25.789  28.433  1.00  0.00     0.016 A 
ATOM     34  C   UNL A   1      42.715  28.369  28.724  1.00  0.00     0.010 A 
ATOM     35  C   UNL A   1      41.267  26.601  29.507  1.00  0.00     0.010 A 
ATOM     36  C   UNL A   1      41.813  27.888  29.681  1.00  0.00    -0.014 A 
BRANCH  36  37
ATOM     37  C   UNL A   1      41.506  28.707  30.889  1.00  0.00     0.031 A 
ATOM     38  C   UNL A   1      40.320  29.636  30.885  1.00  0.00     0.074 A 
ATOM     39  C   UNL A   1      42.256  28.591  32.004  1.00  0.00     0.049 A 
ATOM     40  N   UNL A   1      39.959  30.523  31.777  1.00  0.00    -0.248 NA
ATOM     41  C   UNL A   1      39.424  29.563  29.720  1.00  0.00     0.031 C 
ATOM     42  C   UNL A   1      43.399  27.690  32.168  1.00  0.00     0.029 A 
ATOM     43  N   UNL A   1      42.162  29.227  33.218  1.00  0.00    -0.354 N 
ATOM     44  C   UNL A   1      38.830  31.147  31.260  1.00  0.00     0.074 A 
ATOM     45  C   UNL A   1      38.567  30.541  29.973  1.00  0.00     0.031 C 
ATOM     46  C   UNL A   1      43.878  27.809  33.416  1.00  0.00     0.029 A 
ATOM     47  C   UNL A   1      43.130  28.845  34.118  1.00  0.00     0.049 A 
ATOM     48  H   UNL A   1      41.468  29.894  33.424  1.00  0.00     0.167 HD
ATOM     49  C   UNL A   1      38.080  32.134  31.809  1.00  0.00     0.037 A 
ATOM     50  C   UNL A   1      43.409  29.301  35.356  1.00  0.00     0.037 A 
ATOM     51  C   UNL A   1      38.314  32.699  33.112  1.00  0.00     0.049 A 
ATOM     52  C   UNL A   1      42.580  30.416  35.933  1.00  0.00     0.074 A 
ATOM     53  C   UNL A   1      37.607  33.700  33.757  1.00  0.00     0.029 A 
ATOM     54  N   UNL A   1      39.323  32.303  33.979  1.00  0.00    -0.354 N 
ATOM     55  N   UNL A   1      41.551  31.036  35.406  1.00  0.00    -0.248 NA
ATOM     56  C   UNL A   1      42.961  30.907  37.265  1.00  0.00     0.031 C 
ATOM     57  C   UNL A   1      38.206  33.929  35.001  1.00  0.00     0.029 A 
ATOM     58  C   UNL A   1      39.261  33.044  35.148  1.00  0.00     0.049 A 
ATOM     59  H   UNL A   1      39.984  31.599  33.791  1.00  0.00     0.167 HD
ATOM     60  C   UNL A   1      41.154  31.980  36.346  1.00  0.00     0.074 A 
ATOM     61  C   UNL A   1      42.042  31.838  37.481  1.00  0.00     0.031 C 
ATOM     62  C   UNL A   1      40.149  32.887  36.272  1.00  0.00     0.037 A 
BRANCH  49  63
ATOM     63  C   UNL A   1      36.952  32.691  30.985  1.00  0.00     0.058 A 
ATOM     64  C   UNL A   1      35.623  32.277  31.165  1.00  0.00     0.135 A 
ATOM     65  C   UNL A   1      37.204  33.676  30.015  1.00  0.00     0.135 A 
ATOM     66  F   UNL A   1      35.327  31.326  32.065  1.00  0.00    -0.206 F 
ATOM     67  C   UNL A   1      34.588  32.800  30.394  1.00  0.00     0.059 A 
ATOM     68  C   UNL A   1      36.182  34.230  29.251  1.00  0.00     0.059 A 
ATOM     69  F   UNL A   1      38.458  34.107  29.802  1.00  0.00    -0.206 F 
ATOM     70  C   UNL A   1      34.879  33.774  29.437  1.00  0.00     0.060 A 
BRANCH  70  71
ATOM     71  S   UNL A   1      33.528  34.440  28.441  1.00  0.00     0.124 S 
ATOM     72  O   UNL A   1      33.139  33.269  27.660  1.00  0.00    -0.237 OA
ATOM     73  O   UNL A   1      32.571  34.869  29.456  1.00  0.00    -0.237 OA
ATOM     74  O   UNL A   1      34.161  35.517  27.686  1.00  0.00    -0.744 OA
ENDBRANCH  70  71
ENDBRANCH  49  63
BRANCH  50  75
ATOM     75  C   UNL A   1      44.549  28.727  36.121  1.00  0.00     0.058 A 
ATOM     76  C   UNL A   1      45.845  29.246  35.988  1.00  0.00     0.135 A 
ATOM     77  C   UNL A   1      44.362  27.654  37.006  1.00  0.00     0.135 A 
ATOM     78  F   UNL A   1      46.077  30.263  35.144  1.00  0.00    -0.206 F 
ATOM     79  C   UNL A   1      46.918  28.716  36.697  1.00  0.00     0.059 A 
ATOM     80  C   UNL A   1      45.414  27.124  37.746  1.00  0.00     0.059 A 
ATOM     81  F   UNL A   1      43.140  27.126  37.176  1.00  0.00    -0.206 F 
ATOM     82  C   UNL A   1      46.692  27.656  37.577  1.00  0.00     0.060 A 
BRANCH  82  83
ATOM     83  S   UNL A   1      48.078  27.006  38.535  1.00  0.00     0.124 S 
ATOM     84  O   UNL A   1      48.780  28.230  38.902  1.00  0.00    -0.237 OA
ATOM     85  O   UNL A   1      47.403  26.307  39.623  1.00  0.00    -0.237 OA
ATOM     86  O   UNL A   1      48.768  26.143  37.579  1.00  0.00    -0.744 OA
ENDBRANCH  82  83
ENDBRANCH  50  75
BRANCH  62  87
ATOM     87  C   UNL A   1      39.935  33.775  37.466  1.00  0.00     0.058 A 
ATOM     88  C   UNL A   1      39.065  33.411  38.506  1.00  0.00     0.135 A 
ATOM     89  C   UNL A   1      40.638  34.983  37.589  1.00  0.00     0.135 A 
ATOM     90  F   UNL A   1      38.364  32.268  38.433  1.00  0.00    -0.206 F 
ATOM     91  C   UNL A   1      38.881  34.228  39.617  1.00  0.00     0.059 A 
ATOM     92  C   UNL A   1      40.487  35.805  38.702  1.00  0.00     0.059 A 
ATOM     93  F   UNL A   1      41.489  35.371  36.626  1.00  0.00    -0.206 F 
ATOM     94  C   UNL A   1      39.596  35.424  39.705  1.00  0.00     0.060 A 
BRANCH  94  95
ATOM     95  S   UNL A   1      39.371  36.466  41.162  1.00  0.00     0.124 S 
ATOM     96  O   UNL A   1      38.346  35.730  41.894  1.00  0.00    -0.237 OA
ATOM     97  O   UNL A   1      40.702  36.463  41.761  1.00  0.00    -0.237 OA
ATOM     98  O   UNL A   1      38.946  37.745  40.602  1.00  0.00    -0.744 OA
ENDBRANCH  94  95
ENDBRANCH  62  87
ENDBRANCH  36  37
ENDBRANCH  29  31
ENDBRANCH  28  29
ENDBRANCH  27  28
ENDBRANCH   1  27
TORSDOF 19
ENDMDL
