MODEL 1
REMARK VINA RESULT:     -10.1      0.000      0.000
REMARK SMILES CC(=O)N1CCC[C@H]1COCC(=O)OCCOC(=O)c1ccc(-c2c3nc(c(-c4c(F)cc(S(=O)(=O)[O-])cc4F)c4ccc([nH]4)c(-c4c(F)cc(S(=O)(=O)[O-])cc4F)c4nc(c(-c5c(F)cc(S(=O)(=O)[O-])cc5F)c5ccc2[nH]5)C=C4)C=C3)cc1
REMARK SMILES IDX 15 1 14 2 12 3 13 4 11 5 10 6 9 7 8 8 4 9 5 10 6 11 7 12
REMARK SMILES IDX 2 13 1 14 3 15 16 16 17 17 18 18 19 19 20 20 21 21 85 22
REMARK SMILES IDX 22 23 84 24 23 25 24 26 25 27 78 28 26 29 83 30 77 31 79 32
REMARK SMILES IDX 27 33 82 34 76 35 75 36 28 38 62 39 41 40 61 41 42 42 45 43
REMARK SMILES IDX 60 44 80 45 43 46 44 47 59 49 81 50 46 51 29 52 30 53 39 54
REMARK SMILES IDX 31 55 32 56 38 57 40 58 33 59 34 60 35 61 36 62 37 63 63 64
REMARK SMILES IDX 64 65 73 66 65 67 66 68 72 69 74 70 67 71 68 72 69 73 70 74
REMARK SMILES IDX 71 75 47 76 48 77 57 78 49 79 50 80 56 81 58 82 51 83 52 84
REMARK SMILES IDX 53 85 54 86 55 87
REMARK H PARENT 79 37 45 48
REMARK Flexibility Score: inf
ROOT
ATOM      1  C   UNL A   1      33.855  29.720  27.261  1.00  0.00     0.274 C 
ENDROOT
BRANCH   1   2
ATOM      2  O   UNL A   1      32.439  29.518  27.058  1.00  0.00    -0.460 OA
BRANCH   2   3
ATOM      3  C   UNL A   1      32.006  28.236  27.185  1.00  0.00     0.332 C 
ATOM      4  O   UNL A   1      31.160  27.861  27.990  1.00  0.00    -0.250 OA
BRANCH   3   5
ATOM      5  C   UNL A   1      32.758  27.252  26.271  1.00  0.00     0.282 C 
BRANCH   5   6
ATOM      6  O   UNL A   1      32.926  25.871  26.493  1.00  0.00    -0.368 OA
BRANCH   6   7
ATOM      7  C   UNL A   1      32.642  24.966  25.426  1.00  0.00     0.186 C 
BRANCH   7   8
ATOM      8  C   UNL A   1      33.529  23.707  25.266  1.00  0.00     0.111 C 
ATOM      9  N   UNL A   1      33.348  22.944  24.040  1.00  0.00    -0.338 N 
ATOM     10  C   UNL A   1      34.382  23.265  23.078  1.00  0.00     0.120 C 
ATOM     11  C   UNL A   1      35.594  23.559  23.938  1.00  0.00     0.024 C 
ATOM     12  C   UNL A   1      35.028  23.974  25.296  1.00  0.00     0.029 C 
BRANCH   9  13
ATOM     13  C   UNL A   1      32.463  21.888  23.996  1.00  0.00     0.219 C 
ATOM     14  C   UNL A   1      32.132  21.344  22.631  1.00  0.00     0.114 C 
ATOM     15  O   UNL A   1      32.006  21.369  25.014  1.00  0.00    -0.275 OA
ENDBRANCH   9  13
ENDBRANCH   7   8
ENDBRANCH   6   7
ENDBRANCH   5   6
ENDBRANCH   3   5
ENDBRANCH   2   3
ENDBRANCH   1   2
BRANCH   1  16
ATOM     16  C   UNL A   1      34.172  31.173  27.604  1.00  0.00     0.275 C 
BRANCH  16  17
ATOM     17  O   UNL A   1      35.590  31.343  27.773  1.00  0.00    -0.458 OA
BRANCH  17  18
ATOM     18  C   UNL A   1      36.077  31.029  28.993  1.00  0.00     0.338 C 
ATOM     19  O   UNL A   1      35.574  31.319  30.073  1.00  0.00    -0.246 OA
BRANCH  18  20
ATOM     20  C   UNL A   1      37.323  30.239  28.889  1.00  0.00     0.060 A 
ATOM     21  C   UNL A   1      38.046  29.879  30.026  1.00  0.00     0.016 A 
ATOM     22  C   UNL A   1      37.863  30.000  27.623  1.00  0.00     0.016 A 
ATOM     23  C   UNL A   1      39.366  29.434  29.892  1.00  0.00     0.010 A 
ATOM     24  C   UNL A   1      39.136  29.436  27.496  1.00  0.00     0.010 A 
ATOM     25  C   UNL A   1      39.934  29.199  28.628  1.00  0.00    -0.014 A 
BRANCH  25  26
ATOM     26  C   UNL A   1      41.353  28.746  28.479  1.00  0.00     0.031 A 
ATOM     27  C   UNL A   1      42.502  29.714  28.669  1.00  0.00     0.074 A 
ATOM     28  C   UNL A   1      41.636  27.465  28.163  1.00  0.00     0.049 A 
ATOM     29  N   UNL A   1      43.762  29.575  28.342  1.00  0.00    -0.248 NA
ATOM     30  C   UNL A   1      42.190  31.013  29.290  1.00  0.00     0.031 C 
ATOM     31  C   UNL A   1      40.652  26.397  27.975  1.00  0.00     0.029 A 
ATOM     32  N   UNL A   1      42.842  26.839  27.950  1.00  0.00    -0.354 N 
ATOM     33  C   UNL A   1      44.373  30.792  28.633  1.00  0.00     0.074 A 
ATOM     34  C   UNL A   1      43.350  31.650  29.188  1.00  0.00     0.031 C 
ATOM     35  C   UNL A   1      41.292  25.243  27.737  1.00  0.00     0.029 A 
ATOM     36  C   UNL A   1      42.722  25.505  27.643  1.00  0.00     0.049 A 
ATOM     37  H   UNL A   1      43.708  27.303  28.012  1.00  0.00     0.167 HD
ATOM     38  C   UNL A   1      45.665  31.160  28.442  1.00  0.00     0.037 A 
ATOM     39  C   UNL A   1      43.642  24.594  27.272  1.00  0.00     0.037 A 
ATOM     40  C   UNL A   1      46.705  30.278  27.975  1.00  0.00     0.049 A 
ATOM     41  C   UNL A   1      45.071  25.013  27.095  1.00  0.00     0.074 A 
ATOM     42  C   UNL A   1      48.047  30.558  27.773  1.00  0.00     0.029 A 
ATOM     43  N   UNL A   1      46.528  28.938  27.665  1.00  0.00    -0.354 N 
ATOM     44  N   UNL A   1      45.606  26.195  27.271  1.00  0.00    -0.248 NA
ATOM     45  C   UNL A   1      46.011  23.982  26.634  1.00  0.00     0.031 C 
ATOM     46  C   UNL A   1      48.679  29.390  27.326  1.00  0.00     0.029 A 
ATOM     47  C   UNL A   1      47.736  28.378  27.276  1.00  0.00     0.049 A 
ATOM     48  H   UNL A   1      45.672  28.455  27.714  1.00  0.00     0.167 HD
ATOM     49  C   UNL A   1      46.945  26.057  26.928  1.00  0.00     0.074 A 
ATOM     50  C   UNL A   1      47.144  24.669  26.563  1.00  0.00     0.031 C 
ATOM     51  C   UNL A   1      47.917  27.000  26.903  1.00  0.00     0.037 A 
BRANCH  38  52
ATOM     52  C   UNL A   1      46.035  32.594  28.706  1.00  0.00     0.058 A 
ATOM     53  C   UNL A   1      46.526  33.025  29.947  1.00  0.00     0.135 A 
ATOM     54  C   UNL A   1      45.961  33.540  27.668  1.00  0.00     0.135 A 
ATOM     55  F   UNL A   1      46.605  32.166  30.976  1.00  0.00    -0.206 F 
ATOM     56  C   UNL A   1      46.918  34.344  30.155  1.00  0.00     0.059 A 
ATOM     57  C   UNL A   1      46.364  34.859  27.848  1.00  0.00     0.059 A 
ATOM     58  F   UNL A   1      45.501  33.179  26.459  1.00  0.00    -0.206 F 
ATOM     59  C   UNL A   1      46.833  35.255  29.099  1.00  0.00     0.060 A 
BRANCH  59  60
ATOM     60  S   UNL A   1      47.370  36.959  29.368  1.00  0.00     0.124 S 
ATOM     61  O   UNL A   1      48.155  36.826  30.591  1.00  0.00    -0.237 OA
ATOM     62  O   UNL A   1      48.129  37.248  28.156  1.00  0.00    -0.237 OA
ATOM     63  O   UNL A   1      46.114  37.691  29.504  1.00  0.00    -0.744 OA
ENDBRANCH  59  60
ENDBRANCH  38  52
BRANCH  39  64
ATOM     64  C   UNL A   1      43.213  23.200  26.992  1.00  0.00     0.058 A 
ATOM     65  C   UNL A   1      43.142  22.722  25.677  1.00  0.00     0.135 A 
ATOM     66  C   UNL A   1      42.937  22.304  28.036  1.00  0.00     0.135 A 
ATOM     67  F   UNL A   1      43.386  23.548  24.649  1.00  0.00    -0.206 F 
ATOM     68  C   UNL A   1      42.829  21.394  25.404  1.00  0.00     0.059 A 
ATOM     69  C   UNL A   1      42.645  20.967  27.790  1.00  0.00     0.059 A 
ATOM     70  F   UNL A   1      43.006  22.715  29.311  1.00  0.00    -0.206 F 
ATOM     71  C   UNL A   1      42.592  20.523  26.469  1.00  0.00     0.060 A 
BRANCH  71  72
ATOM     72  S   UNL A   1      42.302  18.774  26.124  1.00  0.00     0.124 S 
ATOM     73  O   UNL A   1      42.634  18.164  27.406  1.00  0.00    -0.237 OA
ATOM     74  O   UNL A   1      40.890  18.756  25.754  1.00  0.00    -0.237 OA
ATOM     75  O   UNL A   1      43.228  18.497  25.029  1.00  0.00    -0.744 OA
ENDBRANCH  71  72
ENDBRANCH  39  64
BRANCH  51  76
ATOM     76  C   UNL A   1      49.283  26.557  26.467  1.00  0.00     0.058 A 
ATOM     77  C   UNL A   1      49.718  26.738  25.146  1.00  0.00     0.135 A 
ATOM     78  C   UNL A   1      50.164  25.955  27.378  1.00  0.00     0.135 A 
ATOM     79  F   UNL A   1      48.907  27.301  24.238  1.00  0.00    -0.206 F 
ATOM     80  C   UNL A   1      50.978  26.314  24.735  1.00  0.00     0.059 A 
ATOM     81  C   UNL A   1      51.434  25.538  26.991  1.00  0.00     0.059 A 
ATOM     82  F   UNL A   1      49.793  25.765  28.653  1.00  0.00    -0.206 F 
ATOM     83  C   UNL A   1      51.826  25.709  25.663  1.00  0.00     0.060 A 
BRANCH  83  84
ATOM     84  S   UNL A   1      53.460  25.163  25.125  1.00  0.00     0.124 S 
ATOM     85  O   UNL A   1      53.457  25.569  23.724  1.00  0.00    -0.237 OA
ATOM     86  O   UNL A   1      54.352  25.917  26.001  1.00  0.00    -0.237 OA
ATOM     87  O   UNL A   1      53.430  23.722  25.363  1.00  0.00    -0.744 OA
ENDBRANCH  83  84
ENDBRANCH  51  76
ENDBRANCH  25  26
ENDBRANCH  18  20
ENDBRANCH  17  18
ENDBRANCH  16  17
ENDBRANCH   1  16
TORSDOF 18
ENDMDL
MODEL 2
REMARK VINA RESULT:     -10.1      6.567     12.034
REMARK SMILES CC(=O)N1CCC[C@H]1COCC(=O)OCCOC(=O)c1ccc(-c2c3nc(c(-c4c(F)cc(S(=O)(=O)[O-])cc4F)c4ccc([nH]4)c(-c4c(F)cc(S(=O)(=O)[O-])cc4F)c4nc(c(-c5c(F)cc(S(=O)(=O)[O-])cc5F)c5ccc2[nH]5)C=C4)C=C3)cc1
REMARK SMILES IDX 15 1 14 2 12 3 13 4 11 5 10 6 9 7 8 8 4 9 5 10 6 11 7 12
REMARK SMILES IDX 2 13 1 14 3 15 16 16 17 17 18 18 19 19 20 20 21 21 85 22
REMARK SMILES IDX 22 23 84 24 23 25 24 26 25 27 78 28 26 29 83 30 77 31 79 32
REMARK SMILES IDX 27 33 82 34 76 35 75 36 28 38 62 39 41 40 61 41 42 42 45 43
REMARK SMILES IDX 60 44 80 45 43 46 44 47 59 49 81 50 46 51 29 52 30 53 39 54
REMARK SMILES IDX 31 55 32 56 38 57 40 58 33 59 34 60 35 61 36 62 37 63 63 64
REMARK SMILES IDX 64 65 73 66 65 67 66 68 72 69 74 70 67 71 68 72 69 73 70 74
REMARK SMILES IDX 71 75 47 76 48 77 57 78 49 79 50 80 56 81 58 82 51 83 52 84
REMARK SMILES IDX 53 85 54 86 55 87
REMARK H PARENT 79 37 45 48
REMARK Flexibility Score: inf
ROOT
ATOM      1  C   UNL A   1      37.533  21.674  25.646  1.00  0.00     0.274 C 
ENDROOT
BRANCH   1   2
ATOM      2  O   UNL A   1      37.357  21.688  24.212  1.00  0.00    -0.460 OA
BRANCH   2   3
ATOM      3  C   UNL A   1      36.479  22.612  23.739  1.00  0.00     0.332 C 
ATOM      4  O   UNL A   1      36.556  23.150  22.639  1.00  0.00    -0.250 OA
BRANCH   3   5
ATOM      5  C   UNL A   1      35.404  23.004  24.768  1.00  0.00     0.282 C 
BRANCH   5   6
ATOM      6  O   UNL A   1      34.226  23.729  24.505  1.00  0.00    -0.368 OA
BRANCH   6   7
ATOM      7  C   UNL A   1      34.132  25.077  24.966  1.00  0.00     0.186 C 
BRANCH   7   8
ATOM      8  C   UNL A   1      33.015  25.982  24.393  1.00  0.00     0.111 C 
ATOM      9  N   UNL A   1      32.593  25.698  23.029  1.00  0.00    -0.338 N 
ATOM     10  C   UNL A   1      31.370  24.920  23.022  1.00  0.00     0.120 C 
ATOM     11  C   UNL A   1      30.628  25.406  24.249  1.00  0.00     0.024 C 
ATOM     12  C   UNL A   1      31.709  25.958  25.177  1.00  0.00     0.029 C 
BRANCH   9  13
ATOM     13  C   UNL A   1      33.174  26.352  21.966  1.00  0.00     0.219 C 
ATOM     14  C   UNL A   1      33.748  27.717  22.247  1.00  0.00     0.114 C 
ATOM     15  O   UNL A   1      33.280  25.837  20.853  1.00  0.00    -0.275 OA
ENDBRANCH   9  13
ENDBRANCH   7   8
ENDBRANCH   6   7
ENDBRANCH   5   6
ENDBRANCH   3   5
ENDBRANCH   2   3
ENDBRANCH   1   2
BRANCH   1  16
ATOM     16  C   UNL A   1      38.960  22.044  26.041  1.00  0.00     0.275 C 
BRANCH  16  17
ATOM     17  O   UNL A   1      39.084  23.471  26.171  1.00  0.00    -0.458 OA
BRANCH  17  18
ATOM     18  C   UNL A   1      40.269  23.915  26.644  1.00  0.00     0.338 C 
ATOM     19  O   UNL A   1      41.361  23.380  26.488  1.00  0.00    -0.246 OA
BRANCH  18  20
ATOM     20  C   UNL A   1      40.111  25.186  27.383  1.00  0.00     0.060 A 
ATOM     21  C   UNL A   1      40.838  26.322  27.028  1.00  0.00     0.016 A 
ATOM     22  C   UNL A   1      39.348  25.193  28.554  1.00  0.00     0.016 A 
ATOM     23  C   UNL A   1      40.926  27.392  27.924  1.00  0.00     0.010 A 
ATOM     24  C   UNL A   1      39.342  26.318  29.383  1.00  0.00     0.010 A 
ATOM     25  C   UNL A   1      40.178  27.415  29.114  1.00  0.00    -0.014 A 
BRANCH  25  26
ATOM     26  C   UNL A   1      40.287  28.547  30.087  1.00  0.00     0.031 A 
ATOM     27  C   UNL A   1      41.392  28.578  31.123  1.00  0.00     0.074 A 
ATOM     28  C   UNL A   1      39.396  29.561  30.066  1.00  0.00     0.049 A 
ATOM     29  N   UNL A   1      41.502  29.327  32.191  1.00  0.00    -0.248 NA
ATOM     30  C   UNL A   1      42.506  27.632  30.945  1.00  0.00     0.031 C 
ATOM     31  C   UNL A   1      38.290  29.703  29.117  1.00  0.00     0.029 A 
ATOM     32  N   UNL A   1      39.284  30.672  30.866  1.00  0.00    -0.354 N 
ATOM     33  C   UNL A   1      42.643  28.886  32.856  1.00  0.00     0.074 A 
ATOM     34  C   UNL A   1      43.206  27.820  32.056  1.00  0.00     0.031 C 
ATOM     35  C   UNL A   1      37.653  30.859  29.348  1.00  0.00     0.029 A 
ATOM     36  C   UNL A   1      38.230  31.488  30.530  1.00  0.00     0.049 A 
ATOM     37  H   UNL A   1      39.899  30.866  31.610  1.00  0.00     0.167 HD
ATOM     38  C   UNL A   1      43.164  29.324  34.030  1.00  0.00     0.037 A 
ATOM     39  C   UNL A   1      37.735  32.590  31.126  1.00  0.00     0.037 A 
ATOM     40  C   UNL A   1      42.657  30.445  34.780  1.00  0.00     0.049 A 
ATOM     41  C   UNL A   1      38.343  33.076  32.408  1.00  0.00     0.074 A 
ATOM     42  C   UNL A   1      43.135  30.974  35.969  1.00  0.00     0.029 A 
ATOM     43  N   UNL A   1      41.579  31.230  34.402  1.00  0.00    -0.354 N 
ATOM     44  N   UNL A   1      39.354  32.578  33.075  1.00  0.00    -0.248 NA
ATOM     45  C   UNL A   1      37.719  34.250  33.033  1.00  0.00     0.031 C 
ATOM     46  C   UNL A   1      42.335  32.070  36.317  1.00  0.00     0.029 A 
ATOM     47  C   UNL A   1      41.377  32.238  35.332  1.00  0.00     0.049 A 
ATOM     48  H   UNL A   1      41.036  31.091  33.593  1.00  0.00     0.167 HD
ATOM     49  C   UNL A   1      39.480  33.369  34.211  1.00  0.00     0.074 A 
ATOM     50  C   UNL A   1      38.461  34.396  34.123  1.00  0.00     0.031 C 
ATOM     51  C   UNL A   1      40.352  33.244  35.240  1.00  0.00     0.037 A 
BRANCH  38  52
ATOM     52  C   UNL A   1      44.332  28.570  34.607  1.00  0.00     0.058 A 
ATOM     53  C   UNL A   1      45.660  28.945  34.361  1.00  0.00     0.135 A 
ATOM     54  C   UNL A   1      44.107  27.492  35.481  1.00  0.00     0.135 A 
ATOM     55  F   UNL A   1      45.932  29.959  33.524  1.00  0.00    -0.206 F 
ATOM     56  C   UNL A   1      46.726  28.271  34.950  1.00  0.00     0.059 A 
ATOM     57  C   UNL A   1      45.156  26.816  36.096  1.00  0.00     0.059 A 
ATOM     58  F   UNL A   1      42.853  27.094  35.752  1.00  0.00    -0.206 F 
ATOM     59  C   UNL A   1      46.464  27.206  35.817  1.00  0.00     0.060 A 
BRANCH  59  60
ATOM     60  S   UNL A   1      47.851  26.354  36.600  1.00  0.00     0.124 S 
ATOM     61  O   UNL A   1      47.417  24.962  36.524  1.00  0.00    -0.237 OA
ATOM     62  O   UNL A   1      48.973  26.716  35.741  1.00  0.00    -0.237 OA
ATOM     63  O   UNL A   1      47.885  26.928  37.942  1.00  0.00    -0.744 OA
ENDBRANCH  59  60
ENDBRANCH  38  52
BRANCH  39  64
ATOM     64  C   UNL A   1      36.560  33.273  30.529  1.00  0.00     0.058 A 
ATOM     65  C   UNL A   1      35.291  33.159  31.111  1.00  0.00     0.135 A 
ATOM     66  C   UNL A   1      36.699  34.109  29.410  1.00  0.00     0.135 A 
ATOM     67  F   UNL A   1      35.110  32.361  32.174  1.00  0.00    -0.206 F 
ATOM     68  C   UNL A   1      34.199  33.864  30.616  1.00  0.00     0.059 A 
ATOM     69  C   UNL A   1      35.629  34.843  28.911  1.00  0.00     0.059 A 
ATOM     70  F   UNL A   1      37.899  34.259  28.828  1.00  0.00    -0.206 F 
ATOM     71  C   UNL A   1      34.382  34.712  29.522  1.00  0.00     0.060 A 
BRANCH  71  72
ATOM     72  S   UNL A   1      32.995  35.718  28.950  1.00  0.00     0.124 S 
ATOM     73  O   UNL A   1      32.326  34.802  28.035  1.00  0.00    -0.237 OA
ATOM     74  O   UNL A   1      32.287  36.013  30.192  1.00  0.00    -0.237 OA
ATOM     75  O   UNL A   1      33.655  36.865  28.331  1.00  0.00    -0.744 OA
ENDBRANCH  71  72
ENDBRANCH  39  64
BRANCH  51  76
ATOM     76  C   UNL A   1      40.240  34.247  36.351  1.00  0.00     0.058 A 
ATOM     77  C   UNL A   1      39.351  34.051  37.419  1.00  0.00     0.135 A 
ATOM     78  C   UNL A   1      41.030  35.405  36.352  1.00  0.00     0.135 A 
ATOM     79  F   UNL A   1      38.569  32.961  37.456  1.00  0.00    -0.206 F 
ATOM     80  C   UNL A   1      39.233  34.985  38.443  1.00  0.00     0.059 A 
ATOM     81  C   UNL A   1      40.939  36.345  37.374  1.00  0.00     0.059 A 
ATOM     82  F   UNL A   1      41.897  35.634  35.354  1.00  0.00    -0.206 F 
ATOM     83  C   UNL A   1      40.026  36.132  38.408  1.00  0.00     0.060 A 
BRANCH  83  84
ATOM     84  S   UNL A   1      39.870  37.341  39.740  1.00  0.00     0.124 S 
ATOM     85  O   UNL A   1      39.816  36.476  40.914  1.00  0.00    -0.237 OA
ATOM     86  O   UNL A   1      41.087  38.134  39.593  1.00  0.00    -0.237 OA
ATOM     87  O   UNL A   1      38.631  38.042  39.416  1.00  0.00    -0.744 OA
ENDBRANCH  83  84
ENDBRANCH  51  76
ENDBRANCH  25  26
ENDBRANCH  18  20
ENDBRANCH  17  18
ENDBRANCH  16  17
ENDBRANCH   1  16
TORSDOF 18
ENDMDL
MODEL 3
REMARK VINA RESULT:      -9.7      6.906     12.098
REMARK SMILES CC(=O)N1CCC[C@H]1COCC(=O)OCCOC(=O)c1ccc(-c2c3nc(c(-c4c(F)cc(S(=O)(=O)[O-])cc4F)c4ccc([nH]4)c(-c4c(F)cc(S(=O)(=O)[O-])cc4F)c4nc(c(-c5c(F)cc(S(=O)(=O)[O-])cc5F)c5ccc2[nH]5)C=C4)C=C3)cc1
REMARK SMILES IDX 15 1 14 2 12 3 13 4 11 5 10 6 9 7 8 8 4 9 5 10 6 11 7 12
REMARK SMILES IDX 2 13 1 14 3 15 16 16 17 17 18 18 19 19 20 20 21 21 85 22
REMARK SMILES IDX 22 23 84 24 23 25 24 26 25 27 78 28 26 29 83 30 77 31 79 32
REMARK SMILES IDX 27 33 82 34 76 35 75 36 28 38 62 39 41 40 61 41 42 42 45 43
REMARK SMILES IDX 60 44 80 45 43 46 44 47 59 49 81 50 46 51 29 52 30 53 39 54
REMARK SMILES IDX 31 55 32 56 38 57 40 58 33 59 34 60 35 61 36 62 37 63 63 64
REMARK SMILES IDX 64 65 73 66 65 67 66 68 72 69 74 70 67 71 68 72 69 73 70 74
REMARK SMILES IDX 71 75 47 76 48 77 57 78 49 79 50 80 56 81 58 82 51 83 52 84
REMARK SMILES IDX 53 85 54 86 55 87
REMARK H PARENT 79 37 45 48
REMARK Flexibility Score: inf
ROOT
ATOM      1  C   UNL A   1      42.699  22.136  25.972  1.00  0.00     0.274 C 
ENDROOT
BRANCH   1   2
ATOM      2  O   UNL A   1      41.423  21.600  25.560  1.00  0.00    -0.460 OA
BRANCH   2   3
ATOM      3  C   UNL A   1      40.471  21.544  26.528  1.00  0.00     0.332 C 
ATOM      4  O   UNL A   1      40.614  20.997  27.618  1.00  0.00    -0.250 OA
BRANCH   3   5
ATOM      5  C   UNL A   1      39.130  22.160  26.092  1.00  0.00     0.282 C 
BRANCH   5   6
ATOM      6  O   UNL A   1      37.897  21.486  25.994  1.00  0.00    -0.368 OA
BRANCH   6   7
ATOM      7  C   UNL A   1      37.335  21.269  24.699  1.00  0.00     0.186 C 
BRANCH   7   8
ATOM      8  C   UNL A   1      35.948  21.877  24.382  1.00  0.00     0.111 C 
ATOM      9  N   UNL A   1      35.066  22.099  25.519  1.00  0.00    -0.338 N 
ATOM     10  C   UNL A   1      35.100  23.488  25.931  1.00  0.00     0.120 C 
ATOM     11  C   UNL A   1      35.319  24.241  24.635  1.00  0.00     0.024 C 
ATOM     12  C   UNL A   1      35.988  23.238  23.697  1.00  0.00     0.029 C 
BRANCH   9  13
ATOM     13  C   UNL A   1      34.159  21.135  25.900  1.00  0.00     0.219 C 
ATOM     14  C   UNL A   1      33.788  20.110  24.859  1.00  0.00     0.114 C 
ATOM     15  O   UNL A   1      33.712  21.067  27.044  1.00  0.00    -0.275 OA
ENDBRANCH   9  13
ENDBRANCH   7   8
ENDBRANCH   6   7
ENDBRANCH   5   6
ENDBRANCH   3   5
ENDBRANCH   2   3
ENDBRANCH   1   2
BRANCH   1  16
ATOM     16  C   UNL A   1      42.923  23.542  25.423  1.00  0.00     0.275 C 
BRANCH  16  17
ATOM     17  O   UNL A   1      41.935  24.444  25.950  1.00  0.00    -0.458 OA
BRANCH  17  18
ATOM     18  C   UNL A   1      42.266  25.753  25.931  1.00  0.00     0.338 C 
ATOM     19  O   UNL A   1      42.575  26.410  24.942  1.00  0.00    -0.246 OA
BRANCH  18  20
ATOM     20  C   UNL A   1      42.189  26.348  27.282  1.00  0.00     0.060 A 
ATOM     21  C   UNL A   1      41.398  25.777  28.279  1.00  0.00     0.016 A 
ATOM     22  C   UNL A   1      42.786  27.592  27.503  1.00  0.00     0.016 A 
ATOM     23  C   UNL A   1      41.079  26.523  29.418  1.00  0.00     0.010 A 
ATOM     24  C   UNL A   1      42.562  28.277  28.702  1.00  0.00     0.010 A 
ATOM     25  C   UNL A   1      41.657  27.781  29.655  1.00  0.00    -0.014 A 
BRANCH  25  26
ATOM     26  C   UNL A   1      41.301  28.593  30.862  1.00  0.00     0.031 A 
ATOM     27  C   UNL A   1      40.107  29.525  30.846  1.00  0.00     0.074 A 
ATOM     28  C   UNL A   1      42.044  28.517  31.986  1.00  0.00     0.049 A 
ATOM     29  N   UNL A   1      39.792  30.478  31.687  1.00  0.00    -0.248 NA
ATOM     30  C   UNL A   1      39.155  29.378  29.733  1.00  0.00     0.031 C 
ATOM     31  C   UNL A   1      43.207  27.649  32.181  1.00  0.00     0.029 A 
ATOM     32  N   UNL A   1      41.925  29.178  33.185  1.00  0.00    -0.354 N 
ATOM     33  C   UNL A   1      38.663  31.100  31.161  1.00  0.00     0.074 A 
ATOM     34  C   UNL A   1      38.331  30.398  29.941  1.00  0.00     0.031 C 
ATOM     35  C   UNL A   1      43.655  27.784  33.437  1.00  0.00     0.029 A 
ATOM     36  C   UNL A   1      42.887  28.827  34.103  1.00  0.00     0.049 A 
ATOM     37  H   UNL A   1      41.220  29.840  33.369  1.00  0.00     0.167 HD
ATOM     38  C   UNL A   1      37.976  32.163  31.647  1.00  0.00     0.037 A 
ATOM     39  C   UNL A   1      43.166  29.318  35.326  1.00  0.00     0.037 A 
ATOM     40  C   UNL A   1      38.250  32.805  32.908  1.00  0.00     0.049 A 
ATOM     41  C   UNL A   1      42.377  30.476  35.859  1.00  0.00     0.074 A 
ATOM     42  C   UNL A   1      37.591  33.876  33.492  1.00  0.00     0.029 A 
ATOM     43  N   UNL A   1      39.243  32.420  33.795  1.00  0.00    -0.354 N 
ATOM     44  N   UNL A   1      41.382  31.117  35.297  1.00  0.00    -0.248 NA
ATOM     45  C   UNL A   1      42.770  30.997  37.175  1.00  0.00     0.031 C 
ATOM     46  C   UNL A   1      38.197  34.148  34.725  1.00  0.00     0.029 A 
ATOM     47  C   UNL A   1      39.214  33.229  34.920  1.00  0.00     0.049 A 
ATOM     48  H   UNL A   1      39.876  31.681  33.647  1.00  0.00     0.167 HD
ATOM     49  C   UNL A   1      41.040  32.131  36.183  1.00  0.00     0.074 A 
ATOM     50  C   UNL A   1      41.914  31.997  37.332  1.00  0.00     0.031 C 
ATOM     51  C   UNL A   1      40.097  33.094  36.049  1.00  0.00     0.037 A 
BRANCH  38  52
ATOM     52  C   UNL A   1      36.871  32.735  30.800  1.00  0.00     0.058 A 
ATOM     53  C   UNL A   1      37.109  33.691  29.802  1.00  0.00     0.135 A 
ATOM     54  C   UNL A   1      35.557  32.259  30.949  1.00  0.00     0.135 A 
ATOM     55  F   UNL A   1      38.344  34.189  29.627  1.00  0.00    -0.206 F 
ATOM     56  C   UNL A   1      36.084  34.165  28.990  1.00  0.00     0.059 A 
ATOM     57  C   UNL A   1      34.519  32.704  30.135  1.00  0.00     0.059 A 
ATOM     58  F   UNL A   1      35.274  31.340  31.887  1.00  0.00    -0.206 F 
ATOM     59  C   UNL A   1      34.790  33.666  29.165  1.00  0.00     0.060 A 
BRANCH  59  60
ATOM     60  S   UNL A   1      33.469  34.265  28.088  1.00  0.00     0.124 S 
ATOM     61  O   UNL A   1      34.223  35.043  27.109  1.00  0.00    -0.237 OA
ATOM     62  O   UNL A   1      32.877  33.027  27.593  1.00  0.00    -0.237 OA
ATOM     63  O   UNL A   1      32.624  35.041  28.990  1.00  0.00    -0.744 OA
ENDBRANCH  59  60
ENDBRANCH  38  52
BRANCH  39  64
ATOM     64  C   UNL A   1      44.290  28.736  36.103  1.00  0.00     0.058 A 
ATOM     65  C   UNL A   1      45.574  29.294  36.034  1.00  0.00     0.135 A 
ATOM     66  C   UNL A   1      44.084  27.661  36.980  1.00  0.00     0.135 A 
ATOM     67  F   UNL A   1      45.818  30.315  35.200  1.00  0.00    -0.206 F 
ATOM     68  C   UNL A   1      46.615  28.816  36.823  1.00  0.00     0.059 A 
ATOM     69  C   UNL A   1      45.102  27.181  37.796  1.00  0.00     0.059 A 
ATOM     70  F   UNL A   1      42.867  27.104  37.088  1.00  0.00    -0.206 F 
ATOM     71  C   UNL A   1      46.365  27.766  37.709  1.00  0.00     0.060 A 
BRANCH  71  72
ATOM     72  S   UNL A   1      47.682  27.221  38.819  1.00  0.00     0.124 S 
ATOM     73  O   UNL A   1      48.320  26.178  38.026  1.00  0.00    -0.237 OA
ATOM     74  O   UNL A   1      48.457  28.443  39.011  1.00  0.00    -0.237 OA
ATOM     75  O   UNL A   1      46.950  26.766  39.998  1.00  0.00    -0.744 OA
ENDBRANCH  71  72
ENDBRANCH  39  64
BRANCH  51  76
ATOM     76  C   UNL A   1      39.964  34.076  37.176  1.00  0.00     0.058 A 
ATOM     77  C   UNL A   1      39.104  33.830  38.256  1.00  0.00     0.135 A 
ATOM     78  C   UNL A   1      40.707  35.266  37.179  1.00  0.00     0.135 A 
ATOM     79  F   UNL A   1      38.367  32.709  38.292  1.00  0.00    -0.206 F 
ATOM     80  C   UNL A   1      38.967  34.745  39.295  1.00  0.00     0.059 A 
ATOM     81  C   UNL A   1      40.596  36.188  38.215  1.00  0.00     0.059 A 
ATOM     82  F   UNL A   1      41.545  35.543  36.169  1.00  0.00    -0.206 F 
ATOM     83  C   UNL A   1      39.712  35.925  39.262  1.00  0.00     0.060 A 
BRANCH  83  84
ATOM     84  S   UNL A   1      39.531  37.108  40.613  1.00  0.00     0.124 S 
ATOM     85  O   UNL A   1      40.922  37.454  40.887  1.00  0.00    -0.237 OA
ATOM     86  O   UNL A   1      38.724  38.163  40.007  1.00  0.00    -0.237 OA
ATOM     87  O   UNL A   1      38.859  36.333  41.653  1.00  0.00    -0.744 OA
ENDBRANCH  83  84
ENDBRANCH  51  76
ENDBRANCH  25  26
ENDBRANCH  18  20
ENDBRANCH  17  18
ENDBRANCH  16  17
ENDBRANCH   1  16
TORSDOF 18
ENDMDL
