MODEL 1
REMARK VINA RESULT:     -12.1      0.000      0.000
REMARK SMILES CC1=C(C#N)c2nc(N)c(C#N)c(C)c2/C1=C\c1ccc(OCC(=O)OCCOC(=O)c2ccc(-c3c4nc(c(-c5c(F)cc(S(=O)(=O)[O-])cc5F)c5ccc([nH]5)c(-c5c(F)cc(S(=O)(=O)[O-])cc5F)c5nc(c(-c6c(F)cc(S(=O)(=O)[O-])cc6F)c6ccc3[nH]6)C=C5)C=C4)cc2)c(Cl)c1
REMARK SMILES IDX 27 1 26 2 24 3 25 4 23 5 22 6 21 7 18 8 19 9 100 10 20 11
REMARK SMILES IDX 98 12 99 13 17 14 1 15 2 16 3 17 16 18 6 19 15 20 7 21 13 22
REMARK SMILES IDX 8 23 10 24 14 25 4 26 5 27 9 28 11 31 12 32 28 33 29 34
REMARK SMILES IDX 30 35 31 36 32 37 33 38 97 39 34 40 96 41 35 42 36 43 37 44
REMARK SMILES IDX 90 45 38 46 95 47 89 48 91 49 39 50 94 51 88 52 87 53 40 55
REMARK SMILES IDX 74 56 53 57 73 58 54 59 57 60 72 61 92 62 55 63 56 64 71 66
REMARK SMILES IDX 93 67 58 68 41 69 42 70 51 71 43 72 44 73 50 74 52 75 45 76
REMARK SMILES IDX 46 77 47 78 48 79 49 80 75 81 76 82 85 83 77 84 78 85 84 86
REMARK SMILES IDX 86 87 79 88 80 89 81 90 82 91 83 92 59 93 60 94 69 95 61 96
REMARK SMILES IDX 62 97 68 98 70 99 63 100 64 101 65 102 66 103 67 104
REMARK H PARENT 9 29 9 30 91 54 57 65
REMARK Flexibility Score: inf
ROOT
ATOM      1  C   UNL A   1      37.406  22.649  25.335  1.00  0.00     0.274 C 
ENDROOT
BRANCH   1   2
ATOM      2  O   UNL A   1      36.840  23.793  24.634  1.00  0.00    -0.460 OA
BRANCH   2   3
ATOM      3  C   UNL A   1      35.617  23.588  24.082  1.00  0.00     0.344 C 
ATOM      4  O   UNL A   1      35.457  23.158  22.940  1.00  0.00    -0.248 OA
BRANCH   3   5
ATOM      5  C   UNL A   1      34.400  23.961  24.965  1.00  0.00     0.352 C 
BRANCH   5   6
ATOM      6  O   UNL A   1      33.081  23.453  24.895  1.00  0.00    -0.480 OA
BRANCH   6   7
ATOM      7  C   UNL A   1      32.010  24.214  24.512  1.00  0.00     0.138 A 
ATOM      8  C   UNL A   1      30.341  26.274  23.507  1.00  0.00    -0.023 A 
ATOM      9  C   UNL A   1      31.232  25.612  22.659  1.00  0.00     0.012 A 
ATOM     10  C   UNL A   1      30.092  25.700  24.757  1.00  0.00     0.032 A 
ATOM     11  C   UNL A   1      32.086  24.623  23.175  1.00  0.00     0.048 A 
ATOM     12  C   UNL A   1      30.879  24.623  25.222  1.00  0.00     0.083 A 
ATOM     13  Cl  UNL A   1      30.232  23.722  26.542  1.00  0.00    -0.080 Cl
BRANCH   8  14
ATOM     14  C   UNL A   1      29.694  27.526  23.074  1.00  0.00     0.017 C 
ATOM     15  C   UNL A   1      28.153  29.790  21.742  1.00  0.00     0.046 C 
ATOM     16  C   UNL A   1      29.087  29.934  22.900  1.00  0.00    -0.023 C 
ATOM     17  C   UNL A   1      29.380  31.075  23.557  1.00  0.00     0.082 C 
ATOM     18  C   UNL A   1      29.886  28.808  23.478  1.00  0.00    -0.011 C 
ATOM     19  C   UNL A   1      30.327  30.764  24.614  1.00  0.00     0.092 A 
ATOM     20  C   UNL A   1      30.764  29.438  24.520  1.00  0.00     0.014 A 
ATOM     21  N   UNL A   1      30.746  31.702  25.487  1.00  0.00    -0.228 NA
ATOM     22  C   UNL A   1      31.872  29.117  25.301  1.00  0.00    -0.019 A 
ATOM     23  C   UNL A   1      31.731  31.334  26.316  1.00  0.00     0.142 A 
ATOM     24  C   UNL A   1      32.375  30.098  26.197  1.00  0.00     0.098 A 
ATOM     25  C   UNL A   1      32.578  27.817  25.157  1.00  0.00     0.046 C 
BRANCH  17  26
ATOM     26  C   UNL A   1      28.906  32.486  23.249  1.00  0.00     0.102 C 
ATOM     27  N   UNL A   1      28.513  33.657  22.993  1.00  0.00    -0.192 NA
ENDBRANCH  17  26
BRANCH  23  28
ATOM     28  N   UNL A   1      32.113  32.294  27.235  1.00  0.00    -0.383 N 
ATOM     29  H   UNL A   1      31.931  32.158  28.193  1.00  0.00     0.158 HD
ATOM     30  H   UNL A   1      32.568  33.112  26.932  1.00  0.00     0.158 HD
ENDBRANCH  23  28
BRANCH  24  31
ATOM     31  C   UNL A   1      33.575  29.878  26.959  1.00  0.00     0.103 C 
ATOM     32  N   UNL A   1      34.546  29.705  27.565  1.00  0.00    -0.192 NA
ENDBRANCH  24  31
ENDBRANCH   8  14
ENDBRANCH   6   7
ENDBRANCH   5   6
ENDBRANCH   3   5
ENDBRANCH   2   3
ENDBRANCH   1   2
BRANCH   1  33
ATOM     33  C   UNL A   1      38.626  23.029  26.187  1.00  0.00     0.275 C 
BRANCH  33  34
ATOM     34  O   UNL A   1      38.852  24.448  26.253  1.00  0.00    -0.458 OA
BRANCH  34  35
ATOM     35  C   UNL A   1      40.141  24.747  26.497  1.00  0.00     0.338 C 
ATOM     36  O   UNL A   1      41.106  24.404  25.839  1.00  0.00    -0.246 OA
BRANCH  35  37
ATOM     37  C   UNL A   1      40.352  25.619  27.633  1.00  0.00     0.060 A 
ATOM     38  C   UNL A   1      39.437  25.534  28.676  1.00  0.00     0.016 A 
ATOM     39  C   UNL A   1      41.209  26.713  27.490  1.00  0.00     0.016 A 
ATOM     40  C   UNL A   1      39.349  26.587  29.570  1.00  0.00     0.010 A 
ATOM     41  C   UNL A   1      41.185  27.717  28.453  1.00  0.00     0.010 A 
ATOM     42  C   UNL A   1      40.249  27.663  29.497  1.00  0.00    -0.014 A 
BRANCH  42  43
ATOM     43  C   UNL A   1      40.265  28.656  30.593  1.00  0.00     0.031 A 
ATOM     44  C   UNL A   1      41.269  28.594  31.703  1.00  0.00     0.074 A 
ATOM     45  C   UNL A   1      39.335  29.628  30.548  1.00  0.00     0.049 A 
ATOM     46  N   UNL A   1      41.361  29.352  32.765  1.00  0.00    -0.248 NA
ATOM     47  C   UNL A   1      42.292  27.541  31.624  1.00  0.00     0.031 C 
ATOM     48  C   UNL A   1      38.328  29.777  29.491  1.00  0.00     0.029 A 
ATOM     49  N   UNL A   1      39.092  30.683  31.382  1.00  0.00    -0.354 N 
ATOM     50  C   UNL A   1      42.439  28.864  33.490  1.00  0.00     0.074 A 
ATOM     51  C   UNL A   1      42.944  27.714  32.767  1.00  0.00     0.031 C 
ATOM     52  C   UNL A   1      37.633  30.898  29.697  1.00  0.00     0.029 A 
ATOM     53  C   UNL A   1      38.063  31.486  30.957  1.00  0.00     0.049 A 
ATOM     54  H   UNL A   1      39.605  30.851  32.206  1.00  0.00     0.167 HD
ATOM     55  C   UNL A   1      42.959  29.345  34.647  1.00  0.00     0.037 A 
ATOM     56  C   UNL A   1      37.500  32.563  31.530  1.00  0.00     0.037 A 
ATOM     57  C   UNL A   1      42.424  30.493  35.341  1.00  0.00     0.049 A 
ATOM     58  C   UNL A   1      38.037  33.024  32.847  1.00  0.00     0.074 A 
ATOM     59  C   UNL A   1      42.861  31.066  36.522  1.00  0.00     0.029 A 
ATOM     60  N   UNL A   1      41.331  31.241  34.918  1.00  0.00    -0.354 N 
ATOM     61  N   UNL A   1      39.046  32.543  33.535  1.00  0.00    -0.248 NA
ATOM     62  C   UNL A   1      37.357  34.159  33.475  1.00  0.00     0.031 C 
ATOM     63  C   UNL A   1      41.997  32.119  36.844  1.00  0.00     0.029 A 
ATOM     64  C   UNL A   1      41.061  32.251  35.830  1.00  0.00     0.049 A 
ATOM     65  H   UNL A   1      40.823  31.079  34.091  1.00  0.00     0.167 HD
ATOM     66  C   UNL A   1      39.133  33.327  34.676  1.00  0.00     0.074 A 
ATOM     67  C   UNL A   1      38.084  34.325  34.572  1.00  0.00     0.031 C 
ATOM     68  C   UNL A   1      40.001  33.227  35.713  1.00  0.00     0.037 A 
BRANCH  55  69
ATOM     69  C   UNL A   1      44.136  28.616  35.242  1.00  0.00     0.058 A 
ATOM     70  C   UNL A   1      43.976  27.467  36.035  1.00  0.00     0.135 A 
ATOM     71  C   UNL A   1      45.449  29.067  35.016  1.00  0.00     0.135 A 
ATOM     72  F   UNL A   1      42.748  26.989  36.294  1.00  0.00    -0.206 F 
ATOM     73  C   UNL A   1      45.064  26.828  36.626  1.00  0.00     0.059 A 
ATOM     74  C   UNL A   1      46.554  28.423  35.568  1.00  0.00     0.059 A 
ATOM     75  F   UNL A   1      45.670  30.154  34.261  1.00  0.00    -0.206 F 
ATOM     76  C   UNL A   1      46.349  27.318  36.392  1.00  0.00     0.060 A 
BRANCH  76  77
ATOM     77  S   UNL A   1      47.737  26.512  37.216  1.00  0.00     0.124 S 
ATOM     78  O   UNL A   1      48.831  26.802  36.293  1.00  0.00    -0.237 OA
ATOM     79  O   UNL A   1      47.787  27.210  38.496  1.00  0.00    -0.237 OA
ATOM     80  O   UNL A   1      47.331  25.111  37.281  1.00  0.00    -0.744 OA
ENDBRANCH  76  77
ENDBRANCH  55  69
BRANCH  56  81
ATOM     81  C   UNL A   1      36.389  33.253  30.827  1.00  0.00     0.058 A 
ATOM     82  C   UNL A   1      35.087  33.203  31.339  1.00  0.00     0.135 A 
ATOM     83  C   UNL A   1      36.626  34.076  29.712  1.00  0.00     0.135 A 
ATOM     84  F   UNL A   1      34.813  32.431  32.402  1.00  0.00    -0.206 F 
ATOM     85  C   UNL A   1      34.059  33.956  30.783  1.00  0.00     0.059 A 
ATOM     86  C   UNL A   1      35.622  34.862  29.158  1.00  0.00     0.059 A 
ATOM     87  F   UNL A   1      37.864  34.179  29.202  1.00  0.00    -0.206 F 
ATOM     88  C   UNL A   1      34.341  34.795  29.702  1.00  0.00     0.060 A 
BRANCH  88  89
ATOM     89  S   UNL A   1      33.017  35.839  29.059  1.00  0.00     0.124 S 
ATOM     90  O   UNL A   1      33.771  36.935  28.460  1.00  0.00    -0.237 OA
ATOM     91  O   UNL A   1      32.349  34.937  28.125  1.00  0.00    -0.237 OA
ATOM     92  O   UNL A   1      32.247  36.181  30.251  1.00  0.00    -0.744 OA
ENDBRANCH  88  89
ENDBRANCH  56  81
BRANCH  68  93
ATOM     93  C   UNL A   1      39.857  34.231  36.823  1.00  0.00     0.058 A 
ATOM     94  C   UNL A   1      40.350  35.539  36.700  1.00  0.00     0.135 A 
ATOM     95  C   UNL A   1      39.164  33.899  37.998  1.00  0.00     0.135 A 
ATOM     96  F   UNL A   1      41.032  35.906  35.602  1.00  0.00    -0.206 F 
ATOM     97  C   UNL A   1      40.177  36.478  37.710  1.00  0.00     0.059 A 
ATOM     98  C   UNL A   1      38.949  34.831  39.007  1.00  0.00     0.059 A 
ATOM     99  F   UNL A   1      38.667  32.663  38.165  1.00  0.00    -0.206 F 
ATOM    100  C   UNL A   1      39.466  36.116  38.856  1.00  0.00     0.060 A 
BRANCH 100 101
ATOM    101  S   UNL A   1      39.212  37.362  40.136  1.00  0.00     0.124 S 
ATOM    102  O   UNL A   1      38.424  38.362  39.423  1.00  0.00    -0.237 OA
ATOM    103  O   UNL A   1      38.500  36.608  41.163  1.00  0.00    -0.237 OA
ATOM    104  O   UNL A   1      40.568  37.769  40.491  1.00  0.00    -0.744 OA
ENDBRANCH 100 101
ENDBRANCH  68  93
ENDBRANCH  42  43
ENDBRANCH  35  37
ENDBRANCH  34  35
ENDBRANCH  33  34
ENDBRANCH   1  33
TORSDOF 20
ENDMDL
MODEL 2
REMARK VINA RESULT:     -11.8      6.741     12.141
REMARK SMILES CC1=C(C#N)c2nc(N)c(C#N)c(C)c2/C1=C\c1ccc(OCC(=O)OCCOC(=O)c2ccc(-c3c4nc(c(-c5c(F)cc(S(=O)(=O)[O-])cc5F)c5ccc([nH]5)c(-c5c(F)cc(S(=O)(=O)[O-])cc5F)c5nc(c(-c6c(F)cc(S(=O)(=O)[O-])cc6F)c6ccc3[nH]6)C=C5)C=C4)cc2)c(Cl)c1
REMARK SMILES IDX 27 1 26 2 24 3 25 4 23 5 22 6 21 7 18 8 19 9 100 10 20 11
REMARK SMILES IDX 98 12 99 13 17 14 1 15 2 16 3 17 16 18 6 19 15 20 7 21 13 22
REMARK SMILES IDX 8 23 10 24 14 25 4 26 5 27 9 28 11 31 12 32 28 33 29 34
REMARK SMILES IDX 30 35 31 36 32 37 33 38 97 39 34 40 96 41 35 42 36 43 37 44
REMARK SMILES IDX 90 45 38 46 95 47 89 48 91 49 39 50 94 51 88 52 87 53 40 55
REMARK SMILES IDX 74 56 53 57 73 58 54 59 57 60 72 61 92 62 55 63 56 64 71 66
REMARK SMILES IDX 93 67 58 68 41 69 42 70 51 71 43 72 44 73 50 74 52 75 45 76
REMARK SMILES IDX 46 77 47 78 48 79 49 80 75 81 76 82 85 83 77 84 78 85 84 86
REMARK SMILES IDX 86 87 79 88 80 89 81 90 82 91 83 92 59 93 60 94 69 95 61 96
REMARK SMILES IDX 62 97 68 98 70 99 63 100 64 101 65 102 66 103 67 104
REMARK H PARENT 9 29 9 30 91 54 57 65
REMARK Flexibility Score: inf
ROOT
ATOM      1  C   UNL A   1      33.237  29.739  27.086  1.00  0.00     0.274 C 
ENDROOT
BRANCH   1   2
ATOM      2  O   UNL A   1      32.748  30.185  25.790  1.00  0.00    -0.460 OA
BRANCH   2   3
ATOM      3  C   UNL A   1      32.877  29.285  24.780  1.00  0.00     0.344 C 
ATOM      4  O   UNL A   1      33.947  28.756  24.482  1.00  0.00    -0.248 OA
BRANCH   3   5
ATOM      5  C   UNL A   1      31.589  28.972  23.979  1.00  0.00     0.352 C 
BRANCH   5   6
ATOM      6  O   UNL A   1      31.195  27.740  23.403  1.00  0.00    -0.480 OA
BRANCH   6   7
ATOM      7  C   UNL A   1      31.654  26.531  23.849  1.00  0.00     0.138 A 
ATOM      8  C   UNL A   1      32.327  23.789  24.105  1.00  0.00    -0.023 A 
ATOM      9  C   UNL A   1      32.880  24.557  23.078  1.00  0.00     0.012 A 
ATOM     10  C   UNL A   1      31.688  24.467  25.147  1.00  0.00     0.032 A 
ATOM     11  C   UNL A   1      32.508  25.903  22.933  1.00  0.00     0.048 A 
ATOM     12  C   UNL A   1      31.423  25.851  25.047  1.00  0.00     0.083 A 
ATOM     13  Cl  UNL A   1      31.043  26.663  26.520  1.00  0.00    -0.080 Cl
BRANCH   8  14
ATOM     14  C   UNL A   1      32.432  22.318  24.073  1.00  0.00     0.017 C 
ATOM     15  C   UNL A   1      32.074  19.297  23.941  1.00  0.00     0.046 C 
ATOM     16  C   UNL A   1      33.346  20.011  24.264  1.00  0.00    -0.023 C 
ATOM     17  C   UNL A   1      34.541  19.442  24.524  1.00  0.00     0.082 C 
ATOM     18  C   UNL A   1      33.464  21.497  24.395  1.00  0.00    -0.011 C 
ATOM     19  C   UNL A   1      35.504  20.497  24.783  1.00  0.00     0.092 A 
ATOM     20  C   UNL A   1      34.873  21.745  24.850  1.00  0.00     0.014 A 
ATOM     21  N   UNL A   1      36.807  20.229  25.001  1.00  0.00    -0.228 NA
ATOM     22  C   UNL A   1      35.648  22.780  25.368  1.00  0.00    -0.019 A 
ATOM     23  C   UNL A   1      37.565  21.267  25.380  1.00  0.00     0.142 A 
ATOM     24  C   UNL A   1      37.014  22.522  25.659  1.00  0.00     0.098 A 
ATOM     25  C   UNL A   1      35.062  24.107  25.694  1.00  0.00     0.046 C 
BRANCH  17  26
ATOM     26  C   UNL A   1      34.875  17.963  24.626  1.00  0.00     0.102 C 
ATOM     27  N   UNL A   1      35.153  16.735  24.711  1.00  0.00    -0.192 NA
ENDBRANCH  17  26
BRANCH  23  28
ATOM     28  N   UNL A   1      38.907  20.981  25.552  1.00  0.00    -0.383 N 
ATOM     29  H   UNL A   1      39.303  20.195  25.109  1.00  0.00     0.158 HD
ATOM     30  H   UNL A   1      39.466  21.561  26.115  1.00  0.00     0.158 HD
ENDBRANCH  23  28
BRANCH  24  31
ATOM     31  C   UNL A   1      37.850  23.507  26.290  1.00  0.00     0.103 C 
ATOM     32  N   UNL A   1      38.528  24.294  26.803  1.00  0.00    -0.192 NA
ENDBRANCH  24  31
ENDBRANCH   8  14
ENDBRANCH   6   7
ENDBRANCH   5   6
ENDBRANCH   3   5
ENDBRANCH   2   3
ENDBRANCH   1   2
BRANCH   1  33
ATOM     33  C   UNL A   1      34.456  30.543  27.561  1.00  0.00     0.275 C 
BRANCH  33  34
ATOM     34  O   UNL A   1      35.488  29.722  28.135  1.00  0.00    -0.458 OA
BRANCH  34  35
ATOM     35  C   UNL A   1      36.249  30.402  29.013  1.00  0.00     0.338 C 
ATOM     36  O   UNL A   1      35.859  31.062  29.958  1.00  0.00    -0.246 OA
BRANCH  35  37
ATOM     37  C   UNL A   1      37.675  30.254  28.813  1.00  0.00     0.060 A 
ATOM     38  C   UNL A   1      38.102  29.874  27.546  1.00  0.00     0.016 A 
ATOM     39  C   UNL A   1      38.503  30.149  29.932  1.00  0.00     0.016 A 
ATOM     40  C   UNL A   1      39.370  29.337  27.404  1.00  0.00     0.010 A 
ATOM     41  C   UNL A   1      39.812  29.706  29.763  1.00  0.00     0.010 A 
ATOM     42  C   UNL A   1      40.250  29.290  28.497  1.00  0.00    -0.014 A 
BRANCH  42  43
ATOM     43  C   UNL A   1      41.661  28.914  28.261  1.00  0.00     0.031 A 
ATOM     44  C   UNL A   1      42.778  29.905  28.384  1.00  0.00     0.074 A 
ATOM     45  C   UNL A   1      41.903  27.631  27.933  1.00  0.00     0.049 A 
ATOM     46  N   UNL A   1      44.051  29.737  28.140  1.00  0.00    -0.248 NA
ATOM     47  C   UNL A   1      42.422  31.263  28.822  1.00  0.00     0.031 C 
ATOM     48  C   UNL A   1      40.875  26.590  27.810  1.00  0.00     0.029 A 
ATOM     49  N   UNL A   1      43.070  26.972  27.668  1.00  0.00    -0.354 N 
ATOM     50  C   UNL A   1      44.651  30.966  28.378  1.00  0.00     0.074 A 
ATOM     51  C   UNL A   1      43.593  31.885  28.746  1.00  0.00     0.031 C 
ATOM     52  C   UNL A   1      41.464  25.414  27.574  1.00  0.00     0.029 A 
ATOM     53  C   UNL A   1      42.893  25.634  27.415  1.00  0.00     0.049 A 
ATOM     54  H   UNL A   1      43.951  27.413  27.661  1.00  0.00     0.167 HD
ATOM     55  C   UNL A   1      45.967  31.285  28.304  1.00  0.00     0.037 A 
ATOM     56  C   UNL A   1      43.778  24.688  27.060  1.00  0.00     0.037 A 
ATOM     57  C   UNL A   1      46.994  30.341  27.930  1.00  0.00     0.049 A 
ATOM     58  C   UNL A   1      45.212  25.083  26.905  1.00  0.00     0.074 A 
ATOM     59  C   UNL A   1      48.357  30.550  27.814  1.00  0.00     0.029 A 
ATOM     60  N   UNL A   1      46.769  29.007  27.607  1.00  0.00    -0.354 N 
ATOM     61  N   UNL A   1      45.767  26.253  27.114  1.00  0.00    -0.248 NA
ATOM     62  C   UNL A   1      46.137  24.041  26.452  1.00  0.00     0.031 C 
ATOM     63  C   UNL A   1      48.945  29.364  27.363  1.00  0.00     0.029 A 
ATOM     64  C   UNL A   1      47.963  28.391  27.263  1.00  0.00     0.049 A 
ATOM     65  H   UNL A   1      45.890  28.564  27.622  1.00  0.00     0.167 HD
ATOM     66  C   UNL A   1      47.115  26.088  26.831  1.00  0.00     0.074 A 
ATOM     67  C   UNL A   1      47.290  24.697  26.455  1.00  0.00     0.031 C 
ATOM     68  C   UNL A   1      48.113  27.006  26.878  1.00  0.00     0.037 A 
BRANCH  55  69
ATOM     69  C   UNL A   1      46.361  32.709  28.603  1.00  0.00     0.058 A 
ATOM     70  C   UNL A   1      46.422  33.690  27.599  1.00  0.00     0.135 A 
ATOM     71  C   UNL A   1      46.679  33.106  29.915  1.00  0.00     0.135 A 
ATOM     72  F   UNL A   1      46.137  33.373  26.326  1.00  0.00    -0.206 F 
ATOM     73  C   UNL A   1      46.836  34.991  27.871  1.00  0.00     0.059 A 
ATOM     74  C   UNL A   1      47.061  34.411  30.216  1.00  0.00     0.059 A 
ATOM     75  F   UNL A   1      46.631  32.220  30.920  1.00  0.00    -0.206 F 
ATOM     76  C   UNL A   1      47.161  35.340  29.182  1.00  0.00     0.060 A 
BRANCH  76  77
ATOM     77  S   UNL A   1      47.754  37.015  29.501  1.00  0.00     0.124 S 
ATOM     78  O   UNL A   1      48.293  36.879  30.852  1.00  0.00    -0.237 OA
ATOM     79  O   UNL A   1      48.740  37.203  28.443  1.00  0.00    -0.237 OA
ATOM     80  O   UNL A   1      46.550  37.832  29.389  1.00  0.00    -0.744 OA
ENDBRANCH  76  77
ENDBRANCH  55  69
BRANCH  56  81
ATOM     81  C   UNL A   1      43.300  23.297  26.857  1.00  0.00     0.058 A 
ATOM     82  C   UNL A   1      43.226  22.753  25.569  1.00  0.00     0.135 A 
ATOM     83  C   UNL A   1      43.033  22.447  27.945  1.00  0.00     0.135 A 
ATOM     84  F   UNL A   1      43.472  23.526  24.500  1.00  0.00    -0.206 F 
ATOM     85  C   UNL A   1      42.920  21.413  25.363  1.00  0.00     0.059 A 
ATOM     86  C   UNL A   1      42.756  21.096  27.766  1.00  0.00     0.059 A 
ATOM     87  F   UNL A   1      43.118  22.914  29.201  1.00  0.00    -0.206 F 
ATOM     88  C   UNL A   1      42.703  20.589  26.469  1.00  0.00     0.060 A 
BRANCH  88  89
ATOM     89  S   UNL A   1      42.407  18.832  26.186  1.00  0.00     0.124 S 
ATOM     90  O   UNL A   1      41.014  18.834  25.751  1.00  0.00    -0.237 OA
ATOM     91  O   UNL A   1      43.397  18.520  25.159  1.00  0.00    -0.237 OA
ATOM     92  O   UNL A   1      42.658  18.231  27.493  1.00  0.00    -0.744 OA
ENDBRANCH  88  89
ENDBRANCH  56  81
BRANCH  68  93
ATOM     93  C   UNL A   1      49.493  26.530  26.518  1.00  0.00     0.058 A 
ATOM     94  C   UNL A   1      50.384  26.050  27.491  1.00  0.00     0.135 A 
ATOM     95  C   UNL A   1      49.907  26.498  25.176  1.00  0.00     0.135 A 
ATOM     96  F   UNL A   1      50.043  26.071  28.790  1.00  0.00    -0.206 F 
ATOM     97  C   UNL A   1      51.643  25.571  27.149  1.00  0.00     0.059 A 
ATOM     98  C   UNL A   1      51.149  25.992  24.807  1.00  0.00     0.059 A 
ATOM     99  F   UNL A   1      49.092  26.940  24.205  1.00  0.00    -0.206 F 
ATOM    100  C   UNL A   1      52.012  25.538  25.802  1.00  0.00     0.060 A 
BRANCH 100 101
ATOM    101  S   UNL A   1      53.633  24.870  25.374  1.00  0.00     0.124 S 
ATOM    102  O   UNL A   1      53.326  23.458  25.172  1.00  0.00    -0.237 OA
ATOM    103  O   UNL A   1      53.968  25.624  24.171  1.00  0.00    -0.237 OA
ATOM    104  O   UNL A   1      54.447  25.173  26.546  1.00  0.00    -0.744 OA
ENDBRANCH 100 101
ENDBRANCH  68  93
ENDBRANCH  42  43
ENDBRANCH  35  37
ENDBRANCH  34  35
ENDBRANCH  33  34
ENDBRANCH   1  33
TORSDOF 20
ENDMDL
MODEL 3
REMARK VINA RESULT:     -11.4      5.150      9.023
REMARK SMILES CC1=C(C#N)c2nc(N)c(C#N)c(C)c2/C1=C\c1ccc(OCC(=O)OCCOC(=O)c2ccc(-c3c4nc(c(-c5c(F)cc(S(=O)(=O)[O-])cc5F)c5ccc([nH]5)c(-c5c(F)cc(S(=O)(=O)[O-])cc5F)c5nc(c(-c6c(F)cc(S(=O)(=O)[O-])cc6F)c6ccc3[nH]6)C=C5)C=C4)cc2)c(Cl)c1
REMARK SMILES IDX 27 1 26 2 24 3 25 4 23 5 22 6 21 7 18 8 19 9 100 10 20 11
REMARK SMILES IDX 98 12 99 13 17 14 1 15 2 16 3 17 16 18 6 19 15 20 7 21 13 22
REMARK SMILES IDX 8 23 10 24 14 25 4 26 5 27 9 28 11 31 12 32 28 33 29 34
REMARK SMILES IDX 30 35 31 36 32 37 33 38 97 39 34 40 96 41 35 42 36 43 37 44
REMARK SMILES IDX 90 45 38 46 95 47 89 48 91 49 39 50 94 51 88 52 87 53 40 55
REMARK SMILES IDX 74 56 53 57 73 58 54 59 57 60 72 61 92 62 55 63 56 64 71 66
REMARK SMILES IDX 93 67 58 68 41 69 42 70 51 71 43 72 44 73 50 74 52 75 45 76
REMARK SMILES IDX 46 77 47 78 48 79 49 80 75 81 76 82 85 83 77 84 78 85 84 86
REMARK SMILES IDX 86 87 79 88 80 89 81 90 82 91 83 92 59 93 60 94 69 95 61 96
REMARK SMILES IDX 62 97 68 98 70 99 63 100 64 101 65 102 66 103 67 104
REMARK H PARENT 9 29 9 30 91 54 57 65
REMARK Flexibility Score: inf
ROOT
ATOM      1  C   UNL A   1      40.472  20.013  26.190  1.00  0.00     0.274 C 
ENDROOT
BRANCH   1   2
ATOM      2  O   UNL A   1      41.709  19.612  26.843  1.00  0.00    -0.460 OA
BRANCH   2   3
ATOM      3  C   UNL A   1      42.573  18.907  26.067  1.00  0.00     0.344 C 
ATOM      4  O   UNL A   1      42.530  17.682  25.954  1.00  0.00    -0.248 OA
BRANCH   3   5
ATOM      5  C   UNL A   1      43.662  19.732  25.338  1.00  0.00     0.352 C 
BRANCH   5   6
ATOM      6  O   UNL A   1      43.552  21.032  24.789  1.00  0.00    -0.480 OA
BRANCH   6   7
ATOM      7  C   UNL A   1      44.303  22.089  25.226  1.00  0.00     0.138 A 
ATOM      8  C   UNL A   1      46.417  23.897  25.779  1.00  0.00    -0.023 A 
ATOM      9  C   UNL A   1      46.037  23.640  24.461  1.00  0.00     0.012 A 
ATOM     10  C   UNL A   1      45.551  23.480  26.794  1.00  0.00     0.032 A 
ATOM     11  C   UNL A   1      45.018  22.710  24.194  1.00  0.00     0.048 A 
ATOM     12  C   UNL A   1      44.453  22.639  26.501  1.00  0.00     0.083 A 
ATOM     13  Cl  UNL A   1      43.226  22.542  27.707  1.00  0.00    -0.080 Cl
BRANCH   8  14
ATOM     14  C   UNL A   1      47.686  24.591  26.065  1.00  0.00     0.017 C 
ATOM     15  C   UNL A   1      50.514  25.492  26.745  1.00  0.00     0.046 C 
ATOM     16  C   UNL A   1      49.339  26.391  26.539  1.00  0.00    -0.023 C 
ATOM     17  C   UNL A   1      49.341  27.738  26.596  1.00  0.00     0.082 C 
ATOM     18  C   UNL A   1      47.947  25.906  26.283  1.00  0.00    -0.011 C 
ATOM     19  C   UNL A   1      47.992  28.209  26.333  1.00  0.00     0.092 A 
ATOM     20  C   UNL A   1      47.092  27.140  26.273  1.00  0.00     0.014 A 
ATOM     21  N   UNL A   1      47.705  29.524  26.250  1.00  0.00    -0.228 NA
ATOM     22  C   UNL A   1      45.744  27.490  26.307  1.00  0.00    -0.019 A 
ATOM     23  C   UNL A   1      46.405  29.836  26.159  1.00  0.00     0.142 A 
ATOM     24  C   UNL A   1      45.402  28.868  26.273  1.00  0.00     0.098 A 
ATOM     25  C   UNL A   1      44.675  26.468  26.458  1.00  0.00     0.046 C 
BRANCH  17  26
ATOM     26  C   UNL A   1      50.494  28.663  26.948  1.00  0.00     0.102 C 
ATOM     27  N   UNL A   1      51.451  29.431  27.241  1.00  0.00    -0.192 NA
ENDBRANCH  17  26
BRANCH  23  28
ATOM     28  N   UNL A   1      46.135  31.186  26.027  1.00  0.00    -0.383 N 
ATOM     29  H   UNL A   1      46.811  31.851  26.291  1.00  0.00     0.158 HD
ATOM     30  H   UNL A   1      45.268  31.482  25.669  1.00  0.00     0.158 HD
ENDBRANCH  23  28
BRANCH  24  31
ATOM     31  C   UNL A   1      44.040  29.311  26.408  1.00  0.00     0.103 C 
ATOM     32  N   UNL A   1      42.941  29.664  26.508  1.00  0.00    -0.192 NA
ENDBRANCH  24  31
ENDBRANCH   8  14
ENDBRANCH   6   7
ENDBRANCH   5   6
ENDBRANCH   3   5
ENDBRANCH   2   3
ENDBRANCH   1   2
BRANCH   1  33
ATOM     33  C   UNL A   1      39.974  21.384  26.668  1.00  0.00     0.275 C 
BRANCH  33  34
ATOM     34  O   UNL A   1      39.361  22.160  25.623  1.00  0.00    -0.458 OA
BRANCH  34  35
ATOM     35  C   UNL A   1      38.582  23.144  26.111  1.00  0.00     0.338 C 
ATOM     36  O   UNL A   1      37.371  23.224  26.028  1.00  0.00    -0.246 OA
BRANCH  35  37
ATOM     37  C   UNL A   1      39.293  24.160  26.857  1.00  0.00     0.060 A 
ATOM     38  C   UNL A   1      38.938  24.334  28.190  1.00  0.00     0.016 A 
ATOM     39  C   UNL A   1      40.018  25.126  26.155  1.00  0.00     0.016 A 
ATOM     40  C   UNL A   1      39.277  25.520  28.820  1.00  0.00     0.010 A 
ATOM     41  C   UNL A   1      40.444  26.268  26.826  1.00  0.00     0.010 A 
ATOM     42  C   UNL A   1      40.070  26.474  28.163  1.00  0.00    -0.014 A 
BRANCH  42  43
ATOM     43  C   UNL A   1      40.591  27.622  28.936  1.00  0.00     0.031 A 
ATOM     44  C   UNL A   1      41.992  27.649  29.468  1.00  0.00     0.074 A 
ATOM     45  C   UNL A   1      39.749  28.653  29.140  1.00  0.00     0.049 A 
ATOM     46  N   UNL A   1      42.564  28.553  30.219  1.00  0.00    -0.248 NA
ATOM     47  C   UNL A   1      42.859  26.512  29.128  1.00  0.00     0.031 C 
ATOM     48  C   UNL A   1      38.371  28.720  28.640  1.00  0.00     0.029 A 
ATOM     49  N   UNL A   1      39.921  29.843  29.789  1.00  0.00    -0.354 N 
ATOM     50  C   UNL A   1      43.852  28.093  30.457  1.00  0.00     0.074 A 
ATOM     51  C   UNL A   1      43.963  26.805  29.805  1.00  0.00     0.031 C 
ATOM     52  C   UNL A   1      37.854  29.917  28.931  1.00  0.00     0.029 A 
ATOM     53  C   UNL A   1      38.816  30.655  29.734  1.00  0.00     0.049 A 
ATOM     54  H   UNL A   1      40.756  30.093  30.249  1.00  0.00     0.167 HD
ATOM     55  C   UNL A   1      44.846  28.703  31.150  1.00  0.00     0.037 A 
ATOM     56  C   UNL A   1      38.584  31.854  30.295  1.00  0.00     0.037 A 
ATOM     57  C   UNL A   1      44.695  29.988  31.791  1.00  0.00     0.049 A 
ATOM     58  C   UNL A   1      39.667  32.468  31.123  1.00  0.00     0.074 A 
ATOM     59  C   UNL A   1      45.627  30.700  32.525  1.00  0.00     0.029 A 
ATOM     60  N   UNL A   1      43.533  30.753  31.777  1.00  0.00    -0.354 N 
ATOM     61  N   UNL A   1      40.876  32.016  31.358  1.00  0.00    -0.248 NA
ATOM     62  C   UNL A   1      39.355  33.743  31.775  1.00  0.00     0.031 C 
ATOM     63  C   UNL A   1      45.011  31.862  33.005  1.00  0.00     0.029 A 
ATOM     64  C   UNL A   1      43.716  31.913  32.514  1.00  0.00     0.049 A 
ATOM     65  H   UNL A   1      42.702  30.508  31.310  1.00  0.00     0.167 HD
ATOM     66  C   UNL A   1      41.480  32.958  32.177  1.00  0.00     0.074 A 
ATOM     67  C   UNL A   1      40.505  34.015  32.378  1.00  0.00     0.031 C 
ATOM     68  C   UNL A   1      42.726  32.948  32.713  1.00  0.00     0.037 A 
BRANCH  55  69
ATOM     69  C   UNL A   1      46.161  27.977  31.273  1.00  0.00     0.058 A 
ATOM     70  C   UNL A   1      47.215  28.190  30.368  1.00  0.00     0.135 A 
ATOM     71  C   UNL A   1      46.379  27.056  32.313  1.00  0.00     0.135 A 
ATOM     72  F   UNL A   1      47.068  29.052  29.349  1.00  0.00    -0.206 F 
ATOM     73  C   UNL A   1      48.409  27.479  30.455  1.00  0.00     0.059 A 
ATOM     74  C   UNL A   1      47.578  26.359  32.440  1.00  0.00     0.059 A 
ATOM     75  F   UNL A   1      45.415  26.814  33.215  1.00  0.00    -0.206 F 
ATOM     76  C   UNL A   1      48.578  26.560  31.490  1.00  0.00     0.060 A 
BRANCH  76  77
ATOM     77  S   UNL A   1      50.109  25.605  31.548  1.00  0.00     0.124 S 
ATOM     78  O   UNL A   1      50.125  25.002  30.219  1.00  0.00    -0.237 OA
ATOM     79  O   UNL A   1      51.111  26.638  31.786  1.00  0.00    -0.237 OA
ATOM     80  O   UNL A   1      49.892  24.676  32.653  1.00  0.00    -0.744 OA
ENDBRANCH  76  77
ENDBRANCH  55  69
BRANCH  56  81
ATOM     81  C   UNL A   1      37.279  32.519  30.055  1.00  0.00     0.058 A 
ATOM     82  C   UNL A   1      36.182  32.250  30.883  1.00  0.00     0.135 A 
ATOM     83  C   UNL A   1      37.136  33.524  29.082  1.00  0.00     0.135 A 
ATOM     84  F   UNL A   1      36.272  31.299  31.826  1.00  0.00    -0.206 F 
ATOM     85  C   UNL A   1      34.995  32.963  30.771  1.00  0.00     0.059 A 
ATOM     86  C   UNL A   1      35.969  34.272  28.971  1.00  0.00     0.059 A 
ATOM     87  F   UNL A   1      38.167  33.838  28.282  1.00  0.00    -0.206 F 
ATOM     88  C   UNL A   1      34.904  33.984  29.822  1.00  0.00     0.060 A 
BRANCH  88  89
ATOM     89  S   UNL A   1      33.390  34.964  29.758  1.00  0.00     0.124 S 
ATOM     90  O   UNL A   1      33.884  36.236  29.241  1.00  0.00    -0.237 OA
ATOM     91  O   UNL A   1      32.562  34.181  28.846  1.00  0.00    -0.237 OA
ATOM     92  O   UNL A   1      32.940  34.981  31.147  1.00  0.00    -0.744 OA
ENDBRANCH  88  89
ENDBRANCH  56  81
BRANCH  68  93
ATOM     93  C   UNL A   1      43.111  34.123  33.568  1.00  0.00     0.058 A 
ATOM     94  C   UNL A   1      43.504  35.347  33.003  1.00  0.00     0.135 A 
ATOM     95  C   UNL A   1      43.027  34.043  34.967  1.00  0.00     0.135 A 
ATOM     96  F   UNL A   1      43.613  35.473  31.671  1.00  0.00    -0.206 F 
ATOM     97  C   UNL A   1      43.817  36.444  33.796  1.00  0.00     0.059 A 
ATOM     98  C   UNL A   1      43.302  35.138  35.779  1.00  0.00     0.059 A 
ATOM     99  F   UNL A   1      42.651  32.898  35.559  1.00  0.00    -0.206 F 
ATOM    100  C   UNL A   1      43.704  36.332  35.184  1.00  0.00     0.060 A 
BRANCH 100 101
ATOM    101  S   UNL A   1      44.071  37.781  36.194  1.00  0.00     0.124 S 
ATOM    102  O   UNL A   1      45.448  37.516  36.601  1.00  0.00    -0.237 OA
ATOM    103  O   UNL A   1      43.891  38.873  35.243  1.00  0.00    -0.237 OA
ATOM    104  O   UNL A   1      43.079  37.715  37.261  1.00  0.00    -0.744 OA
ENDBRANCH 100 101
ENDBRANCH  68  93
ENDBRANCH  42  43
ENDBRANCH  35  37
ENDBRANCH  34  35
ENDBRANCH  33  34
ENDBRANCH   1  33
TORSDOF 20
ENDMDL
