MODEL 1
REMARK VINA RESULT:     -11.3      0.000      0.000
REMARK SMILES O=C(OCCOC(=O)c1ccc(F)c(S(=O)(=O)N2CCOc3ccccc32)c1)c1ccc(-c2c3nc(c(-c4c(F)cc(S(=O)(=O)[O-])cc4F)c4ccc([nH]4)c(-c4c(F)cc(S(=O)(=O)[O-])cc4F)c4nc(c(-c5c(F)cc(S(=O)(=O)[O-])cc5F)c5ccc2[nH]5)C=C4)C=C3)cc1
REMARK SMILES IDX 4 1 3 2 2 3 1 4 29 5 30 6 94 7 31 8 93 9 32 10 33 11 34 12
REMARK SMILES IDX 87 13 35 14 92 15 86 16 88 17 36 18 91 19 85 20 84 21 37 23
REMARK SMILES IDX 71 24 50 25 70 26 51 27 54 28 69 29 89 30 52 31 53 32 68 34
REMARK SMILES IDX 90 35 55 36 38 37 39 38 48 39 40 40 41 41 47 42 49 43 42 44
REMARK SMILES IDX 43 45 44 46 45 47 46 48 72 49 73 50 82 51 74 52 75 53 81 54
REMARK SMILES IDX 83 55 76 56 77 57 78 58 79 59 80 60 56 61 57 62 66 63 58 64
REMARK SMILES IDX 59 65 65 66 67 67 60 68 61 69 62 70 63 71 64 72 5 73 6 74
REMARK SMILES IDX 7 75 8 76 9 77 10 78 28 79 11 80 14 81 12 82 13 83 15 84
REMARK SMILES IDX 16 85 17 86 18 87 19 88 27 89 20 90 22 91 26 92 21 93 23 94
REMARK SMILES IDX 25 95 24 96
REMARK H PARENT 88 22 54 33
REMARK Flexibility Score: inf
ROOT
ATOM      1  C   UNL A   1      34.648  33.061  28.166  1.00  0.00     0.275 C 
ENDROOT
BRANCH   1   2
ATOM      2  O   UNL A   1      33.893  31.842  28.057  1.00  0.00    -0.458 OA
BRANCH   2   3
ATOM      3  C   UNL A   1      34.298  30.560  27.892  1.00  0.00     0.338 C 
ATOM      4  O   UNL A   1      33.463  29.724  27.550  1.00  0.00    -0.246 OA
BRANCH   3   5
ATOM      5  C   UNL A   1      35.678  30.073  28.204  1.00  0.00     0.060 A 
ATOM      6  C   UNL A   1      36.124  29.621  29.447  1.00  0.00     0.016 A 
ATOM      7  C   UNL A   1      36.613  30.126  27.153  1.00  0.00     0.016 A 
ATOM      8  C   UNL A   1      37.436  29.168  29.621  1.00  0.00     0.010 A 
ATOM      9  C   UNL A   1      37.926  29.670  27.318  1.00  0.00     0.010 A 
ATOM     10  C   UNL A   1      38.346  29.193  28.561  1.00  0.00    -0.014 A 
BRANCH  10  11
ATOM     11  C   UNL A   1      39.765  28.864  28.820  1.00  0.00     0.031 A 
ATOM     12  C   UNL A   1      40.633  29.897  29.474  1.00  0.00     0.074 A 
ATOM     13  C   UNL A   1      40.242  27.633  28.559  1.00  0.00     0.049 A 
ATOM     14  N   UNL A   1      41.861  29.785  29.903  1.00  0.00    -0.248 NA
ATOM     15  C   UNL A   1      40.024  31.215  29.715  1.00  0.00     0.031 C 
ATOM     16  C   UNL A   1      39.457  26.529  28.013  1.00  0.00     0.029 A 
ATOM     17  N   UNL A   1      41.494  27.097  28.722  1.00  0.00    -0.354 N 
ATOM     18  C   UNL A   1      42.150  30.994  30.519  1.00  0.00     0.074 A 
ATOM     19  C   UNL A   1      41.002  31.854  30.336  1.00  0.00     0.031 C 
ATOM     20  C   UNL A   1      40.253  25.462  27.833  1.00  0.00     0.029 A 
ATOM     21  C   UNL A   1      41.601  25.799  28.280  1.00  0.00     0.049 A 
ATOM     22  H   UNL A   1      42.245  27.595  29.118  1.00  0.00     0.167 HD
ATOM     23  C   UNL A   1      43.259  31.340  31.213  1.00  0.00     0.037 A 
ATOM     24  C   UNL A   1      42.662  24.970  28.254  1.00  0.00     0.037 A 
ATOM     25  C   UNL A   1      44.413  30.493  31.341  1.00  0.00     0.049 A 
ATOM     26  C   UNL A   1      43.945  25.431  28.888  1.00  0.00     0.074 A 
ATOM     27  C   UNL A   1      45.611  30.757  31.978  1.00  0.00     0.029 A 
ATOM     28  N   UNL A   1      44.514  29.216  30.803  1.00  0.00    -0.354 N 
ATOM     29  N   UNL A   1      44.197  26.571  29.488  1.00  0.00    -0.248 NA
ATOM     30  C   UNL A   1      45.074  24.493  28.874  1.00  0.00     0.031 C 
ATOM     31  C   UNL A   1      46.453  29.655  31.787  1.00  0.00     0.029 A 
ATOM     32  C   UNL A   1      45.765  28.687  31.071  1.00  0.00     0.049 A 
ATOM     33  H   UNL A   1      43.802  28.756  30.303  1.00  0.00     0.167 HD
ATOM     34  C   UNL A   1      45.500  26.474  29.960  1.00  0.00     0.074 A 
ATOM     35  C   UNL A   1      45.985  25.165  29.568  1.00  0.00     0.031 C 
ATOM     36  C   UNL A   1      46.222  27.379  30.665  1.00  0.00     0.037 A 
BRANCH  23  37
ATOM     37  C   UNL A   1      43.251  32.690  31.869  1.00  0.00     0.058 A 
ATOM     38  C   UNL A   1      42.950  32.829  33.231  1.00  0.00     0.135 A 
ATOM     39  C   UNL A   1      43.582  33.849  31.146  1.00  0.00     0.135 A 
ATOM     40  F   UNL A   1      42.643  31.752  33.970  1.00  0.00    -0.206 F 
ATOM     41  C   UNL A   1      42.986  34.071  33.857  1.00  0.00     0.059 A 
ATOM     42  C   UNL A   1      43.643  35.098  31.757  1.00  0.00     0.059 A 
ATOM     43  F   UNL A   1      43.907  33.764  29.846  1.00  0.00    -0.206 F 
ATOM     44  C   UNL A   1      43.339  35.199  33.114  1.00  0.00     0.060 A 
BRANCH  44  45
ATOM     45  S   UNL A   1      43.465  36.789  33.961  1.00  0.00     0.124 S 
ATOM     46  O   UNL A   1      44.698  36.625  34.723  1.00  0.00    -0.237 OA
ATOM     47  O   UNL A   1      43.527  37.728  32.844  1.00  0.00    -0.237 OA
ATOM     48  O   UNL A   1      42.240  36.849  34.750  1.00  0.00    -0.744 OA
ENDBRANCH  44  45
ENDBRANCH  23  37
BRANCH  24  49
ATOM     49  C   UNL A   1      42.526  23.617  27.653  1.00  0.00     0.058 A 
ATOM     50  C   UNL A   1      42.309  22.489  28.462  1.00  0.00     0.135 A 
ATOM     51  C   UNL A   1      42.670  23.412  26.274  1.00  0.00     0.135 A 
ATOM     52  F   UNL A   1      42.176  22.627  29.789  1.00  0.00    -0.206 F 
ATOM     53  C   UNL A   1      42.268  21.205  27.927  1.00  0.00     0.059 A 
ATOM     54  C   UNL A   1      42.616  22.138  25.713  1.00  0.00     0.059 A 
ATOM     55  F   UNL A   1      42.873  24.458  25.460  1.00  0.00    -0.206 F 
ATOM     56  C   UNL A   1      42.432  21.039  26.552  1.00  0.00     0.060 A 
BRANCH  56  57
ATOM     57  S   UNL A   1      42.435  19.359  25.888  1.00  0.00     0.124 S 
ATOM     58  O   UNL A   1      41.019  19.167  25.581  1.00  0.00    -0.237 OA
ATOM     59  O   UNL A   1      43.323  19.487  24.737  1.00  0.00    -0.237 OA
ATOM     60  O   UNL A   1      42.950  18.558  26.993  1.00  0.00    -0.744 OA
ENDBRANCH  56  57
ENDBRANCH  24  49
BRANCH  36  61
ATOM     61  C   UNL A   1      47.609  26.983  31.080  1.00  0.00     0.058 A 
ATOM     62  C   UNL A   1      47.818  26.295  32.286  1.00  0.00     0.135 A 
ATOM     63  C   UNL A   1      48.733  27.358  30.330  1.00  0.00     0.135 A 
ATOM     64  F   UNL A   1      46.774  25.918  33.041  1.00  0.00    -0.206 F 
ATOM     65  C   UNL A   1      49.098  26.013  32.746  1.00  0.00     0.059 A 
ATOM     66  C   UNL A   1      50.023  27.063  30.759  1.00  0.00     0.059 A 
ATOM     67  F   UNL A   1      48.582  28.005  29.164  1.00  0.00    -0.206 F 
ATOM     68  C   UNL A   1      50.195  26.407  31.979  1.00  0.00     0.060 A 
BRANCH  68  69
ATOM     69  S   UNL A   1      51.850  26.032  32.589  1.00  0.00     0.124 S 
ATOM     70  O   UNL A   1      51.569  25.053  33.633  1.00  0.00    -0.237 OA
ATOM     71  O   UNL A   1      52.511  25.514  31.395  1.00  0.00    -0.237 OA
ATOM     72  O   UNL A   1      52.340  27.327  33.055  1.00  0.00    -0.744 OA
ENDBRANCH  68  69
ENDBRANCH  36  61
ENDBRANCH  10  11
ENDBRANCH   3   5
ENDBRANCH   2   3
ENDBRANCH   1   2
BRANCH   1  73
ATOM     73  C   UNL A   1      33.902  34.322  27.736  1.00  0.00     0.275 C 
BRANCH  73  74
ATOM     74  O   UNL A   1      34.250  35.484  28.501  1.00  0.00    -0.458 OA
BRANCH  74  75
ATOM     75  C   UNL A   1      33.221  36.087  29.152  1.00  0.00     0.338 C 
ATOM     76  O   UNL A   1      32.195  36.524  28.663  1.00  0.00    -0.246 OA
BRANCH  75  77
ATOM     77  C   UNL A   1      33.485  36.042  30.606  1.00  0.00     0.061 A 
ATOM     78  C   UNL A   1      33.380  37.201  31.381  1.00  0.00     0.019 A 
ATOM     79  C   UNL A   1      33.884  34.832  31.191  1.00  0.00     0.041 A 
ATOM     80  C   UNL A   1      33.731  37.160  32.729  1.00  0.00     0.041 A 
ATOM     81  C   UNL A   1      34.277  34.816  32.539  1.00  0.00     0.124 A 
ATOM     82  C   UNL A   1      34.223  35.985  33.289  1.00  0.00     0.143 A 
ATOM     83  F   UNL A   1      34.651  36.045  34.554  1.00  0.00    -0.205 F 
BRANCH  81  84
ATOM     84  S   UNL A   1      34.908  33.302  33.217  1.00  0.00     0.267 S 
ATOM     85  O   UNL A   1      34.926  33.487  34.656  1.00  0.00    -0.201 OA
ATOM     86  O   UNL A   1      34.101  32.259  32.620  1.00  0.00    -0.201 OA
BRANCH  84  87
ATOM     87  N   UNL A   1      36.518  33.223  32.706  1.00  0.00    -0.259 N 
ATOM     88  C   UNL A   1      37.230  34.522  32.578  1.00  0.00     0.177 C 
ATOM     89  C   UNL A   1      37.373  32.103  33.042  1.00  0.00     0.094 A 
ATOM     90  C   UNL A   1      38.295  34.615  33.656  1.00  0.00     0.252 C 
ATOM     91  C   UNL A   1      38.730  32.340  33.349  1.00  0.00     0.143 A 
ATOM     92  C   UNL A   1      36.956  30.777  32.888  1.00  0.00     0.031 A 
ATOM     93  O   UNL A   1      39.283  33.593  33.493  1.00  0.00    -0.489 OA
ATOM     94  C   UNL A   1      39.631  31.281  33.491  1.00  0.00     0.049 A 
ATOM     95  C   UNL A   1      37.853  29.717  33.064  1.00  0.00     0.002 A 
ATOM     96  C   UNL A   1      39.191  29.967  33.355  1.00  0.00     0.004 A 
ENDBRANCH  84  87
ENDBRANCH  81  84
ENDBRANCH  75  77
ENDBRANCH  74  75
ENDBRANCH  73  74
ENDBRANCH   1  73
TORSDOF 16
ENDMDL
MODEL 2
REMARK VINA RESULT:     -11.2      3.826     12.777
REMARK SMILES O=C(OCCOC(=O)c1ccc(F)c(S(=O)(=O)N2CCOc3ccccc32)c1)c1ccc(-c2c3nc(c(-c4c(F)cc(S(=O)(=O)[O-])cc4F)c4ccc([nH]4)c(-c4c(F)cc(S(=O)(=O)[O-])cc4F)c4nc(c(-c5c(F)cc(S(=O)(=O)[O-])cc5F)c5ccc2[nH]5)C=C4)C=C3)cc1
REMARK SMILES IDX 4 1 3 2 2 3 1 4 29 5 30 6 94 7 31 8 93 9 32 10 33 11 34 12
REMARK SMILES IDX 87 13 35 14 92 15 86 16 88 17 36 18 91 19 85 20 84 21 37 23
REMARK SMILES IDX 71 24 50 25 70 26 51 27 54 28 69 29 89 30 52 31 53 32 68 34
REMARK SMILES IDX 90 35 55 36 38 37 39 38 48 39 40 40 41 41 47 42 49 43 42 44
REMARK SMILES IDX 43 45 44 46 45 47 46 48 72 49 73 50 82 51 74 52 75 53 81 54
REMARK SMILES IDX 83 55 76 56 77 57 78 58 79 59 80 60 56 61 57 62 66 63 58 64
REMARK SMILES IDX 59 65 65 66 67 67 60 68 61 69 62 70 63 71 64 72 5 73 6 74
REMARK SMILES IDX 7 75 8 76 9 77 10 78 28 79 11 80 14 81 12 82 13 83 15 84
REMARK SMILES IDX 16 85 17 86 18 87 19 88 27 89 20 90 22 91 26 92 21 93 23 94
REMARK SMILES IDX 25 95 24 96
REMARK H PARENT 88 22 54 33
REMARK Flexibility Score: inf
ROOT
ATOM      1  C   UNL A   1      39.893  22.822  26.892  1.00  0.00     0.275 C 
ENDROOT
BRANCH   1   2
ATOM      2  O   UNL A   1      40.906  23.673  26.328  1.00  0.00    -0.458 OA
BRANCH   2   3
ATOM      3  C   UNL A   1      41.051  25.018  26.360  1.00  0.00     0.338 C 
ATOM      4  O   UNL A   1      41.480  25.583  25.354  1.00  0.00    -0.246 OA
BRANCH   3   5
ATOM      5  C   UNL A   1      40.828  25.855  27.581  1.00  0.00     0.060 A 
ATOM      6  C   UNL A   1      39.718  25.791  28.424  1.00  0.00     0.016 A 
ATOM      7  C   UNL A   1      41.811  26.823  27.864  1.00  0.00     0.016 A 
ATOM      8  C   UNL A   1      39.622  26.611  29.553  1.00  0.00     0.010 A 
ATOM      9  C   UNL A   1      41.725  27.643  28.995  1.00  0.00     0.010 A 
ATOM     10  C   UNL A   1      40.621  27.544  29.844  1.00  0.00    -0.014 A 
BRANCH  10  11
ATOM     11  C   UNL A   1      40.410  28.507  30.948  1.00  0.00     0.031 A 
ATOM     12  C   UNL A   1      41.267  28.391  32.173  1.00  0.00     0.074 A 
ATOM     13  C   UNL A   1      39.535  29.520  30.817  1.00  0.00     0.049 A 
ATOM     14  N   UNL A   1      41.341  29.192  33.201  1.00  0.00    -0.248 NA
ATOM     15  C   UNL A   1      42.192  27.246  32.227  1.00  0.00     0.031 C 
ATOM     16  C   UNL A   1      38.724  29.777  29.629  1.00  0.00     0.029 A 
ATOM     17  N   UNL A   1      39.183  30.525  31.680  1.00  0.00    -0.354 N 
ATOM     18  C   UNL A   1      42.361  28.684  33.993  1.00  0.00     0.074 A 
ATOM     19  C   UNL A   1      42.820  27.462  33.371  1.00  0.00     0.031 C 
ATOM     20  C   UNL A   1      37.927  30.835  29.854  1.00  0.00     0.029 A 
ATOM     21  C   UNL A   1      38.194  31.349  31.194  1.00  0.00     0.049 A 
ATOM     22  H   UNL A   1      39.598  30.646  32.564  1.00  0.00     0.167 HD
ATOM     23  C   UNL A   1      42.896  29.215  35.117  1.00  0.00     0.037 A 
ATOM     24  C   UNL A   1      37.585  32.409  31.760  1.00  0.00     0.037 A 
ATOM     25  C   UNL A   1      42.393  30.402  35.753  1.00  0.00     0.049 A 
ATOM     26  C   UNL A   1      38.083  32.893  33.093  1.00  0.00     0.074 A 
ATOM     27  C   UNL A   1      42.823  31.003  36.920  1.00  0.00     0.029 A 
ATOM     28  N   UNL A   1      41.331  31.160  35.275  1.00  0.00    -0.354 N 
ATOM     29  N   UNL A   1      39.065  32.415  33.821  1.00  0.00    -0.248 NA
ATOM     30  C   UNL A   1      37.421  34.070  33.669  1.00  0.00     0.031 C 
ATOM     31  C   UNL A   1      41.992  32.102  37.171  1.00  0.00     0.029 A 
ATOM     32  C   UNL A   1      41.075  32.211  36.137  1.00  0.00     0.049 A 
ATOM     33  H   UNL A   1      40.834  30.975  34.446  1.00  0.00     0.167 HD
ATOM     34  C   UNL A   1      39.169  33.257  34.921  1.00  0.00     0.074 A 
ATOM     35  C   UNL A   1      38.142  34.269  34.766  1.00  0.00     0.031 C 
ATOM     36  C   UNL A   1      40.042  33.205  35.957  1.00  0.00     0.037 A 
BRANCH  23  37
ATOM     37  C   UNL A   1      44.073  28.497  35.709  1.00  0.00     0.058 A 
ATOM     38  C   UNL A   1      43.895  27.454  36.629  1.00  0.00     0.135 A 
ATOM     39  C   UNL A   1      45.387  28.824  35.332  1.00  0.00     0.135 A 
ATOM     40  F   UNL A   1      42.661  27.092  37.011  1.00  0.00    -0.206 F 
ATOM     41  C   UNL A   1      44.979  26.753  37.148  1.00  0.00     0.059 A 
ATOM     42  C   UNL A   1      46.484  28.123  35.823  1.00  0.00     0.059 A 
ATOM     43  F   UNL A   1      45.609  29.795  34.431  1.00  0.00    -0.206 F 
ATOM     44  C   UNL A   1      46.269  27.090  36.735  1.00  0.00     0.060 A 
BRANCH  44  45
ATOM     45  S   UNL A   1      47.658  26.114  37.351  1.00  0.00     0.124 S 
ATOM     46  O   UNL A   1      48.780  26.698  36.625  1.00  0.00    -0.237 OA
ATOM     47  O   UNL A   1      47.615  26.389  38.785  1.00  0.00    -0.237 OA
ATOM     48  O   UNL A   1      47.305  24.749  36.975  1.00  0.00    -0.744 OA
ENDBRANCH  44  45
ENDBRANCH  23  37
BRANCH  24  49
ATOM     49  C   UNL A   1      36.482  33.098  31.037  1.00  0.00     0.058 A 
ATOM     50  C   UNL A   1      36.749  33.906  29.920  1.00  0.00     0.135 A 
ATOM     51  C   UNL A   1      35.154  33.014  31.480  1.00  0.00     0.135 A 
ATOM     52  F   UNL A   1      38.003  34.030  29.462  1.00  0.00    -0.206 F 
ATOM     53  C   UNL A   1      35.743  34.628  29.285  1.00  0.00     0.059 A 
ATOM     54  C   UNL A   1      34.128  33.715  30.851  1.00  0.00     0.059 A 
ATOM     55  F   UNL A   1      34.850  32.251  32.539  1.00  0.00    -0.206 F 
ATOM     56  C   UNL A   1      34.436  34.534  29.765  1.00  0.00     0.060 A 
BRANCH  56  57
ATOM     57  S   UNL A   1      33.157  35.526  28.963  1.00  0.00     0.124 S 
ATOM     58  O   UNL A   1      32.415  36.028  30.117  1.00  0.00    -0.237 OA
ATOM     59  O   UNL A   1      33.949  36.515  28.238  1.00  0.00    -0.237 OA
ATOM     60  O   UNL A   1      32.447  34.559  28.134  1.00  0.00    -0.744 OA
ENDBRANCH  56  57
ENDBRANCH  24  49
BRANCH  36  61
ATOM     61  C   UNL A   1      39.944  34.282  36.998  1.00  0.00     0.058 A 
ATOM     62  C   UNL A   1      39.130  34.103  38.127  1.00  0.00     0.135 A 
ATOM     63  C   UNL A   1      40.586  35.518  36.834  1.00  0.00     0.135 A 
ATOM     64  F   UNL A   1      38.493  32.938  38.326  1.00  0.00    -0.206 F 
ATOM     65  C   UNL A   1      38.936  35.124  39.049  1.00  0.00     0.059 A 
ATOM     66  C   UNL A   1      40.426  36.546  37.758  1.00  0.00     0.059 A 
ATOM     67  F   UNL A   1      41.384  35.730  35.777  1.00  0.00    -0.206 F 
ATOM     68  C   UNL A   1      39.584  36.345  38.853  1.00  0.00     0.060 A 
BRANCH  68  69
ATOM     69  S   UNL A   1      39.323  37.660  40.059  1.00  0.00     0.124 S 
ATOM     70  O   UNL A   1      38.185  38.369  39.486  1.00  0.00    -0.237 OA
ATOM     71  O   UNL A   1      39.053  36.910  41.282  1.00  0.00    -0.237 OA
ATOM     72  O   UNL A   1      40.590  38.387  40.046  1.00  0.00    -0.744 OA
ENDBRANCH  68  69
ENDBRANCH  36  61
ENDBRANCH  10  11
ENDBRANCH   3   5
ENDBRANCH   2   3
ENDBRANCH   1   2
BRANCH   1  73
ATOM     73  C   UNL A   1      40.121  21.326  26.690  1.00  0.00     0.275 C 
BRANCH  73  74
ATOM     74  O   UNL A   1      41.490  20.928  26.846  1.00  0.00    -0.458 OA
BRANCH  74  75
ATOM     75  C   UNL A   1      41.884  19.873  26.086  1.00  0.00     0.338 C 
ATOM     76  O   UNL A   1      41.237  18.876  25.818  1.00  0.00    -0.246 OA
BRANCH  75  77
ATOM     77  C   UNL A   1      43.220  20.162  25.523  1.00  0.00     0.061 A 
ATOM     78  C   UNL A   1      44.094  19.119  25.200  1.00  0.00     0.019 A 
ATOM     79  C   UNL A   1      43.617  21.496  25.358  1.00  0.00     0.041 A 
ATOM     80  C   UNL A   1      45.385  19.415  24.767  1.00  0.00     0.041 A 
ATOM     81  C   UNL A   1      44.935  21.778  24.964  1.00  0.00     0.124 A 
ATOM     82  C   UNL A   1      45.815  20.735  24.698  1.00  0.00     0.143 A 
ATOM     83  F   UNL A   1      47.099  20.943  24.389  1.00  0.00    -0.205 F 
BRANCH  81  84
ATOM     84  S   UNL A   1      45.452  23.475  24.895  1.00  0.00     0.267 S 
ATOM     85  O   UNL A   1      46.563  23.516  23.963  1.00  0.00    -0.201 OA
ATOM     86  O   UNL A   1      44.243  24.224  24.631  1.00  0.00    -0.201 OA
BRANCH  84  87
ATOM     87  N   UNL A   1      46.078  23.811  26.429  1.00  0.00    -0.259 N 
ATOM     88  C   UNL A   1      47.405  24.482  26.463  1.00  0.00     0.177 C 
ATOM     89  C   UNL A   1      45.221  24.123  27.555  1.00  0.00     0.094 A 
ATOM     90  C   UNL A   1      47.232  25.901  26.978  1.00  0.00     0.252 C 
ATOM     91  C   UNL A   1      45.631  25.104  28.482  1.00  0.00     0.143 A 
ATOM     92  C   UNL A   1      44.093  23.356  27.865  1.00  0.00     0.031 A 
ATOM     93  O   UNL A   1      46.741  25.904  28.321  1.00  0.00    -0.489 OA
ATOM     94  C   UNL A   1      44.934  25.301  29.676  1.00  0.00     0.049 A 
ATOM     95  C   UNL A   1      43.377  23.578  29.047  1.00  0.00     0.002 A 
ATOM     96  C   UNL A   1      43.801  24.542  29.957  1.00  0.00     0.004 A 
ENDBRANCH  84  87
ENDBRANCH  81  84
ENDBRANCH  75  77
ENDBRANCH  74  75
ENDBRANCH  73  74
ENDBRANCH   1  73
TORSDOF 16
ENDMDL
MODEL 3
REMARK VINA RESULT:     -10.9      4.682      7.616
REMARK SMILES O=C(OCCOC(=O)c1ccc(F)c(S(=O)(=O)N2CCOc3ccccc32)c1)c1ccc(-c2c3nc(c(-c4c(F)cc(S(=O)(=O)[O-])cc4F)c4ccc([nH]4)c(-c4c(F)cc(S(=O)(=O)[O-])cc4F)c4nc(c(-c5c(F)cc(S(=O)(=O)[O-])cc5F)c5ccc2[nH]5)C=C4)C=C3)cc1
REMARK SMILES IDX 4 1 3 2 2 3 1 4 29 5 30 6 94 7 31 8 93 9 32 10 33 11 34 12
REMARK SMILES IDX 87 13 35 14 92 15 86 16 88 17 36 18 91 19 85 20 84 21 37 23
REMARK SMILES IDX 71 24 50 25 70 26 51 27 54 28 69 29 89 30 52 31 53 32 68 34
REMARK SMILES IDX 90 35 55 36 38 37 39 38 48 39 40 40 41 41 47 42 49 43 42 44
REMARK SMILES IDX 43 45 44 46 45 47 46 48 72 49 73 50 82 51 74 52 75 53 81 54
REMARK SMILES IDX 83 55 76 56 77 57 78 58 79 59 80 60 56 61 57 62 66 63 58 64
REMARK SMILES IDX 59 65 65 66 67 67 60 68 61 69 62 70 63 71 64 72 5 73 6 74
REMARK SMILES IDX 7 75 8 76 9 77 10 78 28 79 11 80 14 81 12 82 13 83 15 84
REMARK SMILES IDX 16 85 17 86 18 87 19 88 27 89 20 90 22 91 26 92 21 93 23 94
REMARK SMILES IDX 25 95 24 96
REMARK H PARENT 88 22 54 33
REMARK Flexibility Score: inf
ROOT
ATOM      1  C   UNL A   1      34.672  30.597  28.033  1.00  0.00     0.275 C 
ENDROOT
BRANCH   1   2
ATOM      2  O   UNL A   1      35.542  30.913  29.134  1.00  0.00    -0.458 OA
BRANCH   2   3
ATOM      3  C   UNL A   1      36.454  30.154  29.788  1.00  0.00     0.338 C 
ATOM      4  O   UNL A   1      36.179  29.758  30.921  1.00  0.00    -0.246 OA
BRANCH   3   5
ATOM      5  C   UNL A   1      37.823  29.855  29.265  1.00  0.00     0.060 A 
ATOM      6  C   UNL A   1      38.169  29.695  27.923  1.00  0.00     0.016 A 
ATOM      7  C   UNL A   1      38.834  29.674  30.228  1.00  0.00     0.016 A 
ATOM      8  C   UNL A   1      39.490  29.436  27.544  1.00  0.00     0.010 A 
ATOM      9  C   UNL A   1      40.160  29.420  29.857  1.00  0.00     0.010 A 
ATOM     10  C   UNL A   1      40.493  29.292  28.507  1.00  0.00    -0.014 A 
BRANCH  10  11
ATOM     11  C   UNL A   1      41.843  28.856  28.085  1.00  0.00     0.031 A 
ATOM     12  C   UNL A   1      42.941  29.875  28.029  1.00  0.00     0.074 A 
ATOM     13  C   UNL A   1      42.100  27.556  27.848  1.00  0.00     0.049 A 
ATOM     14  N   UNL A   1      44.215  29.697  27.808  1.00  0.00    -0.248 NA
ATOM     15  C   UNL A   1      42.560  31.272  28.299  1.00  0.00     0.031 C 
ATOM     16  C   UNL A   1      41.126  26.475  27.968  1.00  0.00     0.029 A 
ATOM     17  N   UNL A   1      43.253  26.921  27.465  1.00  0.00    -0.354 N 
ATOM     18  C   UNL A   1      44.797  30.946  27.973  1.00  0.00     0.074 A 
ATOM     19  C   UNL A   1      43.730  31.887  28.230  1.00  0.00     0.031 C 
ATOM     20  C   UNL A   1      41.703  25.315  27.613  1.00  0.00     0.029 A 
ATOM     21  C   UNL A   1      43.098  25.568  27.268  1.00  0.00     0.049 A 
ATOM     22  H   UNL A   1      44.110  27.388  27.342  1.00  0.00     0.167 HD
ATOM     23  C   UNL A   1      46.111  31.269  27.955  1.00  0.00     0.037 A 
ATOM     24  C   UNL A   1      43.986  24.637  26.870  1.00  0.00     0.037 A 
ATOM     25  C   UNL A   1      47.156  30.333  27.645  1.00  0.00     0.049 A 
ATOM     26  C   UNL A   1      45.422  25.047  26.693  1.00  0.00     0.074 A 
ATOM     27  C   UNL A   1      48.516  30.558  27.548  1.00  0.00     0.029 A 
ATOM     28  N   UNL A   1      46.949  28.988  27.365  1.00  0.00    -0.354 N 
ATOM     29  N   UNL A   1      45.963  26.229  26.876  1.00  0.00    -0.248 NA
ATOM     30  C   UNL A   1      46.372  24.003  26.291  1.00  0.00     0.031 C 
ATOM     31  C   UNL A   1      49.127  29.358  27.167  1.00  0.00     0.029 A 
ATOM     32  C   UNL A   1      48.154  28.375  27.071  1.00  0.00     0.049 A 
ATOM     33  H   UNL A   1      46.073  28.538  27.373  1.00  0.00     0.167 HD
ATOM     34  C   UNL A   1      47.324  26.064  26.652  1.00  0.00     0.074 A 
ATOM     35  C   UNL A   1      47.521  24.668  26.312  1.00  0.00     0.031 C 
ATOM     36  C   UNL A   1      48.320  26.980  26.733  1.00  0.00     0.037 A 
BRANCH  23  37
ATOM     37  C   UNL A   1      46.460  32.694  28.275  1.00  0.00     0.058 A 
ATOM     38  C   UNL A   1      46.480  33.674  27.274  1.00  0.00     0.135 A 
ATOM     39  C   UNL A   1      46.743  33.093  29.593  1.00  0.00     0.135 A 
ATOM     40  F   UNL A   1      46.203  33.349  26.002  1.00  0.00    -0.206 F 
ATOM     41  C   UNL A   1      46.758  35.005  27.569  1.00  0.00     0.059 A 
ATOM     42  C   UNL A   1      47.004  34.421  29.913  1.00  0.00     0.059 A 
ATOM     43  F   UNL A   1      46.708  32.196  30.592  1.00  0.00    -0.206 F 
ATOM     44  C   UNL A   1      47.013  35.371  28.893  1.00  0.00     0.060 A 
BRANCH  44  45
ATOM     45  S   UNL A   1      47.286  37.115  29.272  1.00  0.00     0.124 S 
ATOM     46  O   UNL A   1      46.276  37.763  28.443  1.00  0.00    -0.237 OA
ATOM     47  O   UNL A   1      47.051  37.157  30.712  1.00  0.00    -0.237 OA
ATOM     48  O   UNL A   1      48.671  37.336  28.867  1.00  0.00    -0.744 OA
ENDBRANCH  44  45
ENDBRANCH  23  37
BRANCH  24  49
ATOM     49  C   UNL A   1      43.541  23.233  26.667  1.00  0.00     0.058 A 
ATOM     50  C   UNL A   1      43.301  22.388  27.764  1.00  0.00     0.135 A 
ATOM     51  C   UNL A   1      43.404  22.687  25.383  1.00  0.00     0.135 A 
ATOM     52  F   UNL A   1      43.428  22.857  29.015  1.00  0.00    -0.206 F 
ATOM     53  C   UNL A   1      42.970  21.048  27.595  1.00  0.00     0.059 A 
ATOM     54  C   UNL A   1      43.058  21.352  25.188  1.00  0.00     0.059 A 
ATOM     55  F   UNL A   1      43.618  23.455  24.305  1.00  0.00    -0.206 F 
ATOM     56  C   UNL A   1      42.861  20.536  26.301  1.00  0.00     0.060 A 
BRANCH  56  57
ATOM     57  S   UNL A   1      42.489  18.779  26.106  1.00  0.00     0.124 S 
ATOM     58  O   UNL A   1      41.097  18.826  25.665  1.00  0.00    -0.237 OA
ATOM     59  O   UNL A   1      43.461  18.372  25.097  1.00  0.00    -0.237 OA
ATOM     60  O   UNL A   1      42.704  18.236  27.442  1.00  0.00    -0.744 OA
ENDBRANCH  56  57
ENDBRANCH  24  49
BRANCH  36  61
ATOM     61  C   UNL A   1      49.719  26.504  26.472  1.00  0.00     0.058 A 
ATOM     62  C   UNL A   1      50.214  26.447  25.160  1.00  0.00     0.135 A 
ATOM     63  C   UNL A   1      50.535  26.027  27.508  1.00  0.00     0.135 A 
ATOM     64  F   UNL A   1      49.468  26.889  24.134  1.00  0.00    -0.206 F 
ATOM     65  C   UNL A   1      51.464  25.909  24.880  1.00  0.00     0.059 A 
ATOM     66  C   UNL A   1      51.801  25.507  27.253  1.00  0.00     0.059 A 
ATOM     67  F   UNL A   1      50.110  26.074  28.780  1.00  0.00    -0.206 F 
ATOM     68  C   UNL A   1      52.248  25.436  25.933  1.00  0.00     0.060 A 
BRANCH  68  69
ATOM     69  S   UNL A   1      53.869  24.742  25.553  1.00  0.00     0.124 S 
ATOM     70  O   UNL A   1      54.370  25.682  24.558  1.00  0.00    -0.237 OA
ATOM     71  O   UNL A   1      54.533  24.778  26.853  1.00  0.00    -0.237 OA
ATOM     72  O   UNL A   1      53.556  23.404  25.056  1.00  0.00    -0.744 OA
ENDBRANCH  68  69
ENDBRANCH  36  61
ENDBRANCH  10  11
ENDBRANCH   3   5
ENDBRANCH   2   3
ENDBRANCH   1   2
BRANCH   1  73
ATOM     73  C   UNL A   1      34.690  29.134  27.597  1.00  0.00     0.275 C 
BRANCH  73  74
ATOM     74  O   UNL A   1      34.401  28.947  26.205  1.00  0.00    -0.458 OA
BRANCH  74  75
ATOM     75  C   UNL A   1      33.263  28.257  25.930  1.00  0.00     0.338 C 
ATOM     76  O   UNL A   1      32.262  28.180  26.621  1.00  0.00    -0.246 OA
BRANCH  75  77
ATOM     77  C   UNL A   1      33.373  27.674  24.576  1.00  0.00     0.061 A 
ATOM     78  C   UNL A   1      33.677  28.486  23.478  1.00  0.00     0.019 A 
ATOM     79  C   UNL A   1      33.126  26.306  24.399  1.00  0.00     0.041 A 
ATOM     80  C   UNL A   1      33.675  27.936  22.198  1.00  0.00     0.041 A 
ATOM     81  C   UNL A   1      33.084  25.776  23.099  1.00  0.00     0.124 A 
ATOM     82  C   UNL A   1      33.333  26.602  22.008  1.00  0.00     0.143 A 
ATOM     83  F   UNL A   1      33.237  26.170  20.747  1.00  0.00    -0.205 F 
BRANCH  81  84
ATOM     84  S   UNL A   1      32.635  24.071  22.895  1.00  0.00     0.267 S 
ATOM     85  O   UNL A   1      31.188  24.025  23.002  1.00  0.00    -0.201 OA
ATOM     86  O   UNL A   1      33.296  23.653  21.678  1.00  0.00    -0.201 OA
BRANCH  84  87
ATOM     87  N   UNL A   1      33.258  23.282  24.254  1.00  0.00    -0.259 N 
ATOM     88  C   UNL A   1      32.265  22.623  25.143  1.00  0.00     0.177 C 
ATOM     89  C   UNL A   1      34.562  22.651  24.242  1.00  0.00     0.094 A 
ATOM     90  C   UNL A   1      32.431  21.116  25.043  1.00  0.00     0.252 C 
ATOM     91  C   UNL A   1      34.743  21.431  24.928  1.00  0.00     0.143 A 
ATOM     92  C   UNL A   1      35.696  23.296  23.737  1.00  0.00     0.031 A 
ATOM     93  O   UNL A   1      33.722  20.709  25.506  1.00  0.00    -0.489 OA
ATOM     94  C   UNL A   1      36.018  20.887  25.103  1.00  0.00     0.049 A 
ATOM     95  C   UNL A   1      36.968  22.732  23.885  1.00  0.00     0.002 A 
ATOM     96  C   UNL A   1      37.132  21.534  24.575  1.00  0.00     0.004 A 
ENDBRANCH  84  87
ENDBRANCH  81  84
ENDBRANCH  75  77
ENDBRANCH  74  75
ENDBRANCH  73  74
ENDBRANCH   1  73
TORSDOF 16
ENDMDL
