MODEL 1
REMARK VINA RESULT:     -12.5      0.000      0.000
REMARK SMILES CN1C(=O)C[C@H](C(=O)Nc2ccc(C(=O)OCCOC(=O)c3ccc(-c4c5nc(c(-c6c(F)cc(S(=O)(=O)[O-])cc6F)c6ccc([nH]6)c(-c6c(F)cc(S(=O)(=O)[O-])cc6F)c6nc(c(-c7c(F)cc(S(=O)(=O)[O-])cc7F)c7ccc4[nH]7)C=C6)C=C5)cc3)cc2)S/C1=[NH+]\c1cccc(C(F)(F)F)c1
REMARK SMILES IDX 17 1 16 2 14 3 15 4 13 5 10 6 11 7 89 8 12 9 88 10 9 11 7 12
REMARK SMILES IDX 8 13 6 15 1 16 2 17 3 18 91 19 4 20 5 21 90 22 92 23 93 25
REMARK SMILES IDX 94 26 102 27 95 28 97 29 96 30 98 31 99 32 100 33 101 34
REMARK SMILES IDX 18 35 19 36 20 37 21 38 22 39 23 40 87 41 24 42 86 43 25 44
REMARK SMILES IDX 26 45 27 46 80 47 28 48 85 49 79 50 81 51 29 52 84 53 78 54
REMARK SMILES IDX 77 55 30 57 64 58 43 59 63 60 44 61 47 62 62 63 82 64 45 65
REMARK SMILES IDX 46 66 61 68 83 69 48 70 31 71 32 72 41 73 33 74 34 75 40 76
REMARK SMILES IDX 42 77 35 78 36 79 37 80 38 81 39 82 65 83 66 84 75 85 67 86
REMARK SMILES IDX 68 87 74 88 76 89 69 90 70 91 71 92 72 93 73 94 49 95 50 96
REMARK SMILES IDX 59 97 51 98 52 99 58 100 60 101 53 102 54 103 55 104 56 105
REMARK SMILES IDX 57 106
REMARK H PARENT 9 14 92 24 81 56 47 67
REMARK Flexibility Score: inf
ROOT
ATOM      1  C   UNL A   1      35.140  32.645  30.225  1.00  0.00     0.275 C 
ENDROOT
BRANCH   1   2
ATOM      2  O   UNL A   1      35.244  31.679  29.136  1.00  0.00    -0.458 OA
BRANCH   2   3
ATOM      3  C   UNL A   1      34.302  31.835  28.178  1.00  0.00     0.338 C 
ATOM      4  O   UNL A   1      33.556  32.812  28.116  1.00  0.00    -0.246 OA
BRANCH   3   5
ATOM      5  C   UNL A   1      34.051  30.647  27.285  1.00  0.00     0.060 A 
ATOM      6  C   UNL A   1      32.314  28.531  26.434  1.00  0.00     0.041 A 
ATOM      7  C   UNL A   1      33.547  28.228  27.006  1.00  0.00     0.027 A 
ATOM      8  C   UNL A   1      32.162  29.860  26.166  1.00  0.00     0.027 A 
ATOM      9  C   UNL A   1      34.396  29.294  27.485  1.00  0.00     0.018 A 
ATOM     10  C   UNL A   1      33.025  30.901  26.416  1.00  0.00     0.018 A 
BRANCH   6  11
ATOM     11  N   UNL A   1      31.200  27.638  26.375  1.00  0.00    -0.325 N 
ATOM     12  C   UNL A   1      31.040  26.264  26.177  1.00  0.00     0.238 C 
ATOM     13  O   UNL A   1      29.875  25.900  25.945  1.00  0.00    -0.273 OA
ATOM     14  H   UNL A   1      30.342  28.101  26.507  1.00  0.00     0.169 HD
BRANCH  12  15
ATOM     15  C   UNL A   1      32.131  25.149  26.340  1.00  0.00     0.160 C 
ATOM     16  C   UNL A   1      33.064  22.467  22.987  1.00  0.00     0.301 C 
ATOM     17  N   UNL A   1      32.334  23.265  23.947  1.00  0.00    -0.194 N 
ATOM     18  C   UNL A   1      31.900  22.722  25.148  1.00  0.00     0.311 C 
ATOM     19  C   UNL A   1      32.411  24.611  23.815  1.00  0.00     0.319 C 
ATOM     20  O   UNL A   1      31.786  21.503  25.300  1.00  0.00    -0.247 OA
ATOM     21  C   UNL A   1      31.594  23.685  26.346  1.00  0.00     0.153 C 
ATOM     22  S   UNL A   1      33.414  25.116  25.080  1.00  0.00    -0.024 SA
ATOM     23  N   UNL A   1      31.743  25.197  22.891  1.00  0.00    -0.235 N 
ATOM     24  H   UNL A   1      31.514  24.621  22.127  1.00  0.00     0.313 HD
BRANCH  23  25
ATOM     25  C   UNL A   1      31.284  26.514  22.782  1.00  0.00     0.126 A 
ATOM     26  C   UNL A   1      32.341  27.447  22.779  1.00  0.00     0.052 A 
ATOM     27  C   UNL A   1      29.989  27.021  22.797  1.00  0.00     0.064 A 
ATOM     28  C   UNL A   1      32.155  28.826  22.754  1.00  0.00     0.005 A 
ATOM     29  C   UNL A   1      29.794  28.429  22.758  1.00  0.00     0.060 A 
ATOM     30  C   UNL A   1      30.875  29.320  22.722  1.00  0.00     0.013 A 
BRANCH  29  31
ATOM     31  C   UNL A   1      28.456  29.077  22.843  1.00  0.00     0.416 C 
ATOM     32  F   UNL A   1      27.561  28.268  23.460  1.00  0.00    -0.166 F 
ATOM     33  F   UNL A   1      28.480  30.244  23.545  1.00  0.00    -0.166 F 
ATOM     34  F   UNL A   1      27.923  29.365  21.641  1.00  0.00    -0.166 F 
ENDBRANCH  29  31
ENDBRANCH  23  25
ENDBRANCH  12  15
ENDBRANCH   6  11
ENDBRANCH   3   5
ENDBRANCH   2   3
ENDBRANCH   1   2
BRANCH   1  35
ATOM     35  C   UNL A   1      35.573  32.067  31.581  1.00  0.00     0.275 C 
BRANCH  35  36
ATOM     36  O   UNL A   1      36.948  31.665  31.484  1.00  0.00    -0.458 OA
BRANCH  36  37
ATOM     37  C   UNL A   1      37.253  30.380  31.769  1.00  0.00     0.338 C 
ATOM     38  O   UNL A   1      36.616  29.634  32.524  1.00  0.00    -0.246 OA
BRANCH  37  39
ATOM     39  C   UNL A   1      38.389  29.948  30.908  1.00  0.00     0.060 A 
ATOM     40  C   UNL A   1      39.498  29.364  31.521  1.00  0.00     0.016 A 
ATOM     41  C   UNL A   1      38.482  30.283  29.553  1.00  0.00     0.016 A 
ATOM     42  C   UNL A   1      40.706  29.262  30.843  1.00  0.00     0.010 A 
ATOM     43  C   UNL A   1      39.660  29.992  28.828  1.00  0.00     0.010 A 
ATOM     44  C   UNL A   1      40.809  29.483  29.465  1.00  0.00    -0.014 A 
BRANCH  44  45
ATOM     45  C   UNL A   1      42.100  29.162  28.752  1.00  0.00     0.031 A 
ATOM     46  C   UNL A   1      42.365  27.789  28.172  1.00  0.00     0.074 A 
ATOM     47  C   UNL A   1      43.054  30.111  28.579  1.00  0.00     0.049 A 
ATOM     48  N   UNL A   1      43.501  27.260  27.785  1.00  0.00    -0.248 NA
ATOM     49  C   UNL A   1      41.210  26.896  28.002  1.00  0.00     0.031 C 
ATOM     50  C   UNL A   1      42.958  31.516  28.991  1.00  0.00     0.029 A 
ATOM     51  N   UNL A   1      44.300  30.048  27.989  1.00  0.00    -0.354 N 
ATOM     52  C   UNL A   1      43.214  25.948  27.415  1.00  0.00     0.074 A 
ATOM     53  C   UNL A   1      41.787  25.772  27.594  1.00  0.00     0.031 C 
ATOM     54  C   UNL A   1      44.029  32.191  28.560  1.00  0.00     0.029 A 
ATOM     55  C   UNL A   1      44.988  31.243  28.022  1.00  0.00     0.049 A 
ATOM     56  H   UNL A   1      44.663  29.228  27.583  1.00  0.00     0.167 HD
ATOM     57  C   UNL A   1      44.064  24.981  26.984  1.00  0.00     0.037 A 
ATOM     58  C   UNL A   1      46.273  31.552  27.756  1.00  0.00     0.037 A 
ATOM     59  C   UNL A   1      45.471  25.187  26.736  1.00  0.00     0.049 A 
ATOM     60  C   UNL A   1      47.217  30.454  27.366  1.00  0.00     0.074 A 
ATOM     61  C   UNL A   1      46.417  24.265  26.317  1.00  0.00     0.029 A 
ATOM     62  N   UNL A   1      46.132  26.401  26.860  1.00  0.00    -0.354 N 
ATOM     63  N   UNL A   1      46.960  29.186  27.157  1.00  0.00    -0.248 NA
ATOM     64  C   UNL A   1      48.632  30.818  27.217  1.00  0.00     0.031 C 
ATOM     65  C   UNL A   1      47.657  24.911  26.232  1.00  0.00     0.029 A 
ATOM     66  C   UNL A   1      47.473  26.248  26.543  1.00  0.00     0.049 A 
ATOM     67  H   UNL A   1      45.710  27.247  27.134  1.00  0.00     0.167 HD
ATOM     68  C   UNL A   1      48.180  28.604  26.837  1.00  0.00     0.074 A 
ATOM     69  C   UNL A   1      49.170  29.660  26.863  1.00  0.00     0.031 C 
ATOM     70  C   UNL A   1      48.452  27.307  26.555  1.00  0.00     0.037 A 
BRANCH  57  71
ATOM     71  C   UNL A   1      43.521  23.582  26.822  1.00  0.00     0.058 A 
ATOM     72  C   UNL A   1      43.185  22.765  27.912  1.00  0.00     0.135 A 
ATOM     73  C   UNL A   1      43.299  23.067  25.531  1.00  0.00     0.135 A 
ATOM     74  F   UNL A   1      43.381  23.197  29.167  1.00  0.00    -0.206 F 
ATOM     75  C   UNL A   1      42.683  21.476  27.729  1.00  0.00     0.059 A 
ATOM     76  C   UNL A   1      42.772  21.794  25.325  1.00  0.00     0.059 A 
ATOM     77  F   UNL A   1      43.592  23.806  24.450  1.00  0.00    -0.206 F 
ATOM     78  C   UNL A   1      42.486  20.999  26.432  1.00  0.00     0.060 A 
BRANCH  78  79
ATOM     79  S   UNL A   1      41.860  19.319  26.209  1.00  0.00     0.124 S 
ATOM     80  O   UNL A   1      42.576  18.898  25.009  1.00  0.00    -0.237 OA
ATOM     81  O   UNL A   1      42.265  18.666  27.449  1.00  0.00    -0.237 OA
ATOM     82  O   UNL A   1      40.421  19.510  26.046  1.00  0.00    -0.744 OA
ENDBRANCH  78  79
ENDBRANCH  57  71
BRANCH  58  83
ATOM     83  C   UNL A   1      46.768  32.945  27.963  1.00  0.00     0.058 A 
ATOM     84  C   UNL A   1      47.328  33.342  29.185  1.00  0.00     0.135 A 
ATOM     85  C   UNL A   1      46.699  33.903  26.937  1.00  0.00     0.135 A 
ATOM     86  F   UNL A   1      47.401  32.472  30.204  1.00  0.00    -0.206 F 
ATOM     87  C   UNL A   1      47.799  34.638  29.385  1.00  0.00     0.059 A 
ATOM     88  C   UNL A   1      47.200  35.191  27.099  1.00  0.00     0.059 A 
ATOM     89  F   UNL A   1      46.178  33.578  25.743  1.00  0.00    -0.206 F 
ATOM     90  C   UNL A   1      47.737  35.551  28.331  1.00  0.00     0.060 A 
BRANCH  90  91
ATOM     91  S   UNL A   1      48.405  37.211  28.579  1.00  0.00     0.124 S 
ATOM     92  O   UNL A   1      49.593  37.178  27.734  1.00  0.00    -0.237 OA
ATOM     93  O   UNL A   1      47.310  38.055  28.112  1.00  0.00    -0.237 OA
ATOM     94  O   UNL A   1      48.653  37.260  30.018  1.00  0.00    -0.744 OA
ENDBRANCH  90  91
ENDBRANCH  58  83
BRANCH  70  95
ATOM     95  C   UNL A   1      49.871  26.965  26.197  1.00  0.00     0.058 A 
ATOM     96  C   UNL A   1      50.793  26.525  27.158  1.00  0.00     0.135 A 
ATOM     97  C   UNL A   1      50.301  27.045  24.862  1.00  0.00     0.135 A 
ATOM     98  F   UNL A   1      50.437  26.445  28.450  1.00  0.00    -0.206 F 
ATOM     99  C   UNL A   1      52.100  26.196  26.812  1.00  0.00     0.059 A 
ATOM    100  C   UNL A   1      51.594  26.695  24.490  1.00  0.00     0.059 A 
ATOM    101  F   UNL A   1      49.457  27.459  23.903  1.00  0.00    -0.206 F 
ATOM    102  C   UNL A   1      52.490  26.280  25.475  1.00  0.00     0.060 A 
BRANCH 102 103
ATOM    103  S   UNL A   1      54.176  25.811  25.032  1.00  0.00     0.124 S 
ATOM    104  O   UNL A   1      54.293  26.367  23.688  1.00  0.00    -0.237 OA
ATOM    105  O   UNL A   1      54.965  26.477  26.064  1.00  0.00    -0.237 OA
ATOM    106  O   UNL A   1      54.155  24.353  25.111  1.00  0.00    -0.744 OA
ENDBRANCH 102 103
ENDBRANCH  70  95
ENDBRANCH  44  45
ENDBRANCH  37  39
ENDBRANCH  36  37
ENDBRANCH  35  36
ENDBRANCH   1  35
TORSDOF 18
ENDMDL
MODEL 2
REMARK VINA RESULT:     -12.4      6.314     12.050
REMARK SMILES CN1C(=O)C[C@H](C(=O)Nc2ccc(C(=O)OCCOC(=O)c3ccc(-c4c5nc(c(-c6c(F)cc(S(=O)(=O)[O-])cc6F)c6ccc([nH]6)c(-c6c(F)cc(S(=O)(=O)[O-])cc6F)c6nc(c(-c7c(F)cc(S(=O)(=O)[O-])cc7F)c7ccc4[nH]7)C=C6)C=C5)cc3)cc2)S/C1=[NH+]\c1cccc(C(F)(F)F)c1
REMARK SMILES IDX 17 1 16 2 14 3 15 4 13 5 10 6 11 7 89 8 12 9 88 10 9 11 7 12
REMARK SMILES IDX 8 13 6 15 1 16 2 17 3 18 91 19 4 20 5 21 90 22 92 23 93 25
REMARK SMILES IDX 94 26 102 27 95 28 97 29 96 30 98 31 99 32 100 33 101 34
REMARK SMILES IDX 18 35 19 36 20 37 21 38 22 39 23 40 87 41 24 42 86 43 25 44
REMARK SMILES IDX 26 45 27 46 80 47 28 48 85 49 79 50 81 51 29 52 84 53 78 54
REMARK SMILES IDX 77 55 30 57 64 58 43 59 63 60 44 61 47 62 62 63 82 64 45 65
REMARK SMILES IDX 46 66 61 68 83 69 48 70 31 71 32 72 41 73 33 74 34 75 40 76
REMARK SMILES IDX 42 77 35 78 36 79 37 80 38 81 39 82 65 83 66 84 75 85 67 86
REMARK SMILES IDX 68 87 74 88 76 89 69 90 70 91 71 92 72 93 73 94 49 95 50 96
REMARK SMILES IDX 59 97 51 98 52 99 58 100 60 101 53 102 54 103 55 104 56 105
REMARK SMILES IDX 57 106
REMARK H PARENT 9 14 92 24 81 56 47 67
REMARK Flexibility Score: inf
ROOT
ATOM      1  C   UNL A   1      42.114  22.422  26.022  1.00  0.00     0.275 C 
ENDROOT
BRANCH   1   2
ATOM      2  O   UNL A   1      40.758  22.885  26.296  1.00  0.00    -0.458 OA
BRANCH   2   3
ATOM      3  C   UNL A   1      39.824  21.908  26.227  1.00  0.00     0.338 C 
ATOM      4  O   UNL A   1      40.102  20.716  26.106  1.00  0.00    -0.246 OA
BRANCH   3   5
ATOM      5  C   UNL A   1      38.392  22.358  26.095  1.00  0.00     0.060 A 
ATOM      6  C   UNL A   1      36.052  22.677  24.470  1.00  0.00     0.041 A 
ATOM      7  C   UNL A   1      36.674  23.797  25.017  1.00  0.00     0.027 A 
ATOM      8  C   UNL A   1      36.547  21.502  24.953  1.00  0.00     0.027 A 
ATOM      9  C   UNL A   1      37.884  23.638  25.789  1.00  0.00     0.018 A 
ATOM     10  C   UNL A   1      37.570  21.292  25.849  1.00  0.00     0.018 A 
BRANCH   6  11
ATOM     11  N   UNL A   1      35.191  22.698  23.330  1.00  0.00    -0.325 N 
ATOM     12  C   UNL A   1      34.253  23.595  22.811  1.00  0.00     0.238 C 
ATOM     13  O   UNL A   1      33.522  23.133  21.920  1.00  0.00    -0.273 OA
ATOM     14  H   UNL A   1      35.281  21.888  22.779  1.00  0.00     0.169 HD
BRANCH  12  15
ATOM     15  C   UNL A   1      34.120  25.123  23.140  1.00  0.00     0.160 C 
ATOM     16  C   UNL A   1      30.431  26.676  24.952  1.00  0.00     0.301 C 
ATOM     17  N   UNL A   1      31.341  25.937  24.107  1.00  0.00    -0.194 N 
ATOM     18  C   UNL A   1      31.767  26.451  22.890  1.00  0.00     0.311 C 
ATOM     19  C   UNL A   1      32.042  24.932  24.685  1.00  0.00     0.319 C 
ATOM     20  O   UNL A   1      31.141  27.345  22.314  1.00  0.00    -0.247 OA
ATOM     21  C   UNL A   1      33.097  25.909  22.264  1.00  0.00     0.153 C 
ATOM     22  S   UNL A   1      33.621  25.523  24.821  1.00  0.00    -0.024 SA
ATOM     23  N   UNL A   1      31.458  23.821  24.947  1.00  0.00    -0.235 N 
ATOM     24  H   UNL A   1      30.481  23.889  25.050  1.00  0.00     0.313 HD
BRANCH  23  25
ATOM     25  C   UNL A   1      31.970  22.529  25.112  1.00  0.00     0.126 A 
ATOM     26  C   UNL A   1      32.772  22.419  26.266  1.00  0.00     0.052 A 
ATOM     27  C   UNL A   1      31.903  21.421  24.275  1.00  0.00     0.064 A 
ATOM     28  C   UNL A   1      33.459  21.261  26.622  1.00  0.00     0.005 A 
ATOM     29  C   UNL A   1      32.592  20.232  24.641  1.00  0.00     0.060 A 
ATOM     30  C   UNL A   1      33.352  20.156  25.816  1.00  0.00     0.013 A 
BRANCH  29  31
ATOM     31  C   UNL A   1      32.647  19.015  23.785  1.00  0.00     0.416 C 
ATOM     32  F   UNL A   1      33.909  18.526  23.714  1.00  0.00    -0.166 F 
ATOM     33  F   UNL A   1      31.862  18.005  24.254  1.00  0.00    -0.166 F 
ATOM     34  F   UNL A   1      32.267  19.236  22.514  1.00  0.00    -0.166 F 
ENDBRANCH  29  31
ENDBRANCH  23  25
ENDBRANCH  12  15
ENDBRANCH   6  11
ENDBRANCH   3   5
ENDBRANCH   2   3
ENDBRANCH   1   2
BRANCH   1  35
ATOM     35  C   UNL A   1      42.999  23.504  25.383  1.00  0.00     0.275 C 
BRANCH  35  36
ATOM     36  O   UNL A   1      43.098  24.606  26.299  1.00  0.00    -0.458 OA
BRANCH  36  37
ATOM     37  C   UNL A   1      42.606  25.801  25.905  1.00  0.00     0.338 C 
ATOM     38  O   UNL A   1      42.497  26.191  24.735  1.00  0.00    -0.246 OA
BRANCH  37  39
ATOM     39  C   UNL A   1      42.068  26.521  27.094  1.00  0.00     0.060 A 
ATOM     40  C   UNL A   1      42.575  27.787  27.386  1.00  0.00     0.016 A 
ATOM     41  C   UNL A   1      41.235  25.908  28.036  1.00  0.00     0.016 A 
ATOM     42  C   UNL A   1      42.382  28.351  28.641  1.00  0.00     0.010 A 
ATOM     43  C   UNL A   1      40.892  26.584  29.229  1.00  0.00     0.010 A 
ATOM     44  C   UNL A   1      41.472  27.824  29.564  1.00  0.00    -0.014 A 
BRANCH  44  45
ATOM     45  C   UNL A   1      41.159  28.591  30.824  1.00  0.00     0.031 A 
ATOM     46  C   UNL A   1      40.005  29.569  30.891  1.00  0.00     0.074 A 
ATOM     47  C   UNL A   1      41.886  28.401  31.954  1.00  0.00     0.049 A 
ATOM     48  N   UNL A   1      39.765  30.505  31.778  1.00  0.00    -0.248 NA
ATOM     49  C   UNL A   1      38.991  29.487  29.829  1.00  0.00     0.031 C 
ATOM     50  C   UNL A   1      42.985  27.444  32.122  1.00  0.00     0.029 A 
ATOM     51  N   UNL A   1      41.801  28.992  33.198  1.00  0.00    -0.354 N 
ATOM     52  C   UNL A   1      38.630  31.180  31.334  1.00  0.00     0.074 A 
ATOM     53  C   UNL A   1      38.211  30.523  30.112  1.00  0.00     0.031 C 
ATOM     54  C   UNL A   1      43.396  27.441  33.395  1.00  0.00     0.029 A 
ATOM     55  C   UNL A   1      42.741  28.532  34.095  1.00  0.00     0.049 A 
ATOM     56  H   UNL A   1      41.131  29.678  33.424  1.00  0.00     0.167 HD
ATOM     57  C   UNL A   1      38.010  32.255  31.885  1.00  0.00     0.037 A 
ATOM     58  C   UNL A   1      43.129  28.978  35.307  1.00  0.00     0.037 A 
ATOM     59  C   UNL A   1      38.388  32.855  33.142  1.00  0.00     0.049 A 
ATOM     60  C   UNL A   1      42.492  30.218  35.860  1.00  0.00     0.074 A 
ATOM     61  C   UNL A   1      37.834  33.958  33.773  1.00  0.00     0.029 A 
ATOM     62  N   UNL A   1      39.399  32.394  33.972  1.00  0.00    -0.354 N 
ATOM     63  N   UNL A   1      41.513  30.931  35.360  1.00  0.00    -0.248 NA
ATOM     64  C   UNL A   1      43.040  30.740  37.118  1.00  0.00     0.031 C 
ATOM     65  C   UNL A   1      38.539  34.189  34.960  1.00  0.00     0.029 A 
ATOM     66  C   UNL A   1      39.496  33.198  35.098  1.00  0.00     0.049 A 
ATOM     67  H   UNL A   1      39.967  31.610  33.788  1.00  0.00     0.167 HD
ATOM     68  C   UNL A   1      41.318  31.978  36.252  1.00  0.00     0.074 A 
ATOM     69  C   UNL A   1      42.267  31.795  37.329  1.00  0.00     0.031 C 
ATOM     70  C   UNL A   1      40.433  33.002  36.176  1.00  0.00     0.037 A 
BRANCH  57  71
ATOM     71  C   UNL A   1      36.898  32.910  31.101  1.00  0.00     0.058 A 
ATOM     72  C   UNL A   1      37.134  33.730  29.987  1.00  0.00     0.135 A 
ATOM     73  C   UNL A   1      35.559  32.673  31.462  1.00  0.00     0.135 A 
ATOM     74  F   UNL A   1      38.389  33.999  29.599  1.00  0.00    -0.206 F 
ATOM     75  C   UNL A   1      36.085  34.320  29.283  1.00  0.00     0.059 A 
ATOM     76  C   UNL A   1      34.495  33.229  30.755  1.00  0.00     0.059 A 
ATOM     77  F   UNL A   1      35.272  31.889  32.513  1.00  0.00    -0.206 F 
ATOM     78  C   UNL A   1      34.769  34.068  29.678  1.00  0.00     0.060 A 
BRANCH  78  79
ATOM     79  S   UNL A   1      33.422  34.859  28.772  1.00  0.00     0.124 S 
ATOM     80  O   UNL A   1      32.494  35.180  29.853  1.00  0.00    -0.237 OA
ATOM     81  O   UNL A   1      34.088  35.998  28.150  1.00  0.00    -0.237 OA
ATOM     82  O   UNL A   1      32.973  33.819  27.850  1.00  0.00    -0.744 OA
ENDBRANCH  78  79
ENDBRANCH  57  71
BRANCH  58  83
ATOM     83  C   UNL A   1      44.255  28.314  36.026  1.00  0.00     0.058 A 
ATOM     84  C   UNL A   1      44.022  27.273  36.936  1.00  0.00     0.135 A 
ATOM     85  C   UNL A   1      45.589  28.701  35.809  1.00  0.00     0.135 A 
ATOM     86  F   UNL A   1      42.766  26.877  37.194  1.00  0.00    -0.206 F 
ATOM     87  C   UNL A   1      45.067  26.642  37.607  1.00  0.00     0.059 A 
ATOM     88  C   UNL A   1      46.652  28.059  36.436  1.00  0.00     0.059 A 
ATOM     89  F   UNL A   1      45.873  29.688  34.945  1.00  0.00    -0.206 F 
ATOM     90  C   UNL A   1      46.379  27.038  37.342  1.00  0.00     0.060 A 
BRANCH  90  91
ATOM     91  S   UNL A   1      47.732  26.174  38.171  1.00  0.00     0.124 S 
ATOM     92  O   UNL A   1      48.692  27.254  38.366  1.00  0.00    -0.237 OA
ATOM     93  O   UNL A   1      47.081  25.671  39.376  1.00  0.00    -0.237 OA
ATOM     94  O   UNL A   1      48.118  25.151  37.203  1.00  0.00    -0.744 OA
ENDBRANCH  90  91
ENDBRANCH  58  83
BRANCH  70  95
ATOM     95  C   UNL A   1      40.412  33.977  37.319  1.00  0.00     0.058 A 
ATOM     96  C   UNL A   1      41.221  35.123  37.332  1.00  0.00     0.135 A 
ATOM     97  C   UNL A   1      39.541  33.776  38.402  1.00  0.00     0.135 A 
ATOM     98  F   UNL A   1      42.083  35.353  36.328  1.00  0.00    -0.206 F 
ATOM     99  C   UNL A   1      41.182  36.027  38.388  1.00  0.00     0.059 A 
ATOM    100  C   UNL A   1      39.466  34.681  39.455  1.00  0.00     0.059 A 
ATOM    101  F   UNL A   1      38.744  32.696  38.438  1.00  0.00    -0.206 F 
ATOM    102  C   UNL A   1      40.298  35.800  39.444  1.00  0.00     0.060 A 
BRANCH 102 103
ATOM    103  S   UNL A   1      40.227  37.002  40.789  1.00  0.00     0.124 S 
ATOM    104  O   UNL A   1      38.833  36.894  41.207  1.00  0.00    -0.237 OA
ATOM    105  O   UNL A   1      41.213  36.476  41.728  1.00  0.00    -0.237 OA
ATOM    106  O   UNL A   1      40.594  38.258  40.142  1.00  0.00    -0.744 OA
ENDBRANCH 102 103
ENDBRANCH  70  95
ENDBRANCH  44  45
ENDBRANCH  37  39
ENDBRANCH  36  37
ENDBRANCH  35  36
ENDBRANCH   1  35
TORSDOF 18
ENDMDL
MODEL 3
REMARK VINA RESULT:     -12.0      3.037      9.018
REMARK SMILES CN1C(=O)C[C@H](C(=O)Nc2ccc(C(=O)OCCOC(=O)c3ccc(-c4c5nc(c(-c6c(F)cc(S(=O)(=O)[O-])cc6F)c6ccc([nH]6)c(-c6c(F)cc(S(=O)(=O)[O-])cc6F)c6nc(c(-c7c(F)cc(S(=O)(=O)[O-])cc7F)c7ccc4[nH]7)C=C6)C=C5)cc3)cc2)S/C1=[NH+]\c1cccc(C(F)(F)F)c1
REMARK SMILES IDX 17 1 16 2 14 3 15 4 13 5 10 6 11 7 89 8 12 9 88 10 9 11 7 12
REMARK SMILES IDX 8 13 6 15 1 16 2 17 3 18 91 19 4 20 5 21 90 22 92 23 93 25
REMARK SMILES IDX 94 26 102 27 95 28 97 29 96 30 98 31 99 32 100 33 101 34
REMARK SMILES IDX 18 35 19 36 20 37 21 38 22 39 23 40 87 41 24 42 86 43 25 44
REMARK SMILES IDX 26 45 27 46 80 47 28 48 85 49 79 50 81 51 29 52 84 53 78 54
REMARK SMILES IDX 77 55 30 57 64 58 43 59 63 60 44 61 47 62 62 63 82 64 45 65
REMARK SMILES IDX 46 66 61 68 83 69 48 70 31 71 32 72 41 73 33 74 34 75 40 76
REMARK SMILES IDX 42 77 35 78 36 79 37 80 38 81 39 82 65 83 66 84 75 85 67 86
REMARK SMILES IDX 68 87 74 88 76 89 69 90 70 91 71 92 72 93 73 94 49 95 50 96
REMARK SMILES IDX 59 97 51 98 52 99 58 100 60 101 53 102 54 103 55 104 56 105
REMARK SMILES IDX 57 106
REMARK H PARENT 9 14 92 24 81 56 47 67
REMARK Flexibility Score: inf
ROOT
ATOM      1  C   UNL A   1      41.484  20.117  27.055  1.00  0.00     0.275 C 
ENDROOT
BRANCH   1   2
ATOM      2  O   UNL A   1      40.341  20.447  26.210  1.00  0.00    -0.458 OA
BRANCH   2   3
ATOM      3  C   UNL A   1      40.093  21.774  26.124  1.00  0.00     0.338 C 
ATOM      4  O   UNL A   1      40.968  22.633  26.235  1.00  0.00    -0.246 OA
BRANCH   3   5
ATOM      5  C   UNL A   1      38.644  22.184  26.088  1.00  0.00     0.060 A 
ATOM      6  C   UNL A   1      36.245  22.615  24.578  1.00  0.00     0.041 A 
ATOM      7  C   UNL A   1      36.847  23.682  25.242  1.00  0.00     0.027 A 
ATOM      8  C   UNL A   1      36.793  21.408  24.898  1.00  0.00     0.027 A 
ATOM      9  C   UNL A   1      38.085  23.473  25.956  1.00  0.00     0.018 A 
ATOM     10  C   UNL A   1      37.850  21.128  25.734  1.00  0.00     0.018 A 
BRANCH   6  11
ATOM     11  N   UNL A   1      35.349  22.744  23.473  1.00  0.00    -0.325 N 
ATOM     12  C   UNL A   1      34.403  23.690  23.068  1.00  0.00     0.238 C 
ATOM     13  O   UNL A   1      33.640  23.315  22.162  1.00  0.00    -0.273 OA
ATOM     14  H   UNL A   1      35.414  21.987  22.848  1.00  0.00     0.169 HD
BRANCH  12  15
ATOM     15  C   UNL A   1      34.293  25.182  23.538  1.00  0.00     0.160 C 
ATOM     16  C   UNL A   1      30.623  26.620  25.478  1.00  0.00     0.301 C 
ATOM     17  N   UNL A   1      31.524  25.948  24.570  1.00  0.00    -0.194 N 
ATOM     18  C   UNL A   1      31.963  26.566  23.408  1.00  0.00     0.311 C 
ATOM     19  C   UNL A   1      32.206  24.881  25.053  1.00  0.00     0.319 C 
ATOM     20  O   UNL A   1      31.354  27.520  22.916  1.00  0.00    -0.247 OA
ATOM     21  C   UNL A   1      33.286  26.063  22.737  1.00  0.00     0.153 C 
ATOM     22  S   UNL A   1      33.793  25.431  25.248  1.00  0.00    -0.024 SA
ATOM     23  N   UNL A   1      31.602  23.761  25.208  1.00  0.00    -0.235 N 
ATOM     24  H   UNL A   1      30.627  23.835  25.315  1.00  0.00     0.313 HD
BRANCH  23  25
ATOM     25  C   UNL A   1      32.093  22.451  25.253  1.00  0.00     0.126 A 
ATOM     26  C   UNL A   1      32.968  22.248  26.339  1.00  0.00     0.052 A 
ATOM     27  C   UNL A   1      31.943  21.402  24.352  1.00  0.00     0.064 A 
ATOM     28  C   UNL A   1      33.649  21.056  26.570  1.00  0.00     0.005 A 
ATOM     29  C   UNL A   1      32.626  20.179  24.592  1.00  0.00     0.060 A 
ATOM     30  C   UNL A   1      33.462  20.009  25.703  1.00  0.00     0.013 A 
BRANCH  29  31
ATOM     31  C   UNL A   1      32.593  19.020  23.656  1.00  0.00     0.416 C 
ATOM     32  F   UNL A   1      32.161  19.398  22.428  1.00  0.00    -0.166 F 
ATOM     33  F   UNL A   1      33.817  18.449  23.482  1.00  0.00    -0.166 F 
ATOM     34  F   UNL A   1      31.765  18.037  24.051  1.00  0.00    -0.166 F 
ENDBRANCH  29  31
ENDBRANCH  23  25
ENDBRANCH  12  15
ENDBRANCH   6  11
ENDBRANCH   3   5
ENDBRANCH   2   3
ENDBRANCH   1   2
BRANCH   1  35
ATOM     35  C   UNL A   1      42.508  19.214  26.350  1.00  0.00     0.275 C 
BRANCH  35  36
ATOM     36  O   UNL A   1      42.788  19.771  25.056  1.00  0.00    -0.458 OA
BRANCH  36  37
ATOM     37  C   UNL A   1      44.082  19.906  24.693  1.00  0.00     0.338 C 
ATOM     38  O   UNL A   1      44.759  19.061  24.093  1.00  0.00    -0.246 OA
BRANCH  37  39
ATOM     39  C   UNL A   1      44.527  21.298  24.986  1.00  0.00     0.060 A 
ATOM     40  C   UNL A   1      45.347  21.509  26.095  1.00  0.00     0.016 A 
ATOM     41  C   UNL A   1      44.000  22.414  24.329  1.00  0.00     0.016 A 
ATOM     42  C   UNL A   1      45.506  22.786  26.620  1.00  0.00     0.010 A 
ATOM     43  C   UNL A   1      44.333  23.718  24.764  1.00  0.00     0.010 A 
ATOM     44  C   UNL A   1      45.089  23.932  25.934  1.00  0.00    -0.014 A 
BRANCH  44  45
ATOM     45  C   UNL A   1      45.468  25.295  26.458  1.00  0.00     0.031 A 
ATOM     46  C   UNL A   1      44.446  26.214  27.091  1.00  0.00     0.074 A 
ATOM     47  C   UNL A   1      46.754  25.727  26.408  1.00  0.00     0.049 A 
ATOM     48  N   UNL A   1      44.527  27.500  27.334  1.00  0.00    -0.248 NA
ATOM     49  C   UNL A   1      43.168  25.615  27.505  1.00  0.00     0.031 C 
ATOM     50  C   UNL A   1      47.903  24.961  25.914  1.00  0.00     0.029 A 
ATOM     51  N   UNL A   1      47.326  26.920  26.800  1.00  0.00    -0.354 N 
ATOM     52  C   UNL A   1      43.287  27.881  27.841  1.00  0.00     0.074 A 
ATOM     53  C   UNL A   1      42.480  26.679  27.901  1.00  0.00     0.031 C 
ATOM     54  C   UNL A   1      49.032  25.648  26.120  1.00  0.00     0.029 A 
ATOM     55  C   UNL A   1      48.684  26.984  26.571  1.00  0.00     0.049 A 
ATOM     56  H   UNL A   1      46.813  27.656  27.205  1.00  0.00     0.167 HD
ATOM     57  C   UNL A   1      42.860  29.117  28.204  1.00  0.00     0.037 A 
ATOM     58  C   UNL A   1      49.559  28.009  26.609  1.00  0.00     0.037 A 
ATOM     59  C   UNL A   1      43.695  30.295  28.214  1.00  0.00     0.049 A 
ATOM     60  C   UNL A   1      49.052  29.383  26.928  1.00  0.00     0.074 A 
ATOM     61  C   UNL A   1      43.349  31.595  28.548  1.00  0.00     0.029 A 
ATOM     62  N   UNL A   1      45.046  30.316  27.898  1.00  0.00    -0.354 N 
ATOM     63  N   UNL A   1      47.842  29.754  27.268  1.00  0.00    -0.248 NA
ATOM     64  C   UNL A   1      50.016  30.486  26.826  1.00  0.00     0.031 C 
ATOM     65  C   UNL A   1      44.478  32.408  28.389  1.00  0.00     0.029 A 
ATOM     66  C   UNL A   1      45.542  31.606  28.012  1.00  0.00     0.049 A 
ATOM     67  H   UNL A   1      45.575  29.529  27.631  1.00  0.00     0.167 HD
ATOM     68  C   UNL A   1      47.905  31.131  27.436  1.00  0.00     0.074 A 
ATOM     69  C   UNL A   1      49.273  31.525  27.177  1.00  0.00     0.031 C 
ATOM     70  C   UNL A   1      46.911  31.990  27.768  1.00  0.00     0.037 A 
BRANCH  57  71
ATOM     71  C   UNL A   1      41.401  29.289  28.554  1.00  0.00     0.058 A 
ATOM     72  C   UNL A   1      40.953  29.497  29.867  1.00  0.00     0.135 A 
ATOM     73  C   UNL A   1      40.435  29.280  27.530  1.00  0.00     0.135 A 
ATOM     74  F   UNL A   1      41.826  29.509  30.885  1.00  0.00    -0.206 F 
ATOM     75  C   UNL A   1      39.598  29.654  30.157  1.00  0.00     0.059 A 
ATOM     76  C   UNL A   1      39.080  29.462  27.794  1.00  0.00     0.059 A 
ATOM     77  F   UNL A   1      40.806  29.094  26.254  1.00  0.00    -0.206 F 
ATOM     78  C   UNL A   1      38.669  29.629  29.114  1.00  0.00     0.060 A 
BRANCH  78  79
ATOM     79  S   UNL A   1      36.915  29.809  29.508  1.00  0.00     0.124 S 
ATOM     80  O   UNL A   1      36.825  31.239  29.786  1.00  0.00    -0.237 OA
ATOM     81  O   UNL A   1      36.271  29.361  28.278  1.00  0.00    -0.237 OA
ATOM     82  O   UNL A   1      36.733  28.933  30.662  1.00  0.00    -0.744 OA
ENDBRANCH  78  79
ENDBRANCH  57  71
BRANCH  58  83
ATOM     83  C   UNL A   1      50.985  27.792  26.223  1.00  0.00     0.058 A 
ATOM     84  C   UNL A   1      51.965  27.527  27.189  1.00  0.00     0.135 A 
ATOM     85  C   UNL A   1      51.392  27.837  24.878  1.00  0.00     0.135 A 
ATOM     86  F   UNL A   1      51.635  27.492  28.489  1.00  0.00    -0.206 F 
ATOM     87  C   UNL A   1      53.297  27.317  26.838  1.00  0.00     0.059 A 
ATOM     88  C   UNL A   1      52.707  27.590  24.500  1.00  0.00     0.059 A 
ATOM     89  F   UNL A   1      50.495  28.081  23.909  1.00  0.00    -0.206 F 
ATOM     90  C   UNL A   1      53.655  27.342  25.489  1.00  0.00     0.060 A 
BRANCH  90  91
ATOM     91  S   UNL A   1      55.372  27.009  25.038  1.00  0.00     0.124 S 
ATOM     92  O   UNL A   1      55.799  26.145  26.131  1.00  0.00    -0.237 OA
ATOM     93  O   UNL A   1      55.227  26.369  23.735  1.00  0.00    -0.237 OA
ATOM     94  O   UNL A   1      55.974  28.339  25.010  1.00  0.00    -0.744 OA
ENDBRANCH  90  91
ENDBRANCH  58  83
BRANCH  70  95
ATOM     95  C   UNL A   1      47.279  33.438  27.925  1.00  0.00     0.058 A 
ATOM     96  C   UNL A   1      47.141  34.357  26.873  1.00  0.00     0.135 A 
ATOM     97  C   UNL A   1      47.743  33.919  29.160  1.00  0.00     0.135 A 
ATOM     98  F   UNL A   1      46.717  33.946  25.668  1.00  0.00    -0.206 F 
ATOM     99  C   UNL A   1      47.470  35.699  27.034  1.00  0.00     0.059 A 
ATOM    100  C   UNL A   1      48.051  35.262  29.351  1.00  0.00     0.059 A 
ATOM    101  F   UNL A   1      47.891  33.082  30.199  1.00  0.00    -0.206 F 
ATOM    102  C   UNL A   1      47.920  36.143  28.279  1.00  0.00     0.060 A 
BRANCH 102 103
ATOM    103  S   UNL A   1      48.305  37.894  28.487  1.00  0.00     0.124 S 
ATOM    104  O   UNL A   1      47.461  38.504  27.464  1.00  0.00    -0.237 OA
ATOM    105  O   UNL A   1      47.903  38.139  29.869  1.00  0.00    -0.237 OA
ATOM    106  O   UNL A   1      49.742  37.959  28.238  1.00  0.00    -0.744 OA
ENDBRANCH 102 103
ENDBRANCH  70  95
ENDBRANCH  44  45
ENDBRANCH  37  39
ENDBRANCH  36  37
ENDBRANCH  35  36
ENDBRANCH   1  35
TORSDOF 18
ENDMDL
