MODEL 1
REMARK VINA RESULT:      -9.9      0.000      0.000
REMARK SMILES CCCc1nnc(SCC(=O)OCCOC(=O)c2ccc(-c3c4nc(c(-c5c(F)cc(S(=O)(=O)[O-])cc5F)c5ccc([nH]5)c(-c5c(F)cc(S(=O)(=O)[O-])cc5F)c5nc(c(-c6c(F)cc(S(=O)(=O)[O-])cc6F)c6ccc3[nH]6)C=C5)C=C4)cc2)n1C[C@H]1CCCO1
REMARK SMILES IDX 13 1 12 2 10 3 11 4 9 5 8 6 7 7 4 8 5 9 84 10 6 11 3 12 2 13
REMARK SMILES IDX 1 14 85 15 86 16 87 17 90 18 88 19 89 20 14 21 15 22 16 23
REMARK SMILES IDX 17 24 18 25 19 26 83 27 20 28 82 29 21 30 22 31 23 32 76 33
REMARK SMILES IDX 24 34 81 35 75 36 77 37 25 38 80 39 74 40 73 41 26 43 60 44
REMARK SMILES IDX 39 45 59 46 40 47 43 48 58 49 78 50 41 51 42 52 57 54 79 55
REMARK SMILES IDX 44 56 27 57 28 58 37 59 29 60 30 61 36 62 38 63 31 64 32 65
REMARK SMILES IDX 33 66 34 67 35 68 61 69 62 70 71 71 63 72 64 73 70 74 72 75
REMARK SMILES IDX 65 76 66 77 67 78 68 79 69 80 45 81 46 82 55 83 47 84 48 85
REMARK SMILES IDX 54 86 56 87 49 88 50 89 51 90 52 91 53 92
REMARK H PARENT 77 42 43 53
REMARK Flexibility Score: inf
ROOT
ATOM      1  C   UNL A   1      34.466  31.990  28.439  1.00  0.00     0.274 C 
ENDROOT
BRANCH   1   2
ATOM      2  O   UNL A   1      34.337  31.220  27.225  1.00  0.00    -0.461 OA
BRANCH   2   3
ATOM      3  C   UNL A   1      33.894  29.938  27.332  1.00  0.00     0.316 C 
ATOM      4  O   UNL A   1      34.597  28.984  27.656  1.00  0.00    -0.251 OA
BRANCH   3   5
ATOM      5  C   UNL A   1      32.463  29.751  26.872  1.00  0.00     0.200 C 
BRANCH   5   6
ATOM      6  S   UNL A   1      32.190  29.866  25.111  1.00  0.00    -0.074 SA
BRANCH   6   7
ATOM      7  C   UNL A   1      31.139  28.572  24.626  1.00  0.00     0.191 A 
ATOM      8  C   UNL A   1      30.931  26.921  23.243  1.00  0.00     0.133 A 
ATOM      9  N   UNL A   1      30.936  26.415  24.459  1.00  0.00    -0.134 NA
ATOM     10  N   UNL A   1      30.698  28.278  23.363  1.00  0.00    -0.303 N 
ATOM     11  N   UNL A   1      31.064  27.466  25.338  1.00  0.00    -0.123 NA
BRANCH   8  12
ATOM     12  C   UNL A   1      31.315  26.228  21.978  1.00  0.00     0.077 C 
BRANCH  12  13
ATOM     13  C   UNL A   1      32.802  25.852  21.962  1.00  0.00     0.005 C 
ATOM     14  C   UNL A   1      33.707  27.040  22.233  1.00  0.00     0.004 C 
ENDBRANCH  12  13
ENDBRANCH   8  12
BRANCH  10  15
ATOM     15  C   UNL A   1      30.087  29.113  22.361  1.00  0.00     0.158 C 
BRANCH  15  16
ATOM     16  C   UNL A   1      28.620  29.519  22.589  1.00  0.00     0.138 C 
ATOM     17  C   UNL A   1      28.374  30.762  23.426  1.00  0.00     0.036 C 
ATOM     18  O   UNL A   1      28.044  29.852  21.303  1.00  0.00    -0.376 OA
ATOM     19  C   UNL A   1      28.368  31.910  22.439  1.00  0.00     0.031 C 
ATOM     20  C   UNL A   1      28.207  31.258  21.083  1.00  0.00     0.160 C 
ENDBRANCH  15  16
ENDBRANCH  10  15
ENDBRANCH   6   7
ENDBRANCH   5   6
ENDBRANCH   3   5
ENDBRANCH   2   3
ENDBRANCH   1   2
BRANCH   1  21
ATOM     21  C   UNL A   1      33.993  33.431  28.249  1.00  0.00     0.275 C 
BRANCH  21  22
ATOM     22  O   UNL A   1      34.535  34.341  29.221  1.00  0.00    -0.458 OA
BRANCH  22  23
ATOM     23  C   UNL A   1      33.727  34.534  30.282  1.00  0.00     0.338 C 
ATOM     24  O   UNL A   1      32.690  35.179  30.300  1.00  0.00    -0.246 OA
BRANCH  23  25
ATOM     25  C   UNL A   1      34.368  34.135  31.545  1.00  0.00     0.060 A 
ATOM     26  C   UNL A   1      35.080  35.141  32.199  1.00  0.00     0.016 A 
ATOM     27  C   UNL A   1      34.696  32.789  31.719  1.00  0.00     0.016 A 
ATOM     28  C   UNL A   1      36.319  34.836  32.727  1.00  0.00     0.010 A 
ATOM     29  C   UNL A   1      35.898  32.479  32.332  1.00  0.00     0.010 A 
ATOM     30  C   UNL A   1      36.772  33.514  32.686  1.00  0.00    -0.014 A 
BRANCH  30  31
ATOM     31  C   UNL A   1      38.178  33.250  33.034  1.00  0.00     0.031 A 
ATOM     32  C   UNL A   1      39.152  33.367  31.903  1.00  0.00     0.074 A 
ATOM     33  C   UNL A   1      38.534  33.052  34.326  1.00  0.00     0.049 A 
ATOM     34  N   UNL A   1      40.247  32.709  31.672  1.00  0.00    -0.248 NA
ATOM     35  C   UNL A   1      38.800  34.331  30.837  1.00  0.00     0.031 C 
ATOM     36  C   UNL A   1      37.635  33.099  35.491  1.00  0.00     0.029 A 
ATOM     37  N   UNL A   1      39.769  32.915  34.905  1.00  0.00    -0.354 N 
ATOM     38  C   UNL A   1      40.816  33.330  30.560  1.00  0.00     0.074 A 
ATOM     39  C   UNL A   1      39.825  34.210  30.003  1.00  0.00     0.031 C 
ATOM     40  C   UNL A   1      38.360  33.239  36.614  1.00  0.00     0.029 A 
ATOM     41  C   UNL A   1      39.764  33.262  36.254  1.00  0.00     0.049 A 
ATOM     42  H   UNL A   1      40.570  32.604  34.422  1.00  0.00     0.167 HD
ATOM     43  C   UNL A   1      42.150  33.336  30.312  1.00  0.00     0.037 A 
ATOM     44  C   UNL A   1      40.793  33.729  37.005  1.00  0.00     0.037 A 
ATOM     45  C   UNL A   1      42.828  32.180  30.806  1.00  0.00     0.049 A 
ATOM     46  C   UNL A   1      42.062  33.428  36.305  1.00  0.00     0.074 A 
ATOM     47  C   UNL A   1      42.738  30.828  30.541  1.00  0.00     0.029 A 
ATOM     48  N   UNL A   1      43.600  32.295  31.932  1.00  0.00    -0.354 N 
ATOM     49  N   UNL A   1      42.567  32.236  36.143  1.00  0.00    -0.248 NA
ATOM     50  C   UNL A   1      42.610  34.456  35.432  1.00  0.00     0.031 C 
ATOM     51  C   UNL A   1      43.100  30.178  31.753  1.00  0.00     0.029 A 
ATOM     52  C   UNL A   1      43.394  31.169  32.691  1.00  0.00     0.049 A 
ATOM     53  H   UNL A   1      44.193  33.048  32.156  1.00  0.00     0.167 HD
ATOM     54  C   UNL A   1      43.193  32.275  34.905  1.00  0.00     0.074 A 
ATOM     55  C   UNL A   1      43.288  33.691  34.575  1.00  0.00     0.031 C 
ATOM     56  C   UNL A   1      43.338  31.155  34.140  1.00  0.00     0.037 A 
BRANCH  43  57
ATOM     57  C   UNL A   1      42.832  34.611  29.895  1.00  0.00     0.058 A 
ATOM     58  C   UNL A   1      42.940  35.705  30.766  1.00  0.00     0.135 A 
ATOM     59  C   UNL A   1      43.200  34.850  28.547  1.00  0.00     0.135 A 
ATOM     60  F   UNL A   1      42.561  35.592  32.048  1.00  0.00    -0.206 F 
ATOM     61  C   UNL A   1      43.388  36.953  30.327  1.00  0.00     0.059 A 
ATOM     62  C   UNL A   1      43.704  36.061  28.104  1.00  0.00     0.059 A 
ATOM     63  F   UNL A   1      43.006  33.929  27.590  1.00  0.00    -0.206 F 
ATOM     64  C   UNL A   1      43.764  37.119  28.993  1.00  0.00     0.060 A 
BRANCH  64  65
ATOM     65  S   UNL A   1      44.267  38.742  28.394  1.00  0.00     0.124 S 
ATOM     66  O   UNL A   1      43.448  39.619  29.223  1.00  0.00    -0.237 OA
ATOM     67  O   UNL A   1      45.699  38.745  28.675  1.00  0.00    -0.237 OA
ATOM     68  O   UNL A   1      43.915  38.698  26.977  1.00  0.00    -0.744 OA
ENDBRANCH  64  65
ENDBRANCH  43  57
BRANCH  44  69
ATOM     69  C   UNL A   1      40.659  34.755  38.077  1.00  0.00     0.058 A 
ATOM     70  C   UNL A   1      41.104  34.538  39.390  1.00  0.00     0.135 A 
ATOM     71  C   UNL A   1      40.224  36.068  37.783  1.00  0.00     0.135 A 
ATOM     72  F   UNL A   1      41.605  33.345  39.743  1.00  0.00    -0.206 F 
ATOM     73  C   UNL A   1      41.080  35.553  40.360  1.00  0.00     0.059 A 
ATOM     74  C   UNL A   1      40.156  37.079  38.735  1.00  0.00     0.059 A 
ATOM     75  F   UNL A   1      39.913  36.434  36.530  1.00  0.00    -0.206 F 
ATOM     76  C   UNL A   1      40.597  36.819  40.023  1.00  0.00     0.060 A 
BRANCH  76  77
ATOM     77  S   UNL A   1      40.607  38.148  41.245  1.00  0.00     0.124 S 
ATOM     78  O   UNL A   1      40.275  39.314  40.434  1.00  0.00    -0.237 OA
ATOM     79  O   UNL A   1      39.580  37.705  42.181  1.00  0.00    -0.237 OA
ATOM     80  O   UNL A   1      41.973  38.124  41.764  1.00  0.00    -0.744 OA
ENDBRANCH  76  77
ENDBRANCH  44  69
BRANCH  56  81
ATOM     81  C   UNL A   1      43.131  29.807  34.786  1.00  0.00     0.058 A 
ATOM     82  C   UNL A   1      44.159  29.069  35.398  1.00  0.00     0.135 A 
ATOM     83  C   UNL A   1      41.818  29.339  34.958  1.00  0.00     0.135 A 
ATOM     84  F   UNL A   1      45.428  29.501  35.362  1.00  0.00    -0.206 F 
ATOM     85  C   UNL A   1      43.896  27.909  36.128  1.00  0.00     0.059 A 
ATOM     86  C   UNL A   1      41.529  28.202  35.708  1.00  0.00     0.059 A 
ATOM     87  F   UNL A   1      40.785  30.033  34.450  1.00  0.00    -0.206 F 
ATOM     88  C   UNL A   1      42.576  27.488  36.288  1.00  0.00     0.060 A 
BRANCH  88  89
ATOM     89  S   UNL A   1      42.232  26.053  37.330  1.00  0.00     0.124 S 
ATOM     90  O   UNL A   1      40.792  26.162  37.538  1.00  0.00    -0.237 OA
ATOM     91  O   UNL A   1      42.672  24.942  36.492  1.00  0.00    -0.237 OA
ATOM     92  O   UNL A   1      43.052  26.288  38.517  1.00  0.00    -0.744 OA
ENDBRANCH  88  89
ENDBRANCH  56  81
ENDBRANCH  30  31
ENDBRANCH  23  25
ENDBRANCH  22  23
ENDBRANCH  21  22
ENDBRANCH   1  21
TORSDOF 20
ENDMDL
MODEL 2
REMARK VINA RESULT:      -9.9      0.829      1.529
REMARK SMILES CCCc1nnc(SCC(=O)OCCOC(=O)c2ccc(-c3c4nc(c(-c5c(F)cc(S(=O)(=O)[O-])cc5F)c5ccc([nH]5)c(-c5c(F)cc(S(=O)(=O)[O-])cc5F)c5nc(c(-c6c(F)cc(S(=O)(=O)[O-])cc6F)c6ccc3[nH]6)C=C5)C=C4)cc2)n1C[C@H]1CCCO1
REMARK SMILES IDX 13 1 12 2 10 3 11 4 9 5 8 6 7 7 4 8 5 9 84 10 6 11 3 12 2 13
REMARK SMILES IDX 1 14 85 15 86 16 87 17 90 18 88 19 89 20 14 21 15 22 16 23
REMARK SMILES IDX 17 24 18 25 19 26 83 27 20 28 82 29 21 30 22 31 23 32 76 33
REMARK SMILES IDX 24 34 81 35 75 36 77 37 25 38 80 39 74 40 73 41 26 43 60 44
REMARK SMILES IDX 39 45 59 46 40 47 43 48 58 49 78 50 41 51 42 52 57 54 79 55
REMARK SMILES IDX 44 56 27 57 28 58 37 59 29 60 30 61 36 62 38 63 31 64 32 65
REMARK SMILES IDX 33 66 34 67 35 68 61 69 62 70 71 71 63 72 64 73 70 74 72 75
REMARK SMILES IDX 65 76 66 77 67 78 68 79 69 80 45 81 46 82 55 83 47 84 48 85
REMARK SMILES IDX 54 86 56 87 49 88 50 89 51 90 52 91 53 92
REMARK H PARENT 77 42 43 53
REMARK Flexibility Score: inf
ROOT
ATOM      1  C   UNL A   1      34.792  32.554  27.779  1.00  0.00     0.274 C 
ENDROOT
BRANCH   1   2
ATOM      2  O   UNL A   1      33.842  31.538  28.162  1.00  0.00    -0.461 OA
BRANCH   2   3
ATOM      3  C   UNL A   1      32.920  31.152  27.240  1.00  0.00     0.316 C 
ATOM      4  O   UNL A   1      31.969  31.841  26.876  1.00  0.00    -0.251 OA
BRANCH   3   5
ATOM      5  C   UNL A   1      33.078  29.716  26.788  1.00  0.00     0.200 C 
BRANCH   5   6
ATOM      6  S   UNL A   1      31.772  28.599  27.270  1.00  0.00    -0.074 SA
BRANCH   6   7
ATOM      7  C   UNL A   1      31.494  27.475  25.975  1.00  0.00     0.191 A 
ATOM      8  C   UNL A   1      32.336  26.677  24.150  1.00  0.00     0.133 A 
ATOM      9  N   UNL A   1      32.219  25.676  24.998  1.00  0.00    -0.134 NA
ATOM     10  N   UNL A   1      31.559  27.715  24.628  1.00  0.00    -0.303 N 
ATOM     11  N   UNL A   1      31.679  26.183  26.157  1.00  0.00    -0.123 NA
BRANCH   8  12
ATOM     12  C   UNL A   1      33.285  26.778  23.002  1.00  0.00     0.077 C 
BRANCH  12  13
ATOM     13  C   UNL A   1      32.770  26.026  21.769  1.00  0.00     0.005 C 
ATOM     14  C   UNL A   1      32.897  24.520  21.908  1.00  0.00     0.004 C 
ENDBRANCH  12  13
ENDBRANCH   8  12
BRANCH  10  15
ATOM     15  C   UNL A   1      30.955  28.747  23.826  1.00  0.00     0.158 C 
BRANCH  15  16
ATOM     16  C   UNL A   1      29.971  28.296  22.731  1.00  0.00     0.138 C 
ATOM     17  C   UNL A   1      28.507  28.204  23.123  1.00  0.00     0.036 C 
ATOM     18  O   UNL A   1      29.984  29.293  21.682  1.00  0.00    -0.376 OA
ATOM     19  C   UNL A   1      27.934  29.577  22.843  1.00  0.00     0.031 C 
ATOM     20  C   UNL A   1      28.956  30.252  21.954  1.00  0.00     0.160 C 
ENDBRANCH  15  16
ENDBRANCH  10  15
ENDBRANCH   6   7
ENDBRANCH   5   6
ENDBRANCH   3   5
ENDBRANCH   2   3
ENDBRANCH   1   2
BRANCH   1  21
ATOM     21  C   UNL A   1      34.366  33.940  28.264  1.00  0.00     0.275 C 
BRANCH  21  22
ATOM     22  O   UNL A   1      33.410  33.900  29.336  1.00  0.00    -0.458 OA
BRANCH  22  23
ATOM     23  C   UNL A   1      33.599  34.864  30.258  1.00  0.00     0.338 C 
ATOM     24  O   UNL A   1      33.531  36.069  30.074  1.00  0.00    -0.246 OA
BRANCH  23  25
ATOM     25  C   UNL A   1      34.208  34.340  31.490  1.00  0.00     0.060 A 
ATOM     26  C   UNL A   1      34.874  35.280  32.276  1.00  0.00     0.016 A 
ATOM     27  C   UNL A   1      34.561  32.989  31.525  1.00  0.00     0.016 A 
ATOM     28  C   UNL A   1      36.102  34.943  32.809  1.00  0.00     0.010 A 
ATOM     29  C   UNL A   1      35.750  32.636  32.142  1.00  0.00     0.010 A 
ATOM     30  C   UNL A   1      36.587  33.643  32.638  1.00  0.00    -0.014 A 
BRANCH  30  31
ATOM     31  C   UNL A   1      37.988  33.370  33.004  1.00  0.00     0.031 A 
ATOM     32  C   UNL A   1      38.982  33.521  31.895  1.00  0.00     0.074 A 
ATOM     33  C   UNL A   1      38.320  33.132  34.295  1.00  0.00     0.049 A 
ATOM     34  N   UNL A   1      40.081  32.871  31.664  1.00  0.00    -0.248 NA
ATOM     35  C   UNL A   1      38.648  34.517  30.853  1.00  0.00     0.031 C 
ATOM     36  C   UNL A   1      37.400  33.144  35.445  1.00  0.00     0.029 A 
ATOM     37  N   UNL A   1      39.544  32.979  34.892  1.00  0.00    -0.354 N 
ATOM     38  C   UNL A   1      40.669  33.527  30.582  1.00  0.00     0.074 A 
ATOM     39  C   UNL A   1      39.688  34.423  30.034  1.00  0.00     0.031 C 
ATOM     40  C   UNL A   1      38.104  33.250  36.584  1.00  0.00     0.029 A 
ATOM     41  C   UNL A   1      39.514  33.286  36.251  1.00  0.00     0.049 A 
ATOM     42  H   UNL A   1      40.354  32.684  34.415  1.00  0.00     0.167 HD
ATOM     43  C   UNL A   1      42.008  33.541  30.359  1.00  0.00     0.037 A 
ATOM     44  C   UNL A   1      40.529  33.730  37.034  1.00  0.00     0.037 A 
ATOM     45  C   UNL A   1      42.678  32.371  30.829  1.00  0.00     0.049 A 
ATOM     46  C   UNL A   1      41.810  33.451  36.349  1.00  0.00     0.074 A 
ATOM     47  C   UNL A   1      42.595  31.028  30.522  1.00  0.00     0.029 A 
ATOM     48  N   UNL A   1      43.430  32.452  31.973  1.00  0.00    -0.354 N 
ATOM     49  N   UNL A   1      42.320  32.265  36.161  1.00  0.00    -0.248 NA
ATOM     50  C   UNL A   1      42.373  34.506  35.518  1.00  0.00     0.031 C 
ATOM     51  C   UNL A   1      42.936  30.342  31.720  1.00  0.00     0.029 A 
ATOM     52  C   UNL A   1      43.212  31.304  32.693  1.00  0.00     0.049 A 
ATOM     53  H   UNL A   1      44.017  33.199  32.230  1.00  0.00     0.167 HD
ATOM     54  C   UNL A   1      42.968  32.343  34.936  1.00  0.00     0.074 A 
ATOM     55  C   UNL A   1      43.068  33.768  34.650  1.00  0.00     0.031 C 
ATOM     56  C   UNL A   1      43.129  31.246  34.140  1.00  0.00     0.037 A 
BRANCH  43  57
ATOM     57  C   UNL A   1      42.695  34.829  29.993  1.00  0.00     0.058 A 
ATOM     58  C   UNL A   1      43.242  35.033  28.717  1.00  0.00     0.135 A 
ATOM     59  C   UNL A   1      43.016  35.804  30.970  1.00  0.00     0.135 A 
ATOM     60  F   UNL A   1      43.041  34.135  27.741  1.00  0.00    -0.206 F 
ATOM     61  C   UNL A   1      44.051  36.135  28.431  1.00  0.00     0.059 A 
ATOM     62  C   UNL A   1      43.765  36.935  30.694  1.00  0.00     0.059 A 
ATOM     63  F   UNL A   1      42.675  35.648  32.259  1.00  0.00    -0.206 F 
ATOM     64  C   UNL A   1      44.308  37.077  29.429  1.00  0.00     0.060 A 
BRANCH  64  65
ATOM     65  S   UNL A   1      45.413  38.461  29.098  1.00  0.00     0.124 S 
ATOM     66  O   UNL A   1      44.632  39.226  28.134  1.00  0.00    -0.237 OA
ATOM     67  O   UNL A   1      45.565  39.059  30.421  1.00  0.00    -0.237 OA
ATOM     68  O   UNL A   1      46.611  37.811  28.571  1.00  0.00    -0.744 OA
ENDBRANCH  64  65
ENDBRANCH  43  57
BRANCH  44  69
ATOM     69  C   UNL A   1      40.374  34.723  38.135  1.00  0.00     0.058 A 
ATOM     70  C   UNL A   1      40.782  34.462  39.451  1.00  0.00     0.135 A 
ATOM     71  C   UNL A   1      39.956  36.048  37.871  1.00  0.00     0.135 A 
ATOM     72  F   UNL A   1      41.266  33.254  39.780  1.00  0.00    -0.206 F 
ATOM     73  C   UNL A   1      40.740  35.445  40.452  1.00  0.00     0.059 A 
ATOM     74  C   UNL A   1      39.870  37.029  38.852  1.00  0.00     0.059 A 
ATOM     75  F   UNL A   1      39.681  36.455  36.622  1.00  0.00    -0.206 F 
ATOM     76  C   UNL A   1      40.275  36.725  40.142  1.00  0.00     0.060 A 
BRANCH  76  77
ATOM     77  S   UNL A   1      40.263  38.015  41.406  1.00  0.00     0.124 S 
ATOM     78  O   UNL A   1      41.684  38.304  41.564  1.00  0.00    -0.237 OA
ATOM     79  O   UNL A   1      39.464  39.056  40.768  1.00  0.00    -0.237 OA
ATOM     80  O   UNL A   1      39.633  37.363  42.553  1.00  0.00    -0.744 OA
ENDBRANCH  76  77
ENDBRANCH  44  69
BRANCH  56  81
ATOM     81  C   UNL A   1      42.912  29.879  34.741  1.00  0.00     0.058 A 
ATOM     82  C   UNL A   1      43.896  29.177  35.457  1.00  0.00     0.135 A 
ATOM     83  C   UNL A   1      41.611  29.350  34.755  1.00  0.00     0.135 A 
ATOM     84  F   UNL A   1      45.140  29.666  35.573  1.00  0.00    -0.206 F 
ATOM     85  C   UNL A   1      43.606  27.993  36.138  1.00  0.00     0.059 A 
ATOM     86  C   UNL A   1      41.291  28.189  35.452  1.00  0.00     0.059 A 
ATOM     87  F   UNL A   1      40.612  30.006  34.140  1.00  0.00    -0.206 F 
ATOM     88  C   UNL A   1      42.297  27.511  36.140  1.00  0.00     0.060 A 
BRANCH  88  89
ATOM     89  S   UNL A   1      41.903  26.044  37.117  1.00  0.00     0.124 S 
ATOM     90  O   UNL A   1      42.943  26.066  38.139  1.00  0.00    -0.237 OA
ATOM     91  O   UNL A   1      40.549  26.329  37.580  1.00  0.00    -0.237 OA
ATOM     92  O   UNL A   1      42.003  24.952  36.151  1.00  0.00    -0.744 OA
ENDBRANCH  88  89
ENDBRANCH  56  81
ENDBRANCH  30  31
ENDBRANCH  23  25
ENDBRANCH  22  23
ENDBRANCH  21  22
ENDBRANCH   1  21
TORSDOF 20
ENDMDL
MODEL 3
REMARK VINA RESULT:      -9.8      1.966      2.986
REMARK SMILES CCCc1nnc(SCC(=O)OCCOC(=O)c2ccc(-c3c4nc(c(-c5c(F)cc(S(=O)(=O)[O-])cc5F)c5ccc([nH]5)c(-c5c(F)cc(S(=O)(=O)[O-])cc5F)c5nc(c(-c6c(F)cc(S(=O)(=O)[O-])cc6F)c6ccc3[nH]6)C=C5)C=C4)cc2)n1C[C@H]1CCCO1
REMARK SMILES IDX 13 1 12 2 10 3 11 4 9 5 8 6 7 7 4 8 5 9 84 10 6 11 3 12 2 13
REMARK SMILES IDX 1 14 85 15 86 16 87 17 90 18 88 19 89 20 14 21 15 22 16 23
REMARK SMILES IDX 17 24 18 25 19 26 83 27 20 28 82 29 21 30 22 31 23 32 76 33
REMARK SMILES IDX 24 34 81 35 75 36 77 37 25 38 80 39 74 40 73 41 26 43 60 44
REMARK SMILES IDX 39 45 59 46 40 47 43 48 58 49 78 50 41 51 42 52 57 54 79 55
REMARK SMILES IDX 44 56 27 57 28 58 37 59 29 60 30 61 36 62 38 63 31 64 32 65
REMARK SMILES IDX 33 66 34 67 35 68 61 69 62 70 71 71 63 72 64 73 70 74 72 75
REMARK SMILES IDX 65 76 66 77 67 78 68 79 69 80 45 81 46 82 55 83 47 84 48 85
REMARK SMILES IDX 54 86 56 87 49 88 50 89 51 90 52 91 53 92
REMARK H PARENT 77 42 43 53
REMARK Flexibility Score: inf
ROOT
ATOM      1  C   UNL A   1      34.641  32.624  27.953  1.00  0.00     0.274 C 
ENDROOT
BRANCH   1   2
ATOM      2  O   UNL A   1      33.702  31.633  27.485  1.00  0.00    -0.461 OA
BRANCH   2   3
ATOM      3  C   UNL A   1      34.146  30.355  27.347  1.00  0.00     0.316 C 
ATOM      4  O   UNL A   1      35.259  29.963  27.691  1.00  0.00    -0.251 OA
BRANCH   3   5
ATOM      5  C   UNL A   1      33.189  29.460  26.588  1.00  0.00     0.200 C 
BRANCH   5   6
ATOM      6  S   UNL A   1      33.779  27.814  26.230  1.00  0.00    -0.074 SA
BRANCH   6   7
ATOM      7  C   UNL A   1      32.413  26.786  25.925  1.00  0.00     0.191 A 
ATOM      8  C   UNL A   1      31.621  24.800  26.249  1.00  0.00     0.133 A 
ATOM      9  N   UNL A   1      30.806  25.648  26.843  1.00  0.00    -0.134 NA
ATOM     10  N   UNL A   1      32.414  25.528  25.383  1.00  0.00    -0.303 N 
ATOM     11  N   UNL A   1      31.309  26.911  26.633  1.00  0.00    -0.123 NA
BRANCH   8  12
ATOM     12  C   UNL A   1      31.818  23.359  26.583  1.00  0.00     0.077 C 
BRANCH  12  13
ATOM     13  C   UNL A   1      31.064  22.440  25.614  1.00  0.00     0.005 C 
ATOM     14  C   UNL A   1      31.916  21.284  25.121  1.00  0.00     0.004 C 
ENDBRANCH  12  13
ENDBRANCH   8  12
BRANCH  10  15
ATOM     15  C   UNL A   1      33.029  25.020  24.184  1.00  0.00     0.158 C 
BRANCH  15  16
ATOM     16  C   UNL A   1      34.564  24.925  24.172  1.00  0.00     0.138 C 
ATOM     17  C   UNL A   1      35.223  24.317  25.398  1.00  0.00     0.036 C 
ATOM     18  O   UNL A   1      34.948  24.033  23.098  1.00  0.00    -0.376 OA
ATOM     19  C   UNL A   1      35.292  22.831  25.115  1.00  0.00     0.031 C 
ATOM     20  C   UNL A   1      35.053  22.706  23.626  1.00  0.00     0.160 C 
ENDBRANCH  15  16
ENDBRANCH  10  15
ENDBRANCH   6   7
ENDBRANCH   5   6
ENDBRANCH   3   5
ENDBRANCH   2   3
ENDBRANCH   1   2
BRANCH   1  21
ATOM     21  C   UNL A   1      33.957  33.958  28.250  1.00  0.00     0.275 C 
BRANCH  21  22
ATOM     22  O   UNL A   1      34.550  34.670  29.350  1.00  0.00    -0.458 OA
BRANCH  22  23
ATOM     23  C   UNL A   1      33.747  34.752  30.429  1.00  0.00     0.338 C 
ATOM     24  O   UNL A   1      32.710  35.391  30.517  1.00  0.00    -0.246 OA
BRANCH  23  25
ATOM     25  C   UNL A   1      34.393  34.225  31.640  1.00  0.00     0.060 A 
ATOM     26  C   UNL A   1      35.073  35.167  32.413  1.00  0.00     0.016 A 
ATOM     27  C   UNL A   1      34.758  32.878  31.658  1.00  0.00     0.016 A 
ATOM     28  C   UNL A   1      36.317  34.836  32.912  1.00  0.00     0.010 A 
ATOM     29  C   UNL A   1      35.966  32.531  32.240  1.00  0.00     0.010 A 
ATOM     30  C   UNL A   1      36.808  33.542  32.720  1.00  0.00    -0.014 A 
BRANCH  30  31
ATOM     31  C   UNL A   1      38.220  33.278  33.046  1.00  0.00     0.031 A 
ATOM     32  C   UNL A   1      39.175  33.386  31.898  1.00  0.00     0.074 A 
ATOM     33  C   UNL A   1      38.598  33.087  34.332  1.00  0.00     0.049 A 
ATOM     34  N   UNL A   1      40.264  32.724  31.652  1.00  0.00    -0.248 NA
ATOM     35  C   UNL A   1      38.806  34.343  30.831  1.00  0.00     0.031 C 
ATOM     36  C   UNL A   1      37.719  33.144  35.512  1.00  0.00     0.029 A 
ATOM     37  N   UNL A   1      39.842  32.952  34.891  1.00  0.00    -0.354 N 
ATOM     38  C   UNL A   1      40.815  33.338  30.526  1.00  0.00     0.074 A 
ATOM     39  C   UNL A   1      39.816  34.216  29.980  1.00  0.00     0.031 C 
ATOM     40  C   UNL A   1      38.463  33.290  36.622  1.00  0.00     0.029 A 
ATOM     41  C   UNL A   1      39.860  33.309  36.238  1.00  0.00     0.049 A 
ATOM     42  H   UNL A   1      40.634  32.637  34.397  1.00  0.00     0.167 HD
ATOM     43  C   UNL A   1      42.145  33.339  30.256  1.00  0.00     0.037 A 
ATOM     44  C   UNL A   1      40.903  33.779  36.968  1.00  0.00     0.037 A 
ATOM     45  C   UNL A   1      42.829  32.185  30.745  1.00  0.00     0.049 A 
ATOM     46  C   UNL A   1      42.159  33.471  36.249  1.00  0.00     0.074 A 
ATOM     47  C   UNL A   1      42.732  30.832  30.491  1.00  0.00     0.029 A 
ATOM     48  N   UNL A   1      43.621  32.307  31.858  1.00  0.00    -0.354 N 
ATOM     49  N   UNL A   1      42.660  32.278  36.086  1.00  0.00    -0.248 NA
ATOM     50  C   UNL A   1      42.693  34.493  35.360  1.00  0.00     0.031 C 
ATOM     51  C   UNL A   1      43.114  30.189  31.701  1.00  0.00     0.029 A 
ATOM     52  C   UNL A   1      43.426  31.186  32.627  1.00  0.00     0.049 A 
ATOM     53  H   UNL A   1      44.218  33.060  32.066  1.00  0.00     0.167 HD
ATOM     54  C   UNL A   1      43.264  32.308  34.837  1.00  0.00     0.074 A 
ATOM     55  C   UNL A   1      43.356  33.722  34.496  1.00  0.00     0.031 C 
ATOM     56  C   UNL A   1      43.395  31.182  34.077  1.00  0.00     0.037 A 
BRANCH  43  57
ATOM     57  C   UNL A   1      42.821  34.611  29.818  1.00  0.00     0.058 A 
ATOM     58  C   UNL A   1      42.963  35.703  30.687  1.00  0.00     0.135 A 
ATOM     59  C   UNL A   1      43.148  34.849  28.460  1.00  0.00     0.135 A 
ATOM     60  F   UNL A   1      42.625  35.591  31.980  1.00  0.00    -0.206 F 
ATOM     61  C   UNL A   1      43.405  36.949  30.235  1.00  0.00     0.059 A 
ATOM     62  C   UNL A   1      43.646  36.057  28.002  1.00  0.00     0.059 A 
ATOM     63  F   UNL A   1      42.918  33.931  27.509  1.00  0.00    -0.206 F 
ATOM     64  C   UNL A   1      43.740  37.114  28.890  1.00  0.00     0.060 A 
BRANCH  64  65
ATOM     65  S   UNL A   1      44.235  38.735  28.277  1.00  0.00     0.124 S 
ATOM     66  O   UNL A   1      42.946  39.410  28.183  1.00  0.00    -0.237 OA
ATOM     67  O   UNL A   1      45.130  39.203  29.329  1.00  0.00    -0.237 OA
ATOM     68  O   UNL A   1      44.883  38.425  27.005  1.00  0.00    -0.744 OA
ENDBRANCH  64  65
ENDBRANCH  43  57
BRANCH  44  69
ATOM     69  C   UNL A   1      40.789  34.813  38.036  1.00  0.00     0.058 A 
ATOM     70  C   UNL A   1      40.444  36.145  37.763  1.00  0.00     0.135 A 
ATOM     71  C   UNL A   1      40.860  34.463  39.404  1.00  0.00     0.135 A 
ATOM     72  F   UNL A   1      40.279  36.553  36.496  1.00  0.00    -0.206 F 
ATOM     73  C   UNL A   1      40.225  37.080  38.786  1.00  0.00     0.059 A 
ATOM     74  C   UNL A   1      40.683  35.378  40.434  1.00  0.00     0.059 A 
ATOM     75  F   UNL A   1      41.037  33.189  39.787  1.00  0.00    -0.206 F 
ATOM     76  C   UNL A   1      40.354  36.687  40.120  1.00  0.00     0.060 A 
BRANCH  76  77
ATOM     77  S   UNL A   1      40.025  37.866  41.448  1.00  0.00     0.124 S 
ATOM     78  O   UNL A   1      39.541  36.997  42.516  1.00  0.00    -0.237 OA
ATOM     79  O   UNL A   1      41.340  38.462  41.655  1.00  0.00    -0.237 OA
ATOM     80  O   UNL A   1      39.021  38.757  40.873  1.00  0.00    -0.744 OA
ENDBRANCH  76  77
ENDBRANCH  44  69
BRANCH  56  81
ATOM     81  C   UNL A   1      43.197  29.839  34.736  1.00  0.00     0.058 A 
ATOM     82  C   UNL A   1      44.213  29.147  35.417  1.00  0.00     0.135 A 
ATOM     83  C   UNL A   1      41.892  29.330  34.843  1.00  0.00     0.135 A 
ATOM     84  F   UNL A   1      45.467  29.621  35.443  1.00  0.00    -0.206 F 
ATOM     85  C   UNL A   1      43.948  27.991  36.153  1.00  0.00     0.059 A 
ATOM     86  C   UNL A   1      41.600  28.196  35.597  1.00  0.00     0.059 A 
ATOM     87  F   UNL A   1      40.867  29.979  34.266  1.00  0.00    -0.206 F 
ATOM     88  C   UNL A   1      42.636  27.527  36.247  1.00  0.00     0.060 A 
BRANCH  88  89
ATOM     89  S   UNL A   1      42.282  26.099  37.295  1.00  0.00     0.124 S 
ATOM     90  O   UNL A   1      43.221  26.284  38.395  1.00  0.00    -0.237 OA
ATOM     91  O   UNL A   1      40.873  26.289  37.621  1.00  0.00    -0.237 OA
ATOM     92  O   UNL A   1      42.561  24.959  36.424  1.00  0.00    -0.744 OA
ENDBRANCH  88  89
ENDBRANCH  56  81
ENDBRANCH  30  31
ENDBRANCH  23  25
ENDBRANCH  22  23
ENDBRANCH  21  22
ENDBRANCH   1  21
TORSDOF 20
ENDMDL
