MODEL 1
REMARK VINA RESULT:     -11.4      0.000      0.000
REMARK SMILES O=C(OCCOC(=O)[C@@]1(Cc2cn3ccccc3n2)CCC[NH2+]C1)c1ccc(-c2c3nc(c(-c4c(F)cc(S(=O)(=O)[O-])cc4F)c4ccc([nH]4)c(-c4c(F)cc(S(=O)(=O)[O-])cc4F)c4nc(c(-c5c(F)cc(S(=O)(=O)[O-])cc5F)c5ccc2[nH]5)C=C4)C=C3)cc1
REMARK SMILES IDX 4 1 3 2 2 3 1 4 25 5 26 6 90 7 27 8 89 9 28 10 29 11 30 12
REMARK SMILES IDX 83 13 31 14 88 15 82 16 84 17 32 18 87 19 81 20 80 21 33 23
REMARK SMILES IDX 67 24 46 25 66 26 47 27 50 28 65 29 85 30 48 31 49 32 64 34
REMARK SMILES IDX 86 35 51 36 34 37 35 38 44 39 36 40 37 41 43 42 45 43 38 44
REMARK SMILES IDX 39 45 40 46 41 47 42 48 68 49 69 50 78 51 70 52 71 53 77 54
REMARK SMILES IDX 79 55 72 56 73 57 74 58 75 59 76 60 52 61 53 62 62 63 54 64
REMARK SMILES IDX 55 65 61 66 63 67 56 68 57 69 58 70 59 71 60 72 5 73 6 74
REMARK SMILES IDX 7 75 8 76 9 77 20 78 24 79 21 80 23 81 22 82 10 85 11 86
REMARK SMILES IDX 12 87 19 88 13 89 18 90 14 91 17 92 15 93 16 94
REMARK H PARENT 84 22 50 33 23 83 23 84
REMARK Flexibility Score: inf
ROOT
ATOM      1  C   UNL A   1      36.734  22.827  25.824  1.00  0.00     0.275 C 
ENDROOT
BRANCH   1   2
ATOM      2  O   UNL A   1      38.029  22.206  25.823  1.00  0.00    -0.458 OA
BRANCH   2   3
ATOM      3  C   UNL A   1      39.176  22.573  26.440  1.00  0.00     0.338 C 
ATOM      4  O   UNL A   1      40.009  21.699  26.675  1.00  0.00    -0.246 OA
BRANCH   3   5
ATOM      5  C   UNL A   1      39.461  23.963  26.930  1.00  0.00     0.060 A 
ATOM      6  C   UNL A   1      39.282  24.446  28.233  1.00  0.00     0.016 A 
ATOM      7  C   UNL A   1      39.986  24.850  25.978  1.00  0.00     0.016 A 
ATOM      8  C   UNL A   1      39.754  25.714  28.621  1.00  0.00     0.010 A 
ATOM      9  C   UNL A   1      40.472  26.106  26.365  1.00  0.00     0.010 A 
ATOM     10  C   UNL A   1      40.393  26.543  27.703  1.00  0.00    -0.014 A 
BRANCH  10  11
ATOM     11  C   UNL A   1      40.909  27.899  28.050  1.00  0.00     0.031 A 
ATOM     12  C   UNL A   1      42.398  28.042  28.212  1.00  0.00     0.074 A 
ATOM     13  C   UNL A   1      40.102  28.950  28.334  1.00  0.00     0.049 A 
ATOM     14  N   UNL A   1      43.086  29.061  28.649  1.00  0.00    -0.248 NA
ATOM     15  C   UNL A   1      43.221  26.881  27.819  1.00  0.00     0.031 C 
ATOM     16  C   UNL A   1      38.644  28.996  28.185  1.00  0.00     0.029 A 
ATOM     17  N   UNL A   1      40.391  30.159  28.931  1.00  0.00    -0.354 N 
ATOM     18  C   UNL A   1      44.413  28.692  28.492  1.00  0.00     0.074 A 
ATOM     19  C   UNL A   1      44.439  27.300  28.117  1.00  0.00     0.031 C 
ATOM     20  C   UNL A   1      38.162  30.072  28.833  1.00  0.00     0.029 A 
ATOM     21  C   UNL A   1      39.272  30.826  29.396  1.00  0.00     0.049 A 
ATOM     22  H   UNL A   1      41.305  30.513  29.019  1.00  0.00     0.167 HD
ATOM     23  C   UNL A   1      45.509  29.482  28.522  1.00  0.00     0.037 A 
ATOM     24  C   UNL A   1      39.165  31.905  30.199  1.00  0.00     0.037 A 
ATOM     25  C   UNL A   1      45.475  30.862  28.899  1.00  0.00     0.049 A 
ATOM     26  C   UNL A   1      40.418  32.692  30.484  1.00  0.00     0.074 A 
ATOM     27  C   UNL A   1      46.501  31.787  28.900  1.00  0.00     0.029 A 
ATOM     28  N   UNL A   1      44.343  31.511  29.371  1.00  0.00    -0.354 N 
ATOM     29  N   UNL A   1      41.657  32.398  30.173  1.00  0.00    -0.248 NA
ATOM     30  C   UNL A   1      40.252  34.002  31.129  1.00  0.00     0.031 C 
ATOM     31  C   UNL A   1      45.999  32.984  29.423  1.00  0.00     0.029 A 
ATOM     32  C   UNL A   1      44.651  32.816  29.700  1.00  0.00     0.049 A 
ATOM     33  H   UNL A   1      43.452  31.101  29.457  1.00  0.00     0.167 HD
ATOM     34  C   UNL A   1      42.401  33.532  30.472  1.00  0.00     0.074 A 
ATOM     35  C   UNL A   1      41.481  34.495  31.044  1.00  0.00     0.031 C 
ATOM     36  C   UNL A   1      43.715  33.772  30.242  1.00  0.00     0.037 A 
BRANCH  23  37
ATOM     37  C   UNL A   1      46.786  28.865  28.037  1.00  0.00     0.058 A 
ATOM     38  C   UNL A   1      47.679  28.268  28.947  1.00  0.00     0.135 A 
ATOM     39  C   UNL A   1      47.146  28.892  26.685  1.00  0.00     0.135 A 
ATOM     40  F   UNL A   1      47.393  28.242  30.260  1.00  0.00    -0.206 F 
ATOM     41  C   UNL A   1      48.901  27.755  28.537  1.00  0.00     0.059 A 
ATOM     42  C   UNL A   1      48.355  28.357  26.247  1.00  0.00     0.059 A 
ATOM     43  F   UNL A   1      46.335  29.461  25.780  1.00  0.00    -0.206 F 
ATOM     44  C   UNL A   1      49.230  27.805  27.184  1.00  0.00     0.060 A 
BRANCH  44  45
ATOM     45  S   UNL A   1      50.822  27.129  26.669  1.00  0.00     0.124 S 
ATOM     46  O   UNL A   1      51.479  26.917  27.956  1.00  0.00    -0.237 OA
ATOM     47  O   UNL A   1      50.426  25.918  25.955  1.00  0.00    -0.237 OA
ATOM     48  O   UNL A   1      51.389  28.186  25.841  1.00  0.00    -0.744 OA
ENDBRANCH  44  45
ENDBRANCH  23  37
BRANCH  24  49
ATOM     49  C   UNL A   1      37.852  32.375  30.732  1.00  0.00     0.058 A 
ATOM     50  C   UNL A   1      37.069  33.304  30.030  1.00  0.00     0.135 A 
ATOM     51  C   UNL A   1      37.398  31.979  32.002  1.00  0.00     0.135 A 
ATOM     52  F   UNL A   1      37.467  33.736  28.825  1.00  0.00    -0.206 F 
ATOM     53  C   UNL A   1      35.907  33.848  30.577  1.00  0.00     0.059 A 
ATOM     54  C   UNL A   1      36.228  32.494  32.562  1.00  0.00     0.059 A 
ATOM     55  F   UNL A   1      38.111  31.103  32.725  1.00  0.00    -0.206 F 
ATOM     56  C   UNL A   1      35.496  33.440  31.846  1.00  0.00     0.060 A 
BRANCH  56  57
ATOM     57  S   UNL A   1      33.990  34.164  32.541  1.00  0.00     0.124 S 
ATOM     58  O   UNL A   1      33.387  33.014  33.204  1.00  0.00    -0.237 OA
ATOM     59  O   UNL A   1      34.531  35.197  33.419  1.00  0.00    -0.237 OA
ATOM     60  O   UNL A   1      33.280  34.659  31.366  1.00  0.00    -0.744 OA
ENDBRANCH  56  57
ENDBRANCH  24  49
BRANCH  36  61
ATOM     61  C   UNL A   1      44.226  35.154  30.513  1.00  0.00     0.058 A 
ATOM     62  C   UNL A   1      44.145  36.179  29.560  1.00  0.00     0.135 A 
ATOM     63  C   UNL A   1      44.742  35.470  31.782  1.00  0.00     0.135 A 
ATOM     64  F   UNL A   1      43.672  35.923  28.330  1.00  0.00    -0.206 F 
ATOM     65  C   UNL A   1      44.574  37.468  29.851  1.00  0.00     0.059 A 
ATOM     66  C   UNL A   1      45.142  36.759  32.105  1.00  0.00     0.059 A 
ATOM     67  F   UNL A   1      44.832  34.523  32.731  1.00  0.00    -0.206 F 
ATOM     68  C   UNL A   1      45.063  37.750  31.129  1.00  0.00     0.060 A 
BRANCH  68  69
ATOM     69  S   UNL A   1      45.558  39.441  31.511  1.00  0.00     0.124 S 
ATOM     70  O   UNL A   1      45.021  39.606  32.858  1.00  0.00    -0.237 OA
ATOM     71  O   UNL A   1      47.013  39.369  31.413  1.00  0.00    -0.237 OA
ATOM     72  O   UNL A   1      44.904  40.231  30.473  1.00  0.00    -0.744 OA
ENDBRANCH  68  69
ENDBRANCH  36  61
ENDBRANCH  10  11
ENDBRANCH   3   5
ENDBRANCH   2   3
ENDBRANCH   1   2
BRANCH   1  73
ATOM     73  C   UNL A   1      36.334  23.490  24.506  1.00  0.00     0.274 C 
BRANCH  73  74
ATOM     74  O   UNL A   1      35.013  24.056  24.521  1.00  0.00    -0.461 OA
BRANCH  74  75
ATOM     75  C   UNL A   1      34.090  23.527  23.659  1.00  0.00     0.318 C 
ATOM     76  O   UNL A   1      34.266  23.440  22.450  1.00  0.00    -0.251 OA
BRANCH  75  77
ATOM     77  C   UNL A   1      32.770  23.112  24.349  1.00  0.00     0.122 C 
ATOM     78  C   UNL A   1      32.950  23.083  25.867  1.00  0.00     0.031 C 
ATOM     79  C   UNL A   1      31.768  24.254  24.060  1.00  0.00     0.279 C 
ATOM     80  C   UNL A   1      31.664  22.965  26.654  1.00  0.00     0.063 C 
ATOM     81  N   UNL A   1      30.524  24.236  24.838  1.00  0.00    -0.345 N 
ATOM     82  C   UNL A   1      30.706  24.078  26.279  1.00  0.00     0.260 C 
ATOM     83  H   UNL A   1      30.034  25.115  24.673  1.00  0.00     0.346 HD
ATOM     84  H   UNL A   1      30.001  23.419  24.523  1.00  0.00     0.346 HD
BRANCH  77  85
ATOM     85  C   UNL A   1      32.404  21.702  23.757  1.00  0.00     0.082 C 
BRANCH  85  86
ATOM     86  C   UNL A   1      32.935  20.490  24.469  1.00  0.00     0.061 A 
ATOM     87  C   UNL A   1      34.238  20.037  24.534  1.00  0.00     0.116 A 
ATOM     88  N   UNL A   1      32.092  19.569  25.070  1.00  0.00    -0.234 NA
ATOM     89  N   UNL A   1      34.113  18.686  24.742  1.00  0.00    -0.307 N 
ATOM     90  C   UNL A   1      32.826  18.479  25.227  1.00  0.00     0.136 A 
ATOM     91  C   UNL A   1      34.991  17.655  24.412  1.00  0.00     0.093 A 
ATOM     92  C   UNL A   1      32.498  17.143  25.607  1.00  0.00     0.048 A 
ATOM     93  C   UNL A   1      34.619  16.384  24.642  1.00  0.00     0.018 A 
ATOM     94  C   UNL A   1      33.353  16.139  25.318  1.00  0.00     0.005 A 
ENDBRANCH  85  86
ENDBRANCH  77  85
ENDBRANCH  75  77
ENDBRANCH  74  75
ENDBRANCH  73  74
ENDBRANCH   1  73
TORSDOF 16
ENDMDL
MODEL 2
REMARK VINA RESULT:     -11.3      4.914     10.671
REMARK SMILES O=C(OCCOC(=O)[C@@]1(Cc2cn3ccccc3n2)CCC[NH2+]C1)c1ccc(-c2c3nc(c(-c4c(F)cc(S(=O)(=O)[O-])cc4F)c4ccc([nH]4)c(-c4c(F)cc(S(=O)(=O)[O-])cc4F)c4nc(c(-c5c(F)cc(S(=O)(=O)[O-])cc5F)c5ccc2[nH]5)C=C4)C=C3)cc1
REMARK SMILES IDX 4 1 3 2 2 3 1 4 25 5 26 6 90 7 27 8 89 9 28 10 29 11 30 12
REMARK SMILES IDX 83 13 31 14 88 15 82 16 84 17 32 18 87 19 81 20 80 21 33 23
REMARK SMILES IDX 67 24 46 25 66 26 47 27 50 28 65 29 85 30 48 31 49 32 64 34
REMARK SMILES IDX 86 35 51 36 34 37 35 38 44 39 36 40 37 41 43 42 45 43 38 44
REMARK SMILES IDX 39 45 40 46 41 47 42 48 68 49 69 50 78 51 70 52 71 53 77 54
REMARK SMILES IDX 79 55 72 56 73 57 74 58 75 59 76 60 52 61 53 62 62 63 54 64
REMARK SMILES IDX 55 65 61 66 63 67 56 68 57 69 58 70 59 71 60 72 5 73 6 74
REMARK SMILES IDX 7 75 8 76 9 77 20 78 24 79 21 80 23 81 22 82 10 85 11 86
REMARK SMILES IDX 12 87 19 88 13 89 18 90 14 91 17 92 15 93 16 94
REMARK H PARENT 84 22 50 33 23 83 23 84
REMARK Flexibility Score: inf
ROOT
ATOM      1  C   UNL A   1      32.052  29.802  27.191  1.00  0.00     0.275 C 
ENDROOT
BRANCH   1   2
ATOM      2  O   UNL A   1      33.377  30.188  26.794  1.00  0.00    -0.458 OA
BRANCH   2   3
ATOM      3  C   UNL A   1      34.330  30.871  27.471  1.00  0.00     0.338 C 
ATOM      4  O   UNL A   1      34.160  32.076  27.648  1.00  0.00    -0.246 OA
BRANCH   3   5
ATOM      5  C   UNL A   1      35.619  30.267  27.948  1.00  0.00     0.060 A 
ATOM      6  C   UNL A   1      36.823  30.192  27.237  1.00  0.00     0.016 A 
ATOM      7  C   UNL A   1      35.605  29.753  29.254  1.00  0.00     0.016 A 
ATOM      8  C   UNL A   1      38.017  29.768  27.851  1.00  0.00     0.010 A 
ATOM      9  C   UNL A   1      36.795  29.348  29.873  1.00  0.00     0.010 A 
ATOM     10  C   UNL A   1      38.027  29.382  29.189  1.00  0.00    -0.014 A 
BRANCH  10  11
ATOM     11  C   UNL A   1      39.257  28.917  29.894  1.00  0.00     0.031 A 
ATOM     12  C   UNL A   1      39.836  29.837  30.934  1.00  0.00     0.074 A 
ATOM     13  C   UNL A   1      39.921  27.785  29.559  1.00  0.00     0.049 A 
ATOM     14  N   UNL A   1      40.965  29.744  31.580  1.00  0.00    -0.248 NA
ATOM     15  C   UNL A   1      39.027  31.016  31.299  1.00  0.00     0.031 C 
ATOM     16  C   UNL A   1      39.477  26.761  28.608  1.00  0.00     0.029 A 
ATOM     17  N   UNL A   1      41.189  27.362  29.900  1.00  0.00    -0.354 N 
ATOM     18  C   UNL A   1      40.949  30.794  32.485  1.00  0.00     0.074 A 
ATOM     19  C   UNL A   1      39.810  31.623  32.173  1.00  0.00     0.031 C 
ATOM     20  C   UNL A   1      40.509  25.949  28.310  1.00  0.00     0.029 A 
ATOM     21  C   UNL A   1      41.671  26.353  29.087  1.00  0.00     0.049 A 
ATOM     22  H   UNL A   1      41.701  27.742  30.650  1.00  0.00     0.167 HD
ATOM     23  C   UNL A   1      41.735  30.975  33.569  1.00  0.00     0.037 A 
ATOM     24  C   UNL A   1      42.912  25.834  28.973  1.00  0.00     0.037 A 
ATOM     25  C   UNL A   1      42.866  30.151  33.869  1.00  0.00     0.049 A 
ATOM     26  C   UNL A   1      43.925  26.210  30.024  1.00  0.00     0.074 A 
ATOM     27  C   UNL A   1      43.697  30.185  34.972  1.00  0.00     0.029 A 
ATOM     28  N   UNL A   1      43.338  29.147  33.035  1.00  0.00    -0.354 N 
ATOM     29  N   UNL A   1      43.819  27.098  30.983  1.00  0.00    -0.248 NA
ATOM     30  C   UNL A   1      45.178  25.442  30.050  1.00  0.00     0.031 C 
ATOM     31  C   UNL A   1      44.706  29.234  34.779  1.00  0.00     0.029 A 
ATOM     32  C   UNL A   1      44.472  28.577  33.580  1.00  0.00     0.049 A 
ATOM     33  H   UNL A   1      42.925  28.882  32.182  1.00  0.00     0.167 HD
ATOM     34  C   UNL A   1      44.931  26.914  31.794  1.00  0.00     0.074 A 
ATOM     35  C   UNL A   1      45.726  25.870  31.179  1.00  0.00     0.031 C 
ATOM     36  C   UNL A   1      45.236  27.517  32.969  1.00  0.00     0.037 A 
BRANCH  23  37
ATOM     37  C   UNL A   1      41.309  32.046  34.528  1.00  0.00     0.058 A 
ATOM     38  C   UNL A   1      41.767  33.368  34.370  1.00  0.00     0.135 A 
ATOM     39  C   UNL A   1      40.478  31.764  35.619  1.00  0.00     0.135 A 
ATOM     40  F   UNL A   1      42.589  33.684  33.354  1.00  0.00    -0.206 F 
ATOM     41  C   UNL A   1      41.449  34.362  35.283  1.00  0.00     0.059 A 
ATOM     42  C   UNL A   1      40.122  32.754  36.532  1.00  0.00     0.059 A 
ATOM     43  F   UNL A   1      40.026  30.518  35.820  1.00  0.00    -0.206 F 
ATOM     44  C   UNL A   1      40.625  34.045  36.361  1.00  0.00     0.060 A 
BRANCH  44  45
ATOM     45  S   UNL A   1      40.218  35.354  37.535  1.00  0.00     0.124 S 
ATOM     46  O   UNL A   1      41.370  35.310  38.431  1.00  0.00    -0.237 OA
ATOM     47  O   UNL A   1      40.133  36.528  36.671  1.00  0.00    -0.237 OA
ATOM     48  O   UNL A   1      38.955  34.911  38.114  1.00  0.00    -0.744 OA
ENDBRANCH  44  45
ENDBRANCH  23  37
BRANCH  24  49
ATOM     49  C   UNL A   1      43.275  24.858  27.904  1.00  0.00     0.058 A 
ATOM     50  C   UNL A   1      42.985  23.491  28.035  1.00  0.00     0.135 A 
ATOM     51  C   UNL A   1      44.005  25.256  26.772  1.00  0.00     0.135 A 
ATOM     52  F   UNL A   1      42.311  23.052  29.109  1.00  0.00    -0.206 F 
ATOM     53  C   UNL A   1      43.432  22.553  27.106  1.00  0.00     0.059 A 
ATOM     54  C   UNL A   1      44.447  24.338  25.817  1.00  0.00     0.059 A 
ATOM     55  F   UNL A   1      44.323  26.548  26.599  1.00  0.00    -0.206 F 
ATOM     56  C   UNL A   1      44.168  22.985  26.002  1.00  0.00     0.060 A 
BRANCH  56  57
ATOM     57  S   UNL A   1      44.746  21.751  24.811  1.00  0.00     0.124 S 
ATOM     58  O   UNL A   1      46.147  21.607  25.191  1.00  0.00    -0.237 OA
ATOM     59  O   UNL A   1      43.883  20.614  25.114  1.00  0.00    -0.237 OA
ATOM     60  O   UNL A   1      44.504  22.387  23.521  1.00  0.00    -0.744 OA
ENDBRANCH  56  57
ENDBRANCH  24  49
BRANCH  36  61
ATOM     61  C   UNL A   1      46.425  27.004  33.723  1.00  0.00     0.058 A 
ATOM     62  C   UNL A   1      46.333  25.928  34.616  1.00  0.00     0.135 A 
ATOM     63  C   UNL A   1      47.693  27.564  33.489  1.00  0.00     0.135 A 
ATOM     64  F   UNL A   1      45.142  25.369  34.882  1.00  0.00    -0.206 F 
ATOM     65  C   UNL A   1      47.458  25.432  35.264  1.00  0.00     0.059 A 
ATOM     66  C   UNL A   1      48.835  27.061  34.099  1.00  0.00     0.059 A 
ATOM     67  F   UNL A   1      47.833  28.593  32.637  1.00  0.00    -0.206 F 
ATOM     68  C   UNL A   1      48.705  26.000  34.993  1.00  0.00     0.060 A 
BRANCH  68  69
ATOM     69  S   UNL A   1      50.164  25.306  35.794  1.00  0.00     0.124 S 
ATOM     70  O   UNL A   1      50.003  23.883  35.513  1.00  0.00    -0.237 OA
ATOM     71  O   UNL A   1      51.254  25.974  35.087  1.00  0.00    -0.237 OA
ATOM     72  O   UNL A   1      50.001  25.694  37.191  1.00  0.00    -0.744 OA
ENDBRANCH  68  69
ENDBRANCH  36  61
ENDBRANCH  10  11
ENDBRANCH   3   5
ENDBRANCH   2   3
ENDBRANCH   1   2
BRANCH   1  73
ATOM     73  C   UNL A   1      31.825  28.295  27.309  1.00  0.00     0.274 C 
BRANCH  73  74
ATOM     74  O   UNL A   1      32.187  27.563  26.127  1.00  0.00    -0.461 OA
BRANCH  74  75
ATOM     75  C   UNL A   1      31.420  26.476  25.798  1.00  0.00     0.318 C 
ATOM     76  O   UNL A   1      30.942  25.712  26.626  1.00  0.00    -0.251 OA
BRANCH  75  77
ATOM     77  C   UNL A   1      31.272  26.265  24.274  1.00  0.00     0.122 C 
ATOM     78  C   UNL A   1      32.457  26.887  23.533  1.00  0.00     0.031 C 
ATOM     79  C   UNL A   1      31.382  24.739  24.049  1.00  0.00     0.279 C 
ATOM     80  C   UNL A   1      32.563  26.503  22.075  1.00  0.00     0.063 C 
ATOM     81  N   UNL A   1      31.552  24.300  22.659  1.00  0.00    -0.345 N 
ATOM     82  C   UNL A   1      32.606  24.995  21.922  1.00  0.00     0.260 C 
ATOM     83  H   UNL A   1      31.772  23.304  22.665  1.00  0.00     0.346 HD
ATOM     84  H   UNL A   1      30.678  24.516  22.181  1.00  0.00     0.346 HD
BRANCH  77  85
ATOM     85  C   UNL A   1      29.900  26.927  23.882  1.00  0.00     0.082 C 
BRANCH  85  86
ATOM     86  C   UNL A   1      29.930  28.341  23.375  1.00  0.00     0.061 A 
ATOM     87  C   UNL A   1      30.212  29.497  24.075  1.00  0.00     0.116 A 
ATOM     88  N   UNL A   1      29.525  28.663  22.089  1.00  0.00    -0.234 NA
ATOM     89  N   UNL A   1      29.546  30.478  23.384  1.00  0.00    -0.307 N 
ATOM     90  C   UNL A   1      29.296  29.966  22.115  1.00  0.00     0.136 A 
ATOM     91  C   UNL A   1      29.050  31.699  23.838  1.00  0.00     0.093 A 
ATOM     92  C   UNL A   1      28.688  30.856  21.180  1.00  0.00     0.048 A 
ATOM     93  C   UNL A   1      28.353  32.475  22.990  1.00  0.00     0.018 A 
ATOM     94  C   UNL A   1      28.229  32.054  21.601  1.00  0.00     0.005 A 
ENDBRANCH  85  86
ENDBRANCH  77  85
ENDBRANCH  75  77
ENDBRANCH  74  75
ENDBRANCH  73  74
ENDBRANCH   1  73
TORSDOF 16
ENDMDL
MODEL 3
REMARK VINA RESULT:     -11.0      2.345      2.946
REMARK SMILES O=C(OCCOC(=O)[C@@]1(Cc2cn3ccccc3n2)CCC[NH2+]C1)c1ccc(-c2c3nc(c(-c4c(F)cc(S(=O)(=O)[O-])cc4F)c4ccc([nH]4)c(-c4c(F)cc(S(=O)(=O)[O-])cc4F)c4nc(c(-c5c(F)cc(S(=O)(=O)[O-])cc5F)c5ccc2[nH]5)C=C4)C=C3)cc1
REMARK SMILES IDX 4 1 3 2 2 3 1 4 25 5 26 6 90 7 27 8 89 9 28 10 29 11 30 12
REMARK SMILES IDX 83 13 31 14 88 15 82 16 84 17 32 18 87 19 81 20 80 21 33 23
REMARK SMILES IDX 67 24 46 25 66 26 47 27 50 28 65 29 85 30 48 31 49 32 64 34
REMARK SMILES IDX 86 35 51 36 34 37 35 38 44 39 36 40 37 41 43 42 45 43 38 44
REMARK SMILES IDX 39 45 40 46 41 47 42 48 68 49 69 50 78 51 70 52 71 53 77 54
REMARK SMILES IDX 79 55 72 56 73 57 74 58 75 59 76 60 52 61 53 62 62 63 54 64
REMARK SMILES IDX 55 65 61 66 63 67 56 68 57 69 58 70 59 71 60 72 5 73 6 74
REMARK SMILES IDX 7 75 8 76 9 77 20 78 24 79 21 80 23 81 22 82 10 85 11 86
REMARK SMILES IDX 12 87 19 88 13 89 18 90 14 91 17 92 15 93 16 94
REMARK H PARENT 84 22 50 33 23 83 23 84
REMARK Flexibility Score: inf
ROOT
ATOM      1  C   UNL A   1      36.973  22.263  24.562  1.00  0.00     0.275 C 
ENDROOT
BRANCH   1   2
ATOM      2  O   UNL A   1      37.568  23.173  25.500  1.00  0.00    -0.458 OA
BRANCH   2   3
ATOM      3  C   UNL A   1      38.757  23.113  26.144  1.00  0.00     0.338 C 
ATOM      4  O   UNL A   1      39.283  22.009  26.281  1.00  0.00    -0.246 OA
BRANCH   3   5
ATOM      5  C   UNL A   1      39.434  24.295  26.773  1.00  0.00     0.060 A 
ATOM      6  C   UNL A   1      40.398  25.122  26.182  1.00  0.00     0.016 A 
ATOM      7  C   UNL A   1      39.028  24.607  28.080  1.00  0.00     0.016 A 
ATOM      8  C   UNL A   1      40.831  26.310  26.801  1.00  0.00     0.010 A 
ATOM      9  C   UNL A   1      39.443  25.797  28.691  1.00  0.00     0.010 A 
ATOM     10  C   UNL A   1      40.326  26.685  28.044  1.00  0.00    -0.014 A 
BRANCH  10  11
ATOM     11  C   UNL A   1      40.749  27.928  28.754  1.00  0.00     0.031 A 
ATOM     12  C   UNL A   1      41.956  27.827  29.646  1.00  0.00     0.074 A 
ATOM     13  C   UNL A   1      40.039  29.081  28.718  1.00  0.00     0.049 A 
ATOM     14  N   UNL A   1      42.441  28.706  30.479  1.00  0.00    -0.248 NA
ATOM     15  C   UNL A   1      42.722  26.567  29.584  1.00  0.00     0.031 C 
ATOM     16  C   UNL A   1      38.874  29.363  27.872  1.00  0.00     0.029 A 
ATOM     17  N   UNL A   1      40.124  30.204  29.513  1.00  0.00    -0.354 N 
ATOM     18  C   UNL A   1      43.611  28.138  30.960  1.00  0.00     0.074 A 
ATOM     19  C   UNL A   1      43.660  26.775  30.491  1.00  0.00     0.031 C 
ATOM     20  C   UNL A   1      38.259  30.476  28.315  1.00  0.00     0.029 A 
ATOM     21  C   UNL A   1      39.011  31.021  29.436  1.00  0.00     0.049 A 
ATOM     22  H   UNL A   1      40.902  30.406  30.082  1.00  0.00     0.167 HD
ATOM     23  C   UNL A   1      44.624  28.743  31.618  1.00  0.00     0.037 A 
ATOM     24  C   UNL A   1      38.638  32.072  30.197  1.00  0.00     0.037 A 
ATOM     25  C   UNL A   1      44.565  30.095  32.084  1.00  0.00     0.049 A 
ATOM     26  C   UNL A   1      39.655  32.638  31.153  1.00  0.00     0.074 A 
ATOM     27  C   UNL A   1      45.549  30.844  32.698  1.00  0.00     0.029 A 
ATOM     28  N   UNL A   1      43.435  30.895  32.003  1.00  0.00    -0.354 N 
ATOM     29  N   UNL A   1      40.838  32.164  31.465  1.00  0.00    -0.248 NA
ATOM     30  C   UNL A   1      39.341  33.931  31.775  1.00  0.00     0.031 C 
ATOM     31  C   UNL A   1      44.995  32.085  33.036  1.00  0.00     0.029 A 
ATOM     32  C   UNL A   1      43.683  32.121  32.588  1.00  0.00     0.049 A 
ATOM     33  H   UNL A   1      42.582  30.628  31.589  1.00  0.00     0.167 HD
ATOM     34  C   UNL A   1      41.454  33.153  32.220  1.00  0.00     0.074 A 
ATOM     35  C   UNL A   1      40.490  34.226  32.367  1.00  0.00     0.031 C 
ATOM     36  C   UNL A   1      42.721  33.191  32.700  1.00  0.00     0.037 A 
BRANCH  23  37
ATOM     37  C   UNL A   1      45.889  27.951  31.763  1.00  0.00     0.058 A 
ATOM     38  C   UNL A   1      46.076  27.104  32.872  1.00  0.00     0.135 A 
ATOM     39  C   UNL A   1      46.928  28.052  30.831  1.00  0.00     0.135 A 
ATOM     40  F   UNL A   1      45.119  26.993  33.810  1.00  0.00    -0.206 F 
ATOM     41  C   UNL A   1      47.264  26.416  33.070  1.00  0.00     0.059 A 
ATOM     42  C   UNL A   1      48.118  27.348  30.994  1.00  0.00     0.059 A 
ATOM     43  F   UNL A   1      46.803  28.856  29.764  1.00  0.00    -0.206 F 
ATOM     44  C   UNL A   1      48.281  26.545  32.125  1.00  0.00     0.060 A 
BRANCH  44  45
ATOM     45  S   UNL A   1      49.817  25.640  32.398  1.00  0.00     0.124 S 
ATOM     46  O   UNL A   1      49.392  24.627  33.359  1.00  0.00    -0.237 OA
ATOM     47  O   UNL A   1      50.128  25.149  31.058  1.00  0.00    -0.237 OA
ATOM     48  O   UNL A   1      50.724  26.657  32.916  1.00  0.00    -0.744 OA
ENDBRANCH  44  45
ENDBRANCH  23  37
BRANCH  24  49
ATOM     49  C   UNL A   1      37.301  32.722  30.059  1.00  0.00     0.058 A 
ATOM     50  C   UNL A   1      37.077  33.738  29.118  1.00  0.00     0.135 A 
ATOM     51  C   UNL A   1      36.246  32.409  30.933  1.00  0.00     0.135 A 
ATOM     52  F   UNL A   1      38.058  34.095  28.276  1.00  0.00    -0.206 F 
ATOM     53  C   UNL A   1      35.874  34.441  29.068  1.00  0.00     0.059 A 
ATOM     54  C   UNL A   1      35.025  33.084  30.890  1.00  0.00     0.059 A 
ATOM     55  F   UNL A   1      36.406  31.454  31.862  1.00  0.00    -0.206 F 
ATOM     56  C   UNL A   1      34.855  34.111  29.962  1.00  0.00     0.060 A 
BRANCH  56  57
ATOM     57  S   UNL A   1      33.304  35.041  29.887  1.00  0.00     0.124 S 
ATOM     58  O   UNL A   1      33.764  36.348  29.433  1.00  0.00    -0.237 OA
ATOM     59  O   UNL A   1      32.534  34.264  28.920  1.00  0.00    -0.237 OA
ATOM     60  O   UNL A   1      32.812  34.986  31.259  1.00  0.00    -0.744 OA
ENDBRANCH  56  57
ENDBRANCH  24  49
BRANCH  36  61
ATOM     61  C   UNL A   1      43.181  34.463  33.345  1.00  0.00     0.058 A 
ATOM     62  C   UNL A   1      43.882  35.447  32.634  1.00  0.00     0.135 A 
ATOM     63  C   UNL A   1      42.848  34.726  34.685  1.00  0.00     0.135 A 
ATOM     64  F   UNL A   1      44.234  35.237  31.356  1.00  0.00    -0.206 F 
ATOM     65  C   UNL A   1      44.251  36.644  33.235  1.00  0.00     0.059 A 
ATOM     66  C   UNL A   1      43.176  35.929  35.294  1.00  0.00     0.059 A 
ATOM     67  F   UNL A   1      42.170  33.816  35.405  1.00  0.00    -0.206 F 
ATOM     68  C   UNL A   1      43.886  36.879  34.563  1.00  0.00     0.060 A 
BRANCH  68  69
ATOM     69  S   UNL A   1      44.318  38.461  35.312  1.00  0.00     0.124 S 
ATOM     70  O   UNL A   1      45.745  38.546  35.013  1.00  0.00    -0.237 OA
ATOM     71  O   UNL A   1      43.461  39.394  34.584  1.00  0.00    -0.237 OA
ATOM     72  O   UNL A   1      43.980  38.276  36.719  1.00  0.00    -0.744 OA
ENDBRANCH  68  69
ENDBRANCH  36  61
ENDBRANCH  10  11
ENDBRANCH   3   5
ENDBRANCH   2   3
ENDBRANCH   1   2
BRANCH   1  73
ATOM     73  C   UNL A   1      36.317  22.923  23.349  1.00  0.00     0.274 C 
BRANCH  73  74
ATOM     74  O   UNL A   1      35.168  23.721  23.676  1.00  0.00    -0.461 OA
BRANCH  74  75
ATOM     75  C   UNL A   1      33.933  23.170  23.460  1.00  0.00     0.318 C 
ATOM     76  O   UNL A   1      33.560  22.753  22.371  1.00  0.00    -0.251 OA
BRANCH  75  77
ATOM     77  C   UNL A   1      33.025  23.184  24.712  1.00  0.00     0.122 C 
ATOM     78  C   UNL A   1      33.125  24.534  25.425  1.00  0.00     0.031 C 
ATOM     79  C   UNL A   1      31.577  23.088  24.180  1.00  0.00     0.279 C 
ATOM     80  C   UNL A   1      32.078  24.762  26.492  1.00  0.00     0.063 C 
ATOM     81  N   UNL A   1      30.511  23.363  25.151  1.00  0.00    -0.345 N 
ATOM     82  C   UNL A   1      30.685  24.594  25.918  1.00  0.00     0.260 C 
ATOM     83  H   UNL A   1      29.629  23.426  24.644  1.00  0.00     0.346 HD
ATOM     84  H   UNL A   1      30.534  22.599  25.825  1.00  0.00     0.346 HD
BRANCH  77  85
ATOM     85  C   UNL A   1      33.516  21.990  25.609  1.00  0.00     0.082 C 
BRANCH  85  86
ATOM     86  C   UNL A   1      33.434  20.606  25.031  1.00  0.00     0.061 A 
ATOM     87  C   UNL A   1      32.336  19.771  24.958  1.00  0.00     0.116 A 
ATOM     88  N   UNL A   1      34.562  19.929  24.594  1.00  0.00    -0.234 NA
ATOM     89  N   UNL A   1      32.875  18.509  24.930  1.00  0.00    -0.307 N 
ATOM     90  C   UNL A   1      34.203  18.657  24.539  1.00  0.00     0.136 A 
ATOM     91  C   UNL A   1      32.319  17.300  25.343  1.00  0.00     0.093 A 
ATOM     92  C   UNL A   1      34.945  17.453  24.348  1.00  0.00     0.048 A 
ATOM     93  C   UNL A   1      33.072  16.187  25.294  1.00  0.00     0.018 A 
ATOM     94  C   UNL A   1      34.407  16.272  24.718  1.00  0.00     0.005 A 
ENDBRANCH  85  86
ENDBRANCH  77  85
ENDBRANCH  75  77
ENDBRANCH  74  75
ENDBRANCH  73  74
ENDBRANCH   1  73
TORSDOF 16
ENDMDL
