MODEL 1
REMARK VINA RESULT:     -11.3      0.000      0.000
REMARK SMILES C/C(=C(/F)C(=O)OCCOC(=O)c1ccc(-c2c3nc(c(-c4c(F)cc(S(=O)(=O)[O-])cc4F)c4ccc([nH]4)c(-c4c(F)cc(S(=O)(=O)[O-])cc4F)c4nc(c(-c5c(F)cc(S(=O)(=O)[O-])cc5F)c5ccc2[nH]5)C=C4)C=C3)cc1)c1cccc(-n2cnnn2)c1
REMARK SMILES IDX 9 1 8 2 7 3 5 4 6 5 3 6 1 7 2 8 4 9 79 10 80 11 89 12 81 13
REMARK SMILES IDX 83 14 82 15 84 16 85 17 88 18 86 19 87 20 10 21 11 22 12 23
REMARK SMILES IDX 13 24 14 25 78 26 15 27 77 28 16 29 17 30 18 31 71 32 19 33
REMARK SMILES IDX 76 34 70 35 72 36 20 37 75 38 69 39 68 40 21 42 55 43 34 44
REMARK SMILES IDX 54 45 35 46 38 47 53 48 73 49 36 50 37 51 52 53 74 54 39 55
REMARK SMILES IDX 22 56 23 57 32 58 24 59 25 60 31 61 33 62 26 63 27 64 28 65
REMARK SMILES IDX 29 66 30 67 56 68 57 69 66 70 58 71 59 72 65 73 67 74 60 75
REMARK SMILES IDX 61 76 62 77 63 78 64 79 40 80 41 81 50 82 42 83 43 84 49 85
REMARK SMILES IDX 51 86 44 87 45 88 46 89 47 90 48 91
REMARK H PARENT 72 41 38 52
REMARK Flexibility Score: inf
ROOT
ATOM      1  C   UNL A   1      33.673  33.180  28.012  1.00  0.00     0.275 C 
ENDROOT
BRANCH   1   2
ATOM      2  C   UNL A   1      33.672  34.487  28.805  1.00  0.00     0.275 C 
BRANCH   2   3
ATOM      3  O   UNL A   1      33.342  34.240  30.189  1.00  0.00    -0.457 OA
BRANCH   3   4
ATOM      4  C   UNL A   1      34.006  35.006  31.092  1.00  0.00     0.367 C 
ATOM      5  O   UNL A   1      33.705  36.147  31.414  1.00  0.00    -0.243 OA
BRANCH   4   6
ATOM      6  C   UNL A   1      35.171  34.268  31.646  1.00  0.00     0.211 C 
ATOM      7  C   UNL A   1      33.893  33.285  33.594  1.00  0.00     0.048 C 
ATOM      8  C   UNL A   1      35.131  33.540  32.777  1.00  0.00    -0.000 C 
ATOM      9  F   UNL A   1      36.316  34.409  30.941  1.00  0.00    -0.199 F 
BRANCH   8  10
ATOM     10  C   UNL A   1      36.337  32.960  33.410  1.00  0.00    -0.017 A 
ATOM     11  C   UNL A   1      36.802  33.489  34.620  1.00  0.00     0.008 A 
ATOM     12  C   UNL A   1      36.850  31.731  32.953  1.00  0.00     0.037 A 
ATOM     13  C   UNL A   1      37.721  32.780  35.392  1.00  0.00     0.003 A 
ATOM     14  C   UNL A   1      37.750  31.002  33.743  1.00  0.00     0.069 A 
ATOM     15  C   UNL A   1      38.180  31.532  34.967  1.00  0.00     0.028 A 
BRANCH  14  16
ATOM     16  N   UNL A   1      38.178  29.709  33.351  1.00  0.00    -0.201 N 
ATOM     17  C   UNL A   1      39.435  29.256  33.041  1.00  0.00     0.252 A 
ATOM     18  N   UNL A   1      37.316  28.674  33.209  1.00  0.00    -0.040 NA
ATOM     19  N   UNL A   1      39.367  27.988  32.704  1.00  0.00    -0.117 NA
ATOM     20  N   UNL A   1      38.046  27.646  32.800  1.00  0.00    -0.024 NA
ENDBRANCH  14  16
ENDBRANCH   8  10
ENDBRANCH   4   6
ENDBRANCH   3   4
ENDBRANCH   2   3
ENDBRANCH   1   2
BRANCH   1  21
ATOM     21  O   UNL A   1      34.404  32.176  28.738  1.00  0.00    -0.458 OA
BRANCH  21  22
ATOM     22  C   UNL A   1      34.366  30.920  28.225  1.00  0.00     0.338 C 
ATOM     23  O   UNL A   1      33.411  30.396  27.676  1.00  0.00    -0.246 OA
BRANCH  22  24
ATOM     24  C   UNL A   1      35.686  30.252  28.370  1.00  0.00     0.060 A 
ATOM     25  C   UNL A   1      36.194  29.925  29.624  1.00  0.00     0.016 A 
ATOM     26  C   UNL A   1      36.488  30.046  27.246  1.00  0.00     0.016 A 
ATOM     27  C   UNL A   1      37.539  29.564  29.767  1.00  0.00     0.010 A 
ATOM     28  C   UNL A   1      37.793  29.544  27.387  1.00  0.00     0.010 A 
ATOM     29  C   UNL A   1      38.370  29.352  28.655  1.00  0.00    -0.014 A 
BRANCH  29  30
ATOM     30  C   UNL A   1      39.824  28.990  28.807  1.00  0.00     0.031 A 
ATOM     31  C   UNL A   1      40.813  29.993  29.370  1.00  0.00     0.074 A 
ATOM     32  C   UNL A   1      40.298  27.769  28.470  1.00  0.00     0.049 A 
ATOM     33  N   UNL A   1      42.123  29.990  29.315  1.00  0.00    -0.248 NA
ATOM     34  C   UNL A   1      40.257  31.165  30.067  1.00  0.00     0.031 C 
ATOM     35  C   UNL A   1      39.505  26.653  27.951  1.00  0.00     0.029 A 
ATOM     36  N   UNL A   1      41.575  27.252  28.532  1.00  0.00    -0.354 N 
ATOM     37  C   UNL A   1      42.537  31.201  29.864  1.00  0.00     0.074 A 
ATOM     38  C   UNL A   1      41.340  31.902  30.276  1.00  0.00     0.031 C 
ATOM     39  C   UNL A   1      40.285  25.569  27.829  1.00  0.00     0.029 A 
ATOM     40  C   UNL A   1      41.663  25.940  28.122  1.00  0.00     0.049 A 
ATOM     41  H   UNL A   1      42.351  27.773  28.840  1.00  0.00     0.167 HD
ATOM     42  C   UNL A   1      43.796  31.689  30.000  1.00  0.00     0.037 A 
ATOM     43  C   UNL A   1      42.726  25.132  27.933  1.00  0.00     0.037 A 
ATOM     44  C   UNL A   1      44.995  30.946  29.701  1.00  0.00     0.049 A 
ATOM     45  C   UNL A   1      44.114  25.673  28.122  1.00  0.00     0.074 A 
ATOM     46  C   UNL A   1      46.313  31.354  29.818  1.00  0.00     0.029 A 
ATOM     47  N   UNL A   1      45.025  29.629  29.272  1.00  0.00    -0.354 N 
ATOM     48  N   UNL A   1      44.483  26.873  28.498  1.00  0.00    -0.248 NA
ATOM     49  C   UNL A   1      45.228  24.765  27.817  1.00  0.00     0.031 C 
ATOM     50  C   UNL A   1      47.141  30.288  29.443  1.00  0.00     0.029 A 
ATOM     51  C   UNL A   1      46.336  29.207  29.124  1.00  0.00     0.049 A 
ATOM     52  H   UNL A   1      44.231  29.073  29.097  1.00  0.00     0.167 HD
ATOM     53  C   UNL A   1      45.872  26.869  28.459  1.00  0.00     0.074 A 
ATOM     54  C   UNL A   1      46.278  25.538  28.055  1.00  0.00     0.031 C 
ATOM     55  C   UNL A   1      46.732  27.885  28.716  1.00  0.00     0.037 A 
BRANCH  42  56
ATOM     56  C   UNL A   1      43.953  33.116  30.453  1.00  0.00     0.058 A 
ATOM     57  C   UNL A   1      43.809  34.205  29.581  1.00  0.00     0.135 A 
ATOM     58  C   UNL A   1      44.205  33.394  31.808  1.00  0.00     0.135 A 
ATOM     59  F   UNL A   1      43.584  33.997  28.274  1.00  0.00    -0.206 F 
ATOM     60  C   UNL A   1      43.936  35.518  30.029  1.00  0.00     0.059 A 
ATOM     61  C   UNL A   1      44.311  34.697  32.283  1.00  0.00     0.059 A 
ATOM     62  F   UNL A   1      44.347  32.390  32.688  1.00  0.00    -0.206 F 
ATOM     63  C   UNL A   1      44.191  35.754  31.382  1.00  0.00     0.060 A 
BRANCH  63  64
ATOM     64  S   UNL A   1      44.357  37.459  31.956  1.00  0.00     0.124 S 
ATOM     65  O   UNL A   1      45.748  37.481  32.398  1.00  0.00    -0.237 OA
ATOM     66  O   UNL A   1      44.062  38.229  30.752  1.00  0.00    -0.237 OA
ATOM     67  O   UNL A   1      43.360  37.557  33.018  1.00  0.00    -0.744 OA
ENDBRANCH  63  64
ENDBRANCH  42  56
BRANCH  43  68
ATOM     68  C   UNL A   1      42.513  23.735  27.468  1.00  0.00     0.058 A 
ATOM     69  C   UNL A   1      42.473  23.428  26.100  1.00  0.00     0.135 A 
ATOM     70  C   UNL A   1      42.395  22.675  28.381  1.00  0.00     0.135 A 
ATOM     71  F   UNL A   1      42.561  24.409  25.189  1.00  0.00    -0.206 F 
ATOM     72  C   UNL A   1      42.340  22.117  25.653  1.00  0.00     0.059 A 
ATOM     73  C   UNL A   1      42.290  21.355  27.958  1.00  0.00     0.059 A 
ATOM     74  F   UNL A   1      42.434  22.917  29.700  1.00  0.00    -0.206 F 
ATOM     75  C   UNL A   1      42.261  21.085  26.590  1.00  0.00     0.060 A 
BRANCH  75  76
ATOM     76  S   UNL A   1      42.201  19.375  26.013  1.00  0.00     0.124 S 
ATOM     77  O   UNL A   1      40.775  19.201  25.762  1.00  0.00    -0.237 OA
ATOM     78  O   UNL A   1      43.059  19.412  24.833  1.00  0.00    -0.237 OA
ATOM     79  O   UNL A   1      42.741  18.626  27.144  1.00  0.00    -0.744 OA
ENDBRANCH  75  76
ENDBRANCH  43  68
BRANCH  55  80
ATOM     80  C   UNL A   1      48.197  27.592  28.579  1.00  0.00     0.058 A 
ATOM     81  C   UNL A   1      48.938  27.062  29.646  1.00  0.00     0.135 A 
ATOM     82  C   UNL A   1      48.863  27.822  27.365  1.00  0.00     0.135 A 
ATOM     83  F   UNL A   1      48.349  26.832  30.830  1.00  0.00    -0.206 F 
ATOM     84  C   UNL A   1      50.297  26.791  29.522  1.00  0.00     0.059 A 
ATOM     85  C   UNL A   1      50.217  27.541  27.213  1.00  0.00     0.059 A 
ATOM     86  F   UNL A   1      48.195  28.322  26.313  1.00  0.00    -0.206 F 
ATOM     87  C   UNL A   1      50.928  27.038  28.301  1.00  0.00     0.060 A 
BRANCH  87  88
ATOM     88  S   UNL A   1      52.690  26.670  28.145  1.00  0.00     0.124 S 
ATOM     89  O   UNL A   1      52.677  25.579  27.177  1.00  0.00    -0.237 OA
ATOM     90  O   UNL A   1      53.235  27.936  27.666  1.00  0.00    -0.237 OA
ATOM     91  O   UNL A   1      53.081  26.302  29.502  1.00  0.00    -0.744 OA
ENDBRANCH  87  88
ENDBRANCH  55  80
ENDBRANCH  29  30
ENDBRANCH  22  24
ENDBRANCH  21  22
ENDBRANCH   1  21
TORSDOF 16
ENDMDL
MODEL 2
REMARK VINA RESULT:     -11.0      6.207     12.721
REMARK SMILES C/C(=C(/F)C(=O)OCCOC(=O)c1ccc(-c2c3nc(c(-c4c(F)cc(S(=O)(=O)[O-])cc4F)c4ccc([nH]4)c(-c4c(F)cc(S(=O)(=O)[O-])cc4F)c4nc(c(-c5c(F)cc(S(=O)(=O)[O-])cc5F)c5ccc2[nH]5)C=C4)C=C3)cc1)c1cccc(-n2cnnn2)c1
REMARK SMILES IDX 9 1 8 2 7 3 5 4 6 5 3 6 1 7 2 8 4 9 79 10 80 11 89 12 81 13
REMARK SMILES IDX 83 14 82 15 84 16 85 17 88 18 86 19 87 20 10 21 11 22 12 23
REMARK SMILES IDX 13 24 14 25 78 26 15 27 77 28 16 29 17 30 18 31 71 32 19 33
REMARK SMILES IDX 76 34 70 35 72 36 20 37 75 38 69 39 68 40 21 42 55 43 34 44
REMARK SMILES IDX 54 45 35 46 38 47 53 48 73 49 36 50 37 51 52 53 74 54 39 55
REMARK SMILES IDX 22 56 23 57 32 58 24 59 25 60 31 61 33 62 26 63 27 64 28 65
REMARK SMILES IDX 29 66 30 67 56 68 57 69 66 70 58 71 59 72 65 73 67 74 60 75
REMARK SMILES IDX 61 76 62 77 63 78 64 79 40 80 41 81 50 82 42 83 43 84 49 85
REMARK SMILES IDX 51 86 44 87 45 88 46 89 47 90 48 91
REMARK H PARENT 72 41 38 52
REMARK Flexibility Score: inf
ROOT
ATOM      1  C   UNL A   1      39.574  21.786  26.113  1.00  0.00     0.275 C 
ENDROOT
BRANCH   1   2
ATOM      2  C   UNL A   1      38.201  21.824  25.443  1.00  0.00     0.275 C 
BRANCH   2   3
ATOM      3  O   UNL A   1      37.257  22.550  26.261  1.00  0.00    -0.457 OA
BRANCH   3   4
ATOM      4  C   UNL A   1      36.266  23.185  25.584  1.00  0.00     0.367 C 
ATOM      5  O   UNL A   1      36.120  24.398  25.511  1.00  0.00    -0.243 OA
BRANCH   4   6
ATOM      6  C   UNL A   1      35.363  22.200  24.935  1.00  0.00     0.211 C 
ATOM      7  C   UNL A   1      33.755  22.072  26.882  1.00  0.00     0.048 C 
ATOM      8  C   UNL A   1      34.273  21.675  25.526  1.00  0.00    -0.000 C 
ATOM      9  F   UNL A   1      35.736  21.825  23.690  1.00  0.00    -0.199 F 
BRANCH   8  10
ATOM     10  C   UNL A   1      33.488  20.566  24.938  1.00  0.00    -0.017 A 
ATOM     11  C   UNL A   1      32.671  20.815  23.829  1.00  0.00     0.008 A 
ATOM     12  C   UNL A   1      33.761  19.236  25.309  1.00  0.00     0.037 A 
ATOM     13  C   UNL A   1      32.177  19.757  23.067  1.00  0.00     0.003 A 
ATOM     14  C   UNL A   1      33.292  18.172  24.525  1.00  0.00     0.069 A 
ATOM     15  C   UNL A   1      32.502  18.440  23.400  1.00  0.00     0.028 A 
BRANCH  14  16
ATOM     16  N   UNL A   1      33.662  16.836  24.818  1.00  0.00    -0.201 N 
ATOM     17  C   UNL A   1      32.885  15.774  25.205  1.00  0.00     0.252 A 
ATOM     18  N   UNL A   1      34.946  16.412  24.760  1.00  0.00    -0.040 NA
ATOM     19  N   UNL A   1      33.651  14.724  25.396  1.00  0.00    -0.117 NA
ATOM     20  N   UNL A   1      34.927  15.139  25.129  1.00  0.00    -0.024 NA
ENDBRANCH  14  16
ENDBRANCH   8  10
ENDBRANCH   4   6
ENDBRANCH   3   4
ENDBRANCH   2   3
ENDBRANCH   1   2
BRANCH   1  21
ATOM     21  O   UNL A   1      39.702  22.899  27.014  1.00  0.00    -0.458 OA
BRANCH  21  22
ATOM     22  C   UNL A   1      40.800  23.680  26.849  1.00  0.00     0.338 C 
ATOM     23  O   UNL A   1      41.769  23.419  26.156  1.00  0.00    -0.246 OA
BRANCH  22  24
ATOM     24  C   UNL A   1      40.656  24.956  27.597  1.00  0.00     0.060 A 
ATOM     25  C   UNL A   1      41.682  25.896  27.622  1.00  0.00     0.016 A 
ATOM     26  C   UNL A   1      39.524  25.177  28.383  1.00  0.00     0.016 A 
ATOM     27  C   UNL A   1      41.652  26.946  28.546  1.00  0.00     0.010 A 
ATOM     28  C   UNL A   1      39.439  26.316  29.202  1.00  0.00     0.010 A 
ATOM     29  C   UNL A   1      40.528  27.193  29.350  1.00  0.00    -0.014 A 
BRANCH  29  30
ATOM     30  C   UNL A   1      40.504  28.306  30.365  1.00  0.00     0.031 A 
ATOM     31  C   UNL A   1      41.539  28.361  31.474  1.00  0.00     0.074 A 
ATOM     32  C   UNL A   1      39.587  29.298  30.320  1.00  0.00     0.049 A 
ATOM     33  N   UNL A   1      41.525  29.048  32.591  1.00  0.00    -0.248 NA
ATOM     34  C   UNL A   1      42.734  27.515  31.319  1.00  0.00     0.031 C 
ATOM     35  C   UNL A   1      38.536  29.451  29.311  1.00  0.00     0.029 A 
ATOM     36  N   UNL A   1      39.400  30.389  31.142  1.00  0.00    -0.354 N 
ATOM     37  C   UNL A   1      42.641  28.635  33.314  1.00  0.00     0.074 A 
ATOM     38  C   UNL A   1      43.329  27.660  32.496  1.00  0.00     0.031 C 
ATOM     39  C   UNL A   1      37.881  30.601  29.519  1.00  0.00     0.029 A 
ATOM     40  C   UNL A   1      38.362  31.206  30.754  1.00  0.00     0.049 A 
ATOM     41  H   UNL A   1      39.957  30.566  31.934  1.00  0.00     0.167 HD
ATOM     42  C   UNL A   1      43.048  29.023  34.549  1.00  0.00     0.037 A 
ATOM     43  C   UNL A   1      37.803  32.283  31.344  1.00  0.00     0.037 A 
ATOM     44  C   UNL A   1      42.433  30.078  35.315  1.00  0.00     0.049 A 
ATOM     45  C   UNL A   1      38.286  32.724  32.695  1.00  0.00     0.074 A 
ATOM     46  C   UNL A   1      42.783  30.547  36.571  1.00  0.00     0.029 A 
ATOM     47  N   UNL A   1      41.374  30.859  34.882  1.00  0.00    -0.354 N 
ATOM     48  N   UNL A   1      39.248  32.220  33.428  1.00  0.00    -0.248 NA
ATOM     49  C   UNL A   1      37.577  33.851  33.318  1.00  0.00     0.031 C 
ATOM     50  C   UNL A   1      41.924  31.602  36.903  1.00  0.00     0.029 A 
ATOM     51  C   UNL A   1      41.061  31.809  35.840  1.00  0.00     0.049 A 
ATOM     52  H   UNL A   1      40.912  30.755  34.018  1.00  0.00     0.167 HD
ATOM     53  C   UNL A   1      39.249  32.958  34.606  1.00  0.00     0.074 A 
ATOM     54  C   UNL A   1      38.215  33.964  34.475  1.00  0.00     0.031 C 
ATOM     55  C   UNL A   1      40.027  32.801  35.705  1.00  0.00     0.037 A 
BRANCH  42  56
ATOM     56  C   UNL A   1      44.190  28.273  35.182  1.00  0.00     0.058 A 
ATOM     57  C   UNL A   1      44.001  27.109  35.941  1.00  0.00     0.135 A 
ATOM     58  C   UNL A   1      45.510  28.710  34.976  1.00  0.00     0.135 A 
ATOM     59  F   UNL A   1      42.761  26.657  36.183  1.00  0.00    -0.206 F 
ATOM     60  C   UNL A   1      45.077  26.421  36.497  1.00  0.00     0.059 A 
ATOM     61  C   UNL A   1      46.601  28.026  35.500  1.00  0.00     0.059 A 
ATOM     62  F   UNL A   1      45.750  29.816  34.252  1.00  0.00    -0.206 F 
ATOM     63  C   UNL A   1      46.374  26.889  36.275  1.00  0.00     0.060 A 
BRANCH  63  64
ATOM     64  S   UNL A   1      47.764  25.992  37.000  1.00  0.00     0.124 S 
ATOM     65  O   UNL A   1      47.287  24.614  36.929  1.00  0.00    -0.237 OA
ATOM     66  O   UNL A   1      48.863  26.330  36.102  1.00  0.00    -0.237 OA
ATOM     67  O   UNL A   1      47.863  26.552  38.344  1.00  0.00    -0.744 OA
ENDBRANCH  63  64
ENDBRANCH  42  56
BRANCH  43  68
ATOM     68  C   UNL A   1      36.664  32.974  30.681  1.00  0.00     0.058 A 
ATOM     69  C   UNL A   1      35.347  32.788  31.127  1.00  0.00     0.135 A 
ATOM     70  C   UNL A   1      36.876  33.871  29.622  1.00  0.00     0.135 A 
ATOM     71  F   UNL A   1      35.092  31.926  32.122  1.00  0.00    -0.206 F 
ATOM     72  C   UNL A   1      34.283  33.480  30.558  1.00  0.00     0.059 A 
ATOM     73  C   UNL A   1      35.832  34.594  29.057  1.00  0.00     0.059 A 
ATOM     74  F   UNL A   1      38.119  34.088  29.163  1.00  0.00    -0.206 F 
ATOM     75  C   UNL A   1      34.537  34.390  29.531  1.00  0.00     0.060 A 
BRANCH  75  76
ATOM     76  S   UNL A   1      33.173  35.370  28.867  1.00  0.00     0.124 S 
ATOM     77  O   UNL A   1      32.517  35.824  30.087  1.00  0.00    -0.237 OA
ATOM     78  O   UNL A   1      33.869  36.394  28.095  1.00  0.00    -0.237 OA
ATOM     79  O   UNL A   1      32.427  34.399  28.070  1.00  0.00    -0.744 OA
ENDBRANCH  75  76
ENDBRANCH  43  68
BRANCH  55  80
ATOM     80  C   UNL A   1      39.795  33.746  36.848  1.00  0.00     0.058 A 
ATOM     81  C   UNL A   1      38.958  33.403  37.920  1.00  0.00     0.135 A 
ATOM     82  C   UNL A   1      40.431  34.996  36.883  1.00  0.00     0.135 A 
ATOM     83  F   UNL A   1      38.321  32.221  37.929  1.00  0.00    -0.206 F 
ATOM     84  C   UNL A   1      38.741  34.277  38.980  1.00  0.00     0.059 A 
ATOM     85  C   UNL A   1      40.242  35.880  37.941  1.00  0.00     0.059 A 
ATOM     86  F   UNL A   1      41.246  35.368  35.883  1.00  0.00    -0.206 F 
ATOM     87  C   UNL A   1      39.385  35.516  38.979  1.00  0.00     0.060 A 
BRANCH  87  88
ATOM     88  S   UNL A   1      39.107  36.640  40.365  1.00  0.00     0.124 S 
ATOM     89  O   UNL A   1      38.574  37.816  39.687  1.00  0.00    -0.237 OA
ATOM     90  O   UNL A   1      38.158  35.898  41.189  1.00  0.00    -0.237 OA
ATOM     91  O   UNL A   1      40.438  36.798  40.944  1.00  0.00    -0.744 OA
ENDBRANCH  87  88
ENDBRANCH  55  80
ENDBRANCH  29  30
ENDBRANCH  22  24
ENDBRANCH  21  22
ENDBRANCH   1  21
TORSDOF 16
ENDMDL
MODEL 3
REMARK VINA RESULT:     -10.8      4.465      6.323
REMARK SMILES C/C(=C(/F)C(=O)OCCOC(=O)c1ccc(-c2c3nc(c(-c4c(F)cc(S(=O)(=O)[O-])cc4F)c4ccc([nH]4)c(-c4c(F)cc(S(=O)(=O)[O-])cc4F)c4nc(c(-c5c(F)cc(S(=O)(=O)[O-])cc5F)c5ccc2[nH]5)C=C4)C=C3)cc1)c1cccc(-n2cnnn2)c1
REMARK SMILES IDX 9 1 8 2 7 3 5 4 6 5 3 6 1 7 2 8 4 9 79 10 80 11 89 12 81 13
REMARK SMILES IDX 83 14 82 15 84 16 85 17 88 18 86 19 87 20 10 21 11 22 12 23
REMARK SMILES IDX 13 24 14 25 78 26 15 27 77 28 16 29 17 30 18 31 71 32 19 33
REMARK SMILES IDX 76 34 70 35 72 36 20 37 75 38 69 39 68 40 21 42 55 43 34 44
REMARK SMILES IDX 54 45 35 46 38 47 53 48 73 49 36 50 37 51 52 53 74 54 39 55
REMARK SMILES IDX 22 56 23 57 32 58 24 59 25 60 31 61 33 62 26 63 27 64 28 65
REMARK SMILES IDX 29 66 30 67 56 68 57 69 66 70 58 71 59 72 65 73 67 74 60 75
REMARK SMILES IDX 61 76 62 77 63 78 64 79 40 80 41 81 50 82 42 83 43 84 49 85
REMARK SMILES IDX 51 86 44 87 45 88 46 89 47 90 48 91
REMARK H PARENT 72 41 38 52
REMARK Flexibility Score: inf
ROOT
ATOM      1  C   UNL A   1      33.653  30.591  27.643  1.00  0.00     0.275 C 
ENDROOT
BRANCH   1   2
ATOM      2  C   UNL A   1      33.316  29.955  26.294  1.00  0.00     0.275 C 
BRANCH   2   3
ATOM      3  O   UNL A   1      34.216  28.862  26.009  1.00  0.00    -0.457 OA
BRANCH   3   4
ATOM      4  C   UNL A   1      33.716  27.891  25.202  1.00  0.00     0.367 C 
ATOM      5  O   UNL A   1      34.167  26.759  25.090  1.00  0.00    -0.243 OA
BRANCH   4   6
ATOM      6  C   UNL A   1      32.534  28.392  24.454  1.00  0.00     0.211 C 
ATOM      7  C   UNL A   1      30.852  27.092  25.824  1.00  0.00     0.048 C 
ATOM      8  C   UNL A   1      31.268  28.005  24.703  1.00  0.00    -0.000 C 
ATOM      9  F   UNL A   1      32.821  29.256  23.455  1.00  0.00    -0.199 F 
BRANCH   8  10
ATOM     10  C   UNL A   1      30.125  28.373  23.838  1.00  0.00    -0.017 A 
ATOM     11  C   UNL A   1      29.076  27.463  23.661  1.00  0.00     0.008 A 
ATOM     12  C   UNL A   1      29.959  29.706  23.419  1.00  0.00     0.037 A 
ATOM     13  C   UNL A   1      27.859  27.887  23.127  1.00  0.00     0.003 A 
ATOM     14  C   UNL A   1      28.727  30.141  22.912  1.00  0.00     0.069 A 
ATOM     15  C   UNL A   1      27.676  29.224  22.772  1.00  0.00     0.028 A 
BRANCH  14  16
ATOM     16  N   UNL A   1      28.509  31.507  22.603  1.00  0.00    -0.201 N 
ATOM     17  C   UNL A   1      28.739  32.627  23.361  1.00  0.00     0.252 A 
ATOM     18  N   UNL A   1      27.988  31.906  21.420  1.00  0.00    -0.040 NA
ATOM     19  N   UNL A   1      28.365  33.690  22.687  1.00  0.00    -0.117 NA
ATOM     20  N   UNL A   1      27.889  33.226  21.492  1.00  0.00    -0.024 NA
ENDBRANCH  14  16
ENDBRANCH   8  10
ENDBRANCH   4   6
ENDBRANCH   3   4
ENDBRANCH   2   3
ENDBRANCH   1   2
BRANCH   1  21
ATOM     21  O   UNL A   1      34.730  29.866  28.262  1.00  0.00    -0.458 OA
BRANCH  21  22
ATOM     22  C   UNL A   1      35.761  30.612  28.732  1.00  0.00     0.338 C 
ATOM     23  O   UNL A   1      35.674  31.710  29.256  1.00  0.00    -0.246 OA
BRANCH  22  24
ATOM     24  C   UNL A   1      37.050  29.889  28.574  1.00  0.00     0.060 A 
ATOM     25  C   UNL A   1      37.664  29.266  29.656  1.00  0.00     0.016 A 
ATOM     26  C   UNL A   1      37.722  29.925  27.350  1.00  0.00     0.016 A 
ATOM     27  C   UNL A   1      38.995  28.841  29.562  1.00  0.00     0.010 A 
ATOM     28  C   UNL A   1      39.005  29.365  27.227  1.00  0.00     0.010 A 
ATOM     29  C   UNL A   1      39.695  28.866  28.346  1.00  0.00    -0.014 A 
BRANCH  29  30
ATOM     30  C   UNL A   1      41.136  28.436  28.249  1.00  0.00     0.031 A 
ATOM     31  C   UNL A   1      42.256  29.425  28.514  1.00  0.00     0.074 A 
ATOM     32  C   UNL A   1      41.485  27.165  27.945  1.00  0.00     0.049 A 
ATOM     33  N   UNL A   1      43.528  29.341  28.208  1.00  0.00    -0.248 NA
ATOM     34  C   UNL A   1      41.895  30.682  29.190  1.00  0.00     0.031 C 
ATOM     35  C   UNL A   1      40.562  26.056  27.697  1.00  0.00     0.029 A 
ATOM     36  N   UNL A   1      42.727  26.582  27.809  1.00  0.00    -0.354 N 
ATOM     37  C   UNL A   1      44.090  30.568  28.550  1.00  0.00     0.074 A 
ATOM     38  C   UNL A   1      43.027  31.370  29.115  1.00  0.00     0.031 C 
ATOM     39  C   UNL A   1      41.258  24.923  27.531  1.00  0.00     0.029 A 
ATOM     40  C   UNL A   1      42.681  25.237  27.517  1.00  0.00     0.049 A 
ATOM     41  H   UNL A   1      43.569  27.082  27.912  1.00  0.00     0.167 HD
ATOM     42  C   UNL A   1      45.369  30.993  28.394  1.00  0.00     0.037 A 
ATOM     43  C   UNL A   1      43.653  24.356  27.205  1.00  0.00     0.037 A 
ATOM     44  C   UNL A   1      46.455  30.159  27.942  1.00  0.00     0.049 A 
ATOM     45  C   UNL A   1      45.071  24.830  27.071  1.00  0.00     0.074 A 
ATOM     46  C   UNL A   1      47.786  30.499  27.764  1.00  0.00     0.029 A 
ATOM     47  N   UNL A   1      46.348  28.811  27.642  1.00  0.00    -0.354 N 
ATOM     48  N   UNL A   1      45.554  26.034  27.253  1.00  0.00    -0.248 NA
ATOM     49  C   UNL A   1      46.066  23.837  26.646  1.00  0.00     0.031 C 
ATOM     50  C   UNL A   1      48.481  29.359  27.340  1.00  0.00     0.029 A 
ATOM     51  C   UNL A   1      47.586  28.303  27.285  1.00  0.00     0.049 A 
ATOM     52  H   UNL A   1      45.513  28.289  27.677  1.00  0.00     0.167 HD
ATOM     53  C   UNL A   1      46.908  25.947  26.948  1.00  0.00     0.074 A 
ATOM     54  C   UNL A   1      47.173  24.566  26.602  1.00  0.00     0.031 C 
ATOM     55  C   UNL A   1      47.841  26.930  26.937  1.00  0.00     0.037 A 
BRANCH  42  56
ATOM     56  C   UNL A   1      45.669  32.442  28.670  1.00  0.00     0.058 A 
ATOM     57  C   UNL A   1      46.119  32.895  29.919  1.00  0.00     0.135 A 
ATOM     58  C   UNL A   1      45.547  33.389  27.638  1.00  0.00     0.135 A 
ATOM     59  F   UNL A   1      46.237  32.038  30.944  1.00  0.00    -0.206 F 
ATOM     60  C   UNL A   1      46.411  34.239  30.143  1.00  0.00     0.059 A 
ATOM     61  C   UNL A   1      45.857  34.731  27.831  1.00  0.00     0.059 A 
ATOM     62  F   UNL A   1      45.126  33.010  26.421  1.00  0.00    -0.206 F 
ATOM     63  C   UNL A   1      46.274  35.150  29.093  1.00  0.00     0.060 A 
BRANCH  63  64
ATOM     64  S   UNL A   1      46.653  36.891  29.391  1.00  0.00     0.124 S 
ATOM     65  O   UNL A   1      47.711  36.789  30.392  1.00  0.00    -0.237 OA
ATOM     66  O   UNL A   1      47.072  37.355  28.072  1.00  0.00    -0.237 OA
ATOM     67  O   UNL A   1      45.387  37.437  29.870  1.00  0.00    -0.744 OA
ENDBRANCH  63  64
ENDBRANCH  42  56
BRANCH  43  68
ATOM     68  C   UNL A   1      43.297  22.939  26.924  1.00  0.00     0.058 A 
ATOM     69  C   UNL A   1      43.350  22.426  25.620  1.00  0.00     0.135 A 
ATOM     70  C   UNL A   1      42.945  22.059  27.960  1.00  0.00     0.135 A 
ATOM     71  F   UNL A   1      43.660  23.232  24.594  1.00  0.00    -0.206 F 
ATOM     72  C   UNL A   1      43.083  21.086  25.354  1.00  0.00     0.059 A 
ATOM     73  C   UNL A   1      42.702  20.711  27.723  1.00  0.00     0.059 A 
ATOM     74  F   UNL A   1      42.887  22.500  29.226  1.00  0.00    -0.206 F 
ATOM     75  C   UNL A   1      42.771  20.234  26.415  1.00  0.00     0.060 A 
BRANCH  75  76
ATOM     76  S   UNL A   1      42.533  18.473  26.088  1.00  0.00     0.124 S 
ATOM     77  O   UNL A   1      41.118  18.429  25.741  1.00  0.00    -0.237 OA
ATOM     78  O   UNL A   1      43.468  18.229  24.994  1.00  0.00    -0.237 OA
ATOM     79  O   UNL A   1      42.894  17.850  27.358  1.00  0.00    -0.744 OA
ENDBRANCH  75  76
ENDBRANCH  43  68
BRANCH  55  80
ATOM     80  C   UNL A   1      49.238  26.542  26.550  1.00  0.00     0.058 A 
ATOM     81  C   UNL A   1      50.116  25.958  27.475  1.00  0.00     0.135 A 
ATOM     82  C   UNL A   1      49.697  26.736  25.237  1.00  0.00     0.135 A 
ATOM     83  F   UNL A   1      49.727  25.759  28.744  1.00  0.00    -0.206 F 
ATOM     84  C   UNL A   1      51.412  25.598  27.118  1.00  0.00     0.059 A 
ATOM     85  C   UNL A   1      50.983  26.368  24.854  1.00  0.00     0.059 A 
ATOM     86  F   UNL A   1      48.891  27.286  24.315  1.00  0.00    -0.206 F 
ATOM     87  C   UNL A   1      51.837  25.811  25.805  1.00  0.00     0.060 A 
BRANCH  87  88
ATOM     88  S   UNL A   1      53.517  25.330  25.347  1.00  0.00     0.124 S 
ATOM     89  O   UNL A   1      53.580  25.772  23.958  1.00  0.00    -0.237 OA
ATOM     90  O   UNL A   1      54.331  26.088  26.291  1.00  0.00    -0.237 OA
ATOM     91  O   UNL A   1      53.521  23.884  25.547  1.00  0.00    -0.744 OA
ENDBRANCH  87  88
ENDBRANCH  55  80
ENDBRANCH  29  30
ENDBRANCH  22  24
ENDBRANCH  21  22
ENDBRANCH   1  21
TORSDOF 16
ENDMDL
