MODEL 1
REMARK VINA RESULT:      -9.5      0.000      0.000
REMARK SMILES C[C@@H](CCCO)Nc1ccc(C(=O)OCCOC(=O)c2ccc(-c3c4nc(c(-c5c(F)cc(S(=O)(=O)[O-])cc5F)c5ccc([nH]5)c(-c5c(F)cc(S(=O)(=O)[O-])cc5F)c5nc(c(-c6c(F)cc(S(=O)(=O)[O-])cc6F)c6ccc3[nH]6)C=C5)C=C4)cc2)o1
REMARK SMILES IDX 14 1 12 2 13 3 11 4 8 5 9 6 86 7 10 8 7 9 2 11 1 12 3 13
REMARK SMILES IDX 4 14 5 15 6 16 15 18 16 19 17 20 18 21 19 22 20 23 21 24
REMARK SMILES IDX 85 25 22 26 84 27 23 28 24 29 25 30 78 31 26 32 83 33 77 34
REMARK SMILES IDX 79 35 27 36 82 37 76 38 75 39 28 41 62 42 41 43 61 44 42 45
REMARK SMILES IDX 45 46 60 47 80 48 43 49 44 50 59 52 81 53 46 54 29 55 30 56
REMARK SMILES IDX 39 57 31 58 32 59 38 60 40 61 33 62 34 63 35 64 36 65 37 66
REMARK SMILES IDX 63 67 64 68 73 69 65 70 66 71 72 72 74 73 67 74 68 75 69 76
REMARK SMILES IDX 70 77 71 78 47 79 48 80 57 81 49 82 50 83 56 84 58 85 51 86
REMARK SMILES IDX 52 87 53 88 54 89 55 90
REMARK H PARENT 7 10 6 17 79 40 45 51
REMARK Flexibility Score: inf
ROOT
ATOM      1  O   UNL A   1      42.310  19.658  26.469  1.00  0.00    -0.456 OA
ENDROOT
BRANCH   1   2
ATOM      2  C   UNL A   1      43.006  18.633  25.887  1.00  0.00     0.374 C 
ATOM      3  O   UNL A   1      42.571  17.501  25.754  1.00  0.00    -0.242 OA
BRANCH   2   4
ATOM      4  C   UNL A   1      44.282  19.100  25.398  1.00  0.00     0.214 A 
ATOM      5  C   UNL A   1      45.574  20.651  24.513  1.00  0.00     0.194 A 
ATOM      6  C   UNL A   1      46.392  19.578  24.769  1.00  0.00     0.070 A 
ATOM      7  O   UNL A   1      44.301  20.355  24.854  1.00  0.00    -0.434 OA
ATOM      8  C   UNL A   1      45.567  18.588  25.376  1.00  0.00     0.060 A 
BRANCH   5   9
ATOM      9  N   UNL A   1      45.740  21.895  24.036  1.00  0.00    -0.354 N 
ATOM     10  H   UNL A   1      46.018  22.018  23.100  1.00  0.00     0.163 HD
BRANCH   9  11
ATOM     11  C   UNL A   1      45.517  23.068  24.873  1.00  0.00     0.079 C 
ATOM     12  C   UNL A   1      46.655  24.063  24.628  1.00  0.00     0.031 C 
BRANCH  11  13
ATOM     13  C   UNL A   1      44.131  23.684  24.638  1.00  0.00     0.027 C 
BRANCH  13  14
ATOM     14  C   UNL A   1      43.062  23.467  25.718  1.00  0.00     0.030 C 
BRANCH  14  15
ATOM     15  C   UNL A   1      43.580  23.220  27.130  1.00  0.00     0.156 C 
BRANCH  15  16
ATOM     16  O   UNL A   1      43.594  21.831  27.425  1.00  0.00    -0.396 OA
ATOM     17  H   UNL A   1      42.691  21.532  27.616  1.00  0.00     0.210 HD
ENDBRANCH  15  16
ENDBRANCH  14  15
ENDBRANCH  13  14
ENDBRANCH  11  13
ENDBRANCH   9  11
ENDBRANCH   5   9
ENDBRANCH   2   4
ENDBRANCH   1   2
BRANCH   1  18
ATOM     18  C   UNL A   1      40.911  19.709  26.125  1.00  0.00     0.275 C 
BRANCH  18  19
ATOM     19  C   UNL A   1      40.199  20.912  26.759  1.00  0.00     0.275 C 
BRANCH  19  20
ATOM     20  O   UNL A   1      39.862  21.932  25.799  1.00  0.00    -0.458 OA
BRANCH  20  21
ATOM     21  C   UNL A   1      38.802  22.709  26.135  1.00  0.00     0.338 C 
ATOM     22  O   UNL A   1      37.628  22.376  26.109  1.00  0.00    -0.246 OA
BRANCH  21  23
ATOM     23  C   UNL A   1      39.256  24.003  26.682  1.00  0.00     0.060 A 
ATOM     24  C   UNL A   1      39.875  24.893  25.805  1.00  0.00     0.016 A 
ATOM     25  C   UNL A   1      39.156  24.315  28.042  1.00  0.00     0.016 A 
ATOM     26  C   UNL A   1      40.392  26.100  26.267  1.00  0.00     0.010 A 
ATOM     27  C   UNL A   1      39.691  25.525  28.512  1.00  0.00     0.010 A 
ATOM     28  C   UNL A   1      40.322  26.420  27.625  1.00  0.00    -0.014 A 
BRANCH  28  29
ATOM     29  C   UNL A   1      40.972  27.662  28.109  1.00  0.00     0.031 A 
ATOM     30  C   UNL A   1      42.465  27.809  28.019  1.00  0.00     0.074 A 
ATOM     31  C   UNL A   1      40.219  28.676  28.577  1.00  0.00     0.049 A 
ATOM     32  N   UNL A   1      43.222  28.806  28.397  1.00  0.00    -0.248 NA
ATOM     33  C   UNL A   1      43.207  26.684  27.427  1.00  0.00     0.031 C 
ATOM     34  C   UNL A   1      38.760  28.664  28.686  1.00  0.00     0.029 A 
ATOM     35  N   UNL A   1      40.579  29.915  29.050  1.00  0.00    -0.354 N 
ATOM     36  C   UNL A   1      44.526  28.426  28.110  1.00  0.00     0.074 A 
ATOM     37  C   UNL A   1      44.462  27.099  27.532  1.00  0.00     0.031 C 
ATOM     38  C   UNL A   1      38.349  29.835  29.202  1.00  0.00     0.029 A 
ATOM     39  C   UNL A   1      39.515  30.669  29.485  1.00  0.00     0.049 A 
ATOM     40  H   UNL A   1      41.510  30.232  29.075  1.00  0.00     0.167 HD
ATOM     41  C   UNL A   1      45.673  29.119  28.308  1.00  0.00     0.037 A 
ATOM     42  C   UNL A   1      39.486  31.885  30.063  1.00  0.00     0.037 A 
ATOM     43  C   UNL A   1      45.731  30.451  28.854  1.00  0.00     0.049 A 
ATOM     44  C   UNL A   1      40.775  32.634  30.272  1.00  0.00     0.074 A 
ATOM     45  C   UNL A   1      46.845  31.246  29.066  1.00  0.00     0.029 A 
ATOM     46  N   UNL A   1      44.633  31.186  29.272  1.00  0.00    -0.354 N 
ATOM     47  N   UNL A   1      41.999  32.266  29.977  1.00  0.00    -0.248 NA
ATOM     48  C   UNL A   1      40.681  33.967  30.887  1.00  0.00     0.031 C 
ATOM     49  C   UNL A   1      46.424  32.449  29.640  1.00  0.00     0.029 A 
ATOM     50  C   UNL A   1      45.043  32.419  29.751  1.00  0.00     0.049 A 
ATOM     51  H   UNL A   1      43.699  30.877  29.234  1.00  0.00     0.167 HD
ATOM     52  C   UNL A   1      42.816  33.329  30.347  1.00  0.00     0.074 A 
ATOM     53  C   UNL A   1      41.948  34.359  30.877  1.00  0.00     0.031 C 
ATOM     54  C   UNL A   1      44.164  33.442  30.258  1.00  0.00     0.037 A 
BRANCH  41  55
ATOM     55  C   UNL A   1      46.969  28.452  27.952  1.00  0.00     0.058 A 
ATOM     56  C   UNL A   1      47.674  27.665  28.874  1.00  0.00     0.135 A 
ATOM     57  C   UNL A   1      47.477  28.546  26.646  1.00  0.00     0.135 A 
ATOM     58  F   UNL A   1      47.238  27.556  30.140  1.00  0.00    -0.206 F 
ATOM     59  C   UNL A   1      48.842  26.999  28.518  1.00  0.00     0.059 A 
ATOM     60  C   UNL A   1      48.633  27.872  26.262  1.00  0.00     0.059 A 
ATOM     61  F   UNL A   1      46.842  29.290  25.725  1.00  0.00    -0.206 F 
ATOM     62  C   UNL A   1      49.313  27.106  27.207  1.00  0.00     0.060 A 
BRANCH  62  63
ATOM     63  S   UNL A   1      50.809  26.207  26.746  1.00  0.00     0.124 S 
ATOM     64  O   UNL A   1      50.530  24.880  27.285  1.00  0.00    -0.237 OA
ATOM     65  O   UNL A   1      50.805  26.314  25.290  1.00  0.00    -0.237 OA
ATOM     66  O   UNL A   1      51.871  26.947  27.421  1.00  0.00    -0.744 OA
ENDBRANCH  62  63
ENDBRANCH  41  55
BRANCH  42  67
ATOM     67  C   UNL A   1      38.192  32.468  30.508  1.00  0.00     0.058 A 
ATOM     68  C   UNL A   1      37.402  33.237  29.641  1.00  0.00     0.135 A 
ATOM     69  C   UNL A   1      37.732  32.279  31.819  1.00  0.00     0.135 A 
ATOM     70  F   UNL A   1      37.804  33.453  28.380  1.00  0.00    -0.206 F 
ATOM     71  C   UNL A   1      36.212  33.820  30.066  1.00  0.00     0.059 A 
ATOM     72  C   UNL A   1      36.534  32.831  32.261  1.00  0.00     0.059 A 
ATOM     73  F   UNL A   1      38.446  31.540  32.683  1.00  0.00    -0.206 F 
ATOM     74  C   UNL A   1      35.788  33.613  31.380  1.00  0.00     0.060 A 
BRANCH  74  75
ATOM     75  S   UNL A   1      34.229  34.347  31.921  1.00  0.00     0.124 S 
ATOM     76  O   UNL A   1      33.687  33.290  32.768  1.00  0.00    -0.237 OA
ATOM     77  O   UNL A   1      34.674  35.553  32.611  1.00  0.00    -0.237 OA
ATOM     78  O   UNL A   1      33.517  34.579  30.667  1.00  0.00    -0.744 OA
ENDBRANCH  74  75
ENDBRANCH  42  67
BRANCH  54  79
ATOM     79  C   UNL A   1      44.780  34.738  30.700  1.00  0.00     0.058 A 
ATOM     80  C   UNL A   1      44.935  35.819  29.819  1.00  0.00     0.135 A 
ATOM     81  C   UNL A   1      45.181  34.914  32.034  1.00  0.00     0.135 A 
ATOM     82  F   UNL A   1      44.571  35.699  28.532  1.00  0.00    -0.206 F 
ATOM     83  C   UNL A   1      45.488  37.024  30.239  1.00  0.00     0.059 A 
ATOM     84  C   UNL A   1      45.717  36.117  32.481  1.00  0.00     0.059 A 
ATOM     85  F   UNL A   1      45.044  33.914  32.918  1.00  0.00    -0.206 F 
ATOM     86  C   UNL A   1      45.880  37.163  31.573  1.00  0.00     0.060 A 
BRANCH  86  87
ATOM     87  S   UNL A   1      46.577  38.737  32.117  1.00  0.00     0.124 S 
ATOM     88  O   UNL A   1      47.067  39.290  30.859  1.00  0.00    -0.237 OA
ATOM     89  O   UNL A   1      45.420  39.412  32.698  1.00  0.00    -0.237 OA
ATOM     90  O   UNL A   1      47.606  38.339  33.073  1.00  0.00    -0.744 OA
ENDBRANCH  86  87
ENDBRANCH  54  79
ENDBRANCH  28  29
ENDBRANCH  21  23
ENDBRANCH  20  21
ENDBRANCH  19  20
ENDBRANCH  18  19
ENDBRANCH   1  18
TORSDOF 20
ENDMDL
MODEL 2
REMARK VINA RESULT:      -9.1      5.346      7.305
REMARK SMILES C[C@@H](CCCO)Nc1ccc(C(=O)OCCOC(=O)c2ccc(-c3c4nc(c(-c5c(F)cc(S(=O)(=O)[O-])cc5F)c5ccc([nH]5)c(-c5c(F)cc(S(=O)(=O)[O-])cc5F)c5nc(c(-c6c(F)cc(S(=O)(=O)[O-])cc6F)c6ccc3[nH]6)C=C5)C=C4)cc2)o1
REMARK SMILES IDX 14 1 12 2 13 3 11 4 8 5 9 6 86 7 10 8 7 9 2 11 1 12 3 13
REMARK SMILES IDX 4 14 5 15 6 16 15 18 16 19 17 20 18 21 19 22 20 23 21 24
REMARK SMILES IDX 85 25 22 26 84 27 23 28 24 29 25 30 78 31 26 32 83 33 77 34
REMARK SMILES IDX 79 35 27 36 82 37 76 38 75 39 28 41 62 42 41 43 61 44 42 45
REMARK SMILES IDX 45 46 60 47 80 48 43 49 44 50 59 52 81 53 46 54 29 55 30 56
REMARK SMILES IDX 39 57 31 58 32 59 38 60 40 61 33 62 34 63 35 64 36 65 37 66
REMARK SMILES IDX 63 67 64 68 73 69 65 70 66 71 72 72 74 73 67 74 68 75 69 76
REMARK SMILES IDX 70 77 71 78 47 79 48 80 57 81 49 82 50 83 56 84 58 85 51 86
REMARK SMILES IDX 52 87 53 88 54 89 55 90
REMARK H PARENT 7 10 6 17 79 40 45 51
REMARK Flexibility Score: inf
ROOT
ATOM      1  O   UNL A   1      41.122  21.745  26.868  1.00  0.00    -0.456 OA
ENDROOT
BRANCH   1   2
ATOM      2  C   UNL A   1      40.091  21.043  26.303  1.00  0.00     0.374 C 
ATOM      3  O   UNL A   1      40.101  19.836  26.129  1.00  0.00    -0.242 OA
BRANCH   2   4
ATOM      4  C   UNL A   1      38.980  21.919  26.014  1.00  0.00     0.214 A 
ATOM      5  C   UNL A   1      36.951  22.292  25.238  1.00  0.00     0.194 A 
ATOM      6  C   UNL A   1      37.390  23.492  25.740  1.00  0.00     0.070 A 
ATOM      7  O   UNL A   1      37.916  21.355  25.366  1.00  0.00    -0.434 OA
ATOM      8  C   UNL A   1      38.686  23.245  26.277  1.00  0.00     0.060 A 
BRANCH   5   9
ATOM      9  N   UNL A   1      35.815  21.839  24.683  1.00  0.00    -0.354 N 
ATOM     10  H   UNL A   1      35.661  21.976  23.721  1.00  0.00     0.163 HD
BRANCH   9  11
ATOM     11  C   UNL A   1      34.804  21.147  25.474  1.00  0.00     0.079 C 
ATOM     12  C   UNL A   1      34.718  21.819  26.847  1.00  0.00     0.031 C 
BRANCH  11  13
ATOM     13  C   UNL A   1      33.450  21.097  24.754  1.00  0.00     0.027 C 
BRANCH  13  14
ATOM     14  C   UNL A   1      32.855  19.714  24.450  1.00  0.00     0.030 C 
BRANCH  14  15
ATOM     15  C   UNL A   1      33.351  18.567  25.324  1.00  0.00     0.156 C 
BRANCH  15  16
ATOM     16  O   UNL A   1      32.564  18.453  26.500  1.00  0.00    -0.396 OA
ATOM     17  H   UNL A   1      33.014  17.873  27.135  1.00  0.00     0.210 HD
ENDBRANCH  15  16
ENDBRANCH  14  15
ENDBRANCH  13  14
ENDBRANCH  11  13
ENDBRANCH   9  11
ENDBRANCH   5   9
ENDBRANCH   2   4
ENDBRANCH   1   2
BRANCH   1  18
ATOM     18  C   UNL A   1      42.393  21.587  26.206  1.00  0.00     0.275 C 
BRANCH  18  19
ATOM     19  C   UNL A   1      42.781  22.825  25.386  1.00  0.00     0.275 C 
BRANCH  19  20
ATOM     20  O   UNL A   1      42.023  23.996  25.749  1.00  0.00    -0.458 OA
BRANCH  20  21
ATOM     21  C   UNL A   1      42.738  25.148  25.804  1.00  0.00     0.338 C 
ATOM     22  O   UNL A   1      43.583  25.510  25.001  1.00  0.00    -0.246 OA
BRANCH  21  23
ATOM     23  C   UNL A   1      42.263  26.003  26.909  1.00  0.00     0.060 A 
ATOM     24  C   UNL A   1      42.873  27.247  27.070  1.00  0.00     0.016 A 
ATOM     25  C   UNL A   1      41.298  25.572  27.825  1.00  0.00     0.016 A 
ATOM     26  C   UNL A   1      42.525  28.075  28.134  1.00  0.00     0.010 A 
ATOM     27  C   UNL A   1      40.958  26.399  28.908  1.00  0.00     0.010 A 
ATOM     28  C   UNL A   1      41.580  27.653  29.072  1.00  0.00    -0.014 A 
BRANCH  28  29
ATOM     29  C   UNL A   1      41.303  28.506  30.254  1.00  0.00     0.031 A 
ATOM     30  C   UNL A   1      42.142  28.363  31.493  1.00  0.00     0.074 A 
ATOM     31  C   UNL A   1      40.338  29.444  30.194  1.00  0.00     0.049 A 
ATOM     32  N   UNL A   1      42.053  29.004  32.629  1.00  0.00    -0.248 NA
ATOM     33  C   UNL A   1      43.224  27.366  31.449  1.00  0.00     0.031 C 
ATOM     34  C   UNL A   1      39.477  29.697  29.038  1.00  0.00     0.029 A 
ATOM     35  N   UNL A   1      39.918  30.358  31.130  1.00  0.00    -0.354 N 
ATOM     36  C   UNL A   1      43.049  28.478  33.442  1.00  0.00     0.074 A 
ATOM     37  C   UNL A   1      43.728  27.457  32.672  1.00  0.00     0.031 C 
ATOM     38  C   UNL A   1      38.625  30.693  29.336  1.00  0.00     0.029 A 
ATOM     39  C   UNL A   1      38.861  31.130  30.710  1.00  0.00     0.049 A 
ATOM     40  H   UNL A   1      40.333  30.450  32.017  1.00  0.00     0.167 HD
ATOM     41  C   UNL A   1      43.370  28.817  34.714  1.00  0.00     0.037 A 
ATOM     42  C   UNL A   1      38.152  32.069  31.366  1.00  0.00     0.037 A 
ATOM     43  C   UNL A   1      42.712  29.854  35.467  1.00  0.00     0.049 A 
ATOM     44  C   UNL A   1      38.528  32.425  32.780  1.00  0.00     0.074 A 
ATOM     45  C   UNL A   1      42.986  30.288  36.753  1.00  0.00     0.029 A 
ATOM     46  N   UNL A   1      41.655  30.621  35.005  1.00  0.00    -0.354 N 
ATOM     47  N   UNL A   1      39.485  31.931  33.527  1.00  0.00    -0.248 NA
ATOM     48  C   UNL A   1      37.733  33.474  33.438  1.00  0.00     0.031 C 
ATOM     49  C   UNL A   1      42.074  31.297  37.080  1.00  0.00     0.029 A 
ATOM     50  C   UNL A   1      41.258  31.518  35.983  1.00  0.00     0.049 A 
ATOM     51  H   UNL A   1      41.246  30.541  34.112  1.00  0.00     0.167 HD
ATOM     52  C   UNL A   1      39.423  32.621  34.732  1.00  0.00     0.074 A 
ATOM     53  C   UNL A   1      38.343  33.577  34.611  1.00  0.00     0.031 C 
ATOM     54  C   UNL A   1      40.191  32.477  35.840  1.00  0.00     0.037 A 
BRANCH  41  55
ATOM     55  C   UNL A   1      44.468  28.050  35.390  1.00  0.00     0.058 A 
ATOM     56  C   UNL A   1      45.800  28.490  35.367  1.00  0.00     0.135 A 
ATOM     57  C   UNL A   1      44.171  26.894  36.129  1.00  0.00     0.135 A 
ATOM     58  F   UNL A   1      46.138  29.582  34.662  1.00  0.00    -0.206 F 
ATOM     59  C   UNL A   1      46.802  27.807  36.049  1.00  0.00     0.059 A 
ATOM     60  C   UNL A   1      45.155  26.206  36.835  1.00  0.00     0.059 A 
ATOM     61  F   UNL A   1      42.913  26.428  36.180  1.00  0.00    -0.206 F 
ATOM     62  C   UNL A   1      46.469  26.667  36.783  1.00  0.00     0.060 A 
BRANCH  62  63
ATOM     63  S   UNL A   1      47.771  25.810  37.694  1.00  0.00     0.124 S 
ATOM     64  O   UNL A   1      47.446  26.166  39.072  1.00  0.00    -0.237 OA
ATOM     65  O   UNL A   1      47.546  24.415  37.329  1.00  0.00    -0.237 OA
ATOM     66  O   UNL A   1      48.998  26.401  37.168  1.00  0.00    -0.744 OA
ENDBRANCH  62  63
ENDBRANCH  41  55
BRANCH  42  67
ATOM     67  C   UNL A   1      36.995  32.727  30.703  1.00  0.00     0.058 A 
ATOM     68  C   UNL A   1      35.677  32.323  30.963  1.00  0.00     0.135 A 
ATOM     69  C   UNL A   1      37.191  33.764  29.778  1.00  0.00     0.135 A 
ATOM     70  F   UNL A   1      35.440  31.329  31.833  1.00  0.00    -0.206 F 
ATOM     71  C   UNL A   1      34.595  32.907  30.312  1.00  0.00     0.059 A 
ATOM     72  C   UNL A   1      36.124  34.380  29.133  1.00  0.00     0.059 A 
ATOM     73  F   UNL A   1      38.432  34.196  29.504  1.00  0.00    -0.206 F 
ATOM     74  C   UNL A   1      34.830  33.933  29.396  1.00  0.00     0.060 A 
BRANCH  74  75
ATOM     75  S   UNL A   1      33.421  34.709  28.573  1.00  0.00     0.124 S 
ATOM     76  O   UNL A   1      32.525  34.954  29.697  1.00  0.00    -0.237 OA
ATOM     77  O   UNL A   1      34.025  35.891  27.968  1.00  0.00    -0.237 OA
ATOM     78  O   UNL A   1      32.983  33.686  27.627  1.00  0.00    -0.744 OA
ENDBRANCH  74  75
ENDBRANCH  42  67
BRANCH  54  79
ATOM     79  C   UNL A   1      39.922  33.401  36.993  1.00  0.00     0.058 A 
ATOM     80  C   UNL A   1      38.986  33.084  37.989  1.00  0.00     0.135 A 
ATOM     81  C   UNL A   1      40.642  34.599  37.124  1.00  0.00     0.135 A 
ATOM     82  F   UNL A   1      38.269  31.952  37.906  1.00  0.00    -0.206 F 
ATOM     83  C   UNL A   1      38.755  33.934  39.065  1.00  0.00     0.059 A 
ATOM     84  C   UNL A   1      40.443  35.455  38.203  1.00  0.00     0.059 A 
ATOM     85  F   UNL A   1      41.557  34.942  36.204  1.00  0.00    -0.206 F 
ATOM     86  C   UNL A   1      39.487  35.121  39.162  1.00  0.00     0.060 A 
BRANCH  86  87
ATOM     87  S   UNL A   1      39.199  36.209  40.573  1.00  0.00     0.124 S 
ATOM     88  O   UNL A   1      38.035  35.584  41.192  1.00  0.00    -0.237 OA
ATOM     89  O   UNL A   1      40.449  36.099  41.319  1.00  0.00    -0.237 OA
ATOM     90  O   UNL A   1      38.960  37.510  39.954  1.00  0.00    -0.744 OA
ENDBRANCH  86  87
ENDBRANCH  54  79
ENDBRANCH  28  29
ENDBRANCH  21  23
ENDBRANCH  20  21
ENDBRANCH  19  20
ENDBRANCH  18  19
ENDBRANCH   1  18
TORSDOF 20
ENDMDL
MODEL 3
REMARK VINA RESULT:      -9.0      3.904     11.109
REMARK SMILES C[C@@H](CCCO)Nc1ccc(C(=O)OCCOC(=O)c2ccc(-c3c4nc(c(-c5c(F)cc(S(=O)(=O)[O-])cc5F)c5ccc([nH]5)c(-c5c(F)cc(S(=O)(=O)[O-])cc5F)c5nc(c(-c6c(F)cc(S(=O)(=O)[O-])cc6F)c6ccc3[nH]6)C=C5)C=C4)cc2)o1
REMARK SMILES IDX 14 1 12 2 13 3 11 4 8 5 9 6 86 7 10 8 7 9 2 11 1 12 3 13
REMARK SMILES IDX 4 14 5 15 6 16 15 18 16 19 17 20 18 21 19 22 20 23 21 24
REMARK SMILES IDX 85 25 22 26 84 27 23 28 24 29 25 30 78 31 26 32 83 33 77 34
REMARK SMILES IDX 79 35 27 36 82 37 76 38 75 39 28 41 62 42 41 43 61 44 42 45
REMARK SMILES IDX 45 46 60 47 80 48 43 49 44 50 59 52 81 53 46 54 29 55 30 56
REMARK SMILES IDX 39 57 31 58 32 59 38 60 40 61 33 62 34 63 35 64 36 65 37 66
REMARK SMILES IDX 63 67 64 68 73 69 65 70 66 71 72 72 74 73 67 74 68 75 69 76
REMARK SMILES IDX 70 77 71 78 47 79 48 80 57 81 49 82 50 83 56 84 58 85 51 86
REMARK SMILES IDX 52 87 53 88 54 89 55 90
REMARK H PARENT 7 10 6 17 79 40 45 51
REMARK Flexibility Score: inf
ROOT
ATOM      1  O   UNL A   1      34.795  33.212  28.706  1.00  0.00    -0.456 OA
ENDROOT
BRANCH   1   2
ATOM      2  C   UNL A   1      33.700  32.765  28.017  1.00  0.00     0.374 C 
ATOM      3  O   UNL A   1      32.787  33.484  27.644  1.00  0.00    -0.242 OA
BRANCH   2   4
ATOM      4  C   UNL A   1      33.817  31.353  27.738  1.00  0.00     0.214 A 
ATOM      5  C   UNL A   1      32.954  29.410  27.155  1.00  0.00     0.194 A 
ATOM      6  C   UNL A   1      34.303  29.197  27.302  1.00  0.00     0.070 A 
ATOM      7  O   UNL A   1      32.653  30.693  27.452  1.00  0.00    -0.434 OA
ATOM      8  C   UNL A   1      34.868  30.459  27.642  1.00  0.00     0.060 A 
BRANCH   5   9
ATOM      9  N   UNL A   1      31.899  28.671  26.778  1.00  0.00    -0.354 N 
ATOM     10  H   UNL A   1      31.056  28.744  27.279  1.00  0.00     0.163 HD
BRANCH   9  11
ATOM     11  C   UNL A   1      31.973  27.762  25.640  1.00  0.00     0.079 C 
ATOM     12  C   UNL A   1      31.865  26.325  26.158  1.00  0.00     0.031 C 
BRANCH  11  13
ATOM     13  C   UNL A   1      30.917  28.088  24.576  1.00  0.00     0.027 C 
BRANCH  13  14
ATOM     14  C   UNL A   1      31.413  28.505  23.183  1.00  0.00     0.030 C 
BRANCH  14  15
ATOM     15  C   UNL A   1      30.332  28.854  22.167  1.00  0.00     0.156 C 
BRANCH  15  16
ATOM     16  O   UNL A   1      30.691  30.011  21.427  1.00  0.00    -0.396 OA
ATOM     17  H   UNL A   1      30.190  30.774  21.756  1.00  0.00     0.210 HD
ENDBRANCH  15  16
ENDBRANCH  14  15
ENDBRANCH  13  14
ENDBRANCH  11  13
ENDBRANCH   9  11
ENDBRANCH   5   9
ENDBRANCH   2   4
ENDBRANCH   1   2
BRANCH   1  18
ATOM     18  C   UNL A   1      34.552  33.513  30.094  1.00  0.00     0.275 C 
BRANCH  18  19
ATOM     19  C   UNL A   1      35.218  32.499  31.035  1.00  0.00     0.275 C 
BRANCH  19  20
ATOM     20  O   UNL A   1      36.406  31.910  30.472  1.00  0.00    -0.458 OA
BRANCH  20  21
ATOM     21  C   UNL A   1      36.789  30.737  31.037  1.00  0.00     0.338 C 
ATOM     22  O   UNL A   1      36.155  30.092  31.857  1.00  0.00    -0.246 OA
BRANCH  21  23
ATOM     23  C   UNL A   1      38.040  30.248  30.427  1.00  0.00     0.060 A 
ATOM     24  C   UNL A   1      39.046  29.804  31.284  1.00  0.00     0.016 A 
ATOM     25  C   UNL A   1      38.266  30.295  29.047  1.00  0.00     0.016 A 
ATOM     26  C   UNL A   1      40.279  29.397  30.781  1.00  0.00     0.010 A 
ATOM     27  C   UNL A   1      39.514  29.900  28.540  1.00  0.00     0.010 A 
ATOM     28  C   UNL A   1      40.531  29.458  29.409  1.00  0.00    -0.014 A 
BRANCH  28  29
ATOM     29  C   UNL A   1      41.886  29.119  28.907  1.00  0.00     0.031 A 
ATOM     30  C   UNL A   1      42.169  27.733  28.398  1.00  0.00     0.074 A 
ATOM     31  C   UNL A   1      42.842  30.066  28.859  1.00  0.00     0.049 A 
ATOM     32  N   UNL A   1      43.285  27.237  27.931  1.00  0.00    -0.248 NA
ATOM     33  C   UNL A   1      41.049  26.778  28.417  1.00  0.00     0.031 C 
ATOM     34  C   UNL A   1      42.678  31.453  29.297  1.00  0.00     0.029 A 
ATOM     35  N   UNL A   1      44.142  30.006  28.419  1.00  0.00    -0.354 N 
ATOM     36  C   UNL A   1      43.012  25.911  27.620  1.00  0.00     0.074 A 
ATOM     37  C   UNL A   1      41.624  25.675  27.959  1.00  0.00     0.031 C 
ATOM     38  C   UNL A   1      43.836  32.110  29.113  1.00  0.00     0.029 A 
ATOM     39  C   UNL A   1      44.830  31.186  28.571  1.00  0.00     0.049 A 
ATOM     40  H   UNL A   1      44.543  29.195  28.033  1.00  0.00     0.167 HD
ATOM     41  C   UNL A   1      43.842  24.976  27.097  1.00  0.00     0.037 A 
ATOM     42  C   UNL A   1      46.120  31.483  28.318  1.00  0.00     0.037 A 
ATOM     43  C   UNL A   1      45.214  25.223  26.733  1.00  0.00     0.049 A 
ATOM     44  C   UNL A   1      47.021  30.425  27.739  1.00  0.00     0.074 A 
ATOM     45  C   UNL A   1      46.125  24.345  26.170  1.00  0.00     0.029 A 
ATOM     46  N   UNL A   1      45.871  26.432  26.890  1.00  0.00    -0.354 N 
ATOM     47  N   UNL A   1      46.740  29.181  27.433  1.00  0.00    -0.248 NA
ATOM     48  C   UNL A   1      48.413  30.812  27.462  1.00  0.00     0.031 C 
ATOM     49  C   UNL A   1      47.343  25.015  26.015  1.00  0.00     0.029 A 
ATOM     50  C   UNL A   1      47.178  26.321  26.446  1.00  0.00     0.049 A 
ATOM     51  H   UNL A   1      45.468  27.250  27.262  1.00  0.00     0.167 HD
ATOM     52  C   UNL A   1      47.911  28.644  26.908  1.00  0.00     0.074 A 
ATOM     53  C   UNL A   1      48.900  29.701  26.925  1.00  0.00     0.031 C 
ATOM     54  C   UNL A   1      48.146  27.389  26.453  1.00  0.00     0.037 A 
BRANCH  41  55
ATOM     55  C   UNL A   1      43.304  23.589  26.902  1.00  0.00     0.058 A 
ATOM     56  C   UNL A   1      43.064  23.062  25.625  1.00  0.00     0.135 A 
ATOM     57  C   UNL A   1      43.091  22.752  28.009  1.00  0.00     0.135 A 
ATOM     58  F   UNL A   1      43.236  23.827  24.535  1.00  0.00    -0.206 F 
ATOM     59  C   UNL A   1      42.624  21.753  25.451  1.00  0.00     0.059 A 
ATOM     60  C   UNL A   1      42.671  21.433  27.857  1.00  0.00     0.059 A 
ATOM     61  F   UNL A   1      43.303  23.209  29.254  1.00  0.00    -0.206 F 
ATOM     62  C   UNL A   1      42.433  20.945  26.574  1.00  0.00     0.060 A 
BRANCH  62  63
ATOM     63  S   UNL A   1      41.899  19.237  26.333  1.00  0.00     0.124 S 
ATOM     64  O   UNL A   1      40.450  19.393  26.252  1.00  0.00    -0.237 OA
ATOM     65  O   UNL A   1      42.568  18.870  25.089  1.00  0.00    -0.237 OA
ATOM     66  O   UNL A   1      42.390  18.556  27.528  1.00  0.00    -0.744 OA
ENDBRANCH  62  63
ENDBRANCH  41  55
BRANCH  42  67
ATOM     67  C   UNL A   1      46.647  32.837  28.632  1.00  0.00     0.058 A 
ATOM     68  C   UNL A   1      47.161  33.144  29.900  1.00  0.00     0.135 A 
ATOM     69  C   UNL A   1      46.630  33.857  27.668  1.00  0.00     0.135 A 
ATOM     70  F   UNL A   1      47.190  32.205  30.858  1.00  0.00    -0.206 F 
ATOM     71  C   UNL A   1      47.616  34.422  30.211  1.00  0.00     0.059 A 
ATOM     72  C   UNL A   1      47.102  35.135  27.947  1.00  0.00     0.059 A 
ATOM     73  F   UNL A   1      46.160  33.609  26.435  1.00  0.00    -0.206 F 
ATOM     74  C   UNL A   1      47.579  35.412  29.228  1.00  0.00     0.060 A 
BRANCH  74  75
ATOM     75  S   UNL A   1      48.196  37.062  29.625  1.00  0.00     0.124 S 
ATOM     76  O   UNL A   1      47.583  37.865  28.573  1.00  0.00    -0.237 OA
ATOM     77  O   UNL A   1      47.679  37.272  30.973  1.00  0.00    -0.237 OA
ATOM     78  O   UNL A   1      49.646  36.905  29.537  1.00  0.00    -0.744 OA
ENDBRANCH  74  75
ENDBRANCH  42  67
BRANCH  54  79
ATOM     79  C   UNL A   1      49.511  27.101  25.895  1.00  0.00     0.058 A 
ATOM     80  C   UNL A   1      50.564  26.664  26.712  1.00  0.00     0.135 A 
ATOM     81  C   UNL A   1      49.754  27.222  24.518  1.00  0.00     0.135 A 
ATOM     82  F   UNL A   1      50.383  26.537  28.037  1.00  0.00    -0.206 F 
ATOM     83  C   UNL A   1      51.820  26.379  26.187  1.00  0.00     0.059 A 
ATOM     84  C   UNL A   1      50.995  26.922  23.967  1.00  0.00     0.059 A 
ATOM     85  F   UNL A   1      48.775  27.626  23.692  1.00  0.00    -0.206 F 
ATOM     86  C   UNL A   1      52.028  26.515  24.812  1.00  0.00     0.060 A 
BRANCH  86  87
ATOM     87  S   UNL A   1      53.653  26.122  24.134  1.00  0.00     0.124 S 
ATOM     88  O   UNL A   1      53.386  26.147  22.700  1.00  0.00    -0.237 OA
ATOM     89  O   UNL A   1      54.482  27.210  24.644  1.00  0.00    -0.237 OA
ATOM     90  O   UNL A   1      53.945  24.806  24.696  1.00  0.00    -0.744 OA
ENDBRANCH  86  87
ENDBRANCH  54  79
ENDBRANCH  28  29
ENDBRANCH  21  23
ENDBRANCH  20  21
ENDBRANCH  19  20
ENDBRANCH  18  19
ENDBRANCH   1  18
TORSDOF 20
ENDMDL
