MODEL 1
REMARK VINA RESULT:     -12.1      0.000      0.000
REMARK SMILES [NH3+][C@H]1CN(C(=O)OCC2c3ccccc3-c3ccccc32)C[C@@H]1C(=O)OCCOC(=O)c1ccc(-c2c3nc(c(-c4c(F)cc(S(=O)(=O)[O-])cc4F)c4ccc([nH]4)c(-c4c(F)cc(S(=O)(=O)[O-])cc4F)c4nc(c(-c5c(F)cc(S(=O)(=O)[O-])cc5F)c5ccc2[nH]5)C=C4)C=C3)cc1
REMARK SMILES IDX 27 1 26 2 24 3 25 4 23 5 2 6 3 7 4 8 22 9 1 10 5 14 6 15
REMARK SMILES IDX 7 16 8 17 9 18 10 19 21 20 11 21 15 22 16 23 20 24 12 25
REMARK SMILES IDX 14 26 17 27 19 28 13 29 18 30 28 31 29 32 30 33 31 34 32 35
REMARK SMILES IDX 33 36 97 37 34 38 96 39 35 40 36 41 37 42 90 43 38 44 95 45
REMARK SMILES IDX 89 46 91 47 39 48 94 49 88 50 87 51 40 53 74 54 53 55 73 56
REMARK SMILES IDX 54 57 57 58 72 59 92 60 55 61 56 62 71 64 93 65 58 66 41 67
REMARK SMILES IDX 42 68 51 69 43 70 44 71 50 72 52 73 45 74 46 75 47 76 48 77
REMARK SMILES IDX 49 78 75 79 76 80 85 81 77 82 78 83 84 84 86 85 79 86 80 87
REMARK SMILES IDX 81 88 82 89 83 90 59 91 60 92 69 93 61 94 62 95 68 96 70 97
REMARK SMILES IDX 63 98 64 99 65 100 66 101 67 102
REMARK H PARENT 1 11 1 12 1 13 91 52 57 63
REMARK Flexibility Score: inf
ROOT
ATOM      1  C   UNL A   1      32.263  27.543  26.221  1.00  0.00     0.274 C 
ENDROOT
BRANCH   1   2
ATOM      2  O   UNL A   1      31.019  27.894  25.578  1.00  0.00    -0.462 OA
BRANCH   2   3
ATOM      3  C   UNL A   1      31.124  28.307  24.284  1.00  0.00     0.317 C 
ATOM      4  O   UNL A   1      31.881  29.194  23.911  1.00  0.00    -0.252 OA
BRANCH   3   5
ATOM      5  C   UNL A   1      30.154  27.564  23.380  1.00  0.00     0.178 C 
ATOM      6  C   UNL A   1      29.557  26.300  24.031  1.00  0.00     0.216 C 
ATOM      7  C   UNL A   1      30.472  25.134  23.564  1.00  0.00     0.188 C 
ATOM      8  N   UNL A   1      31.420  25.740  22.658  1.00  0.00    -0.301 N 
ATOM      9  C   UNL A   1      30.934  27.021  22.189  1.00  0.00     0.145 C 
BRANCH   6  10
ATOM     10  N   UNL A   1      28.165  26.088  23.597  1.00  0.00    -0.353 N 
ATOM     11  H   UNL A   1      28.093  26.255  22.593  1.00  0.00     0.344 HD
ATOM     12  H   UNL A   1      27.552  26.733  24.095  1.00  0.00     0.344 HD
ATOM     13  H   UNL A   1      27.887  25.128  23.803  1.00  0.00     0.344 HD
ENDBRANCH   6  10
BRANCH   8  14
ATOM     14  C   UNL A   1      32.714  25.336  22.431  1.00  0.00     0.410 C 
ATOM     15  O   UNL A   1      33.327  25.633  21.420  1.00  0.00    -0.224 OA
BRANCH  14  16
ATOM     16  O   UNL A   1      33.220  24.583  23.449  1.00  0.00    -0.448 OA
BRANCH  16  17
ATOM     17  C   UNL A   1      33.401  23.173  23.144  1.00  0.00     0.248 C 
BRANCH  17  18
ATOM     18  C   UNL A   1      33.797  22.409  24.416  1.00  0.00     0.088 C 
ATOM     19  C   UNL A   1      33.641  20.892  24.338  1.00  0.00    -0.029 A 
ATOM     20  C   UNL A   1      35.274  22.545  24.783  1.00  0.00    -0.029 A 
ATOM     21  C   UNL A   1      32.514  20.144  24.029  1.00  0.00     0.005 A 
ATOM     22  C   UNL A   1      34.848  20.258  24.698  1.00  0.00    -0.014 A 
ATOM     23  C   UNL A   1      35.847  21.266  24.971  1.00  0.00    -0.014 A 
ATOM     24  C   UNL A   1      36.023  23.699  24.963  1.00  0.00     0.005 A 
ATOM     25  C   UNL A   1      32.600  18.751  24.081  1.00  0.00     0.000 A 
ATOM     26  C   UNL A   1      34.936  18.874  24.747  1.00  0.00     0.009 A 
ATOM     27  C   UNL A   1      37.170  21.131  25.354  1.00  0.00     0.009 A 
ATOM     28  C   UNL A   1      37.356  23.560  25.354  1.00  0.00     0.000 A 
ATOM     29  C   UNL A   1      33.800  18.121  24.439  1.00  0.00     0.001 A 
ATOM     30  C   UNL A   1      37.921  22.291  25.558  1.00  0.00     0.001 A 
ENDBRANCH  17  18
ENDBRANCH  16  17
ENDBRANCH  14  16
ENDBRANCH   8  14
ENDBRANCH   3   5
ENDBRANCH   2   3
ENDBRANCH   1   2
BRANCH   1  31
ATOM     31  C   UNL A   1      32.554  28.427  27.432  1.00  0.00     0.275 C 
BRANCH  31  32
ATOM     32  O   UNL A   1      33.971  28.599  27.611  1.00  0.00    -0.458 OA
BRANCH  32  33
ATOM     33  C   UNL A   1      34.364  29.864  27.879  1.00  0.00     0.338 C 
ATOM     34  O   UNL A   1      33.674  30.869  27.888  1.00  0.00    -0.246 OA
BRANCH  33  35
ATOM     35  C   UNL A   1      35.781  29.881  28.268  1.00  0.00     0.060 A 
ATOM     36  C   UNL A   1      36.722  30.189  27.293  1.00  0.00     0.016 A 
ATOM     37  C   UNL A   1      36.194  29.411  29.512  1.00  0.00     0.016 A 
ATOM     38  C   UNL A   1      38.066  29.915  27.510  1.00  0.00     0.010 A 
ATOM     39  C   UNL A   1      37.563  29.244  29.767  1.00  0.00     0.010 A 
ATOM     40  C   UNL A   1      38.515  29.450  28.750  1.00  0.00    -0.014 A 
BRANCH  40  41
ATOM     41  C   UNL A   1      39.963  29.135  28.936  1.00  0.00     0.031 A 
ATOM     42  C   UNL A   1      40.894  30.171  29.513  1.00  0.00     0.074 A 
ATOM     43  C   UNL A   1      40.437  27.901  28.655  1.00  0.00     0.049 A 
ATOM     44  N   UNL A   1      42.200  30.150  29.602  1.00  0.00    -0.248 NA
ATOM     45  C   UNL A   1      40.278  31.392  30.058  1.00  0.00     0.031 C 
ATOM     46  C   UNL A   1      39.633  26.773  28.175  1.00  0.00     0.029 A 
ATOM     47  N   UNL A   1      41.704  27.376  28.751  1.00  0.00    -0.354 N 
ATOM     48  C   UNL A   1      42.565  31.376  30.150  1.00  0.00     0.074 A 
ATOM     49  C   UNL A   1      41.343  32.116  30.380  1.00  0.00     0.031 C 
ATOM     50  C   UNL A   1      40.410  25.686  28.070  1.00  0.00     0.029 A 
ATOM     51  C   UNL A   1      41.790  26.063  28.347  1.00  0.00     0.049 A 
ATOM     52  H   UNL A   1      42.477  27.891  29.077  1.00  0.00     0.167 HD
ATOM     53  C   UNL A   1      43.807  31.841  30.428  1.00  0.00     0.037 A 
ATOM     54  C   UNL A   1      42.859  25.262  28.156  1.00  0.00     0.037 A 
ATOM     55  C   UNL A   1      45.013  31.074  30.243  1.00  0.00     0.049 A 
ATOM     56  C   UNL A   1      44.231  25.821  28.417  1.00  0.00     0.074 A 
ATOM     57  C   UNL A   1      46.322  31.454  30.484  1.00  0.00     0.029 A 
ATOM     58  N   UNL A   1      45.057  29.763  29.790  1.00  0.00    -0.354 N 
ATOM     59  N   UNL A   1      44.564  27.006  28.874  1.00  0.00    -0.248 NA
ATOM     60  C   UNL A   1      45.373  24.948  28.120  1.00  0.00     0.031 C 
ATOM     61  C   UNL A   1      47.159  30.390  30.133  1.00  0.00     0.029 A 
ATOM     62  C   UNL A   1      46.370  29.327  29.726  1.00  0.00     0.049 A 
ATOM     63  H   UNL A   1      44.270  29.221  29.548  1.00  0.00     0.167 HD
ATOM     64  C   UNL A   1      45.952  27.013  28.933  1.00  0.00     0.074 A 
ATOM     65  C   UNL A   1      46.395  25.704  28.495  1.00  0.00     0.031 C 
ATOM     66  C   UNL A   1      46.788  28.013  29.305  1.00  0.00     0.037 A 
BRANCH  53  67
ATOM     67  C   UNL A   1      43.937  33.263  30.907  1.00  0.00     0.058 A 
ATOM     68  C   UNL A   1      44.000  34.351  30.024  1.00  0.00     0.135 A 
ATOM     69  C   UNL A   1      43.962  33.537  32.285  1.00  0.00     0.135 A 
ATOM     70  F   UNL A   1      43.998  34.147  28.698  1.00  0.00    -0.206 F 
ATOM     71  C   UNL A   1      44.108  35.659  30.489  1.00  0.00     0.059 A 
ATOM     72  C   UNL A   1      44.041  34.838  32.773  1.00  0.00     0.059 A 
ATOM     73  F   UNL A   1      43.905  32.535  33.175  1.00  0.00    -0.206 F 
ATOM     74  C   UNL A   1      44.128  35.893  31.867  1.00  0.00     0.060 A 
BRANCH  74  75
ATOM     75  S   UNL A   1      44.266  37.594  32.455  1.00  0.00     0.124 S 
ATOM     76  O   UNL A   1      45.670  37.651  32.852  1.00  0.00    -0.237 OA
ATOM     77  O   UNL A   1      43.913  38.365  31.268  1.00  0.00    -0.237 OA
ATOM     78  O   UNL A   1      43.303  37.656  33.550  1.00  0.00    -0.744 OA
ENDBRANCH  74  75
ENDBRANCH  53  67
BRANCH  54  79
ATOM     79  C   UNL A   1      42.674  23.872  27.645  1.00  0.00     0.058 A 
ATOM     80  C   UNL A   1      42.602  23.607  26.270  1.00  0.00     0.135 A 
ATOM     81  C   UNL A   1      42.575  22.775  28.517  1.00  0.00     0.135 A 
ATOM     82  F   UNL A   1      42.615  24.622  25.393  1.00  0.00    -0.206 F 
ATOM     83  C   UNL A   1      42.468  22.312  25.778  1.00  0.00     0.059 A 
ATOM     84  C   UNL A   1      42.467  21.469  28.051  1.00  0.00     0.059 A 
ATOM     85  F   UNL A   1      42.611  22.965  29.846  1.00  0.00    -0.206 F 
ATOM     86  C   UNL A   1      42.412  21.247  26.677  1.00  0.00     0.060 A 
BRANCH  86  87
ATOM     87  S   UNL A   1      42.271  19.570  26.026  1.00  0.00     0.124 S 
ATOM     88  O   UNL A   1      43.211  19.609  24.911  1.00  0.00    -0.237 OA
ATOM     89  O   UNL A   1      42.675  18.757  27.169  1.00  0.00    -0.237 OA
ATOM     90  O   UNL A   1      40.862  19.469  25.657  1.00  0.00    -0.744 OA
ENDBRANCH  86  87
ENDBRANCH  54  79
BRANCH  66  91
ATOM     91  C   UNL A   1      48.262  27.716  29.294  1.00  0.00     0.058 A 
ATOM     92  C   UNL A   1      48.950  27.349  30.460  1.00  0.00     0.135 A 
ATOM     93  C   UNL A   1      48.985  27.760  28.090  1.00  0.00     0.135 A 
ATOM     94  F   UNL A   1      48.306  27.301  31.638  1.00  0.00    -0.206 F 
ATOM     95  C   UNL A   1      50.310  27.061  30.440  1.00  0.00     0.059 A 
ATOM     96  C   UNL A   1      50.340  27.447  28.042  1.00  0.00     0.059 A 
ATOM     97  F   UNL A   1      48.373  28.097  26.945  1.00  0.00    -0.206 F 
ATOM     98  C   UNL A   1      50.996  27.110  29.225  1.00  0.00     0.060 A 
BRANCH  98  99
ATOM     99  S   UNL A   1      52.754  26.702  29.208  1.00  0.00     0.124 S 
ATOM    100  O   UNL A   1      53.364  28.027  29.258  1.00  0.00    -0.237 OA
ATOM    101  O   UNL A   1      52.899  25.891  30.412  1.00  0.00    -0.237 OA
ATOM    102  O   UNL A   1      52.923  25.981  27.950  1.00  0.00    -0.744 OA
ENDBRANCH  98  99
ENDBRANCH  66  91
ENDBRANCH  40  41
ENDBRANCH  33  35
ENDBRANCH  32  33
ENDBRANCH  31  32
ENDBRANCH   1  31
TORSDOF 19
ENDMDL
MODEL 2
REMARK VINA RESULT:     -12.0      2.167      3.012
REMARK SMILES [NH3+][C@H]1CN(C(=O)OCC2c3ccccc3-c3ccccc32)C[C@@H]1C(=O)OCCOC(=O)c1ccc(-c2c3nc(c(-c4c(F)cc(S(=O)(=O)[O-])cc4F)c4ccc([nH]4)c(-c4c(F)cc(S(=O)(=O)[O-])cc4F)c4nc(c(-c5c(F)cc(S(=O)(=O)[O-])cc5F)c5ccc2[nH]5)C=C4)C=C3)cc1
REMARK SMILES IDX 27 1 26 2 24 3 25 4 23 5 2 6 3 7 4 8 22 9 1 10 5 14 6 15
REMARK SMILES IDX 7 16 8 17 9 18 10 19 21 20 11 21 15 22 16 23 20 24 12 25
REMARK SMILES IDX 14 26 17 27 19 28 13 29 18 30 28 31 29 32 30 33 31 34 32 35
REMARK SMILES IDX 33 36 97 37 34 38 96 39 35 40 36 41 37 42 90 43 38 44 95 45
REMARK SMILES IDX 89 46 91 47 39 48 94 49 88 50 87 51 40 53 74 54 53 55 73 56
REMARK SMILES IDX 54 57 57 58 72 59 92 60 55 61 56 62 71 64 93 65 58 66 41 67
REMARK SMILES IDX 42 68 51 69 43 70 44 71 50 72 52 73 45 74 46 75 47 76 48 77
REMARK SMILES IDX 49 78 75 79 76 80 85 81 77 82 78 83 84 84 86 85 79 86 80 87
REMARK SMILES IDX 81 88 82 89 83 90 59 91 60 92 69 93 61 94 62 95 68 96 70 97
REMARK SMILES IDX 63 98 64 99 65 100 66 101 67 102
REMARK H PARENT 1 11 1 12 1 13 91 52 57 63
REMARK Flexibility Score: inf
ROOT
ATOM      1  C   UNL A   1      33.131  30.880  27.256  1.00  0.00     0.274 C 
ENDROOT
BRANCH   1   2
ATOM      2  O   UNL A   1      33.116  29.479  27.606  1.00  0.00    -0.462 OA
BRANCH   2   3
ATOM      3  C   UNL A   1      32.602  28.644  26.660  1.00  0.00     0.317 C 
ATOM      4  O   UNL A   1      31.459  28.208  26.686  1.00  0.00    -0.252 OA
BRANCH   3   5
ATOM      5  C   UNL A   1      33.637  28.291  25.605  1.00  0.00     0.178 C 
ATOM      6  C   UNL A   1      33.134  28.498  24.162  1.00  0.00     0.216 C 
ATOM      7  C   UNL A   1      32.596  27.109  23.718  1.00  0.00     0.188 C 
ATOM      8  N   UNL A   1      32.886  26.224  24.822  1.00  0.00    -0.301 N 
ATOM      9  C   UNL A   1      33.903  26.792  25.681  1.00  0.00     0.145 C 
BRANCH   6  10
ATOM     10  N   UNL A   1      34.226  28.949  23.281  1.00  0.00    -0.353 N 
ATOM     11  H   UNL A   1      33.872  29.061  22.331  1.00  0.00     0.344 HD
ATOM     12  H   UNL A   1      34.974  28.257  23.286  1.00  0.00     0.344 HD
ATOM     13  H   UNL A   1      34.588  29.842  23.617  1.00  0.00     0.344 HD
ENDBRANCH   6  10
BRANCH   8  14
ATOM     14  C   UNL A   1      32.166  25.115  25.197  1.00  0.00     0.410 C 
ATOM     15  O   UNL A   1      31.633  25.016  26.288  1.00  0.00    -0.224 OA
BRANCH  14  16
ATOM     16  O   UNL A   1      32.117  24.161  24.224  1.00  0.00    -0.448 OA
BRANCH  16  17
ATOM     17  C   UNL A   1      33.400  23.585  23.857  1.00  0.00     0.248 C 
BRANCH  17  18
ATOM     18  C   UNL A   1      33.881  22.630  24.959  1.00  0.00     0.088 C 
ATOM     19  C   UNL A   1      33.673  21.145  24.670  1.00  0.00    -0.029 A 
ATOM     20  C   UNL A   1      35.387  22.683  25.209  1.00  0.00    -0.029 A 
ATOM     21  C   UNL A   1      32.501  20.472  24.355  1.00  0.00     0.005 A 
ATOM     22  C   UNL A   1      34.886  20.444  24.822  1.00  0.00    -0.014 A 
ATOM     23  C   UNL A   1      35.935  21.382  25.152  1.00  0.00    -0.014 A 
ATOM     24  C   UNL A   1      36.183  23.784  25.491  1.00  0.00     0.005 A 
ATOM     25  C   UNL A   1      32.549  19.086  24.190  1.00  0.00     0.000 A 
ATOM     26  C   UNL A   1      34.936  19.067  24.655  1.00  0.00     0.009 A 
ATOM     27  C   UNL A   1      37.281  21.168  25.390  1.00  0.00     0.009 A 
ATOM     28  C   UNL A   1      37.540  23.565  25.737  1.00  0.00     0.000 A 
ATOM     29  C   UNL A   1      33.756  18.389  24.341  1.00  0.00     0.001 A 
ATOM     30  C   UNL A   1      38.082  22.270  25.697  1.00  0.00     0.001 A 
ENDBRANCH  17  18
ENDBRANCH  16  17
ENDBRANCH  14  16
ENDBRANCH   8  14
ENDBRANCH   3   5
ENDBRANCH   2   3
ENDBRANCH   1   2
BRANCH   1  31
ATOM     31  C   UNL A   1      34.220  31.648  28.005  1.00  0.00     0.275 C 
BRANCH  31  32
ATOM     32  O   UNL A   1      35.491  30.987  27.876  1.00  0.00    -0.458 OA
BRANCH  32  33
ATOM     33  C   UNL A   1      36.210  30.904  29.017  1.00  0.00     0.338 C 
ATOM     34  O   UNL A   1      35.897  31.313  30.123  1.00  0.00    -0.246 OA
BRANCH  33  35
ATOM     35  C   UNL A   1      37.444  30.141  28.782  1.00  0.00     0.060 A 
ATOM     36  C   UNL A   1      38.255  29.860  29.874  1.00  0.00     0.016 A 
ATOM     37  C   UNL A   1      37.895  29.878  27.491  1.00  0.00     0.016 A 
ATOM     38  C   UNL A   1      39.563  29.434  29.680  1.00  0.00     0.010 A 
ATOM     39  C   UNL A   1      39.177  29.338  27.306  1.00  0.00     0.010 A 
ATOM     40  C   UNL A   1      40.045  29.153  28.398  1.00  0.00    -0.014 A 
BRANCH  40  41
ATOM     41  C   UNL A   1      41.466  28.727  28.225  1.00  0.00     0.031 A 
ATOM     42  C   UNL A   1      42.582  29.728  28.395  1.00  0.00     0.074 A 
ATOM     43  C   UNL A   1      41.769  27.432  27.986  1.00  0.00     0.049 A 
ATOM     44  N   UNL A   1      43.857  29.596  28.131  1.00  0.00    -0.248 NA
ATOM     45  C   UNL A   1      42.216  31.051  28.927  1.00  0.00     0.031 C 
ATOM     46  C   UNL A   1      40.798  26.339  27.885  1.00  0.00     0.029 A 
ATOM     47  N   UNL A   1      42.979  26.806  27.802  1.00  0.00    -0.354 N 
ATOM     48  C   UNL A   1      44.433  30.834  28.402  1.00  0.00     0.074 A 
ATOM     49  C   UNL A   1      43.369  31.703  28.857  1.00  0.00     0.031 C 
ATOM     50  C   UNL A   1      41.448  25.180  27.714  1.00  0.00     0.029 A 
ATOM     51  C   UNL A   1      42.871  25.455  27.559  1.00  0.00     0.049 A 
ATOM     52  H   UNL A   1      43.841  27.279  27.840  1.00  0.00     0.167 HD
ATOM     53  C   UNL A   1      45.728  31.209  28.274  1.00  0.00     0.037 A 
ATOM     54  C   UNL A   1      43.795  24.543  27.191  1.00  0.00     0.037 A 
ATOM     55  C   UNL A   1      46.787  30.319  27.870  1.00  0.00     0.049 A 
ATOM     56  C   UNL A   1      45.215  24.998  27.000  1.00  0.00     0.074 A 
ATOM     57  C   UNL A   1      48.132  30.600  27.700  1.00  0.00     0.029 A 
ATOM     58  N   UNL A   1      46.625  28.969  27.591  1.00  0.00    -0.354 N 
ATOM     59  N   UNL A   1      45.733  26.188  27.197  1.00  0.00    -0.248 NA
ATOM     60  C   UNL A   1      46.176  23.997  26.519  1.00  0.00     0.031 C 
ATOM     61  C   UNL A   1      48.773  29.432  27.273  1.00  0.00     0.029 A 
ATOM     62  C   UNL A   1      47.841  28.410  27.232  1.00  0.00     0.049 A 
ATOM     63  H   UNL A   1      45.771  28.480  27.640  1.00  0.00     0.167 HD
ATOM     64  C   UNL A   1      47.081  26.073  26.879  1.00  0.00     0.074 A 
ATOM     65  C   UNL A   1      47.305  24.691  26.507  1.00  0.00     0.031 C 
ATOM     66  C   UNL A   1      48.045  27.026  26.882  1.00  0.00     0.037 A 
BRANCH  53  67
ATOM     67  C   UNL A   1      46.071  32.655  28.517  1.00  0.00     0.058 A 
ATOM     68  C   UNL A   1      46.525  33.122  29.760  1.00  0.00     0.135 A 
ATOM     69  C   UNL A   1      45.975  33.583  27.466  1.00  0.00     0.135 A 
ATOM     70  F   UNL A   1      46.619  32.284  30.803  1.00  0.00    -0.206 F 
ATOM     71  C   UNL A   1      46.848  34.462  29.959  1.00  0.00     0.059 A 
ATOM     72  C   UNL A   1      46.319  34.921  27.635  1.00  0.00     0.059 A 
ATOM     73  F   UNL A   1      45.546  33.192  26.257  1.00  0.00    -0.206 F 
ATOM     74  C   UNL A   1      46.741  35.355  28.890  1.00  0.00     0.060 A 
BRANCH  74  75
ATOM     75  S   UNL A   1      47.165  37.088  29.163  1.00  0.00     0.124 S 
ATOM     76  O   UNL A   1      46.653  37.303  30.513  1.00  0.00    -0.237 OA
ATOM     77  O   UNL A   1      48.617  37.079  29.030  1.00  0.00    -0.237 OA
ATOM     78  O   UNL A   1      46.445  37.787  28.102  1.00  0.00    -0.744 OA
ENDBRANCH  74  75
ENDBRANCH  53  67
BRANCH  54  79
ATOM     79  C   UNL A   1      43.392  23.131  26.928  1.00  0.00     0.058 A 
ATOM     80  C   UNL A   1      43.339  22.621  25.623  1.00  0.00     0.135 A 
ATOM     81  C   UNL A   1      43.061  22.254  27.974  1.00  0.00     0.135 A 
ATOM     82  F   UNL A   1      43.571  23.431  24.579  1.00  0.00    -0.206 F 
ATOM     83  C   UNL A   1      43.002  21.295  25.365  1.00  0.00     0.059 A 
ATOM     84  C   UNL A   1      42.746  20.918  27.747  1.00  0.00     0.059 A 
ATOM     85  F   UNL A   1      43.067  22.688  29.245  1.00  0.00    -0.206 F 
ATOM     86  C   UNL A   1      42.718  20.447  26.436  1.00  0.00     0.060 A 
BRANCH  86  87
ATOM     87  S   UNL A   1      42.314  18.723  26.092  1.00  0.00     0.124 S 
ATOM     88  O   UNL A   1      42.587  18.095  27.380  1.00  0.00    -0.237 OA
ATOM     89  O   UNL A   1      40.907  18.803  25.709  1.00  0.00    -0.237 OA
ATOM     90  O   UNL A   1      43.232  18.369  25.013  1.00  0.00    -0.744 OA
ENDBRANCH  86  87
ENDBRANCH  54  79
BRANCH  66  91
ATOM     91  C   UNL A   1      49.438  26.595  26.513  1.00  0.00     0.058 A 
ATOM     92  C   UNL A   1      50.309  26.027  27.454  1.00  0.00     0.135 A 
ATOM     93  C   UNL A   1      49.889  26.715  25.188  1.00  0.00     0.135 A 
ATOM     94  F   UNL A   1      49.929  25.898  28.736  1.00  0.00    -0.206 F 
ATOM     95  C   UNL A   1      51.590  25.616  27.103  1.00  0.00     0.059 A 
ATOM     96  C   UNL A   1      51.156  26.284  24.808  1.00  0.00     0.059 A 
ATOM     97  F   UNL A   1      49.092  27.244  24.247  1.00  0.00    -0.206 F 
ATOM     98  C   UNL A   1      52.004  25.746  25.776  1.00  0.00     0.060 A 
BRANCH  98  99
ATOM     99  S   UNL A   1      53.657  25.180  25.325  1.00  0.00     0.124 S 
ATOM    100  O   UNL A   1      54.475  25.812  26.355  1.00  0.00    -0.237 OA
ATOM    101  O   UNL A   1      53.526  23.730  25.419  1.00  0.00    -0.237 OA
ATOM    102  O   UNL A   1      53.837  25.700  23.973  1.00  0.00    -0.744 OA
ENDBRANCH  98  99
ENDBRANCH  66  91
ENDBRANCH  40  41
ENDBRANCH  33  35
ENDBRANCH  32  33
ENDBRANCH  31  32
ENDBRANCH   1  31
TORSDOF 19
ENDMDL
MODEL 3
REMARK VINA RESULT:     -11.9      1.045      2.388
REMARK SMILES [NH3+][C@H]1CN(C(=O)OCC2c3ccccc3-c3ccccc32)C[C@@H]1C(=O)OCCOC(=O)c1ccc(-c2c3nc(c(-c4c(F)cc(S(=O)(=O)[O-])cc4F)c4ccc([nH]4)c(-c4c(F)cc(S(=O)(=O)[O-])cc4F)c4nc(c(-c5c(F)cc(S(=O)(=O)[O-])cc5F)c5ccc2[nH]5)C=C4)C=C3)cc1
REMARK SMILES IDX 27 1 26 2 24 3 25 4 23 5 2 6 3 7 4 8 22 9 1 10 5 14 6 15
REMARK SMILES IDX 7 16 8 17 9 18 10 19 21 20 11 21 15 22 16 23 20 24 12 25
REMARK SMILES IDX 14 26 17 27 19 28 13 29 18 30 28 31 29 32 30 33 31 34 32 35
REMARK SMILES IDX 33 36 97 37 34 38 96 39 35 40 36 41 37 42 90 43 38 44 95 45
REMARK SMILES IDX 89 46 91 47 39 48 94 49 88 50 87 51 40 53 74 54 53 55 73 56
REMARK SMILES IDX 54 57 57 58 72 59 92 60 55 61 56 62 71 64 93 65 58 66 41 67
REMARK SMILES IDX 42 68 51 69 43 70 44 71 50 72 52 73 45 74 46 75 47 76 48 77
REMARK SMILES IDX 49 78 75 79 76 80 85 81 77 82 78 83 84 84 86 85 79 86 80 87
REMARK SMILES IDX 81 88 82 89 83 90 59 91 60 92 69 93 61 94 62 95 68 96 70 97
REMARK SMILES IDX 63 98 64 99 65 100 66 101 67 102
REMARK H PARENT 1 11 1 12 1 13 91 52 57 63
REMARK Flexibility Score: inf
ROOT
ATOM      1  C   UNL A   1      33.093  27.084  25.305  1.00  0.00     0.274 C 
ENDROOT
BRANCH   1   2
ATOM      2  O   UNL A   1      32.067  27.217  24.297  1.00  0.00    -0.462 OA
BRANCH   2   3
ATOM      3  C   UNL A   1      31.937  26.157  23.450  1.00  0.00     0.317 C 
ATOM      4  O   UNL A   1      32.837  25.749  22.728  1.00  0.00    -0.252 OA
BRANCH   3   5
ATOM      5  C   UNL A   1      30.530  25.585  23.483  1.00  0.00     0.178 C 
ATOM      6  C   UNL A   1      29.592  26.324  24.459  1.00  0.00     0.216 C 
ATOM      7  C   UNL A   1      29.667  25.514  25.783  1.00  0.00     0.188 C 
ATOM      8  N   UNL A   1      30.512  24.382  25.483  1.00  0.00    -0.301 N 
ATOM      9  C   UNL A   1      30.603  24.174  24.054  1.00  0.00     0.145 C 
BRANCH   6  10
ATOM     10  N   UNL A   1      28.213  26.363  23.940  1.00  0.00    -0.353 N 
ATOM     11  H   UNL A   1      27.571  26.594  24.698  1.00  0.00     0.344 HD
ATOM     12  H   UNL A   1      27.970  25.452  23.553  1.00  0.00     0.344 HD
ATOM     13  H   UNL A   1      28.145  27.072  23.208  1.00  0.00     0.344 HD
ENDBRANCH   6  10
BRANCH   8  14
ATOM     14  C   UNL A   1      31.336  23.717  26.360  1.00  0.00     0.410 C 
ATOM     15  O   UNL A   1      31.731  24.217  27.398  1.00  0.00    -0.224 OA
BRANCH  14  16
ATOM     16  O   UNL A   1      31.650  22.458  25.940  1.00  0.00    -0.448 OA
BRANCH  16  17
ATOM     17  C   UNL A   1      32.952  21.971  26.365  1.00  0.00     0.248 C 
BRANCH  17  18
ATOM     18  C   UNL A   1      33.774  21.535  25.143  1.00  0.00     0.088 C 
ATOM     19  C   UNL A   1      35.285  21.709  25.281  1.00  0.00    -0.029 A 
ATOM     20  C   UNL A   1      33.667  20.044  24.826  1.00  0.00    -0.029 A 
ATOM     21  C   UNL A   1      36.010  22.855  25.579  1.00  0.00     0.005 A 
ATOM     22  C   UNL A   1      35.944  20.496  24.993  1.00  0.00    -0.014 A 
ATOM     23  C   UNL A   1      34.957  19.478  24.715  1.00  0.00    -0.014 A 
ATOM     24  C   UNL A   1      32.528  19.278  24.626  1.00  0.00     0.005 A 
ATOM     25  C   UNL A   1      37.404  22.780  25.590  1.00  0.00     0.000 A 
ATOM     26  C   UNL A   1      37.329  20.420  25.007  1.00  0.00     0.009 A 
ATOM     27  C   UNL A   1      35.119  18.143  24.389  1.00  0.00     0.009 A 
ATOM     28  C   UNL A   1      32.694  17.933  24.291  1.00  0.00     0.000 A 
ATOM     29  C   UNL A   1      38.059  21.575  25.305  1.00  0.00     0.001 A 
ATOM     30  C   UNL A   1      33.976  17.373  24.163  1.00  0.00     0.001 A 
ENDBRANCH  17  18
ENDBRANCH  16  17
ENDBRANCH  14  16
ENDBRANCH   8  14
ENDBRANCH   3   5
ENDBRANCH   2   3
ENDBRANCH   1   2
BRANCH   1  31
ATOM     31  C   UNL A   1      33.043  28.217  26.328  1.00  0.00     0.275 C 
BRANCH  31  32
ATOM     32  O   UNL A   1      34.300  28.914  26.380  1.00  0.00    -0.458 OA
BRANCH  32  33
ATOM     33  C   UNL A   1      34.426  29.791  27.401  1.00  0.00     0.338 C 
ATOM     34  O   UNL A   1      33.545  30.450  27.926  1.00  0.00    -0.246 OA
BRANCH  33  35
ATOM     35  C   UNL A   1      35.810  29.794  27.896  1.00  0.00     0.060 A 
ATOM     36  C   UNL A   1      36.827  30.055  26.988  1.00  0.00     0.016 A 
ATOM     37  C   UNL A   1      36.117  29.355  29.182  1.00  0.00     0.016 A 
ATOM     38  C   UNL A   1      38.146  29.763  27.315  1.00  0.00     0.010 A 
ATOM     39  C   UNL A   1      37.460  29.171  29.545  1.00  0.00     0.010 A 
ATOM     40  C   UNL A   1      38.489  29.328  28.598  1.00  0.00    -0.014 A 
BRANCH  40  41
ATOM     41  C   UNL A   1      39.912  28.993  28.903  1.00  0.00     0.031 A 
ATOM     42  C   UNL A   1      40.796  30.001  29.594  1.00  0.00     0.074 A 
ATOM     43  C   UNL A   1      40.400  27.763  28.628  1.00  0.00     0.049 A 
ATOM     44  N   UNL A   1      42.088  29.964  29.800  1.00  0.00    -0.248 NA
ATOM     45  C   UNL A   1      40.142  31.211  30.120  1.00  0.00     0.031 C 
ATOM     46  C   UNL A   1      39.635  26.659  28.041  1.00  0.00     0.029 A 
ATOM     47  N   UNL A   1      41.650  27.223  28.820  1.00  0.00    -0.354 N 
ATOM     48  C   UNL A   1      42.411  31.169  30.417  1.00  0.00     0.074 A 
ATOM     49  C   UNL A   1      41.179  31.913  30.559  1.00  0.00     0.031 C 
ATOM     50  C   UNL A   1      40.410  25.568  27.973  1.00  0.00     0.029 A 
ATOM     51  C   UNL A   1      41.762  25.922  28.384  1.00  0.00     0.049 A 
ATOM     52  H   UNL A   1      42.394  27.720  29.230  1.00  0.00     0.167 HD
ATOM     53  C   UNL A   1      43.626  31.612  30.819  1.00  0.00     0.037 A 
ATOM     54  C   UNL A   1      42.838  25.116  28.265  1.00  0.00     0.037 A 
ATOM     55  C   UNL A   1      44.838  30.838  30.720  1.00  0.00     0.049 A 
ATOM     56  C   UNL A   1      44.185  25.653  28.666  1.00  0.00     0.074 A 
ATOM     57  C   UNL A   1      46.123  31.198  31.089  1.00  0.00     0.029 A 
ATOM     58  N   UNL A   1      44.913  29.541  30.231  1.00  0.00    -0.354 N 
ATOM     59  N   UNL A   1      44.484  26.819  29.188  1.00  0.00    -0.248 NA
ATOM     60  C   UNL A   1      45.343  24.778  28.444  1.00  0.00     0.031 C 
ATOM     61  C   UNL A   1      46.981  30.136  30.781  1.00  0.00     0.029 A 
ATOM     62  C   UNL A   1      46.224  29.095  30.272  1.00  0.00     0.049 A 
ATOM     63  H   UNL A   1      44.148  29.016  29.903  1.00  0.00     0.167 HD
ATOM     64  C   UNL A   1      45.861  26.810  29.372  1.00  0.00     0.074 A 
ATOM     65  C   UNL A   1      46.332  25.512  28.933  1.00  0.00     0.031 C 
ATOM     66  C   UNL A   1      46.668  27.790  29.848  1.00  0.00     0.037 A 
BRANCH  53  67
ATOM     67  C   UNL A   1      43.723  33.017  31.353  1.00  0.00     0.058 A 
ATOM     68  C   UNL A   1      43.858  34.133  30.514  1.00  0.00     0.135 A 
ATOM     69  C   UNL A   1      43.642  33.247  32.737  1.00  0.00     0.135 A 
ATOM     70  F   UNL A   1      43.959  33.971  29.185  1.00  0.00    -0.206 F 
ATOM     71  C   UNL A   1      43.934  35.425  31.028  1.00  0.00     0.059 A 
ATOM     72  C   UNL A   1      43.687  34.531  33.272  1.00  0.00     0.059 A 
ATOM     73  F   UNL A   1      43.514  32.216  33.587  1.00  0.00    -0.206 F 
ATOM     74  C   UNL A   1      43.848  35.614  32.410  1.00  0.00     0.060 A 
BRANCH  74  75
ATOM     75  S   UNL A   1      43.945  37.294  33.062  1.00  0.00     0.124 S 
ATOM     76  O   UNL A   1      42.775  37.336  33.934  1.00  0.00    -0.237 OA
ATOM     77  O   UNL A   1      45.239  37.292  33.737  1.00  0.00    -0.237 OA
ATOM     78  O   UNL A   1      43.866  38.129  31.867  1.00  0.00    -0.744 OA
ENDBRANCH  74  75
ENDBRANCH  53  67
BRANCH  54  79
ATOM     79  C   UNL A   1      42.689  23.745  27.695  1.00  0.00     0.058 A 
ATOM     80  C   UNL A   1      42.776  23.518  26.315  1.00  0.00     0.135 A 
ATOM     81  C   UNL A   1      42.468  22.627  28.518  1.00  0.00     0.135 A 
ATOM     82  F   UNL A   1      42.911  24.555  25.475  1.00  0.00    -0.206 F 
ATOM     83  C   UNL A   1      42.678  22.240  25.772  1.00  0.00     0.059 A 
ATOM     84  C   UNL A   1      42.392  21.336  28.005  1.00  0.00     0.059 A 
ATOM     85  F   UNL A   1      42.350  22.781  29.847  1.00  0.00    -0.206 F 
ATOM     86  C   UNL A   1      42.496  21.152  26.628  1.00  0.00     0.060 A 
BRANCH  86  87
ATOM     87  S   UNL A   1      42.402  19.497  25.916  1.00  0.00     0.124 S 
ATOM     88  O   UNL A   1      42.931  18.681  27.003  1.00  0.00    -0.237 OA
ATOM     89  O   UNL A   1      40.974  19.353  25.650  1.00  0.00    -0.237 OA
ATOM     90  O   UNL A   1      43.250  19.590  24.731  1.00  0.00    -0.744 OA
ENDBRANCH  86  87
ENDBRANCH  54  79
BRANCH  66  91
ATOM     91  C   UNL A   1      48.135  27.478  29.960  1.00  0.00     0.058 A 
ATOM     92  C   UNL A   1      49.029  27.748  28.914  1.00  0.00     0.135 A 
ATOM     93  C   UNL A   1      48.656  26.940  31.149  1.00  0.00     0.135 A 
ATOM     94  F   UNL A   1      48.580  28.254  27.754  1.00  0.00    -0.206 F 
ATOM     95  C   UNL A   1      50.387  27.472  29.030  1.00  0.00     0.059 A 
ATOM     96  C   UNL A   1      50.015  26.683  31.297  1.00  0.00     0.059 A 
ATOM     97  F   UNL A   1      47.844  26.671  32.183  1.00  0.00    -0.206 F 
ATOM     98  C   UNL A   1      50.871  26.941  30.227  1.00  0.00     0.060 A 
BRANCH  98  99
ATOM     99  S   UNL A   1      52.640  26.617  30.377  1.00  0.00     0.124 S 
ATOM    100  O   UNL A   1      53.001  26.307  28.998  1.00  0.00    -0.237 OA
ATOM    101  O   UNL A   1      53.147  27.883  30.896  1.00  0.00    -0.237 OA
ATOM    102  O   UNL A   1      52.702  25.495  31.309  1.00  0.00    -0.744 OA
ENDBRANCH  98  99
ENDBRANCH  66  91
ENDBRANCH  40  41
ENDBRANCH  33  35
ENDBRANCH  32  33
ENDBRANCH  31  32
ENDBRANCH   1  31
TORSDOF 19
ENDMDL
