MODEL 1
REMARK VINA RESULT:     -11.8      0.000      0.000
REMARK SMILES CC(=O)Nc1ccc(/C(=C\c2ccc(S(C)(=O)=O)cc2)C(=O)OCCOC(=O)c2ccc(-c3c4nc(c(-c5c(F)cc(S(=O)(=O)[O-])cc5F)c5ccc([nH]5)c(-c5c(F)cc(S(=O)(=O)[O-])cc5F)c5nc(c(-c6c(F)cc(S(=O)(=O)[O-])cc6F)c6ccc3[nH]6)C=C5)C=C4)cc2)cc1
REMARK SMILES IDX 25 1 24 2 23 3 21 4 22 5 9 6 10 7 8 8 5 9 6 10 96 11 7 12
REMARK SMILES IDX 95 13 4 14 1 15 2 16 3 17 11 19 12 20 20 21 13 22 19 23
REMARK SMILES IDX 14 24 15 25 16 26 17 27 18 28 26 29 27 30 28 31 29 32 30 33
REMARK SMILES IDX 94 34 31 35 93 36 32 37 33 38 34 39 87 40 35 41 92 42 86 43
REMARK SMILES IDX 88 44 36 45 91 46 85 47 84 48 37 50 71 51 50 52 70 53 51 54
REMARK SMILES IDX 54 55 69 56 89 57 52 58 53 59 68 61 90 62 55 63 38 64 39 65
REMARK SMILES IDX 48 66 40 67 41 68 47 69 49 70 42 71 43 72 44 73 45 74 46 75
REMARK SMILES IDX 72 76 73 77 82 78 74 79 75 80 81 81 83 82 76 83 77 84 78 85
REMARK SMILES IDX 79 86 80 87 56 88 57 89 66 90 58 91 59 92 65 93 67 94 60 95
REMARK SMILES IDX 61 96 62 97 63 98 64 99
REMARK H PARENT 4 18 88 49 54 60
REMARK Flexibility Score: inf
ROOT
ATOM      1  C   UNL A   1      33.648  28.247  25.079  1.00  0.00     0.275 C 
ENDROOT
BRANCH   1   2
ATOM      2  C   UNL A   1      33.046  26.843  25.098  1.00  0.00     0.275 C 
BRANCH   2   3
ATOM      3  O   UNL A   1      32.590  26.479  23.776  1.00  0.00    -0.458 OA
BRANCH   3   4
ATOM      4  C   UNL A   1      33.463  25.813  22.966  1.00  0.00     0.338 C 
ATOM      5  O   UNL A   1      34.029  26.300  21.999  1.00  0.00    -0.246 OA
BRANCH   4   6
ATOM      6  C   UNL A   1      33.654  24.380  23.421  1.00  0.00     0.067 C 
ATOM      7  C   UNL A   1      32.536  23.626  23.236  1.00  0.00     0.024 C 
BRANCH   6   8
ATOM      8  C   UNL A   1      34.973  23.931  24.028  1.00  0.00    -0.011 A 
ATOM      9  C   UNL A   1      37.134  22.608  25.362  1.00  0.00     0.041 A 
ATOM     10  C   UNL A   1      36.962  22.466  24.000  1.00  0.00     0.027 A 
ATOM     11  C   UNL A   1      36.376  23.565  26.020  1.00  0.00     0.027 A 
ATOM     12  C   UNL A   1      35.909  23.129  23.356  1.00  0.00     0.011 A 
ATOM     13  C   UNL A   1      35.329  24.234  25.351  1.00  0.00     0.011 A 
BRANCH   9  14
ATOM     14  N   UNL A   1      38.110  21.832  25.990  1.00  0.00    -0.326 N 
ATOM     15  C   UNL A   1      39.661  23.683  26.559  1.00  0.00     0.114 C 
ATOM     16  C   UNL A   1      39.322  22.219  26.499  1.00  0.00     0.221 C 
ATOM     17  O   UNL A   1      40.056  21.365  26.996  1.00  0.00    -0.275 OA
ATOM     18  H   UNL A   1      37.898  20.874  26.080  1.00  0.00     0.169 HD
ENDBRANCH   9  14
ENDBRANCH   6   8
BRANCH   7  19
ATOM     19  C   UNL A   1      32.361  22.201  23.528  1.00  0.00    -0.025 A 
ATOM     20  C   UNL A   1      32.129  21.333  22.451  1.00  0.00     0.009 A 
ATOM     21  C   UNL A   1      32.641  21.685  24.802  1.00  0.00     0.009 A 
ATOM     22  C   UNL A   1      32.332  19.963  22.608  1.00  0.00     0.021 A 
ATOM     23  C   UNL A   1      32.851  20.313  24.962  1.00  0.00     0.021 A 
ATOM     24  C   UNL A   1      32.740  19.469  23.851  1.00  0.00     0.067 A 
BRANCH  24  25
ATOM     25  S   UNL A   1      33.358  17.802  23.935  1.00  0.00     0.175 S 
ATOM     26  C   UNL A   1      32.524  17.111  25.331  1.00  0.00     0.163 C 
ATOM     27  O   UNL A   1      32.900  17.115  22.751  1.00  0.00    -0.224 OA
ATOM     28  O   UNL A   1      34.777  17.874  24.254  1.00  0.00    -0.224 OA
ENDBRANCH  24  25
ENDBRANCH   7  19
ENDBRANCH   4   6
ENDBRANCH   3   4
ENDBRANCH   2   3
ENDBRANCH   1   2
BRANCH   1  29
ATOM     29  O   UNL A   1      34.532  28.390  26.204  1.00  0.00    -0.458 OA
BRANCH  29  30
ATOM     30  C   UNL A   1      34.467  29.564  26.870  1.00  0.00     0.338 C 
ATOM     31  O   UNL A   1      33.573  30.400  26.832  1.00  0.00    -0.246 OA
BRANCH  30  32
ATOM     32  C   UNL A   1      35.613  29.641  27.784  1.00  0.00     0.060 A 
ATOM     33  C   UNL A   1      36.854  29.887  27.217  1.00  0.00     0.016 A 
ATOM     34  C   UNL A   1      35.514  29.362  29.146  1.00  0.00     0.016 A 
ATOM     35  C   UNL A   1      38.004  29.791  27.992  1.00  0.00     0.010 A 
ATOM     36  C   UNL A   1      36.680  29.326  29.937  1.00  0.00     0.010 A 
ATOM     37  C   UNL A   1      37.951  29.499  29.360  1.00  0.00    -0.014 A 
BRANCH  37  38
ATOM     38  C   UNL A   1      39.230  29.245  30.103  1.00  0.00     0.031 A 
ATOM     39  C   UNL A   1      40.206  28.211  29.587  1.00  0.00     0.074 A 
ATOM     40  C   UNL A   1      39.630  30.042  31.120  1.00  0.00     0.049 A 
ATOM     41  N   UNL A   1      41.328  27.790  30.115  1.00  0.00    -0.248 NA
ATOM     42  C   UNL A   1      39.892  27.592  28.289  1.00  0.00     0.031 C 
ATOM     43  C   UNL A   1      38.889  31.191  31.642  1.00  0.00     0.029 A 
ATOM     44  N   UNL A   1      40.791  30.042  31.864  1.00  0.00    -0.354 N 
ATOM     45  C   UNL A   1      41.832  26.832  29.240  1.00  0.00     0.074 A 
ATOM     46  C   UNL A   1      40.890  26.732  28.145  1.00  0.00     0.031 C 
ATOM     47  C   UNL A   1      39.634  31.819  32.564  1.00  0.00     0.029 A 
ATOM     48  C   UNL A   1      40.855  31.053  32.799  1.00  0.00     0.049 A 
ATOM     49  H   UNL A   1      41.509  29.380  31.739  1.00  0.00     0.167 HD
ATOM     50  C   UNL A   1      42.970  26.102  29.333  1.00  0.00     0.037 A 
ATOM     51  C   UNL A   1      41.754  31.311  33.772  1.00  0.00     0.037 A 
ATOM     52  C   UNL A   1      43.930  26.218  30.400  1.00  0.00     0.049 A 
ATOM     53  C   UNL A   1      42.928  30.385  33.956  1.00  0.00     0.074 A 
ATOM     54  C   UNL A   1      45.069  25.461  30.619  1.00  0.00     0.029 A 
ATOM     55  N   UNL A   1      43.880  27.163  31.413  1.00  0.00    -0.354 N 
ATOM     56  N   UNL A   1      43.309  29.377  33.209  1.00  0.00    -0.248 NA
ATOM     57  C   UNL A   1      43.773  30.604  35.141  1.00  0.00     0.031 C 
ATOM     58  C   UNL A   1      45.679  25.914  31.795  1.00  0.00     0.029 A 
ATOM     59  C   UNL A   1      44.948  26.986  32.280  1.00  0.00     0.049 A 
ATOM     60  H   UNL A   1      43.188  27.856  31.504  1.00  0.00     0.167 HD
ATOM     61  C   UNL A   1      44.442  28.853  33.823  1.00  0.00     0.074 A 
ATOM     62  C   UNL A   1      44.695  29.661  34.996  1.00  0.00     0.031 C 
ATOM     63  C   UNL A   1      45.199  27.792  33.448  1.00  0.00     0.037 A 
BRANCH  50  64
ATOM     64  C   UNL A   1      43.198  25.047  28.285  1.00  0.00     0.058 A 
ATOM     65  C   UNL A   1      42.830  23.706  28.474  1.00  0.00     0.135 A 
ATOM     66  C   UNL A   1      43.793  25.398  27.061  1.00  0.00     0.135 A 
ATOM     67  F   UNL A   1      42.281  23.313  29.632  1.00  0.00    -0.206 F 
ATOM     68  C   UNL A   1      43.074  22.743  27.497  1.00  0.00     0.059 A 
ATOM     69  C   UNL A   1      44.023  24.457  26.062  1.00  0.00     0.059 A 
ATOM     70  F   UNL A   1      44.165  26.666  26.831  1.00  0.00    -0.206 F 
ATOM     71  C   UNL A   1      43.677  23.129  26.298  1.00  0.00     0.060 A 
BRANCH  71  72
ATOM     72  S   UNL A   1      44.021  21.865  25.054  1.00  0.00     0.124 S 
ATOM     73  O   UNL A   1      45.411  21.533  25.356  1.00  0.00    -0.237 OA
ATOM     74  O   UNL A   1      43.040  20.834  25.375  1.00  0.00    -0.237 OA
ATOM     75  O   UNL A   1      43.805  22.562  23.791  1.00  0.00    -0.744 OA
ENDBRANCH  71  72
ENDBRANCH  50  64
BRANCH  51  76
ATOM     76  C   UNL A   1      41.531  32.442  34.721  1.00  0.00     0.058 A 
ATOM     77  C   UNL A   1      42.080  33.714  34.497  1.00  0.00     0.135 A 
ATOM     78  C   UNL A   1      40.774  32.260  35.891  1.00  0.00     0.135 A 
ATOM     79  F   UNL A   1      42.835  33.938  33.411  1.00  0.00    -0.206 F 
ATOM     80  C   UNL A   1      41.887  34.761  35.396  1.00  0.00     0.059 A 
ATOM     81  C   UNL A   1      40.537  33.299  36.784  1.00  0.00     0.059 A 
ATOM     82  F   UNL A   1      40.232  31.063  36.163  1.00  0.00    -0.206 F 
ATOM     83  C   UNL A   1      41.108  34.545  36.534  1.00  0.00     0.060 A 
BRANCH  83  84
ATOM     84  S   UNL A   1      40.815  35.916  37.673  1.00  0.00     0.124 S 
ATOM     85  O   UNL A   1      40.577  35.211  38.928  1.00  0.00    -0.237 OA
ATOM     86  O   UNL A   1      42.066  36.663  37.587  1.00  0.00    -0.237 OA
ATOM     87  O   UNL A   1      39.653  36.587  37.096  1.00  0.00    -0.744 OA
ENDBRANCH  83  84
ENDBRANCH  51  76
BRANCH  63  88
ATOM     88  C   UNL A   1      46.390  27.445  34.300  1.00  0.00     0.058 A 
ATOM     89  C   UNL A   1      47.646  28.034  34.088  1.00  0.00     0.135 A 
ATOM     90  C   UNL A   1      46.260  26.557  35.382  1.00  0.00     0.135 A 
ATOM     91  F   UNL A   1      47.828  28.885  33.065  1.00  0.00    -0.206 F 
ATOM     92  C   UNL A   1      48.734  27.745  34.905  1.00  0.00     0.059 A 
ATOM     93  C   UNL A   1      47.328  26.272  36.227  1.00  0.00     0.059 A 
ATOM     94  F   UNL A   1      45.079  25.972  35.638  1.00  0.00    -0.206 F 
ATOM     95  C   UNL A   1      48.565  26.864  35.976  1.00  0.00     0.060 A 
BRANCH  95  96
ATOM     96  S   UNL A   1      49.974  26.532  37.055  1.00  0.00     0.124 S 
ATOM     97  O   UNL A   1      50.642  27.830  37.077  1.00  0.00    -0.237 OA
ATOM     98  O   UNL A   1      49.328  26.133  38.301  1.00  0.00    -0.237 OA
ATOM     99  O   UNL A   1      50.693  25.468  36.361  1.00  0.00    -0.744 OA
ENDBRANCH  95  96
ENDBRANCH  63  88
ENDBRANCH  37  38
ENDBRANCH  30  32
ENDBRANCH  29  30
ENDBRANCH   1  29
TORSDOF 18
ENDMDL
MODEL 2
REMARK VINA RESULT:     -11.8      4.741      7.446
REMARK SMILES CC(=O)Nc1ccc(/C(=C\c2ccc(S(C)(=O)=O)cc2)C(=O)OCCOC(=O)c2ccc(-c3c4nc(c(-c5c(F)cc(S(=O)(=O)[O-])cc5F)c5ccc([nH]5)c(-c5c(F)cc(S(=O)(=O)[O-])cc5F)c5nc(c(-c6c(F)cc(S(=O)(=O)[O-])cc6F)c6ccc3[nH]6)C=C5)C=C4)cc2)cc1
REMARK SMILES IDX 25 1 24 2 23 3 21 4 22 5 9 6 10 7 8 8 5 9 6 10 96 11 7 12
REMARK SMILES IDX 95 13 4 14 1 15 2 16 3 17 11 19 12 20 20 21 13 22 19 23
REMARK SMILES IDX 14 24 15 25 16 26 17 27 18 28 26 29 27 30 28 31 29 32 30 33
REMARK SMILES IDX 94 34 31 35 93 36 32 37 33 38 34 39 87 40 35 41 92 42 86 43
REMARK SMILES IDX 88 44 36 45 91 46 85 47 84 48 37 50 71 51 50 52 70 53 51 54
REMARK SMILES IDX 54 55 69 56 89 57 52 58 53 59 68 61 90 62 55 63 38 64 39 65
REMARK SMILES IDX 48 66 40 67 41 68 47 69 49 70 42 71 43 72 44 73 45 74 46 75
REMARK SMILES IDX 72 76 73 77 82 78 74 79 75 80 81 81 83 82 76 83 77 84 78 85
REMARK SMILES IDX 79 86 80 87 56 88 57 89 66 90 58 91 59 92 65 93 67 94 60 95
REMARK SMILES IDX 61 96 62 97 63 98 64 99
REMARK H PARENT 4 18 88 49 54 60
REMARK Flexibility Score: inf
ROOT
ATOM      1  C   UNL A   1      35.561  22.773  25.779  1.00  0.00     0.275 C 
ENDROOT
BRANCH   1   2
ATOM      2  C   UNL A   1      34.373  23.108  26.681  1.00  0.00     0.275 C 
BRANCH   2   3
ATOM      3  O   UNL A   1      33.240  23.514  25.882  1.00  0.00    -0.458 OA
BRANCH   3   4
ATOM      4  C   UNL A   1      32.195  24.113  26.523  1.00  0.00     0.338 C 
ATOM      5  O   UNL A   1      31.646  23.674  27.522  1.00  0.00    -0.246 OA
BRANCH   4   6
ATOM      6  C   UNL A   1      31.798  25.407  25.842  1.00  0.00     0.067 C 
ATOM      7  C   UNL A   1      30.918  25.207  24.823  1.00  0.00     0.024 C 
BRANCH   6   8
ATOM      8  C   UNL A   1      32.388  26.732  26.297  1.00  0.00    -0.011 A 
ATOM      9  C   UNL A   1      33.266  29.437  26.633  1.00  0.00     0.041 A 
ATOM     10  C   UNL A   1      32.106  28.999  27.239  1.00  0.00     0.027 A 
ATOM     11  C   UNL A   1      34.094  28.493  26.047  1.00  0.00     0.027 A 
ATOM     12  C   UNL A   1      31.693  27.669  27.078  1.00  0.00     0.011 A 
ATOM     13  C   UNL A   1      33.668  27.154  25.906  1.00  0.00     0.011 A 
BRANCH   9  14
ATOM     14  N   UNL A   1      33.576  30.796  26.705  1.00  0.00    -0.326 N 
ATOM     15  C   UNL A   1      35.221  30.641  28.556  1.00  0.00     0.114 C 
ATOM     16  C   UNL A   1      34.395  31.446  27.591  1.00  0.00     0.221 C 
ATOM     17  O   UNL A   1      34.517  32.668  27.498  1.00  0.00    -0.275 OA
ATOM     18  H   UNL A   1      33.148  31.367  26.026  1.00  0.00     0.169 HD
ENDBRANCH   9  14
ENDBRANCH   6   8
BRANCH   7  19
ATOM     19  C   UNL A   1      30.297  26.220  23.966  1.00  0.00    -0.025 A 
ATOM     20  C   UNL A   1      28.904  26.373  24.035  1.00  0.00     0.009 A 
ATOM     21  C   UNL A   1      31.077  27.157  23.274  1.00  0.00     0.009 A 
ATOM     22  C   UNL A   1      28.311  27.539  23.553  1.00  0.00     0.021 A 
ATOM     23  C   UNL A   1      30.486  28.329  22.795  1.00  0.00     0.021 A 
ATOM     24  C   UNL A   1      29.114  28.530  22.980  1.00  0.00     0.067 A 
BRANCH  24  25
ATOM     25  S   UNL A   1      28.410  30.144  22.725  1.00  0.00     0.175 S 
ATOM     26  C   UNL A   1      29.291  31.176  23.857  1.00  0.00     0.163 C 
ATOM     27  O   UNL A   1      28.750  30.554  21.384  1.00  0.00    -0.224 OA
ATOM     28  O   UNL A   1      27.020  30.092  23.159  1.00  0.00    -0.224 OA
ENDBRANCH  24  25
ENDBRANCH   7  19
ENDBRANCH   4   6
ENDBRANCH   3   4
ENDBRANCH   2   3
ENDBRANCH   1   2
BRANCH   1  29
ATOM     29  O   UNL A   1      36.659  23.639  26.114  1.00  0.00    -0.458 OA
BRANCH  29  30
ATOM     30  C   UNL A   1      37.887  23.077  26.108  1.00  0.00     0.338 C 
ATOM     31  O   UNL A   1      38.206  21.976  25.674  1.00  0.00    -0.246 OA
BRANCH  30  32
ATOM     32  C   UNL A   1      38.852  24.067  26.603  1.00  0.00     0.060 A 
ATOM     33  C   UNL A   1      38.864  24.304  27.968  1.00  0.00     0.016 A 
ATOM     34  C   UNL A   1      39.644  24.838  25.755  1.00  0.00     0.016 A 
ATOM     35  C   UNL A   1      39.615  25.354  28.485  1.00  0.00     0.010 A 
ATOM     36  C   UNL A   1      40.450  25.861  26.295  1.00  0.00     0.010 A 
ATOM     37  C   UNL A   1      40.414  26.163  27.668  1.00  0.00    -0.014 A 
BRANCH  37  38
ATOM     38  C   UNL A   1      41.068  27.378  28.258  1.00  0.00     0.031 A 
ATOM     39  C   UNL A   1      42.563  27.567  28.122  1.00  0.00     0.074 A 
ATOM     40  C   UNL A   1      40.341  28.406  28.751  1.00  0.00     0.049 A 
ATOM     41  N   UNL A   1      43.331  28.504  28.618  1.00  0.00    -0.248 NA
ATOM     42  C   UNL A   1      43.282  26.589  27.289  1.00  0.00     0.031 C 
ATOM     43  C   UNL A   1      38.880  28.464  28.809  1.00  0.00     0.029 A 
ATOM     44  N   UNL A   1      40.732  29.632  29.247  1.00  0.00    -0.354 N 
ATOM     45  C   UNL A   1      44.623  28.208  28.195  1.00  0.00     0.074 A 
ATOM     46  C   UNL A   1      44.536  27.001  27.402  1.00  0.00     0.031 C 
ATOM     47  C   UNL A   1      38.500  29.675  29.243  1.00  0.00     0.029 A 
ATOM     48  C   UNL A   1      39.683  30.445  29.618  1.00  0.00     0.049 A 
ATOM     49  H   UNL A   1      41.675  29.902  29.327  1.00  0.00     0.167 HD
ATOM     50  C   UNL A   1      45.778  28.875  28.441  1.00  0.00     0.037 A 
ATOM     51  C   UNL A   1      39.660  31.642  30.240  1.00  0.00     0.037 A 
ATOM     52  C   UNL A   1      45.871  30.095  29.200  1.00  0.00     0.049 A 
ATOM     53  C   UNL A   1      40.960  32.286  30.647  1.00  0.00     0.074 A 
ATOM     54  C   UNL A   1      47.008  30.795  29.568  1.00  0.00     0.029 A 
ATOM     55  N   UNL A   1      44.788  30.812  29.686  1.00  0.00    -0.354 N 
ATOM     56  N   UNL A   1      42.187  31.911  30.378  1.00  0.00    -0.248 NA
ATOM     57  C   UNL A   1      40.874  33.496  31.482  1.00  0.00     0.031 C 
ATOM     58  C   UNL A   1      46.615  31.906  30.324  1.00  0.00     0.029 A 
ATOM     59  C   UNL A   1      45.231  31.926  30.382  1.00  0.00     0.049 A 
ATOM     60  H   UNL A   1      43.844  30.565  29.557  1.00  0.00     0.167 HD
ATOM     61  C   UNL A   1      43.016  32.844  30.994  1.00  0.00     0.074 A 
ATOM     62  C   UNL A   1      42.153  33.809  31.640  1.00  0.00     0.031 C 
ATOM     63  C   UNL A   1      44.371  32.888  31.025  1.00  0.00     0.037 A 
BRANCH  50  64
ATOM     64  C   UNL A   1      47.053  28.249  27.947  1.00  0.00     0.058 A 
ATOM     65  C   UNL A   1      47.583  28.521  26.676  1.00  0.00     0.135 A 
ATOM     66  C   UNL A   1      47.761  27.362  28.776  1.00  0.00     0.135 A 
ATOM     67  F   UNL A   1      46.935  29.342  25.836  1.00  0.00    -0.206 F 
ATOM     68  C   UNL A   1      48.753  27.910  26.232  1.00  0.00     0.059 A 
ATOM     69  C   UNL A   1      48.945  26.759  28.363  1.00  0.00     0.059 A 
ATOM     70  F   UNL A   1      47.297  27.066  30.000  1.00  0.00    -0.206 F 
ATOM     71  C   UNL A   1      49.422  27.026  27.081  1.00  0.00     0.060 A 
BRANCH  71  72
ATOM     72  S   UNL A   1      50.919  26.212  26.482  1.00  0.00     0.124 S 
ATOM     73  O   UNL A   1      50.786  24.885  27.078  1.00  0.00    -0.237 OA
ATOM     74  O   UNL A   1      50.752  26.275  25.034  1.00  0.00    -0.237 OA
ATOM     75  O   UNL A   1      51.996  27.035  27.022  1.00  0.00    -0.744 OA
ENDBRANCH  71  72
ENDBRANCH  50  64
BRANCH  51  76
ATOM     76  C   UNL A   1      38.358  32.272  30.611  1.00  0.00     0.058 A 
ATOM     77  C   UNL A   1      37.696  31.950  31.805  1.00  0.00     0.135 A 
ATOM     78  C   UNL A   1      37.738  33.200  29.756  1.00  0.00     0.135 A 
ATOM     79  F   UNL A   1      38.226  31.049  32.646  1.00  0.00    -0.206 F 
ATOM     80  C   UNL A   1      36.471  32.523  32.139  1.00  0.00     0.059 A 
ATOM     81  C   UNL A   1      36.534  33.812  30.084  1.00  0.00     0.059 A 
ATOM     82  F   UNL A   1      38.319  33.539  28.596  1.00  0.00    -0.206 F 
ATOM     83  C   UNL A   1      35.901  33.459  31.273  1.00  0.00     0.060 A 
BRANCH  83  84
ATOM     84  S   UNL A   1      34.337  34.241  31.729  1.00  0.00     0.124 S 
ATOM     85  O   UNL A   1      34.797  35.479  32.348  1.00  0.00    -0.237 OA
ATOM     86  O   UNL A   1      33.672  34.380  30.438  1.00  0.00    -0.237 OA
ATOM     87  O   UNL A   1      33.730  33.270  32.636  1.00  0.00    -0.744 OA
ENDBRANCH  83  84
ENDBRANCH  51  76
BRANCH  63  88
ATOM     88  C   UNL A   1      45.017  34.027  31.767  1.00  0.00     0.058 A 
ATOM     89  C   UNL A   1      45.292  35.253  31.141  1.00  0.00     0.135 A 
ATOM     90  C   UNL A   1      45.313  33.912  33.136  1.00  0.00     0.135 A 
ATOM     91  F   UNL A   1      45.035  35.415  29.833  1.00  0.00    -0.206 F 
ATOM     92  C   UNL A   1      45.849  36.319  31.840  1.00  0.00     0.059 A 
ATOM     93  C   UNL A   1      45.848  34.973  33.860  1.00  0.00     0.059 A 
ATOM     94  F   UNL A   1      45.062  32.765  33.787  1.00  0.00    -0.206 F 
ATOM     95  C   UNL A   1      46.121  36.171  33.202  1.00  0.00     0.060 A 
BRANCH  95  96
ATOM     96  S   UNL A   1      46.802  37.577  34.106  1.00  0.00     0.124 S 
ATOM     97  O   UNL A   1      45.715  37.892  35.028  1.00  0.00    -0.237 OA
ATOM     98  O   UNL A   1      48.001  37.009  34.714  1.00  0.00    -0.237 OA
ATOM     99  O   UNL A   1      47.047  38.568  33.062  1.00  0.00    -0.744 OA
ENDBRANCH  95  96
ENDBRANCH  63  88
ENDBRANCH  37  38
ENDBRANCH  30  32
ENDBRANCH  29  30
ENDBRANCH   1  29
TORSDOF 18
ENDMDL
MODEL 3
REMARK VINA RESULT:     -11.8      0.924      8.086
REMARK SMILES CC(=O)Nc1ccc(/C(=C\c2ccc(S(C)(=O)=O)cc2)C(=O)OCCOC(=O)c2ccc(-c3c4nc(c(-c5c(F)cc(S(=O)(=O)[O-])cc5F)c5ccc([nH]5)c(-c5c(F)cc(S(=O)(=O)[O-])cc5F)c5nc(c(-c6c(F)cc(S(=O)(=O)[O-])cc6F)c6ccc3[nH]6)C=C5)C=C4)cc2)cc1
REMARK SMILES IDX 25 1 24 2 23 3 21 4 22 5 9 6 10 7 8 8 5 9 6 10 96 11 7 12
REMARK SMILES IDX 95 13 4 14 1 15 2 16 3 17 11 19 12 20 20 21 13 22 19 23
REMARK SMILES IDX 14 24 15 25 16 26 17 27 18 28 26 29 27 30 28 31 29 32 30 33
REMARK SMILES IDX 94 34 31 35 93 36 32 37 33 38 34 39 87 40 35 41 92 42 86 43
REMARK SMILES IDX 88 44 36 45 91 46 85 47 84 48 37 50 71 51 50 52 70 53 51 54
REMARK SMILES IDX 54 55 69 56 89 57 52 58 53 59 68 61 90 62 55 63 38 64 39 65
REMARK SMILES IDX 48 66 40 67 41 68 47 69 49 70 42 71 43 72 44 73 45 74 46 75
REMARK SMILES IDX 72 76 73 77 82 78 74 79 75 80 81 81 83 82 76 83 77 84 78 85
REMARK SMILES IDX 79 86 80 87 56 88 57 89 66 90 58 91 59 92 65 93 67 94 60 95
REMARK SMILES IDX 61 96 62 97 63 98 64 99
REMARK H PARENT 4 18 88 49 54 60
REMARK Flexibility Score: inf
ROOT
ATOM      1  C   UNL A   1      33.589  28.691  25.138  1.00  0.00     0.275 C 
ENDROOT
BRANCH   1   2
ATOM      2  C   UNL A   1      33.150  27.280  24.753  1.00  0.00     0.275 C 
BRANCH   2   3
ATOM      3  O   UNL A   1      34.077  26.711  23.802  1.00  0.00    -0.458 OA
BRANCH   3   4
ATOM      4  C   UNL A   1      33.584  25.830  22.885  1.00  0.00     0.338 C 
ATOM      5  O   UNL A   1      33.103  26.142  21.806  1.00  0.00    -0.246 OA
BRANCH   4   6
ATOM      6  C   UNL A   1      33.710  24.400  23.370  1.00  0.00     0.067 C 
ATOM      7  C   UNL A   1      32.566  23.688  23.185  1.00  0.00     0.024 C 
BRANCH   6   8
ATOM      8  C   UNL A   1      35.003  23.911  24.003  1.00  0.00    -0.011 A 
ATOM      9  C   UNL A   1      37.101  22.510  25.357  1.00  0.00     0.041 A 
ATOM     10  C   UNL A   1      36.975  22.423  23.986  1.00  0.00     0.027 A 
ATOM     11  C   UNL A   1      36.332  23.449  26.026  1.00  0.00     0.027 A 
ATOM     12  C   UNL A   1      35.952  23.124  23.333  1.00  0.00     0.011 A 
ATOM     13  C   UNL A   1      35.315  24.157  25.349  1.00  0.00     0.011 A 
BRANCH   9  14
ATOM     14  N   UNL A   1      38.046  21.697  25.987  1.00  0.00    -0.326 N 
ATOM     15  C   UNL A   1      39.694  23.478  26.502  1.00  0.00     0.114 C 
ATOM     16  C   UNL A   1      39.282  22.032  26.473  1.00  0.00     0.221 C 
ATOM     17  O   UNL A   1      39.979  21.151  26.976  1.00  0.00    -0.275 OA
ATOM     18  H   UNL A   1      37.788  20.752  26.097  1.00  0.00     0.169 HD
ENDBRANCH   9  14
ENDBRANCH   6   8
BRANCH   7  19
ATOM     19  C   UNL A   1      32.329  22.277  23.503  1.00  0.00    -0.025 A 
ATOM     20  C   UNL A   1      32.074  21.398  22.440  1.00  0.00     0.009 A 
ATOM     21  C   UNL A   1      32.574  21.776  24.790  1.00  0.00     0.009 A 
ATOM     22  C   UNL A   1      32.220  20.025  22.626  1.00  0.00     0.021 A 
ATOM     23  C   UNL A   1      32.727  20.400  24.979  1.00  0.00     0.021 A 
ATOM     24  C   UNL A   1      32.593  19.539  23.884  1.00  0.00     0.067 A 
BRANCH  24  25
ATOM     25  S   UNL A   1      33.142  17.851  24.007  1.00  0.00     0.175 S 
ATOM     26  C   UNL A   1      34.845  17.990  24.457  1.00  0.00     0.163 C 
ATOM     27  O   UNL A   1      32.433  17.249  25.111  1.00  0.00    -0.224 OA
ATOM     28  O   UNL A   1      33.079  17.268  22.674  1.00  0.00    -0.224 OA
ENDBRANCH  24  25
ENDBRANCH   7  19
ENDBRANCH   4   6
ENDBRANCH   3   4
ENDBRANCH   2   3
ENDBRANCH   1   2
BRANCH   1  29
ATOM     29  O   UNL A   1      34.159  28.659  26.457  1.00  0.00    -0.458 OA
BRANCH  29  30
ATOM     30  C   UNL A   1      34.224  29.839  27.111  1.00  0.00     0.338 C 
ATOM     31  O   UNL A   1      33.373  30.719  27.155  1.00  0.00    -0.246 OA
BRANCH  30  32
ATOM     32  C   UNL A   1      35.462  29.865  27.899  1.00  0.00     0.060 A 
ATOM     33  C   UNL A   1      36.631  30.171  27.221  1.00  0.00     0.016 A 
ATOM     34  C   UNL A   1      35.513  29.485  29.239  1.00  0.00     0.016 A 
ATOM     35  C   UNL A   1      37.860  30.034  27.858  1.00  0.00     0.010 A 
ATOM     36  C   UNL A   1      36.758  29.408  29.894  1.00  0.00     0.010 A 
ATOM     37  C   UNL A   1      37.958  29.641  29.198  1.00  0.00    -0.014 A 
BRANCH  37  38
ATOM     38  C   UNL A   1      39.312  29.352  29.777  1.00  0.00     0.031 A 
ATOM     39  C   UNL A   1      39.756  30.061  31.038  1.00  0.00     0.074 A 
ATOM     40  C   UNL A   1      40.080  28.339  29.316  1.00  0.00     0.049 A 
ATOM     41  N   UNL A   1      40.908  30.010  31.658  1.00  0.00    -0.248 NA
ATOM     42  C   UNL A   1      38.760  30.916  31.704  1.00  0.00     0.031 C 
ATOM     43  C   UNL A   1      39.732  27.444  28.211  1.00  0.00     0.029 A 
ATOM     44  N   UNL A   1      41.293  27.853  29.755  1.00  0.00    -0.354 N 
ATOM     45  C   UNL A   1      40.791  30.852  32.760  1.00  0.00     0.074 A 
ATOM     46  C   UNL A   1      39.455  31.406  32.721  1.00  0.00     0.031 C 
ATOM     47  C   UNL A   1      40.666  26.487  28.105  1.00  0.00     0.029 A 
ATOM     48  C   UNL A   1      41.748  26.763  29.046  1.00  0.00     0.049 A 
ATOM     49  H   UNL A   1      41.788  28.248  30.509  1.00  0.00     0.167 HD
ATOM     50  C   UNL A   1      41.707  31.142  33.716  1.00  0.00     0.037 A 
ATOM     51  C   UNL A   1      42.918  26.092  29.096  1.00  0.00     0.037 A 
ATOM     52  C   UNL A   1      43.027  30.572  33.784  1.00  0.00     0.049 A 
ATOM     53  C   UNL A   1      43.985  26.541  30.062  1.00  0.00     0.074 A 
ATOM     54  C   UNL A   1      44.050  30.869  34.669  1.00  0.00     0.029 A 
ATOM     55  N   UNL A   1      43.502  29.571  32.950  1.00  0.00    -0.354 N 
ATOM     56  N   UNL A   1      43.917  27.455  31.000  1.00  0.00    -0.248 NA
ATOM     57  C   UNL A   1      45.303  25.897  29.948  1.00  0.00     0.031 C 
ATOM     58  C   UNL A   1      45.162  30.086  34.336  1.00  0.00     0.029 A 
ATOM     59  C   UNL A   1      44.814  29.264  33.277  1.00  0.00     0.049 A 
ATOM     60  H   UNL A   1      42.985  29.142  32.231  1.00  0.00     0.167 HD
ATOM     61  C   UNL A   1      45.173  27.484  31.596  1.00  0.00     0.074 A 
ATOM     62  C   UNL A   1      45.980  26.488  30.924  1.00  0.00     0.031 C 
ATOM     63  C   UNL A   1      45.617  28.271  32.607  1.00  0.00     0.037 A 
BRANCH  50  64
ATOM     64  C   UNL A   1      41.336  32.190  34.729  1.00  0.00     0.058 A 
ATOM     65  C   UNL A   1      40.756  31.870  35.966  1.00  0.00     0.135 A 
ATOM     66  C   UNL A   1      41.577  33.546  34.450  1.00  0.00     0.135 A 
ATOM     67  F   UNL A   1      40.482  30.593  36.274  1.00  0.00    -0.206 F 
ATOM     68  C   UNL A   1      40.399  32.860  36.879  1.00  0.00     0.059 A 
ATOM     69  C   UNL A   1      41.252  34.550  35.357  1.00  0.00     0.059 A 
ATOM     70  F   UNL A   1      42.128  33.907  33.281  1.00  0.00    -0.206 F 
ATOM     71  C   UNL A   1      40.645  34.197  36.561  1.00  0.00     0.060 A 
BRANCH  71  72
ATOM     72  S   UNL A   1      40.146  35.475  37.735  1.00  0.00     0.124 S 
ATOM     73  O   UNL A   1      38.919  34.902  38.282  1.00  0.00    -0.237 OA
ATOM     74  O   UNL A   1      41.283  35.524  38.648  1.00  0.00    -0.237 OA
ATOM     75  O   UNL A   1      39.966  36.657  36.899  1.00  0.00    -0.744 OA
ENDBRANCH  71  72
ENDBRANCH  50  64
BRANCH  51  76
ATOM     76  C   UNL A   1      43.192  24.984  28.133  1.00  0.00     0.058 A 
ATOM     77  C   UNL A   1      42.946  23.642  28.461  1.00  0.00     0.135 A 
ATOM     78  C   UNL A   1      43.731  25.252  26.863  1.00  0.00     0.135 A 
ATOM     79  F   UNL A   1      42.459  23.325  29.670  1.00  0.00    -0.206 F 
ATOM     80  C   UNL A   1      43.222  22.610  27.568  1.00  0.00     0.059 A 
ATOM     81  C   UNL A   1      43.981  24.242  25.941  1.00  0.00     0.059 A 
ATOM     82  F   UNL A   1      43.997  26.515  26.497  1.00  0.00    -0.206 F 
ATOM     83  C   UNL A   1      43.734  22.921  26.306  1.00  0.00     0.060 A 
BRANCH  83  84
ATOM     84  S   UNL A   1      44.045  21.586  25.129  1.00  0.00     0.124 S 
ATOM     85  O   UNL A   1      43.955  22.291  23.855  1.00  0.00    -0.237 OA
ATOM     86  O   UNL A   1      45.377  21.135  25.517  1.00  0.00    -0.237 OA
ATOM     87  O   UNL A   1      42.967  20.640  25.405  1.00  0.00    -0.744 OA
ENDBRANCH  83  84
ENDBRANCH  51  76
BRANCH  63  88
ATOM     88  C   UNL A   1      47.037  28.085  33.069  1.00  0.00     0.058 A 
ATOM     89  C   UNL A   1      48.091  28.843  32.534  1.00  0.00     0.135 A 
ATOM     90  C   UNL A   1      47.340  27.181  34.100  1.00  0.00     0.135 A 
ATOM     91  F   UNL A   1      47.859  29.718  31.543  1.00  0.00    -0.206 F 
ATOM     92  C   UNL A   1      49.397  28.701  32.994  1.00  0.00     0.059 A 
ATOM     93  C   UNL A   1      48.635  27.039  34.592  1.00  0.00     0.059 A 
ATOM     94  F   UNL A   1      46.370  26.437  34.654  1.00  0.00    -0.206 F 
ATOM     95  C   UNL A   1      49.658  27.797  34.027  1.00  0.00     0.060 A 
BRANCH  95  96
ATOM     96  S   UNL A   1      51.350  27.656  34.645  1.00  0.00     0.124 S 
ATOM     97  O   UNL A   1      51.938  26.724  33.688  1.00  0.00    -0.237 OA
ATOM     98  O   UNL A   1      51.830  29.032  34.564  1.00  0.00    -0.237 OA
ATOM     99  O   UNL A   1      51.176  27.139  35.999  1.00  0.00    -0.744 OA
ENDBRANCH  95  96
ENDBRANCH  63  88
ENDBRANCH  37  38
ENDBRANCH  30  32
ENDBRANCH  29  30
ENDBRANCH   1  29
TORSDOF 18
ENDMDL
