MODEL 1
REMARK VINA RESULT:     -13.0      0.000      0.000
REMARK SMILES COc1ccc2c(c1)c(Cc1nc(-c3ccc(C(=O)OCCOC(=O)c4ccc(-c5c6nc(c(-c7c(F)cc(S(=O)(=O)[O-])cc7F)c7ccc([nH]7)c(-c7c(F)cc(S(=O)(=O)[O-])cc7F)c7nc(c(-c8c(F)cc(S(=O)(=O)[O-])cc8F)c8ccc5[nH]8)C=C7)C=C6)cc4)cc3)cs1)c(C)n2C(=O)c1ccc(Cl)cc1
REMARK SMILES IDX 21 1 20 2 18 3 19 4 17 5 14 6 15 7 93 8 16 9 92 10 13 11
REMARK SMILES IDX 11 12 12 13 95 14 94 15 10 16 9 17 3 18 4 19 8 20 5 21 7 22
REMARK SMILES IDX 6 23 98 24 96 25 97 26 2 27 1 28 99 29 100 30 101 31 102 32
REMARK SMILES IDX 107 33 103 34 106 35 104 36 105 37 22 38 23 39 24 40 25 41
REMARK SMILES IDX 26 42 27 43 91 44 28 45 90 46 29 47 30 48 31 49 84 50 32 51
REMARK SMILES IDX 89 52 83 53 85 54 33 55 88 56 82 57 81 58 34 60 68 61 47 62
REMARK SMILES IDX 67 63 48 64 51 65 66 66 86 67 49 68 50 69 65 71 87 72 52 73
REMARK SMILES IDX 35 74 36 75 45 76 37 77 38 78 44 79 46 80 39 81 40 82 41 83
REMARK SMILES IDX 42 84 43 85 69 86 70 87 79 88 71 89 72 90 78 91 80 92 73 93
REMARK SMILES IDX 74 94 75 95 76 96 77 97 53 98 54 99 63 100 55 101 56 102
REMARK SMILES IDX 62 103 64 104 57 105 58 106 59 107 60 108 61 109
REMARK H PARENT 85 59 51 70
REMARK Flexibility Score: inf
ROOT
ATOM      1  C   UNL A   1      40.047  21.310  26.668  1.00  0.00     0.275 C 
ENDROOT
BRANCH   1   2
ATOM      2  O   UNL A   1      39.106  21.893  25.730  1.00  0.00    -0.458 OA
BRANCH   2   3
ATOM      3  C   UNL A   1      38.357  22.926  26.196  1.00  0.00     0.338 C 
ATOM      4  O   UNL A   1      38.713  23.737  27.036  1.00  0.00    -0.246 OA
BRANCH   3   5
ATOM      5  C   UNL A   1      37.077  23.057  25.437  1.00  0.00     0.060 A 
ATOM      6  C   UNL A   1      34.640  23.752  24.159  1.00  0.00     0.001 A 
ATOM      7  C   UNL A   1      34.796  23.937  25.527  1.00  0.00     0.011 A 
ATOM      8  C   UNL A   1      35.660  23.089  23.461  1.00  0.00     0.011 A 
ATOM      9  C   UNL A   1      35.991  23.564  26.137  1.00  0.00     0.016 A 
ATOM     10  C   UNL A   1      36.886  22.759  24.093  1.00  0.00     0.016 A 
BRANCH   6  11
ATOM     11  C   UNL A   1      33.445  24.297  23.526  1.00  0.00     0.081 A 
ATOM     12  C   UNL A   1      31.576  25.490  23.465  1.00  0.00     0.098 A 
ATOM     13  N   UNL A   1      32.342  24.732  24.237  1.00  0.00    -0.241 NA
ATOM     14  S   UNL A   1      31.982  25.447  21.789  1.00  0.00    -0.126 S 
ATOM     15  C   UNL A   1      33.384  24.530  22.163  1.00  0.00     0.095 A 
BRANCH  12  16
ATOM     16  C   UNL A   1      30.467  26.417  23.965  1.00  0.00     0.105 C 
BRANCH  16  17
ATOM     17  C   UNL A   1      31.034  27.762  24.355  1.00  0.00    -0.012 A 
ATOM     18  C   UNL A   1      29.481  30.254  22.072  1.00  0.00     0.119 A 
ATOM     19  C   UNL A   1      29.107  30.986  23.173  1.00  0.00     0.048 A 
ATOM     20  C   UNL A   1      30.269  29.143  22.299  1.00  0.00     0.057 A 
ATOM     21  C   UNL A   1      29.782  30.898  24.415  1.00  0.00     0.031 A 
ATOM     22  C   UNL A   1      30.805  28.933  23.594  1.00  0.00     0.008 A 
ATOM     23  C   UNL A   1      30.760  29.932  24.564  1.00  0.00     0.057 A 
ATOM     24  N   UNL A   1      31.620  29.578  25.608  1.00  0.00    -0.280 N 
ATOM     25  C   UNL A   1      31.657  28.158  25.540  1.00  0.00     0.028 A 
ATOM     26  C   UNL A   1      32.194  27.261  26.602  1.00  0.00     0.065 C 
BRANCH  18  27
ATOM     27  O   UNL A   1      28.925  30.452  20.839  1.00  0.00    -0.497 OA
ATOM     28  C   UNL A   1      28.125  31.641  20.778  1.00  0.00     0.278 C 
ENDBRANCH  18  27
BRANCH  24  29
ATOM     29  C   UNL A   1      32.271  30.419  26.581  1.00  0.00     0.262 C 
ATOM     30  O   UNL A   1      31.580  31.296  27.110  1.00  0.00    -0.268 OA
BRANCH  29  31
ATOM     31  C   UNL A   1      33.664  30.383  27.126  1.00  0.00     0.040 A 
ATOM     32  C   UNL A   1      34.538  29.306  26.950  1.00  0.00     0.015 A 
ATOM     33  C   UNL A   1      34.202  31.598  27.601  1.00  0.00     0.015 A 
ATOM     34  C   UNL A   1      35.887  29.414  27.340  1.00  0.00     0.021 A 
ATOM     35  C   UNL A   1      35.550  31.709  27.975  1.00  0.00     0.021 A 
ATOM     36  C   UNL A   1      36.385  30.607  27.861  1.00  0.00     0.041 A 
ATOM     37  Cl  UNL A   1      38.042  30.720  28.320  1.00  0.00    -0.084 Cl
ENDBRANCH  29  31
ENDBRANCH  24  29
ENDBRANCH  16  17
ENDBRANCH  12  16
ENDBRANCH   6  11
ENDBRANCH   3   5
ENDBRANCH   2   3
ENDBRANCH   1   2
BRANCH   1  38
ATOM     38  C   UNL A   1      41.475  21.366  26.109  1.00  0.00     0.275 C 
BRANCH  38  39
ATOM     39  O   UNL A   1      41.655  22.616  25.426  1.00  0.00    -0.458 OA
BRANCH  39  40
ATOM     40  C   UNL A   1      42.613  23.441  25.928  1.00  0.00     0.338 C 
ATOM     41  O   UNL A   1      43.766  23.506  25.582  1.00  0.00    -0.246 OA
BRANCH  40  42
ATOM     42  C   UNL A   1      41.892  24.474  26.724  1.00  0.00     0.060 A 
ATOM     43  C   UNL A   1      41.273  25.580  26.133  1.00  0.00     0.016 A 
ATOM     44  C   UNL A   1      42.075  24.442  28.101  1.00  0.00     0.016 A 
ATOM     45  C   UNL A   1      41.072  26.750  26.881  1.00  0.00     0.010 A 
ATOM     46  C   UNL A   1      41.823  25.598  28.840  1.00  0.00     0.010 A 
ATOM     47  C   UNL A   1      41.473  26.815  28.219  1.00  0.00    -0.014 A 
BRANCH  47  48
ATOM     48  C   UNL A   1      41.267  28.060  29.027  1.00  0.00     0.031 A 
ATOM     49  C   UNL A   1      42.314  29.036  28.626  1.00  0.00     0.074 A 
ATOM     50  C   UNL A   1      40.338  28.435  29.965  1.00  0.00     0.049 A 
ATOM     51  N   UNL A   1      43.455  29.194  29.211  1.00  0.00    -0.248 NA
ATOM     52  C   UNL A   1      42.217  29.693  27.313  1.00  0.00     0.031 C 
ATOM     53  C   UNL A   1      39.098  27.786  30.410  1.00  0.00     0.029 A 
ATOM     54  N   UNL A   1      40.317  29.578  30.758  1.00  0.00    -0.354 N 
ATOM     55  C   UNL A   1      44.124  30.143  28.457  1.00  0.00     0.074 A 
ATOM     56  C   UNL A   1      43.442  30.205  27.193  1.00  0.00     0.031 C 
ATOM     57  C   UNL A   1      38.367  28.612  31.205  1.00  0.00     0.029 A 
ATOM     58  C   UNL A   1      39.150  29.798  31.534  1.00  0.00     0.049 A 
ATOM     59  H   UNL A   1      41.076  30.205  30.778  1.00  0.00     0.167 HD
ATOM     60  C   UNL A   1      45.011  31.000  29.030  1.00  0.00     0.037 A 
ATOM     61  C   UNL A   1      38.851  30.849  32.392  1.00  0.00     0.037 A 
ATOM     62  C   UNL A   1      45.382  30.560  30.353  1.00  0.00     0.049 A 
ATOM     63  C   UNL A   1      40.119  31.505  32.720  1.00  0.00     0.074 A 
ATOM     64  C   UNL A   1      45.985  29.427  30.870  1.00  0.00     0.029 A 
ATOM     65  N   UNL A   1      44.758  31.163  31.418  1.00  0.00    -0.354 N 
ATOM     66  N   UNL A   1      40.968  30.976  33.545  1.00  0.00    -0.248 NA
ATOM     67  C   UNL A   1      40.658  32.458  31.765  1.00  0.00     0.031 C 
ATOM     68  C   UNL A   1      45.300  29.158  32.093  1.00  0.00     0.029 A 
ATOM     69  C   UNL A   1      44.367  30.172  32.287  1.00  0.00     0.049 A 
ATOM     70  H   UNL A   1      44.616  32.130  31.537  1.00  0.00     0.167 HD
ATOM     71  C   UNL A   1      42.188  31.164  32.929  1.00  0.00     0.074 A 
ATOM     72  C   UNL A   1      41.956  32.168  31.890  1.00  0.00     0.031 C 
ATOM     73  C   UNL A   1      43.195  30.266  33.116  1.00  0.00     0.037 A 
BRANCH  60  74
ATOM     74  C   UNL A   1      45.239  32.404  28.537  1.00  0.00     0.058 A 
ATOM     75  C   UNL A   1      46.551  32.832  28.263  1.00  0.00     0.135 A 
ATOM     76  C   UNL A   1      44.256  33.421  28.550  1.00  0.00     0.135 A 
ATOM     77  F   UNL A   1      47.568  31.956  28.253  1.00  0.00    -0.206 F 
ATOM     78  C   UNL A   1      46.868  34.176  28.062  1.00  0.00     0.059 A 
ATOM     79  C   UNL A   1      44.538  34.754  28.287  1.00  0.00     0.059 A 
ATOM     80  F   UNL A   1      42.990  33.195  28.923  1.00  0.00    -0.206 F 
ATOM     81  C   UNL A   1      45.852  35.129  28.080  1.00  0.00     0.060 A 
BRANCH  81  82
ATOM     82  S   UNL A   1      46.267  36.870  27.904  1.00  0.00     0.124 S 
ATOM     83  O   UNL A   1      45.770  37.413  29.163  1.00  0.00    -0.237 OA
ATOM     84  O   UNL A   1      47.717  36.818  27.754  1.00  0.00    -0.237 OA
ATOM     85  O   UNL A   1      45.531  37.270  26.709  1.00  0.00    -0.744 OA
ENDBRANCH  81  82
ENDBRANCH  60  74
BRANCH  61  86
ATOM     86  C   UNL A   1      37.555  31.594  32.645  1.00  0.00     0.058 A 
ATOM     87  C   UNL A   1      36.985  32.098  33.824  1.00  0.00     0.135 A 
ATOM     88  C   UNL A   1      37.078  32.232  31.520  1.00  0.00     0.135 A 
ATOM     89  F   UNL A   1      37.504  31.759  35.013  1.00  0.00    -0.206 F 
ATOM     90  C   UNL A   1      35.940  33.076  33.819  1.00  0.00     0.059 A 
ATOM     91  C   UNL A   1      35.992  33.103  31.437  1.00  0.00     0.059 A 
ATOM     92  F   UNL A   1      37.939  32.221  30.517  1.00  0.00    -0.206 F 
ATOM     93  C   UNL A   1      35.419  33.544  32.608  1.00  0.00     0.060 A 
BRANCH  93  94
ATOM     94  S   UNL A   1      34.212  34.902  32.486  1.00  0.00     0.124 S 
ATOM     95  O   UNL A   1      32.962  34.231  32.821  1.00  0.00    -0.237 OA
ATOM     96  O   UNL A   1      34.696  35.872  33.460  1.00  0.00    -0.237 OA
ATOM     97  O   UNL A   1      34.325  35.326  31.091  1.00  0.00    -0.744 OA
ENDBRANCH  93  94
ENDBRANCH  61  86
BRANCH  73  98
ATOM     98  C   UNL A   1      42.943  29.185  34.136  1.00  0.00     0.058 A 
ATOM     99  C   UNL A   1      42.394  27.922  33.837  1.00  0.00     0.135 A 
ATOM    100  C   UNL A   1      43.325  29.415  35.459  1.00  0.00     0.135 A 
ATOM    101  F   UNL A   1      42.078  27.591  32.579  1.00  0.00    -0.206 F 
ATOM    102  C   UNL A   1      42.194  26.948  34.816  1.00  0.00     0.059 A 
ATOM    103  C   UNL A   1      43.162  28.451  36.450  1.00  0.00     0.059 A 
ATOM    104  F   UNL A   1      43.894  30.584  35.797  1.00  0.00    -0.206 F 
ATOM    105  C   UNL A   1      42.583  27.224  36.124  1.00  0.00     0.060 A 
BRANCH 105 106
ATOM    106  S   UNL A   1      42.382  25.950  37.389  1.00  0.00     0.124 S 
ATOM    107  O   UNL A   1      43.193  26.467  38.485  1.00  0.00    -0.237 OA
ATOM    108  O   UNL A   1      40.939  25.953  37.612  1.00  0.00    -0.237 OA
ATOM    109  O   UNL A   1      42.900  24.745  36.744  1.00  0.00    -0.744 OA
ENDBRANCH 105 106
ENDBRANCH  73  98
ENDBRANCH  47  48
ENDBRANCH  40  42
ENDBRANCH  39  40
ENDBRANCH  38  39
ENDBRANCH   1  38
TORSDOF 20
ENDMDL
MODEL 2
REMARK VINA RESULT:     -11.8      5.244     10.450
REMARK SMILES COc1ccc2c(c1)c(Cc1nc(-c3ccc(C(=O)OCCOC(=O)c4ccc(-c5c6nc(c(-c7c(F)cc(S(=O)(=O)[O-])cc7F)c7ccc([nH]7)c(-c7c(F)cc(S(=O)(=O)[O-])cc7F)c7nc(c(-c8c(F)cc(S(=O)(=O)[O-])cc8F)c8ccc5[nH]8)C=C7)C=C6)cc4)cc3)cs1)c(C)n2C(=O)c1ccc(Cl)cc1
REMARK SMILES IDX 21 1 20 2 18 3 19 4 17 5 14 6 15 7 93 8 16 9 92 10 13 11
REMARK SMILES IDX 11 12 12 13 95 14 94 15 10 16 9 17 3 18 4 19 8 20 5 21 7 22
REMARK SMILES IDX 6 23 98 24 96 25 97 26 2 27 1 28 99 29 100 30 101 31 102 32
REMARK SMILES IDX 107 33 103 34 106 35 104 36 105 37 22 38 23 39 24 40 25 41
REMARK SMILES IDX 26 42 27 43 91 44 28 45 90 46 29 47 30 48 31 49 84 50 32 51
REMARK SMILES IDX 89 52 83 53 85 54 33 55 88 56 82 57 81 58 34 60 68 61 47 62
REMARK SMILES IDX 67 63 48 64 51 65 66 66 86 67 49 68 50 69 65 71 87 72 52 73
REMARK SMILES IDX 35 74 36 75 45 76 37 77 38 78 44 79 46 80 39 81 40 82 41 83
REMARK SMILES IDX 42 84 43 85 69 86 70 87 79 88 71 89 72 90 78 91 80 92 73 93
REMARK SMILES IDX 74 94 75 95 76 96 77 97 53 98 54 99 63 100 55 101 56 102
REMARK SMILES IDX 62 103 64 104 57 105 58 106 59 107 60 108 61 109
REMARK H PARENT 85 59 51 70
REMARK Flexibility Score: inf
ROOT
ATOM      1  C   UNL A   1      41.550  19.493  26.563  1.00  0.00     0.275 C 
ENDROOT
BRANCH   1   2
ATOM      2  O   UNL A   1      42.250  19.855  25.345  1.00  0.00    -0.458 OA
BRANCH   2   3
ATOM      3  C   UNL A   1      43.581  19.586  25.315  1.00  0.00     0.338 C 
ATOM      4  O   UNL A   1      44.082  18.475  25.392  1.00  0.00    -0.246 OA
BRANCH   3   5
ATOM      5  C   UNL A   1      44.379  20.813  25.014  1.00  0.00     0.060 A 
ATOM      6  C   UNL A   1      45.693  23.322  24.834  1.00  0.00     0.001 A 
ATOM      7  C   UNL A   1      44.310  23.257  24.937  1.00  0.00     0.011 A 
ATOM      8  C   UNL A   1      46.401  22.121  24.682  1.00  0.00     0.011 A 
ATOM      9  C   UNL A   1      43.684  22.014  24.997  1.00  0.00     0.016 A 
ATOM     10  C   UNL A   1      45.750  20.866  24.791  1.00  0.00     0.016 A 
BRANCH   6  11
ATOM     11  C   UNL A   1      46.328  24.631  24.934  1.00  0.00     0.081 A 
ATOM     12  C   UNL A   1      47.572  26.315  24.204  1.00  0.00     0.098 A 
ATOM     13  N   UNL A   1      47.429  24.998  24.184  1.00  0.00    -0.241 NA
ATOM     14  S   UNL A   1      46.590  27.125  25.370  1.00  0.00    -0.126 S 
ATOM     15  C   UNL A   1      45.790  25.645  25.707  1.00  0.00     0.095 A 
BRANCH  12  16
ATOM     16  C   UNL A   1      48.449  27.120  23.243  1.00  0.00     0.105 C 
BRANCH  16  17
ATOM     17  C   UNL A   1      49.909  26.965  23.598  1.00  0.00    -0.012 A 
ATOM     18  C   UNL A   1      51.818  27.567  20.463  1.00  0.00     0.119 A 
ATOM     19  C   UNL A   1      52.576  28.494  21.138  1.00  0.00     0.048 A 
ATOM     20  C   UNL A   1      50.904  26.848  21.207  1.00  0.00     0.057 A 
ATOM     21  C   UNL A   1      52.744  28.467  22.544  1.00  0.00     0.031 A 
ATOM     22  C   UNL A   1      50.932  26.953  22.621  1.00  0.00     0.008 A 
ATOM     23  C   UNL A   1      51.999  27.562  23.277  1.00  0.00     0.057 A 
ATOM     24  N   UNL A   1      51.922  27.249  24.637  1.00  0.00    -0.280 N 
ATOM     25  C   UNL A   1      50.534  27.015  24.846  1.00  0.00     0.028 A 
ATOM     26  C   UNL A   1      49.867  26.928  26.175  1.00  0.00     0.065 C 
BRANCH  18  27
ATOM     27  O   UNL A   1      51.781  27.508  19.099  1.00  0.00    -0.497 OA
ATOM     28  C   UNL A   1      51.542  26.182  18.608  1.00  0.00     0.278 C 
ENDBRANCH  18  27
BRANCH  24  29
ATOM     29  C   UNL A   1      52.965  27.228  25.632  1.00  0.00     0.262 C 
ATOM     30  O   UNL A   1      53.179  28.286  26.235  1.00  0.00    -0.268 OA
BRANCH  29  31
ATOM     31  C   UNL A   1      53.823  26.107  26.124  1.00  0.00     0.040 A 
ATOM     32  C   UNL A   1      54.376  25.130  25.290  1.00  0.00     0.015 A 
ATOM     33  C   UNL A   1      54.315  26.202  27.443  1.00  0.00     0.015 A 
ATOM     34  C   UNL A   1      55.314  24.209  25.797  1.00  0.00     0.021 A 
ATOM     35  C   UNL A   1      55.260  25.293  27.944  1.00  0.00     0.021 A 
ATOM     36  C   UNL A   1      55.742  24.285  27.121  1.00  0.00     0.041 A 
ATOM     37  Cl  UNL A   1      56.899  23.155  27.717  1.00  0.00    -0.084 Cl
ENDBRANCH  29  31
ENDBRANCH  24  29
ENDBRANCH  16  17
ENDBRANCH  12  16
ENDBRANCH   6  11
ENDBRANCH   3   5
ENDBRANCH   2   3
ENDBRANCH   1   2
BRANCH   1  38
ATOM     38  C   UNL A   1      41.752  20.566  27.642  1.00  0.00     0.275 C 
BRANCH  38  39
ATOM     39  O   UNL A   1      40.493  21.209  27.895  1.00  0.00    -0.458 OA
BRANCH  39  40
ATOM     40  C   UNL A   1      39.947  21.888  26.850  1.00  0.00     0.338 C 
ATOM     41  O   UNL A   1      39.062  21.511  26.125  1.00  0.00    -0.246 OA
BRANCH  40  42
ATOM     42  C   UNL A   1      40.399  23.300  26.996  1.00  0.00     0.060 A 
ATOM     43  C   UNL A   1      41.566  23.648  27.685  1.00  0.00     0.016 A 
ATOM     44  C   UNL A   1      39.487  24.288  26.647  1.00  0.00     0.016 A 
ATOM     45  C   UNL A   1      41.693  24.929  28.243  1.00  0.00     0.010 A 
ATOM     46  C   UNL A   1      39.653  25.572  27.168  1.00  0.00     0.010 A 
ATOM     47  C   UNL A   1      40.667  25.870  28.101  1.00  0.00    -0.014 A 
BRANCH  47  48
ATOM     48  C   UNL A   1      40.789  27.240  28.694  1.00  0.00     0.031 A 
ATOM     49  C   UNL A   1      42.009  27.871  28.124  1.00  0.00     0.074 A 
ATOM     50  C   UNL A   1      40.018  27.964  29.569  1.00  0.00     0.049 A 
ATOM     51  N   UNL A   1      43.184  27.851  28.660  1.00  0.00    -0.248 NA
ATOM     52  C   UNL A   1      41.996  28.317  26.722  1.00  0.00     0.031 C 
ATOM     53  C   UNL A   1      38.688  27.698  30.131  1.00  0.00     0.029 A 
ATOM     54  N   UNL A   1      40.297  29.191  30.163  1.00  0.00    -0.354 N 
ATOM     55  C   UNL A   1      44.011  28.488  27.751  1.00  0.00     0.074 A 
ATOM     56  C   UNL A   1      43.298  28.506  26.503  1.00  0.00     0.031 C 
ATOM     57  C   UNL A   1      38.204  28.787  30.788  1.00  0.00     0.029 A 
ATOM     58  C   UNL A   1      39.250  29.795  30.906  1.00  0.00     0.049 A 
ATOM     59  H   UNL A   1      41.177  29.620  30.069  1.00  0.00     0.167 HD
ATOM     60  C   UNL A   1      45.096  29.195  28.163  1.00  0.00     0.037 A 
ATOM     61  C   UNL A   1      39.241  31.009  31.582  1.00  0.00     0.037 A 
ATOM     62  C   UNL A   1      45.425  28.896  29.536  1.00  0.00     0.049 A 
ATOM     63  C   UNL A   1      40.640  31.396  31.781  1.00  0.00     0.074 A 
ATOM     64  C   UNL A   1      45.782  27.751  30.225  1.00  0.00     0.029 A 
ATOM     65  N   UNL A   1      45.009  29.788  30.495  1.00  0.00    -0.354 N 
ATOM     66  N   UNL A   1      41.388  30.822  32.672  1.00  0.00    -0.248 NA
ATOM     67  C   UNL A   1      41.332  32.035  30.675  1.00  0.00     0.031 C 
ATOM     68  C   UNL A   1      45.116  27.844  31.484  1.00  0.00     0.029 A 
ATOM     69  C   UNL A   1      44.447  29.064  31.520  1.00  0.00     0.049 A 
ATOM     70  H   UNL A   1      45.096  30.767  30.454  1.00  0.00     0.167 HD
ATOM     71  C   UNL A   1      42.586  30.623  32.018  1.00  0.00     0.074 A 
ATOM     72  C   UNL A   1      42.535  31.476  30.829  1.00  0.00     0.031 C 
ATOM     73  C   UNL A   1      43.371  29.557  32.337  1.00  0.00     0.037 A 
BRANCH  60  74
ATOM     74  C   UNL A   1      45.612  30.412  27.441  1.00  0.00     0.058 A 
ATOM     75  C   UNL A   1      46.990  30.529  27.188  1.00  0.00     0.135 A 
ATOM     76  C   UNL A   1      44.846  31.578  27.202  1.00  0.00     0.135 A 
ATOM     77  F   UNL A   1      47.816  29.494  27.408  1.00  0.00    -0.206 F 
ATOM     78  C   UNL A   1      47.571  31.727  26.770  1.00  0.00     0.059 A 
ATOM     79  C   UNL A   1      45.392  32.759  26.722  1.00  0.00     0.059 A 
ATOM     80  F   UNL A   1      43.549  31.665  27.519  1.00  0.00    -0.206 F 
ATOM     81  C   UNL A   1      46.761  32.838  26.545  1.00  0.00     0.060 A 
BRANCH  81  82
ATOM     82  S   UNL A   1      47.514  34.405  26.086  1.00  0.00     0.124 S 
ATOM     83  O   UNL A   1      46.507  34.957  25.188  1.00  0.00    -0.237 OA
ATOM     84  O   UNL A   1      47.649  35.062  27.381  1.00  0.00    -0.237 OA
ATOM     85  O   UNL A   1      48.768  34.003  25.458  1.00  0.00    -0.744 OA
ENDBRANCH  81  82
ENDBRANCH  60  74
BRANCH  61  86
ATOM     86  C   UNL A   1      38.162  32.064  31.726  1.00  0.00     0.058 A 
ATOM     87  C   UNL A   1      37.436  32.790  30.770  1.00  0.00     0.135 A 
ATOM     88  C   UNL A   1      37.510  31.999  32.939  1.00  0.00     0.135 A 
ATOM     89  F   UNL A   1      37.807  32.754  29.482  1.00  0.00    -0.206 F 
ATOM     90  C   UNL A   1      36.220  33.477  31.083  1.00  0.00     0.059 A 
ATOM     91  C   UNL A   1      36.393  32.731  33.339  1.00  0.00     0.059 A 
ATOM     92  F   UNL A   1      37.827  30.922  33.637  1.00  0.00    -0.206 F 
ATOM     93  C   UNL A   1      35.727  33.475  32.392  1.00  0.00     0.060 A 
BRANCH  93  94
ATOM     94  S   UNL A   1      34.112  34.172  32.863  1.00  0.00     0.124 S 
ATOM     95  O   UNL A   1      33.385  32.988  33.305  1.00  0.00    -0.237 OA
ATOM     96  O   UNL A   1      34.451  35.136  33.902  1.00  0.00    -0.237 OA
ATOM     97  O   UNL A   1      33.624  34.760  31.616  1.00  0.00    -0.744 OA
ENDBRANCH  93  94
ENDBRANCH  61  86
BRANCH  73  98
ATOM     98  C   UNL A   1      42.933  28.739  33.525  1.00  0.00     0.058 A 
ATOM     99  C   UNL A   1      41.915  27.764  33.487  1.00  0.00     0.135 A 
ATOM    100  C   UNL A   1      43.608  28.906  34.736  1.00  0.00     0.135 A 
ATOM    101  F   UNL A   1      41.275  27.484  32.346  1.00  0.00    -0.206 F 
ATOM    102  C   UNL A   1      41.556  27.022  34.613  1.00  0.00     0.059 A 
ATOM    103  C   UNL A   1      43.288  28.159  35.865  1.00  0.00     0.059 A 
ATOM    104  F   UNL A   1      44.617  29.789  34.821  1.00  0.00    -0.206 F 
ATOM    105  C   UNL A   1      42.252  27.227  35.802  1.00  0.00     0.060 A 
BRANCH 105 106
ATOM    106  S   UNL A   1      41.834  26.231  37.249  1.00  0.00     0.124 S 
ATOM    107  O   UNL A   1      40.539  26.777  37.639  1.00  0.00    -0.237 OA
ATOM    108  O   UNL A   1      41.813  24.877  36.704  1.00  0.00    -0.237 OA
ATOM    109  O   UNL A   1      42.930  26.502  38.177  1.00  0.00    -0.744 OA
ENDBRANCH 105 106
ENDBRANCH  73  98
ENDBRANCH  47  48
ENDBRANCH  40  42
ENDBRANCH  39  40
ENDBRANCH  38  39
ENDBRANCH   1  38
TORSDOF 20
ENDMDL
MODEL 3
REMARK VINA RESULT:     -11.5      4.096     11.006
REMARK SMILES COc1ccc2c(c1)c(Cc1nc(-c3ccc(C(=O)OCCOC(=O)c4ccc(-c5c6nc(c(-c7c(F)cc(S(=O)(=O)[O-])cc7F)c7ccc([nH]7)c(-c7c(F)cc(S(=O)(=O)[O-])cc7F)c7nc(c(-c8c(F)cc(S(=O)(=O)[O-])cc8F)c8ccc5[nH]8)C=C7)C=C6)cc4)cc3)cs1)c(C)n2C(=O)c1ccc(Cl)cc1
REMARK SMILES IDX 21 1 20 2 18 3 19 4 17 5 14 6 15 7 93 8 16 9 92 10 13 11
REMARK SMILES IDX 11 12 12 13 95 14 94 15 10 16 9 17 3 18 4 19 8 20 5 21 7 22
REMARK SMILES IDX 6 23 98 24 96 25 97 26 2 27 1 28 99 29 100 30 101 31 102 32
REMARK SMILES IDX 107 33 103 34 106 35 104 36 105 37 22 38 23 39 24 40 25 41
REMARK SMILES IDX 26 42 27 43 91 44 28 45 90 46 29 47 30 48 31 49 84 50 32 51
REMARK SMILES IDX 89 52 83 53 85 54 33 55 88 56 82 57 81 58 34 60 68 61 47 62
REMARK SMILES IDX 67 63 48 64 51 65 66 66 86 67 49 68 50 69 65 71 87 72 52 73
REMARK SMILES IDX 35 74 36 75 45 76 37 77 38 78 44 79 46 80 39 81 40 82 41 83
REMARK SMILES IDX 42 84 43 85 69 86 70 87 79 88 71 89 72 90 78 91 80 92 73 93
REMARK SMILES IDX 74 94 75 95 76 96 77 97 53 98 54 99 63 100 55 101 56 102
REMARK SMILES IDX 62 103 64 104 57 105 58 106 59 107 60 108 61 109
REMARK H PARENT 85 59 51 70
REMARK Flexibility Score: inf
ROOT
ATOM      1  C   UNL A   1      35.345  31.916  27.833  1.00  0.00     0.275 C 
ENDROOT
BRANCH   1   2
ATOM      2  O   UNL A   1      36.111  31.358  28.931  1.00  0.00    -0.458 OA
BRANCH   2   3
ATOM      3  C   UNL A   1      37.365  31.851  29.100  1.00  0.00     0.338 C 
ATOM      4  O   UNL A   1      37.638  32.997  29.419  1.00  0.00    -0.246 OA
BRANCH   3   5
ATOM      5  C   UNL A   1      38.393  30.771  29.002  1.00  0.00     0.060 A 
ATOM      6  C   UNL A   1      40.227  28.704  28.355  1.00  0.00     0.001 A 
ATOM      7  C   UNL A   1      38.880  28.574  28.042  1.00  0.00     0.011 A 
ATOM      8  C   UNL A   1      40.624  29.813  29.117  1.00  0.00     0.011 A 
ATOM      9  C   UNL A   1      37.994  29.590  28.393  1.00  0.00     0.016 A 
ATOM     10  C   UNL A   1      39.715  30.856  29.424  1.00  0.00     0.016 A 
BRANCH   6  11
ATOM     11  C   UNL A   1      41.151  27.703  27.836  1.00  0.00     0.081 A 
ATOM     12  C   UNL A   1      41.991  25.659  27.644  1.00  0.00     0.098 A 
ATOM     13  N   UNL A   1      41.418  26.511  28.483  1.00  0.00    -0.241 NA
ATOM     14  S   UNL A   1      42.512  26.360  26.156  1.00  0.00    -0.126 S 
ATOM     15  C   UNL A   1      41.736  27.828  26.588  1.00  0.00     0.095 A 
BRANCH  12  16
ATOM     16  C   UNL A   1      42.128  24.154  27.876  1.00  0.00     0.105 C 
BRANCH  16  17
ATOM     17  C   UNL A   1      41.219  23.386  26.945  1.00  0.00    -0.012 A 
ATOM     18  C   UNL A   1      43.204  20.508  25.677  1.00  0.00     0.119 A 
ATOM     19  C   UNL A   1      42.186  19.672  26.070  1.00  0.00     0.048 A 
ATOM     20  C   UNL A   1      42.982  21.864  25.807  1.00  0.00     0.057 A 
ATOM     21  C   UNL A   1      40.847  20.111  26.212  1.00  0.00     0.031 A 
ATOM     22  C   UNL A   1      41.681  22.320  26.138  1.00  0.00     0.008 A 
ATOM     23  C   UNL A   1      40.583  21.463  26.093  1.00  0.00     0.057 A 
ATOM     24  N   UNL A   1      39.417  22.230  26.153  1.00  0.00    -0.280 N 
ATOM     25  C   UNL A   1      39.826  23.404  26.843  1.00  0.00     0.028 A 
ATOM     26  C   UNL A   1      38.908  24.423  27.426  1.00  0.00     0.065 C 
BRANCH  18  27
ATOM     27  O   UNL A   1      44.459  20.048  25.397  1.00  0.00    -0.497 OA
ATOM     28  C   UNL A   1      45.441  21.093  25.381  1.00  0.00     0.278 C 
ENDBRANCH  18  27
BRANCH  24  29
ATOM     29  C   UNL A   1      38.087  21.910  25.698  1.00  0.00     0.262 C 
ATOM     30  O   UNL A   1      37.665  20.780  25.967  1.00  0.00    -0.268 OA
BRANCH  29  31
ATOM     31  C   UNL A   1      37.070  22.745  24.986  1.00  0.00     0.040 A 
ATOM     32  C   UNL A   1      36.754  22.595  23.632  1.00  0.00     0.015 A 
ATOM     33  C   UNL A   1      36.206  23.525  25.782  1.00  0.00     0.015 A 
ATOM     34  C   UNL A   1      35.667  23.296  23.074  1.00  0.00     0.021 A 
ATOM     35  C   UNL A   1      35.113  24.211  25.228  1.00  0.00     0.021 A 
ATOM     36  C   UNL A   1      34.860  24.108  23.868  1.00  0.00     0.041 A 
ATOM     37  Cl  UNL A   1      33.528  24.946  23.166  1.00  0.00    -0.084 Cl
ENDBRANCH  29  31
ENDBRANCH  24  29
ENDBRANCH  16  17
ENDBRANCH  12  16
ENDBRANCH   6  11
ENDBRANCH   3   5
ENDBRANCH   2   3
ENDBRANCH   1   2
BRANCH   1  38
ATOM     38  C   UNL A   1      34.343  32.959  28.346  1.00  0.00     0.275 C 
BRANCH  38  39
ATOM     39  O   UNL A   1      34.134  32.746  29.751  1.00  0.00    -0.458 OA
BRANCH  39  40
ATOM     40  C   UNL A   1      34.123  33.862  30.531  1.00  0.00     0.338 C 
ATOM     41  O   UNL A   1      33.360  34.792  30.453  1.00  0.00    -0.246 OA
BRANCH  40  42
ATOM     42  C   UNL A   1      34.991  33.554  31.702  1.00  0.00     0.060 A 
ATOM     43  C   UNL A   1      35.860  34.497  32.262  1.00  0.00     0.016 A 
ATOM     44  C   UNL A   1      35.101  32.217  32.064  1.00  0.00     0.016 A 
ATOM     45  C   UNL A   1      36.989  34.069  32.976  1.00  0.00     0.010 A 
ATOM     46  C   UNL A   1      36.203  31.813  32.819  1.00  0.00     0.010 A 
ATOM     47  C   UNL A   1      37.245  32.704  33.148  1.00  0.00    -0.014 A 
BRANCH  47  48
ATOM     48  C   UNL A   1      38.449  32.235  33.906  1.00  0.00     0.031 A 
ATOM     49  C   UNL A   1      38.494  32.984  35.189  1.00  0.00     0.074 A 
ATOM     50  C   UNL A   1      39.413  31.290  33.658  1.00  0.00     0.049 A 
ATOM     51  N   UNL A   1      39.151  34.077  35.396  1.00  0.00    -0.248 NA
ATOM     52  C   UNL A   1      37.520  32.660  36.243  1.00  0.00     0.031 C 
ATOM     53  C   UNL A   1      39.522  30.276  32.601  1.00  0.00     0.029 A 
ATOM     54  N   UNL A   1      40.575  31.025  34.376  1.00  0.00    -0.354 N 
ATOM     55  C   UNL A   1      38.841  34.450  36.693  1.00  0.00     0.074 A 
ATOM     56  C   UNL A   1      37.660  33.711  37.051  1.00  0.00     0.031 C 
ATOM     57  C   UNL A   1      40.533  29.402  32.859  1.00  0.00     0.029 A 
ATOM     58  C   UNL A   1      41.319  29.880  33.991  1.00  0.00     0.049 A 
ATOM     59  H   UNL A   1      40.865  31.603  35.118  1.00  0.00     0.167 HD
ATOM     60  C   UNL A   1      39.734  35.122  37.465  1.00  0.00     0.037 A 
ATOM     61  C   UNL A   1      42.492  29.372  34.533  1.00  0.00     0.037 A 
ATOM     62  C   UNL A   1      40.813  35.658  36.669  1.00  0.00     0.049 A 
ATOM     63  C   UNL A   1      43.103  30.451  35.313  1.00  0.00     0.074 A 
ATOM     64  C   UNL A   1      40.897  36.550  35.615  1.00  0.00     0.029 A 
ATOM     65  N   UNL A   1      41.995  34.957  36.654  1.00  0.00    -0.354 N 
ATOM     66  N   UNL A   1      43.711  31.446  34.744  1.00  0.00    -0.248 NA
ATOM     67  C   UNL A   1      42.602  30.687  36.656  1.00  0.00     0.031 C 
ATOM     68  C   UNL A   1      41.895  36.015  34.746  1.00  0.00     0.029 A 
ATOM     69  C   UNL A   1      42.409  34.870  35.346  1.00  0.00     0.049 A 
ATOM     70  H   UNL A   1      42.460  34.585  37.437  1.00  0.00     0.167 HD
ATOM     71  C   UNL A   1      43.270  32.548  35.447  1.00  0.00     0.074 A 
ATOM     72  C   UNL A   1      42.672  32.021  36.674  1.00  0.00     0.031 C 
ATOM     73  C   UNL A   1      43.155  33.755  34.827  1.00  0.00     0.037 A 
BRANCH  60  74
ATOM     74  C   UNL A   1      39.815  34.968  38.961  1.00  0.00     0.058 A 
ATOM     75  C   UNL A   1      40.112  33.706  39.507  1.00  0.00     0.135 A 
ATOM     76  C   UNL A   1      39.379  35.946  39.886  1.00  0.00     0.135 A 
ATOM     77  F   UNL A   1      40.508  32.695  38.717  1.00  0.00    -0.206 F 
ATOM     78  C   UNL A   1      39.946  33.424  40.864  1.00  0.00     0.059 A 
ATOM     79  C   UNL A   1      39.270  35.707  41.248  1.00  0.00     0.059 A 
ATOM     80  F   UNL A   1      38.935  37.150  39.505  1.00  0.00    -0.206 F 
ATOM     81  C   UNL A   1      39.519  34.434  41.724  1.00  0.00     0.060 A 
BRANCH  81  82
ATOM     82  S   UNL A   1      39.224  34.054  43.457  1.00  0.00     0.124 S 
ATOM     83  O   UNL A   1      40.572  33.743  43.918  1.00  0.00    -0.237 OA
ATOM     84  O   UNL A   1      38.652  35.304  43.944  1.00  0.00    -0.237 OA
ATOM     85  O   UNL A   1      38.299  32.926  43.400  1.00  0.00    -0.744 OA
ENDBRANCH  81  82
ENDBRANCH  60  74
BRANCH  61  86
ATOM     86  C   UNL A   1      42.943  27.946  34.780  1.00  0.00     0.058 A 
ATOM     87  C   UNL A   1      42.331  26.877  35.452  1.00  0.00     0.135 A 
ATOM     88  C   UNL A   1      43.884  27.518  33.867  1.00  0.00     0.135 A 
ATOM     89  F   UNL A   1      41.237  27.097  36.195  1.00  0.00    -0.206 F 
ATOM     90  C   UNL A   1      42.742  25.518  35.277  1.00  0.00     0.059 A 
ATOM     91  C   UNL A   1      44.408  26.233  33.731  1.00  0.00     0.059 A 
ATOM     92  F   UNL A   1      44.051  28.364  32.865  1.00  0.00    -0.206 F 
ATOM     93  C   UNL A   1      43.818  25.210  34.438  1.00  0.00     0.060 A 
BRANCH  93  94
ATOM     94  S   UNL A   1      44.316  23.510  34.018  1.00  0.00     0.124 S 
ATOM     95  O   UNL A   1      45.771  23.604  34.037  1.00  0.00    -0.237 OA
ATOM     96  O   UNL A   1      43.715  22.710  35.077  1.00  0.00    -0.237 OA
ATOM     97  O   UNL A   1      43.733  23.309  32.692  1.00  0.00    -0.744 OA
ENDBRANCH  93  94
ENDBRANCH  61  86
BRANCH  73  98
ATOM     98  C   UNL A   1      43.682  33.832  33.417  1.00  0.00     0.058 A 
ATOM     99  C   UNL A   1      45.036  34.042  33.084  1.00  0.00     0.135 A 
ATOM    100  C   UNL A   1      42.792  33.628  32.360  1.00  0.00     0.135 A 
ATOM    101  F   UNL A   1      45.966  34.163  34.039  1.00  0.00    -0.206 F 
ATOM    102  C   UNL A   1      45.477  34.090  31.761  1.00  0.00     0.059 A 
ATOM    103  C   UNL A   1      43.211  33.645  31.033  1.00  0.00     0.059 A 
ATOM    104  F   UNL A   1      41.497  33.380  32.615  1.00  0.00    -0.206 F 
ATOM    105  C   UNL A   1      44.553  33.889  30.739  1.00  0.00     0.060 A 
BRANCH 105 106
ATOM    106  S   UNL A   1      45.123  33.893  29.025  1.00  0.00     0.124 S 
ATOM    107  O   UNL A   1      44.063  34.630  28.346  1.00  0.00    -0.237 OA
ATOM    108  O   UNL A   1      46.409  34.578  29.122  1.00  0.00    -0.237 OA
ATOM    109  O   UNL A   1      45.208  32.473  28.691  1.00  0.00    -0.744 OA
ENDBRANCH 105 106
ENDBRANCH  73  98
ENDBRANCH  47  48
ENDBRANCH  40  42
ENDBRANCH  39  40
ENDBRANCH  38  39
ENDBRANCH   1  38
TORSDOF 20
ENDMDL
