MODEL 1
REMARK VINA RESULT:     -11.3      0.000      0.000
REMARK SMILES C=Cc1cccc(-c2ccc([C@@H](C)C(=O)OCCOC(=O)c3ccc(-c4c5nc(c(-c6c(F)cc(S(=O)(=O)[O-])cc6F)c6ccc([nH]6)c(-c6c(F)cc(S(=O)(=O)[O-])cc6F)c6nc(c(-c7c(F)cc(S(=O)(=O)[O-])cc7F)c7ccc4[nH]7)C=C6)C=C5)cc3)cc2)c1
REMARK SMILES IDX 17 1 16 2 14 3 15 4 12 5 13 6 11 7 8 8 9 9 89 10 10 11 88 12
REMARK SMILES IDX 7 13 3 14 4 15 90 16 5 17 6 18 2 19 1 20 18 21 19 22 20 23
REMARK SMILES IDX 21 24 22 25 23 26 87 27 24 28 86 29 25 30 26 31 27 32 80 33
REMARK SMILES IDX 28 34 85 35 79 36 81 37 29 38 84 39 78 40 77 41 30 43 64 44
REMARK SMILES IDX 43 45 63 46 44 47 47 48 62 49 82 50 45 51 46 52 61 54 83 55
REMARK SMILES IDX 48 56 31 57 32 58 41 59 33 60 34 61 40 62 42 63 35 64 36 65
REMARK SMILES IDX 37 66 38 67 39 68 65 69 66 70 75 71 67 72 68 73 74 74 76 75
REMARK SMILES IDX 69 76 70 77 71 78 72 79 73 80 49 81 50 82 59 83 51 84 52 85
REMARK SMILES IDX 58 86 60 87 53 88 54 89 55 90 56 91 57 92
REMARK H PARENT 81 42 47 53
REMARK Flexibility Score: inf
ROOT
ATOM      1  C   UNL A   1      38.177  22.367  26.190  1.00  0.00     0.274 C 
ENDROOT
BRANCH   1   2
ATOM      2  O   UNL A   1      37.509  21.918  24.994  1.00  0.00    -0.462 OA
BRANCH   2   3
ATOM      3  C   UNL A   1      36.150  21.945  25.010  1.00  0.00     0.313 C 
ATOM      4  O   UNL A   1      35.462  21.324  25.815  1.00  0.00    -0.252 OA
BRANCH   3   5
ATOM      5  C   UNL A   1      35.534  22.758  23.879  1.00  0.00     0.126 C 
ATOM      6  C   UNL A   1      36.558  22.931  22.758  1.00  0.00     0.025 C 
BRANCH   5   7
ATOM      7  C   UNL A   1      34.879  24.072  24.276  1.00  0.00    -0.034 A 
ATOM      8  C   UNL A   1      33.679  26.563  24.947  1.00  0.00    -0.018 A 
ATOM      9  C   UNL A   1      34.365  25.805  25.907  1.00  0.00     0.009 A 
ATOM     10  C   UNL A   1      33.590  26.046  23.648  1.00  0.00     0.009 A 
ATOM     11  C   UNL A   1      34.957  24.580  25.578  1.00  0.00     0.005 A 
ATOM     12  C   UNL A   1      34.185  24.824  23.316  1.00  0.00     0.005 A 
BRANCH   8  13
ATOM     13  C   UNL A   1      33.100  27.875  25.284  1.00  0.00    -0.018 A 
ATOM     14  C   UNL A   1      33.098  29.933  26.615  1.00  0.00    -0.026 A 
ATOM     15  C   UNL A   1      31.939  30.350  25.952  1.00  0.00     0.008 A 
ATOM     16  C   UNL A   1      33.663  28.691  26.282  1.00  0.00     0.016 A 
ATOM     17  C   UNL A   1      31.368  29.557  24.958  1.00  0.00     0.001 A 
ATOM     18  C   UNL A   1      31.946  28.332  24.626  1.00  0.00     0.009 A 
BRANCH  14  19
ATOM     19  C   UNL A   1      33.643  30.783  27.681  1.00  0.00     0.000 C 
ATOM     20  C   UNL A   1      34.849  31.363  27.639  1.00  0.00     0.009 C 
ENDBRANCH  14  19
ENDBRANCH   8  13
ENDBRANCH   5   7
ENDBRANCH   3   5
ENDBRANCH   2   3
ENDBRANCH   1   2
BRANCH   1  21
ATOM     21  C   UNL A   1      38.620  23.828  26.079  1.00  0.00     0.275 C 
BRANCH  21  22
ATOM     22  O   UNL A   1      39.898  24.040  26.705  1.00  0.00    -0.458 OA
BRANCH  22  23
ATOM     23  C   UNL A   1      40.461  25.242  26.440  1.00  0.00     0.338 C 
ATOM     24  O   UNL A   1      40.763  25.687  25.347  1.00  0.00    -0.246 OA
BRANCH  23  25
ATOM     25  C   UNL A   1      40.579  26.031  27.674  1.00  0.00     0.060 A 
ATOM     26  C   UNL A   1      39.557  25.917  28.620  1.00  0.00     0.016 A 
ATOM     27  C   UNL A   1      41.604  26.962  27.843  1.00  0.00     0.016 A 
ATOM     28  C   UNL A   1      39.526  26.768  29.720  1.00  0.00     0.010 A 
ATOM     29  C   UNL A   1      41.576  27.814  28.954  1.00  0.00     0.010 A 
ATOM     30  C   UNL A   1      40.519  27.742  29.878  1.00  0.00    -0.014 A 
BRANCH  30  31
ATOM     31  C   UNL A   1      40.376  28.753  30.952  1.00  0.00     0.031 A 
ATOM     32  C   UNL A   1      41.293  28.696  32.144  1.00  0.00     0.074 A 
ATOM     33  C   UNL A   1      39.473  29.743  30.837  1.00  0.00     0.049 A 
ATOM     34  N   UNL A   1      41.318  29.458  33.206  1.00  0.00    -0.248 NA
ATOM     35  C   UNL A   1      42.317  27.639  32.136  1.00  0.00     0.031 C 
ATOM     36  C   UNL A   1      38.560  29.926  29.708  1.00  0.00     0.029 A 
ATOM     37  N   UNL A   1      39.178  30.784  31.680  1.00  0.00    -0.354 N 
ATOM     38  C   UNL A   1      42.344  28.964  34.001  1.00  0.00     0.074 A 
ATOM     39  C   UNL A   1      42.911  27.828  33.307  1.00  0.00     0.031 C 
ATOM     40  C   UNL A   1      37.809  31.019  29.928  1.00  0.00     0.029 A 
ATOM     41  C   UNL A   1      38.166  31.592  31.223  1.00  0.00     0.049 A 
ATOM     42  H   UNL A   1      39.648  30.937  32.532  1.00  0.00     0.167 HD
ATOM     43  C   UNL A   1      42.777  29.419  35.201  1.00  0.00     0.037 A 
ATOM     44  C   UNL A   1      37.585  32.666  31.794  1.00  0.00     0.037 A 
ATOM     45  C   UNL A   1      42.224  30.559  35.882  1.00  0.00     0.049 A 
ATOM     46  C   UNL A   1      38.074  33.143  33.134  1.00  0.00     0.074 A 
ATOM     47  C   UNL A   1      42.582  31.091  37.109  1.00  0.00     0.029 A 
ATOM     48  N   UNL A   1      41.199  31.352  35.388  1.00  0.00    -0.354 N 
ATOM     49  N   UNL A   1      39.030  32.651  33.886  1.00  0.00    -0.248 NA
ATOM     50  C   UNL A   1      37.407  34.323  33.703  1.00  0.00     0.031 C 
ATOM     51  C   UNL A   1      41.759  32.195  37.365  1.00  0.00     0.029 A 
ATOM     52  C   UNL A   1      40.910  32.368  36.284  1.00  0.00     0.049 A 
ATOM     53  H   UNL A   1      40.742  31.213  34.526  1.00  0.00     0.167 HD
ATOM     54  C   UNL A   1      39.094  33.473  35.005  1.00  0.00     0.074 A 
ATOM     55  C   UNL A   1      38.085  34.498  34.829  1.00  0.00     0.031 C 
ATOM     56  C   UNL A   1      39.912  33.386  36.082  1.00  0.00     0.037 A 
BRANCH  43  57
ATOM     57  C   UNL A   1      43.892  28.661  35.863  1.00  0.00     0.058 A 
ATOM     58  C   UNL A   1      43.639  27.579  36.719  1.00  0.00     0.135 A 
ATOM     59  C   UNL A   1      45.230  29.018  35.631  1.00  0.00     0.135 A 
ATOM     60  F   UNL A   1      42.376  27.212  36.989  1.00  0.00    -0.206 F 
ATOM     61  C   UNL A   1      44.674  26.891  37.344  1.00  0.00     0.059 A 
ATOM     62  C   UNL A   1      46.281  28.332  36.231  1.00  0.00     0.059 A 
ATOM     63  F   UNL A   1      45.524  30.048  34.823  1.00  0.00    -0.206 F 
ATOM     64  C   UNL A   1      45.992  27.279  37.099  1.00  0.00     0.060 A 
BRANCH  64  65
ATOM     65  S   UNL A   1      47.330  26.388  37.923  1.00  0.00     0.124 S 
ATOM     66  O   UNL A   1      47.562  27.229  39.093  1.00  0.00    -0.237 OA
ATOM     67  O   UNL A   1      46.727  25.085  38.188  1.00  0.00    -0.237 OA
ATOM     68  O   UNL A   1      48.398  26.388  36.928  1.00  0.00    -0.744 OA
ENDBRANCH  64  65
ENDBRANCH  43  57
BRANCH  44  69
ATOM     69  C   UNL A   1      36.473  33.361  31.097  1.00  0.00     0.058 A 
ATOM     70  C   UNL A   1      35.158  33.284  31.577  1.00  0.00     0.135 A 
ATOM     71  C   UNL A   1      36.707  34.122  29.942  1.00  0.00     0.135 A 
ATOM     72  F   UNL A   1      34.885  32.561  32.674  1.00  0.00    -0.206 F 
ATOM     73  C   UNL A   1      34.109  33.929  30.930  1.00  0.00     0.059 A 
ATOM     74  C   UNL A   1      35.678  34.792  29.289  1.00  0.00     0.059 A 
ATOM     75  F   UNL A   1      37.951  34.234  29.451  1.00  0.00    -0.206 F 
ATOM     76  C   UNL A   1      34.379  34.681  29.785  1.00  0.00     0.060 A 
BRANCH  76  77
ATOM     77  S   UNL A   1      33.024  35.560  28.976  1.00  0.00     0.124 S 
ATOM     78  O   UNL A   1      32.467  34.517  28.123  1.00  0.00    -0.237 OA
ATOM     79  O   UNL A   1      32.197  35.968  30.108  1.00  0.00    -0.237 OA
ATOM     80  O   UNL A   1      33.703  36.650  28.282  1.00  0.00    -0.744 OA
ENDBRANCH  76  77
ENDBRANCH  44  69
BRANCH  56  81
ATOM     81  C   UNL A   1      39.777  34.449  37.134  1.00  0.00     0.058 A 
ATOM     82  C   UNL A   1      38.940  34.278  38.247  1.00  0.00     0.135 A 
ATOM     83  C   UNL A   1      40.528  35.632  37.048  1.00  0.00     0.135 A 
ATOM     84  F   UNL A   1      38.198  33.166  38.370  1.00  0.00    -0.206 F 
ATOM     85  C   UNL A   1      38.834  35.256  39.231  1.00  0.00     0.059 A 
ATOM     86  C   UNL A   1      40.451  36.614  38.030  1.00  0.00     0.059 A 
ATOM     87  F   UNL A   1      41.350  35.836  36.007  1.00  0.00    -0.206 F 
ATOM     88  C   UNL A   1      39.592  36.423  39.112  1.00  0.00     0.060 A 
BRANCH  88  89
ATOM     89  S   UNL A   1      39.473  37.676  40.406  1.00  0.00     0.124 S 
ATOM     90  O   UNL A   1      40.735  38.389  40.240  1.00  0.00    -0.237 OA
ATOM     91  O   UNL A   1      38.273  38.415  40.023  1.00  0.00    -0.237 OA
ATOM     92  O   UNL A   1      39.351  36.887  41.628  1.00  0.00    -0.744 OA
ENDBRANCH  88  89
ENDBRANCH  56  81
ENDBRANCH  30  31
ENDBRANCH  23  25
ENDBRANCH  22  23
ENDBRANCH  21  22
ENDBRANCH   1  21
TORSDOF 17
ENDMDL
MODEL 2
REMARK VINA RESULT:     -11.2      7.231      9.565
REMARK SMILES C=Cc1cccc(-c2ccc([C@@H](C)C(=O)OCCOC(=O)c3ccc(-c4c5nc(c(-c6c(F)cc(S(=O)(=O)[O-])cc6F)c6ccc([nH]6)c(-c6c(F)cc(S(=O)(=O)[O-])cc6F)c6nc(c(-c7c(F)cc(S(=O)(=O)[O-])cc7F)c7ccc4[nH]7)C=C6)C=C5)cc3)cc2)c1
REMARK SMILES IDX 17 1 16 2 14 3 15 4 12 5 13 6 11 7 8 8 9 9 89 10 10 11 88 12
REMARK SMILES IDX 7 13 3 14 4 15 90 16 5 17 6 18 2 19 1 20 18 21 19 22 20 23
REMARK SMILES IDX 21 24 22 25 23 26 87 27 24 28 86 29 25 30 26 31 27 32 80 33
REMARK SMILES IDX 28 34 85 35 79 36 81 37 29 38 84 39 78 40 77 41 30 43 64 44
REMARK SMILES IDX 43 45 63 46 44 47 47 48 62 49 82 50 45 51 46 52 61 54 83 55
REMARK SMILES IDX 48 56 31 57 32 58 41 59 33 60 34 61 40 62 42 63 35 64 36 65
REMARK SMILES IDX 37 66 38 67 39 68 65 69 66 70 75 71 67 72 68 73 74 74 76 75
REMARK SMILES IDX 69 76 70 77 71 78 72 79 73 80 49 81 50 82 59 83 51 84 52 85
REMARK SMILES IDX 58 86 60 87 53 88 54 89 55 90 56 91 57 92
REMARK H PARENT 81 42 47 53
REMARK Flexibility Score: inf
ROOT
ATOM      1  C   UNL A   1      42.611  18.447  26.553  1.00  0.00     0.274 C 
ENDROOT
BRANCH   1   2
ATOM      2  O   UNL A   1      41.887  19.645  26.209  1.00  0.00    -0.462 OA
BRANCH   2   3
ATOM      3  C   UNL A   1      41.288  20.308  27.234  1.00  0.00     0.313 C 
ATOM      4  O   UNL A   1      40.820  19.759  28.227  1.00  0.00    -0.252 OA
BRANCH   3   5
ATOM      5  C   UNL A   1      41.172  21.811  27.012  1.00  0.00     0.126 C 
ATOM      6  C   UNL A   1      41.638  22.551  28.266  1.00  0.00     0.025 C 
BRANCH   5   7
ATOM      7  C   UNL A   1      39.827  22.313  26.507  1.00  0.00    -0.034 A 
ATOM      8  C   UNL A   1      37.327  23.213  25.489  1.00  0.00    -0.018 A 
ATOM      9  C   UNL A   1      38.148  24.057  26.252  1.00  0.00     0.009 A 
ATOM     10  C   UNL A   1      37.772  21.905  25.257  1.00  0.00     0.009 A 
ATOM     11  C   UNL A   1      39.379  23.616  26.753  1.00  0.00     0.005 A 
ATOM     12  C   UNL A   1      39.004  21.464  25.752  1.00  0.00     0.005 A 
BRANCH   8  13
ATOM     13  C   UNL A   1      36.057  23.696  24.923  1.00  0.00    -0.018 A 
ATOM     14  C   UNL A   1      34.050  25.097  25.057  1.00  0.00    -0.026 A 
ATOM     15  C   UNL A   1      33.602  24.557  23.847  1.00  0.00     0.008 A 
ATOM     16  C   UNL A   1      35.271  24.652  25.591  1.00  0.00     0.016 A 
ATOM     17  C   UNL A   1      34.368  23.611  23.167  1.00  0.00     0.001 A 
ATOM     18  C   UNL A   1      35.586  23.188  23.701  1.00  0.00     0.009 A 
BRANCH  14  19
ATOM     19  C   UNL A   1      33.193  26.062  25.757  1.00  0.00     0.000 C 
ATOM     20  C   UNL A   1      33.364  27.389  25.717  1.00  0.00     0.009 C 
ENDBRANCH  14  19
ENDBRANCH   8  13
ENDBRANCH   5   7
ENDBRANCH   3   5
ENDBRANCH   2   3
ENDBRANCH   1   2
BRANCH   1  21
ATOM     21  C   UNL A   1      43.703  18.130  25.528  1.00  0.00     0.275 C 
BRANCH  21  22
ATOM     22  O   UNL A   1      43.686  19.064  24.434  1.00  0.00    -0.458 OA
BRANCH  22  23
ATOM     23  C   UNL A   1      44.849  19.729  24.246  1.00  0.00     0.338 C 
ATOM     24  O   UNL A   1      45.829  19.339  23.634  1.00  0.00    -0.246 OA
BRANCH  23  25
ATOM     25  C   UNL A   1      44.754  21.086  24.802  1.00  0.00     0.060 A 
ATOM     26  C   UNL A   1      44.509  22.138  23.917  1.00  0.00     0.016 A 
ATOM     27  C   UNL A   1      45.029  21.338  26.147  1.00  0.00     0.016 A 
ATOM     28  C   UNL A   1      44.584  23.455  24.358  1.00  0.00     0.010 A 
ATOM     29  C   UNL A   1      45.099  22.663  26.592  1.00  0.00     0.010 A 
ATOM     30  C   UNL A   1      44.909  23.727  25.692  1.00  0.00    -0.014 A 
BRANCH  30  31
ATOM     31  C   UNL A   1      45.161  25.128  26.104  1.00  0.00     0.031 A 
ATOM     32  C   UNL A   1      46.544  25.701  25.962  1.00  0.00     0.074 A 
ATOM     33  C   UNL A   1      44.151  25.895  26.552  1.00  0.00     0.049 A 
ATOM     34  N   UNL A   1      46.987  26.886  26.290  1.00  0.00    -0.248 NA
ATOM     35  C   UNL A   1      47.564  24.820  25.368  1.00  0.00     0.031 C 
ATOM     36  C   UNL A   1      42.760  25.463  26.692  1.00  0.00     0.029 A 
ATOM     37  N   UNL A   1      44.140  27.203  26.967  1.00  0.00    -0.354 N 
ATOM     38  C   UNL A   1      48.337  26.890  25.963  1.00  0.00     0.074 A 
ATOM     39  C   UNL A   1      48.646  25.584  25.422  1.00  0.00     0.031 C 
ATOM     40  C   UNL A   1      42.029  26.490  27.159  1.00  0.00     0.029 A 
ATOM     41  C   UNL A   1      42.904  27.640  27.376  1.00  0.00     0.049 A 
ATOM     42  H   UNL A   1      44.942  27.773  26.970  1.00  0.00     0.167 HD
ATOM     43  C   UNL A   1      49.237  27.893  26.099  1.00  0.00     0.037 A 
ATOM     44  C   UNL A   1      42.525  28.830  27.883  1.00  0.00     0.037 A 
ATOM     45  C   UNL A   1      48.925  29.196  26.621  1.00  0.00     0.049 A 
ATOM     46  C   UNL A   1      43.547  29.923  28.038  1.00  0.00     0.074 A 
ATOM     47  C   UNL A   1      49.769  30.275  26.815  1.00  0.00     0.029 A 
ATOM     48  N   UNL A   1      47.661  29.600  27.027  1.00  0.00    -0.354 N 
ATOM     49  N   UNL A   1      44.826  29.904  27.746  1.00  0.00    -0.248 NA
ATOM     50  C   UNL A   1      43.074  31.201  28.588  1.00  0.00     0.031 C 
ATOM     51  C   UNL A   1      49.020  31.328  27.355  1.00  0.00     0.029 A 
ATOM     52  C   UNL A   1      47.702  30.912  27.469  1.00  0.00     0.049 A 
ATOM     53  H   UNL A   1      46.853  29.038  27.004  1.00  0.00     0.167 HD
ATOM     54  C   UNL A   1      45.306  31.171  28.057  1.00  0.00     0.074 A 
ATOM     55  C   UNL A   1      44.178  31.934  28.553  1.00  0.00     0.031 C 
ATOM     56  C   UNL A   1      46.566  31.658  27.944  1.00  0.00     0.037 A 
BRANCH  43  57
ATOM     57  C   UNL A   1      50.655  27.604  25.696  1.00  0.00     0.058 A 
ATOM     58  C   UNL A   1      51.093  27.774  24.374  1.00  0.00     0.135 A 
ATOM     59  C   UNL A   1      51.588  27.158  26.646  1.00  0.00     0.135 A 
ATOM     60  F   UNL A   1      50.236  28.179  23.424  1.00  0.00    -0.206 F 
ATOM     61  C   UNL A   1      52.403  27.488  24.001  1.00  0.00     0.059 A 
ATOM     62  C   UNL A   1      52.907  26.884  26.300  1.00  0.00     0.059 A 
ATOM     63  F   UNL A   1      51.216  26.976  27.923  1.00  0.00    -0.206 F 
ATOM     64  C   UNL A   1      53.301  27.037  24.970  1.00  0.00     0.060 A 
BRANCH  64  65
ATOM     65  S   UNL A   1      54.996  26.658  24.477  1.00  0.00     0.124 S 
ATOM     66  O   UNL A   1      54.938  26.885  23.036  1.00  0.00    -0.237 OA
ATOM     67  O   UNL A   1      55.774  27.629  25.241  1.00  0.00    -0.237 OA
ATOM     68  O   UNL A   1      55.164  25.266  24.887  1.00  0.00    -0.744 OA
ENDBRANCH  64  65
ENDBRANCH  43  57
BRANCH  44  69
ATOM     69  C   UNL A   1      41.112  29.047  28.281  1.00  0.00     0.058 A 
ATOM     70  C   UNL A   1      40.728  29.026  29.630  1.00  0.00     0.135 A 
ATOM     71  C   UNL A   1      40.118  29.287  27.320  1.00  0.00     0.135 A 
ATOM     72  F   UNL A   1      41.643  28.792  30.583  1.00  0.00    -0.206 F 
ATOM     73  C   UNL A   1      39.406  29.224  30.014  1.00  0.00     0.059 A 
ATOM     74  C   UNL A   1      38.793  29.509  27.680  1.00  0.00     0.059 A 
ATOM     75  F   UNL A   1      40.439  29.327  26.017  1.00  0.00    -0.206 F 
ATOM     76  C   UNL A   1      38.445  29.465  29.030  1.00  0.00     0.060 A 
BRANCH  76  77
ATOM     77  S   UNL A   1      36.738  29.775  29.534  1.00  0.00     0.124 S 
ATOM     78  O   UNL A   1      35.999  29.312  28.364  1.00  0.00    -0.237 OA
ATOM     79  O   UNL A   1      36.613  28.953  30.733  1.00  0.00    -0.237 OA
ATOM     80  O   UNL A   1      36.717  31.215  29.767  1.00  0.00    -0.744 OA
ENDBRANCH  76  77
ENDBRANCH  44  69
BRANCH  56  81
ATOM     81  C   UNL A   1      46.783  33.093  28.327  1.00  0.00     0.058 A 
ATOM     82  C   UNL A   1      47.153  33.457  29.631  1.00  0.00     0.135 A 
ATOM     83  C   UNL A   1      46.663  34.110  27.367  1.00  0.00     0.135 A 
ATOM     84  F   UNL A   1      47.275  32.521  30.584  1.00  0.00    -0.206 F 
ATOM     85  C   UNL A   1      47.376  34.787  29.976  1.00  0.00     0.059 A 
ATOM     86  C   UNL A   1      46.899  35.443  27.686  1.00  0.00     0.059 A 
ATOM     87  F   UNL A   1      46.321  33.809  26.104  1.00  0.00    -0.206 F 
ATOM     88  C   UNL A   1      47.243  35.774  28.997  1.00  0.00     0.060 A 
BRANCH  88  89
ATOM     89  S   UNL A   1      47.560  37.494  29.442  1.00  0.00     0.124 S 
ATOM     90  O   UNL A   1      48.182  37.347  30.753  1.00  0.00    -0.237 OA
ATOM     91  O   UNL A   1      48.442  37.943  28.369  1.00  0.00    -0.237 OA
ATOM     92  O   UNL A   1      46.228  38.093  29.441  1.00  0.00    -0.744 OA
ENDBRANCH  88  89
ENDBRANCH  56  81
ENDBRANCH  30  31
ENDBRANCH  23  25
ENDBRANCH  22  23
ENDBRANCH  21  22
ENDBRANCH   1  21
TORSDOF 17
ENDMDL
MODEL 3
REMARK VINA RESULT:     -11.0      6.730     12.619
REMARK SMILES C=Cc1cccc(-c2ccc([C@@H](C)C(=O)OCCOC(=O)c3ccc(-c4c5nc(c(-c6c(F)cc(S(=O)(=O)[O-])cc6F)c6ccc([nH]6)c(-c6c(F)cc(S(=O)(=O)[O-])cc6F)c6nc(c(-c7c(F)cc(S(=O)(=O)[O-])cc7F)c7ccc4[nH]7)C=C6)C=C5)cc3)cc2)c1
REMARK SMILES IDX 17 1 16 2 14 3 15 4 12 5 13 6 11 7 8 8 9 9 89 10 10 11 88 12
REMARK SMILES IDX 7 13 3 14 4 15 90 16 5 17 6 18 2 19 1 20 18 21 19 22 20 23
REMARK SMILES IDX 21 24 22 25 23 26 87 27 24 28 86 29 25 30 26 31 27 32 80 33
REMARK SMILES IDX 28 34 85 35 79 36 81 37 29 38 84 39 78 40 77 41 30 43 64 44
REMARK SMILES IDX 43 45 63 46 44 47 47 48 62 49 82 50 45 51 46 52 61 54 83 55
REMARK SMILES IDX 48 56 31 57 32 58 41 59 33 60 34 61 40 62 42 63 35 64 36 65
REMARK SMILES IDX 37 66 38 67 39 68 65 69 66 70 75 71 67 72 68 73 74 74 76 75
REMARK SMILES IDX 69 76 70 77 71 78 72 79 73 80 49 81 50 82 59 83 51 84 52 85
REMARK SMILES IDX 58 86 60 87 53 88 54 89 55 90 56 91 57 92
REMARK H PARENT 81 42 47 53
REMARK Flexibility Score: inf
ROOT
ATOM      1  C   UNL A   1      35.603  34.197  31.798  1.00  0.00     0.274 C 
ENDROOT
BRANCH   1   2
ATOM      2  O   UNL A   1      34.385  33.630  31.276  1.00  0.00    -0.462 OA
BRANCH   2   3
ATOM      3  C   UNL A   1      33.831  34.261  30.207  1.00  0.00     0.313 C 
ATOM      4  O   UNL A   1      32.891  35.047  30.286  1.00  0.00    -0.252 OA
BRANCH   3   5
ATOM      5  C   UNL A   1      34.427  33.847  28.867  1.00  0.00     0.126 C 
ATOM      6  C   UNL A   1      34.611  35.082  27.986  1.00  0.00     0.025 C 
BRANCH   5   7
ATOM      7  C   UNL A   1      33.721  32.713  28.139  1.00  0.00    -0.034 A 
ATOM      8  C   UNL A   1      32.473  30.571  26.742  1.00  0.00    -0.018 A 
ATOM      9  C   UNL A   1      31.842  31.818  26.875  1.00  0.00     0.009 A 
ATOM     10  C   UNL A   1      33.732  30.410  27.333  1.00  0.00     0.009 A 
ATOM     11  C   UNL A   1      32.456  32.873  27.562  1.00  0.00     0.005 A 
ATOM     12  C   UNL A   1      34.349  31.465  28.015  1.00  0.00     0.005 A 
BRANCH   8  13
ATOM     13  C   UNL A   1      31.846  29.480  25.977  1.00  0.00    -0.018 A 
ATOM     14  C   UNL A   1      31.305  27.108  25.687  1.00  0.00    -0.026 A 
ATOM     15  C   UNL A   1      30.693  27.405  24.465  1.00  0.00     0.008 A 
ATOM     16  C   UNL A   1      31.887  28.149  26.428  1.00  0.00     0.016 A 
ATOM     17  C   UNL A   1      30.638  28.719  24.002  1.00  0.00     0.001 A 
ATOM     18  C   UNL A   1      31.208  29.747  24.754  1.00  0.00     0.009 A 
BRANCH  14  19
ATOM     19  C   UNL A   1      31.372  25.705  26.117  1.00  0.00     0.000 C 
ATOM     20  C   UNL A   1      30.653  24.716  25.573  1.00  0.00     0.009 C 
ENDBRANCH  14  19
ENDBRANCH   8  13
ENDBRANCH   5   7
ENDBRANCH   3   5
ENDBRANCH   2   3
ENDBRANCH   1   2
BRANCH   1  21
ATOM     21  C   UNL A   1      36.696  33.138  31.965  1.00  0.00     0.275 C 
BRANCH  21  22
ATOM     22  O   UNL A   1      36.926  32.420  30.740  1.00  0.00    -0.458 OA
BRANCH  22  23
ATOM     23  C   UNL A   1      36.749  31.082  30.831  1.00  0.00     0.338 C 
ATOM     24  O   UNL A   1      35.763  30.497  31.241  1.00  0.00    -0.246 OA
BRANCH  23  25
ATOM     25  C   UNL A   1      37.902  30.377  30.253  1.00  0.00     0.060 A 
ATOM     26  C   UNL A   1      38.846  29.841  31.132  1.00  0.00     0.016 A 
ATOM     27  C   UNL A   1      38.121  30.355  28.875  1.00  0.00     0.016 A 
ATOM     28  C   UNL A   1      40.040  29.321  30.644  1.00  0.00     0.010 A 
ATOM     29  C   UNL A   1      39.320  29.826  28.383  1.00  0.00     0.010 A 
ATOM     30  C   UNL A   1      40.298  29.338  29.268  1.00  0.00    -0.014 A 
BRANCH  30  31
ATOM     31  C   UNL A   1      41.641  28.947  28.779  1.00  0.00     0.031 A 
ATOM     32  C   UNL A   1      42.741  29.973  28.748  1.00  0.00     0.074 A 
ATOM     33  C   UNL A   1      41.888  27.676  28.417  1.00  0.00     0.049 A 
ATOM     34  N   UNL A   1      43.973  29.853  28.329  1.00  0.00    -0.248 NA
ATOM     35  C   UNL A   1      42.406  31.313  29.258  1.00  0.00     0.031 C 
ATOM     36  C   UNL A   1      40.913  26.585  28.445  1.00  0.00     0.029 A 
ATOM     37  N   UNL A   1      43.038  27.086  27.957  1.00  0.00    -0.354 N 
ATOM     38  C   UNL A   1      44.557  31.101  28.506  1.00  0.00     0.074 A 
ATOM     39  C   UNL A   1      43.540  31.970  29.058  1.00  0.00     0.031 C 
ATOM     40  C   UNL A   1      41.510  25.456  28.024  1.00  0.00     0.029 A 
ATOM     41  C   UNL A   1      42.896  25.751  27.669  1.00  0.00     0.049 A 
ATOM     42  H   UNL A   1      43.886  27.575  27.845  1.00  0.00     0.167 HD
ATOM     43  C   UNL A   1      45.826  31.487  28.235  1.00  0.00     0.037 A 
ATOM     44  C   UNL A   1      43.782  24.870  27.164  1.00  0.00     0.037 A 
ATOM     45  C   UNL A   1      46.841  30.617  27.702  1.00  0.00     0.049 A 
ATOM     46  C   UNL A   1      45.182  25.327  26.857  1.00  0.00     0.074 A 
ATOM     47  C   UNL A   1      48.153  30.916  27.377  1.00  0.00     0.029 A 
ATOM     48  N   UNL A   1      46.657  29.271  27.423  1.00  0.00    -0.354 N 
ATOM     49  N   UNL A   1      45.712  26.517  27.008  1.00  0.00    -0.248 NA
ATOM     50  C   UNL A   1      46.105  24.320  26.315  1.00  0.00     0.031 C 
ATOM     51  C   UNL A   1      48.758  29.754  26.884  1.00  0.00     0.029 A 
ATOM     52  C   UNL A   1      47.831  28.724  26.930  1.00  0.00     0.049 A 
ATOM     53  H   UNL A   1      45.817  28.776  27.555  1.00  0.00     0.167 HD
ATOM     54  C   UNL A   1      47.036  26.398  26.599  1.00  0.00     0.074 A 
ATOM     55  C   UNL A   1      47.227  25.017  26.202  1.00  0.00     0.031 C 
ATOM     56  C   UNL A   1      48.004  27.345  26.555  1.00  0.00     0.037 A 
BRANCH  43  57
ATOM     57  C   UNL A   1      46.178  32.924  28.491  1.00  0.00     0.058 A 
ATOM     58  C   UNL A   1      46.652  33.355  29.739  1.00  0.00     0.135 A 
ATOM     59  C   UNL A   1      46.046  33.881  27.472  1.00  0.00     0.135 A 
ATOM     60  F   UNL A   1      46.777  32.483  30.752  1.00  0.00    -0.206 F 
ATOM     61  C   UNL A   1      46.959  34.692  29.977  1.00  0.00     0.059 A 
ATOM     62  C   UNL A   1      46.365  35.219  27.681  1.00  0.00     0.059 A 
ATOM     63  F   UNL A   1      45.592  33.519  26.261  1.00  0.00    -0.206 F 
ATOM     64  C   UNL A   1      46.806  35.617  28.944  1.00  0.00     0.060 A 
BRANCH  64  65
ATOM     65  S   UNL A   1      47.196  37.351  29.263  1.00  0.00     0.124 S 
ATOM     66  O   UNL A   1      45.869  37.957  29.235  1.00  0.00    -0.237 OA
ATOM     67  O   UNL A   1      47.840  37.295  30.572  1.00  0.00    -0.237 OA
ATOM     68  O   UNL A   1      48.074  37.710  28.153  1.00  0.00    -0.744 OA
ENDBRANCH  64  65
ENDBRANCH  43  57
BRANCH  44  69
ATOM     69  C   UNL A   1      43.367  23.466  26.915  1.00  0.00     0.058 A 
ATOM     70  C   UNL A   1      43.123  23.003  25.614  1.00  0.00     0.135 A 
ATOM     71  C   UNL A   1      43.213  22.558  27.974  1.00  0.00     0.135 A 
ATOM     72  F   UNL A   1      43.249  23.838  24.571  1.00  0.00    -0.206 F 
ATOM     73  C   UNL A   1      42.731  21.692  25.370  1.00  0.00     0.059 A 
ATOM     74  C   UNL A   1      42.842  21.237  27.754  1.00  0.00     0.059 A 
ATOM     75  F   UNL A   1      43.446  22.953  29.236  1.00  0.00    -0.206 F 
ATOM     76  C   UNL A   1      42.593  20.815  26.448  1.00  0.00     0.060 A 
BRANCH  76  77
ATOM     77  S   UNL A   1      42.134  19.098  26.125  1.00  0.00     0.124 S 
ATOM     78  O   UNL A   1      42.414  18.473  27.413  1.00  0.00    -0.237 OA
ATOM     79  O   UNL A   1      40.724  19.214  25.765  1.00  0.00    -0.237 OA
ATOM     80  O   UNL A   1      43.022  18.717  25.031  1.00  0.00    -0.744 OA
ENDBRANCH  76  77
ENDBRANCH  44  69
BRANCH  56  81
ATOM     81  C   UNL A   1      49.367  26.912  26.098  1.00  0.00     0.058 A 
ATOM     82  C   UNL A   1      50.291  26.339  26.985  1.00  0.00     0.135 A 
ATOM     83  C   UNL A   1      49.735  27.032  24.748  1.00  0.00     0.135 A 
ATOM     84  F   UNL A   1      49.987  26.208  28.285  1.00  0.00    -0.206 F 
ATOM     85  C   UNL A   1      51.545  25.918  26.553  1.00  0.00     0.059 A 
ATOM     86  C   UNL A   1      50.976  26.601  24.292  1.00  0.00     0.059 A 
ATOM     87  F   UNL A   1      48.881  27.565  23.861  1.00  0.00    -0.206 F 
ATOM     88  C   UNL A   1      51.880  26.056  25.204  1.00  0.00     0.060 A 
BRANCH  88  89
ATOM     89  S   UNL A   1      53.497  25.483  24.643  1.00  0.00     0.124 S 
ATOM     90  O   UNL A   1      53.416  24.055  24.926  1.00  0.00    -0.237 OA
ATOM     91  O   UNL A   1      53.492  25.851  23.230  1.00  0.00    -0.237 OA
ATOM     92  O   UNL A   1      54.429  26.239  25.476  1.00  0.00    -0.744 OA
ENDBRANCH  88  89
ENDBRANCH  56  81
ENDBRANCH  30  31
ENDBRANCH  23  25
ENDBRANCH  22  23
ENDBRANCH  21  22
ENDBRANCH   1  21
TORSDOF 17
ENDMDL
