MODEL 1
REMARK VINA RESULT:     -14.0      0.000      0.000
REMARK SMILES Cc1cc(C(=O)OCCOC(=O)c2ccc(-c3c4nc(c(-c5c(F)cc(S(=O)(=O)[O-])cc5F)c5ccc([nH]5)c(-c5c(F)cc(S(=O)(=O)[O-])cc5F)c5nc(c(-c6c(F)cc(S(=O)(=O)[O-])cc6F)c6ccc3[nH]6)C=C5)C=C4)cc2)ccc1NC(=O)c1ccc(=O)n(CCOc2ccccc2)n1
REMARK SMILES IDX 7 1 5 2 6 3 4 4 1 5 2 6 3 7 81 8 80 9 79 10 82 11 83 12
REMARK SMILES IDX 84 14 85 15 86 16 100 17 87 18 90 19 88 20 89 21 91 22 92 23
REMARK SMILES IDX 93 24 94 25 95 26 99 27 96 28 98 29 97 30 8 31 9 32 10 33
REMARK SMILES IDX 11 34 12 35 13 36 14 37 78 38 15 39 77 40 16 41 17 42 18 43
REMARK SMILES IDX 71 44 19 45 76 46 70 47 72 48 20 49 75 50 69 51 68 52 21 54
REMARK SMILES IDX 55 55 34 56 54 57 35 58 38 59 53 60 73 61 36 62 37 63 52 65
REMARK SMILES IDX 74 66 39 67 22 68 23 69 32 70 24 71 25 72 31 73 33 74 26 75
REMARK SMILES IDX 27 76 28 77 29 78 30 79 56 80 57 81 66 82 58 83 59 84 65 85
REMARK SMILES IDX 67 86 60 87 61 88 62 89 63 90 64 91 40 92 41 93 50 94 42 95
REMARK SMILES IDX 43 96 49 97 51 98 44 99 45 100 46 101 47 102 48 103
REMARK H PARENT 82 13 72 53 38 64
REMARK Flexibility Score: inf
ROOT
ATOM      1  O   UNL A   1      32.567  28.612  26.239  1.00  0.00    -0.458 OA
ENDROOT
BRANCH   1   2
ATOM      2  C   UNL A   1      31.442  27.879  26.460  1.00  0.00     0.338 C 
ATOM      3  O   UNL A   1      31.021  27.516  27.538  1.00  0.00    -0.246 OA
BRANCH   2   4
ATOM      4  C   UNL A   1      30.826  27.383  25.215  1.00  0.00     0.060 A 
ATOM      5  C   UNL A   1      30.311  24.131  23.318  1.00  0.00     0.046 C 
ATOM      6  C   UNL A   1      30.628  25.576  23.576  1.00  0.00    -0.027 A 
ATOM      7  C   UNL A   1      30.707  26.019  24.911  1.00  0.00     0.021 A 
ATOM      8  C   UNL A   1      30.850  26.522  22.578  1.00  0.00     0.044 A 
ATOM      9  C   UNL A   1      30.633  27.863  22.893  1.00  0.00     0.027 A 
ATOM     10  C   UNL A   1      30.661  28.312  24.208  1.00  0.00     0.018 A 
BRANCH   8  11
ATOM     11  N   UNL A   1      31.381  26.143  21.323  1.00  0.00    -0.320 N 
ATOM     12  C   UNL A   1      32.662  25.653  21.061  1.00  0.00     0.276 C 
ATOM     13  H   UNL A   1      30.781  26.235  20.548  1.00  0.00     0.170 HD
ATOM     14  O   UNL A   1      33.058  25.420  19.924  1.00  0.00    -0.267 OA
BRANCH  12  15
ATOM     15  C   UNL A   1      33.597  25.377  22.233  1.00  0.00     0.149 A 
ATOM     16  C   UNL A   1      34.078  26.580  22.940  1.00  0.00     0.042 A 
ATOM     17  N   UNL A   1      33.882  24.157  22.590  1.00  0.00    -0.164 NA
ATOM     18  C   UNL A   1      34.268  26.399  24.247  1.00  0.00     0.076 A 
ATOM     19  N   UNL A   1      34.418  24.031  23.879  1.00  0.00    -0.226 N 
ATOM     20  C   UNL A   1      34.186  25.030  24.818  1.00  0.00     0.266 A 
ATOM     21  O   UNL A   1      34.035  24.894  26.026  1.00  0.00    -0.268 OA
BRANCH  19  22
ATOM     22  C   UNL A   1      34.931  22.723  24.301  1.00  0.00     0.190 C 
BRANCH  22  23
ATOM     23  C   UNL A   1      33.852  21.615  24.268  1.00  0.00     0.253 C 
BRANCH  23  24
ATOM     24  O   UNL A   1      34.176  20.460  25.079  1.00  0.00    -0.492 OA
BRANCH  24  25
ATOM     25  C   UNL A   1      33.931  19.275  24.447  1.00  0.00     0.119 A 
ATOM     26  C   UNL A   1      32.763  19.044  23.728  1.00  0.00     0.046 A 
ATOM     27  C   UNL A   1      34.837  18.238  24.622  1.00  0.00     0.046 A 
ATOM     28  C   UNL A   1      32.590  17.820  23.070  1.00  0.00     0.004 A 
ATOM     29  C   UNL A   1      34.711  17.051  23.907  1.00  0.00     0.004 A 
ATOM     30  C   UNL A   1      33.589  16.845  23.113  1.00  0.00     0.000 A 
ENDBRANCH  24  25
ENDBRANCH  23  24
ENDBRANCH  22  23
ENDBRANCH  19  22
ENDBRANCH  12  15
ENDBRANCH   8  11
ENDBRANCH   2   4
ENDBRANCH   1   2
BRANCH   1  31
ATOM     31  C   UNL A   1      32.950  29.448  27.347  1.00  0.00     0.275 C 
BRANCH  31  32
ATOM     32  C   UNL A   1      34.426  29.898  27.278  1.00  0.00     0.275 C 
BRANCH  32  33
ATOM     33  O   UNL A   1      35.316  29.661  28.395  1.00  0.00    -0.458 OA
BRANCH  33  34
ATOM     34  C   UNL A   1      36.467  30.372  28.431  1.00  0.00     0.338 C 
ATOM     35  O   UNL A   1      36.509  31.569  28.702  1.00  0.00    -0.246 OA
BRANCH  34  36
ATOM     36  C   UNL A   1      37.612  29.428  28.397  1.00  0.00     0.060 A 
ATOM     37  C   UNL A   1      38.650  29.663  27.491  1.00  0.00     0.016 A 
ATOM     38  C   UNL A   1      37.800  28.581  29.495  1.00  0.00     0.016 A 
ATOM     39  C   UNL A   1      39.926  29.182  27.757  1.00  0.00     0.010 A 
ATOM     40  C   UNL A   1      39.077  28.226  29.839  1.00  0.00     0.010 A 
ATOM     41  C   UNL A   1      40.132  28.510  28.958  1.00  0.00    -0.014 A 
BRANCH  41  42
ATOM     42  C   UNL A   1      41.292  27.680  29.211  1.00  0.00     0.031 A 
ATOM     43  C   UNL A   1      41.416  26.304  28.705  1.00  0.00     0.074 A 
ATOM     44  C   UNL A   1      42.258  28.452  29.760  1.00  0.00     0.049 A 
ATOM     45  N   UNL A   1      42.362  25.509  29.052  1.00  0.00    -0.248 NA
ATOM     46  C   UNL A   1      40.477  25.669  27.784  1.00  0.00     0.031 C 
ATOM     47  C   UNL A   1      43.682  28.275  29.922  1.00  0.00     0.029 A 
ATOM     48  N   UNL A   1      41.989  29.638  30.467  1.00  0.00    -0.354 N 
ATOM     49  C   UNL A   1      42.336  24.401  28.221  1.00  0.00     0.074 A 
ATOM     50  C   UNL A   1      41.078  24.498  27.530  1.00  0.00     0.031 C 
ATOM     51  C   UNL A   1      44.093  29.089  30.920  1.00  0.00     0.029 A 
ATOM     52  C   UNL A   1      42.902  29.708  31.507  1.00  0.00     0.049 A 
ATOM     53  H   UNL A   1      41.284  30.295  30.262  1.00  0.00     0.167 HD
ATOM     54  C   UNL A   1      43.470  23.642  28.142  1.00  0.00     0.037 A 
ATOM     55  C   UNL A   1      42.405  29.464  32.757  1.00  0.00     0.037 A 
ATOM     56  C   UNL A   1      44.411  24.125  29.156  1.00  0.00     0.049 A 
ATOM     57  C   UNL A   1      42.951  28.144  33.248  1.00  0.00     0.074 A 
ATOM     58  C   UNL A   1      45.419  25.073  29.091  1.00  0.00     0.029 A 
ATOM     59  N   UNL A   1      44.082  23.980  30.499  1.00  0.00    -0.354 N 
ATOM     60  N   UNL A   1      43.153  27.088  32.499  1.00  0.00    -0.248 NA
ATOM     61  C   UNL A   1      43.498  28.011  34.592  1.00  0.00     0.031 C 
ATOM     62  C   UNL A   1      45.584  25.605  30.400  1.00  0.00     0.029 A 
ATOM     63  C   UNL A   1      44.689  24.971  31.252  1.00  0.00     0.049 A 
ATOM     64  H   UNL A   1      43.501  23.274  30.864  1.00  0.00     0.167 HD
ATOM     65  C   UNL A   1      43.930  26.198  33.197  1.00  0.00     0.074 A 
ATOM     66  C   UNL A   1      44.097  26.814  34.506  1.00  0.00     0.031 C 
ATOM     67  C   UNL A   1      44.468  25.049  32.687  1.00  0.00     0.037 A 
BRANCH  54  68
ATOM     68  C   UNL A   1      43.878  22.683  27.029  1.00  0.00     0.058 A 
ATOM     69  C   UNL A   1      43.080  21.543  26.762  1.00  0.00     0.135 A 
ATOM     70  C   UNL A   1      45.047  22.760  26.243  1.00  0.00     0.135 A 
ATOM     71  F   UNL A   1      41.911  21.345  27.387  1.00  0.00    -0.206 F 
ATOM     72  C   UNL A   1      43.439  20.539  25.856  1.00  0.00     0.059 A 
ATOM     73  C   UNL A   1      45.436  21.759  25.336  1.00  0.00     0.059 A 
ATOM     74  F   UNL A   1      45.863  23.817  26.292  1.00  0.00    -0.206 F 
ATOM     75  C   UNL A   1      44.632  20.643  25.158  1.00  0.00     0.060 A 
BRANCH  75  76
ATOM     76  S   UNL A   1      45.089  19.321  24.018  1.00  0.00     0.124 S 
ATOM     77  O   UNL A   1      44.402  18.169  24.595  1.00  0.00    -0.237 OA
ATOM     78  O   UNL A   1      44.553  19.807  22.750  1.00  0.00    -0.237 OA
ATOM     79  O   UNL A   1      46.546  19.283  24.103  1.00  0.00    -0.744 OA
ENDBRANCH  75  76
ENDBRANCH  54  68
BRANCH  55  80
ATOM     80  C   UNL A   1      41.037  30.049  33.025  1.00  0.00     0.058 A 
ATOM     81  C   UNL A   1      40.906  31.460  33.025  1.00  0.00     0.135 A 
ATOM     82  C   UNL A   1      39.834  29.326  33.047  1.00  0.00     0.135 A 
ATOM     83  F   UNL A   1      42.005  32.236  33.030  1.00  0.00    -0.206 F 
ATOM     84  C   UNL A   1      39.677  32.114  32.930  1.00  0.00     0.059 A 
ATOM     85  C   UNL A   1      38.579  29.964  32.975  1.00  0.00     0.059 A 
ATOM     86  F   UNL A   1      39.848  27.986  33.060  1.00  0.00    -0.206 F 
ATOM     87  C   UNL A   1      38.513  31.357  32.883  1.00  0.00     0.060 A 
BRANCH  87  88
ATOM     88  S   UNL A   1      36.954  32.203  32.491  1.00  0.00     0.124 S 
ATOM     89  O   UNL A   1      36.143  31.115  31.957  1.00  0.00    -0.237 OA
ATOM     90  O   UNL A   1      36.550  32.708  33.800  1.00  0.00    -0.237 OA
ATOM     91  O   UNL A   1      37.370  33.217  31.524  1.00  0.00    -0.744 OA
ENDBRANCH  87  88
ENDBRANCH  55  80
BRANCH  67  92
ATOM     92  C   UNL A   1      44.957  23.910  33.546  1.00  0.00     0.058 A 
ATOM     93  C   UNL A   1      46.298  23.783  33.948  1.00  0.00     0.135 A 
ATOM     94  C   UNL A   1      44.050  22.997  34.136  1.00  0.00     0.135 A 
ATOM     95  F   UNL A   1      47.230  24.675  33.583  1.00  0.00    -0.206 F 
ATOM     96  C   UNL A   1      46.731  22.751  34.771  1.00  0.00     0.059 A 
ATOM     97  C   UNL A   1      44.451  22.011  35.029  1.00  0.00     0.059 A 
ATOM     98  F   UNL A   1      42.734  23.038  33.881  1.00  0.00    -0.206 F 
ATOM     99  C   UNL A   1      45.801  21.866  35.301  1.00  0.00     0.060 A 
BRANCH  99 100
ATOM    100  S   UNL A   1      46.362  20.536  36.369  1.00  0.00     0.124 S 
ATOM    101  O   UNL A   1      45.794  20.943  37.650  1.00  0.00    -0.237 OA
ATOM    102  O   UNL A   1      45.755  19.356  35.758  1.00  0.00    -0.237 OA
ATOM    103  O   UNL A   1      47.814  20.611  36.264  1.00  0.00    -0.744 OA
ENDBRANCH  99 100
ENDBRANCH  67  92
ENDBRANCH  41  42
ENDBRANCH  34  36
ENDBRANCH  33  34
ENDBRANCH  32  33
ENDBRANCH  31  32
ENDBRANCH   1  31
TORSDOF 20
ENDMDL
MODEL 2
REMARK VINA RESULT:     -13.7      4.658     11.321
REMARK SMILES Cc1cc(C(=O)OCCOC(=O)c2ccc(-c3c4nc(c(-c5c(F)cc(S(=O)(=O)[O-])cc5F)c5ccc([nH]5)c(-c5c(F)cc(S(=O)(=O)[O-])cc5F)c5nc(c(-c6c(F)cc(S(=O)(=O)[O-])cc6F)c6ccc3[nH]6)C=C5)C=C4)cc2)ccc1NC(=O)c1ccc(=O)n(CCOc2ccccc2)n1
REMARK SMILES IDX 7 1 5 2 6 3 4 4 1 5 2 6 3 7 81 8 80 9 79 10 82 11 83 12
REMARK SMILES IDX 84 14 85 15 86 16 100 17 87 18 90 19 88 20 89 21 91 22 92 23
REMARK SMILES IDX 93 24 94 25 95 26 99 27 96 28 98 29 97 30 8 31 9 32 10 33
REMARK SMILES IDX 11 34 12 35 13 36 14 37 78 38 15 39 77 40 16 41 17 42 18 43
REMARK SMILES IDX 71 44 19 45 76 46 70 47 72 48 20 49 75 50 69 51 68 52 21 54
REMARK SMILES IDX 55 55 34 56 54 57 35 58 38 59 53 60 73 61 36 62 37 63 52 65
REMARK SMILES IDX 74 66 39 67 22 68 23 69 32 70 24 71 25 72 31 73 33 74 26 75
REMARK SMILES IDX 27 76 28 77 29 78 30 79 56 80 57 81 66 82 58 83 59 84 65 85
REMARK SMILES IDX 67 86 60 87 61 88 62 89 63 90 64 91 40 92 41 93 50 94 42 95
REMARK SMILES IDX 43 96 49 97 51 98 44 99 45 100 46 101 47 102 48 103
REMARK H PARENT 82 13 72 53 38 64
REMARK Flexibility Score: inf
ROOT
ATOM      1  O   UNL A   1      37.035  22.875  25.081  1.00  0.00    -0.458 OA
ENDROOT
BRANCH   1   2
ATOM      2  C   UNL A   1      36.317  22.605  23.957  1.00  0.00     0.338 C 
ATOM      3  O   UNL A   1      36.569  22.987  22.833  1.00  0.00    -0.246 OA
BRANCH   2   4
ATOM      4  C   UNL A   1      35.042  21.919  24.241  1.00  0.00     0.060 A 
ATOM      5  C   UNL A   1      31.395  21.995  23.176  1.00  0.00     0.046 C 
ATOM      6  C   UNL A   1      32.601  21.923  24.068  1.00  0.00    -0.027 A 
ATOM      7  C   UNL A   1      33.871  22.142  23.502  1.00  0.00     0.021 A 
ATOM      8  C   UNL A   1      32.552  21.651  25.434  1.00  0.00     0.044 A 
ATOM      9  C   UNL A   1      33.696  21.123  26.033  1.00  0.00     0.027 A 
ATOM     10  C   UNL A   1      34.953  21.288  25.465  1.00  0.00     0.018 A 
BRANCH   8  11
ATOM     11  N   UNL A   1      31.419  22.000  26.205  1.00  0.00    -0.320 N 
ATOM     12  C   UNL A   1      30.958  23.285  26.495  1.00  0.00     0.276 C 
ATOM     13  H   UNL A   1      30.897  21.253  26.579  1.00  0.00     0.170 HD
ATOM     14  O   UNL A   1      30.004  23.491  27.237  1.00  0.00    -0.267 OA
BRANCH  12  15
ATOM     15  C   UNL A   1      31.654  24.479  25.849  1.00  0.00     0.149 A 
ATOM     16  C   UNL A   1      32.997  24.778  26.382  1.00  0.00     0.042 A 
ATOM     17  N   UNL A   1      31.098  25.126  24.864  1.00  0.00    -0.164 NA
ATOM     18  C   UNL A   1      33.842  25.268  25.475  1.00  0.00     0.076 A 
ATOM     19  N   UNL A   1      31.973  25.927  24.118  1.00  0.00    -0.226 N 
ATOM     20  C   UNL A   1      33.336  25.650  24.132  1.00  0.00     0.266 A 
ATOM     21  O   UNL A   1      34.131  25.787  23.210  1.00  0.00    -0.268 OA
BRANCH  19  22
ATOM     22  C   UNL A   1      31.410  26.826  23.105  1.00  0.00     0.190 C 
BRANCH  22  23
ATOM     23  C   UNL A   1      31.305  28.290  23.594  1.00  0.00     0.253 C 
BRANCH  23  24
ATOM     24  O   UNL A   1      32.583  28.961  23.707  1.00  0.00    -0.492 OA
BRANCH  24  25
ATOM     25  C   UNL A   1      32.867  29.364  24.980  1.00  0.00     0.119 A 
ATOM     26  C   UNL A   1      33.987  28.911  25.671  1.00  0.00     0.046 A 
ATOM     27  C   UNL A   1      31.947  30.171  25.634  1.00  0.00     0.046 A 
ATOM     28  C   UNL A   1      34.244  29.394  26.960  1.00  0.00     0.004 A 
ATOM     29  C   UNL A   1      32.234  30.717  26.882  1.00  0.00     0.004 A 
ATOM     30  C   UNL A   1      33.397  30.339  27.543  1.00  0.00     0.000 A 
ENDBRANCH  24  25
ENDBRANCH  23  24
ENDBRANCH  22  23
ENDBRANCH  19  22
ENDBRANCH  12  15
ENDBRANCH   8  11
ENDBRANCH   2   4
ENDBRANCH   1   2
BRANCH   1  31
ATOM     31  C   UNL A   1      38.097  21.938  25.338  1.00  0.00     0.275 C 
BRANCH  31  32
ATOM     32  C   UNL A   1      39.134  22.469  26.353  1.00  0.00     0.275 C 
BRANCH  32  33
ATOM     33  O   UNL A   1      39.044  23.826  26.849  1.00  0.00    -0.458 OA
BRANCH  33  34
ATOM     34  C   UNL A   1      40.206  24.457  27.136  1.00  0.00     0.338 C 
ATOM     35  O   UNL A   1      41.303  24.043  26.773  1.00  0.00    -0.246 OA
BRANCH  34  36
ATOM     36  C   UNL A   1      39.896  25.812  27.657  1.00  0.00     0.060 A 
ATOM     37  C   UNL A   1      39.335  25.929  28.932  1.00  0.00     0.016 A 
ATOM     38  C   UNL A   1      40.507  26.910  27.042  1.00  0.00     0.016 A 
ATOM     39  C   UNL A   1      39.515  27.096  29.666  1.00  0.00     0.010 A 
ATOM     40  C   UNL A   1      40.814  28.004  27.806  1.00  0.00     0.010 A 
ATOM     41  C   UNL A   1      40.299  28.102  29.108  1.00  0.00    -0.014 A 
BRANCH  41  42
ATOM     42  C   UNL A   1      40.297  29.467  29.592  1.00  0.00     0.031 A 
ATOM     43  C   UNL A   1      39.168  30.387  29.383  1.00  0.00     0.074 A 
ATOM     44  C   UNL A   1      41.357  29.630  30.416  1.00  0.00     0.049 A 
ATOM     45  N   UNL A   1      39.217  31.638  29.667  1.00  0.00    -0.248 NA
ATOM     46  C   UNL A   1      37.882  30.007  28.804  1.00  0.00     0.031 C 
ATOM     47  C   UNL A   1      41.685  30.626  31.410  1.00  0.00     0.029 A 
ATOM     48  N   UNL A   1      42.518  28.840  30.344  1.00  0.00    -0.354 N 
ATOM     49  C   UNL A   1      37.936  32.159  29.590  1.00  0.00     0.074 A 
ATOM     50  C   UNL A   1      37.166  31.133  28.940  1.00  0.00     0.031 C 
ATOM     51  C   UNL A   1      43.022  30.600  31.602  1.00  0.00     0.029 A 
ATOM     52  C   UNL A   1      43.593  29.668  30.626  1.00  0.00     0.049 A 
ATOM     53  H   UNL A   1      42.561  27.878  30.133  1.00  0.00     0.167 HD
ATOM     54  C   UNL A   1      37.694  33.341  30.234  1.00  0.00     0.037 A 
ATOM     55  C   UNL A   1      44.383  30.005  29.562  1.00  0.00     0.037 A 
ATOM     56  C   UNL A   1      38.975  33.868  30.712  1.00  0.00     0.049 A 
ATOM     57  C   UNL A   1      44.187  31.471  29.256  1.00  0.00     0.074 A 
ATOM     58  C   UNL A   1      39.637  33.709  31.918  1.00  0.00     0.029 A 
ATOM     59  N   UNL A   1      39.929  34.259  29.779  1.00  0.00    -0.354 N 
ATOM     60  N   UNL A   1      43.047  32.112  29.344  1.00  0.00    -0.248 NA
ATOM     61  C   UNL A   1      45.326  32.350  29.026  1.00  0.00     0.031 C 
ATOM     62  C   UNL A   1      41.028  33.863  31.661  1.00  0.00     0.029 A 
ATOM     63  C   UNL A   1      41.201  34.126  30.309  1.00  0.00     0.049 A 
ATOM     64  H   UNL A   1      39.729  34.583  28.871  1.00  0.00     0.167 HD
ATOM     65  C   UNL A   1      43.298  33.460  29.296  1.00  0.00     0.074 A 
ATOM     66  C   UNL A   1      44.734  33.552  29.074  1.00  0.00     0.031 C 
ATOM     67  C   UNL A   1      42.372  34.444  29.507  1.00  0.00     0.037 A 
BRANCH  54  68
ATOM     68  C   UNL A   1      36.351  33.899  30.692  1.00  0.00     0.058 A 
ATOM     69  C   UNL A   1      35.397  34.306  29.725  1.00  0.00     0.135 A 
ATOM     70  C   UNL A   1      35.951  34.136  32.024  1.00  0.00     0.135 A 
ATOM     71  F   UNL A   1      35.601  34.106  28.415  1.00  0.00    -0.206 F 
ATOM     72  C   UNL A   1      34.197  34.950  30.042  1.00  0.00     0.059 A 
ATOM     73  C   UNL A   1      34.757  34.792  32.368  1.00  0.00     0.059 A 
ATOM     74  F   UNL A   1      36.682  33.725  33.064  1.00  0.00    -0.206 F 
ATOM     75  C   UNL A   1      33.889  35.209  31.369  1.00  0.00     0.060 A 
BRANCH  75  76
ATOM     76  S   UNL A   1      32.349  36.067  31.751  1.00  0.00     0.124 S 
ATOM     77  O   UNL A   1      31.594  35.038  32.459  1.00  0.00    -0.237 OA
ATOM     78  O   UNL A   1      32.813  37.186  32.566  1.00  0.00    -0.237 OA
ATOM     79  O   UNL A   1      31.824  36.431  30.438  1.00  0.00    -0.744 OA
ENDBRANCH  75  76
ENDBRANCH  54  68
BRANCH  55  80
ATOM     80  C   UNL A   1      44.639  28.886  28.577  1.00  0.00     0.058 A 
ATOM     81  C   UNL A   1      44.185  29.057  27.246  1.00  0.00     0.135 A 
ATOM     82  C   UNL A   1      45.486  27.789  28.796  1.00  0.00     0.135 A 
ATOM     83  F   UNL A   1      43.348  30.067  26.947  1.00  0.00    -0.206 F 
ATOM     84  C   UNL A   1      44.631  28.275  26.180  1.00  0.00     0.059 A 
ATOM     85  C   UNL A   1      45.934  26.970  27.740  1.00  0.00     0.059 A 
ATOM     86  F   UNL A   1      45.962  27.534  30.022  1.00  0.00    -0.206 F 
ATOM     87  C   UNL A   1      45.526  27.242  26.430  1.00  0.00     0.060 A 
BRANCH  87  88
ATOM     88  S   UNL A   1      46.299  26.413  25.011  1.00  0.00     0.124 S 
ATOM     89  O   UNL A   1      47.556  25.942  25.581  1.00  0.00    -0.237 OA
ATOM     90  O   UNL A   1      45.319  25.376  24.700  1.00  0.00    -0.237 OA
ATOM     91  O   UNL A   1      46.412  27.490  24.029  1.00  0.00    -0.744 OA
ENDBRANCH  87  88
ENDBRANCH  55  80
BRANCH  67  92
ATOM     92  C   UNL A   1      42.562  35.871  29.059  1.00  0.00     0.058 A 
ATOM     93  C   UNL A   1      43.349  36.793  29.771  1.00  0.00     0.135 A 
ATOM     94  C   UNL A   1      42.092  36.310  27.798  1.00  0.00     0.135 A 
ATOM     95  F   UNL A   1      43.979  36.454  30.904  1.00  0.00    -0.206 F 
ATOM     96  C   UNL A   1      43.549  38.095  29.329  1.00  0.00     0.059 A 
ATOM     97  C   UNL A   1      42.354  37.580  27.299  1.00  0.00     0.059 A 
ATOM     98  F   UNL A   1      41.374  35.515  26.991  1.00  0.00    -0.206 F 
ATOM     99  C   UNL A   1      43.042  38.481  28.095  1.00  0.00     0.060 A 
BRANCH  99 100
ATOM    100  S   UNL A   1      43.305  40.162  27.522  1.00  0.00     0.124 S 
ATOM    101  O   UNL A   1      44.678  40.083  27.033  1.00  0.00    -0.237 OA
ATOM    102  O   UNL A   1      42.278  40.317  26.495  1.00  0.00    -0.237 OA
ATOM    103  O   UNL A   1      43.104  40.961  28.725  1.00  0.00    -0.744 OA
ENDBRANCH  99 100
ENDBRANCH  67  92
ENDBRANCH  41  42
ENDBRANCH  34  36
ENDBRANCH  33  34
ENDBRANCH  32  33
ENDBRANCH  31  32
ENDBRANCH   1  31
TORSDOF 20
ENDMDL
MODEL 3
REMARK VINA RESULT:     -13.4      1.663      4.210
REMARK SMILES Cc1cc(C(=O)OCCOC(=O)c2ccc(-c3c4nc(c(-c5c(F)cc(S(=O)(=O)[O-])cc5F)c5ccc([nH]5)c(-c5c(F)cc(S(=O)(=O)[O-])cc5F)c5nc(c(-c6c(F)cc(S(=O)(=O)[O-])cc6F)c6ccc3[nH]6)C=C5)C=C4)cc2)ccc1NC(=O)c1ccc(=O)n(CCOc2ccccc2)n1
REMARK SMILES IDX 7 1 5 2 6 3 4 4 1 5 2 6 3 7 81 8 80 9 79 10 82 11 83 12
REMARK SMILES IDX 84 14 85 15 86 16 100 17 87 18 90 19 88 20 89 21 91 22 92 23
REMARK SMILES IDX 93 24 94 25 95 26 99 27 96 28 98 29 97 30 8 31 9 32 10 33
REMARK SMILES IDX 11 34 12 35 13 36 14 37 78 38 15 39 77 40 16 41 17 42 18 43
REMARK SMILES IDX 71 44 19 45 76 46 70 47 72 48 20 49 75 50 69 51 68 52 21 54
REMARK SMILES IDX 55 55 34 56 54 57 35 58 38 59 53 60 73 61 36 62 37 63 52 65
REMARK SMILES IDX 74 66 39 67 22 68 23 69 32 70 24 71 25 72 31 73 33 74 26 75
REMARK SMILES IDX 27 76 28 77 29 78 30 79 56 80 57 81 66 82 58 83 59 84 65 85
REMARK SMILES IDX 67 86 60 87 61 88 62 89 63 90 64 91 40 92 41 93 50 94 42 95
REMARK SMILES IDX 43 96 49 97 51 98 44 99 45 100 46 101 47 102 48 103
REMARK H PARENT 82 13 72 53 38 64
REMARK Flexibility Score: inf
ROOT
ATOM      1  O   UNL A   1      33.464  29.184  25.985  1.00  0.00    -0.458 OA
ENDROOT
BRANCH   1   2
ATOM      2  C   UNL A   1      33.261  27.860  26.225  1.00  0.00     0.338 C 
ATOM      3  O   UNL A   1      32.814  27.374  27.243  1.00  0.00    -0.246 OA
BRANCH   2   4
ATOM      4  C   UNL A   1      33.816  26.994  25.168  1.00  0.00     0.060 A 
ATOM      5  C   UNL A   1      33.280  26.173  21.497  1.00  0.00     0.046 C 
ATOM      6  C   UNL A   1      33.531  25.970  22.963  1.00  0.00    -0.027 A 
ATOM      7  C   UNL A   1      33.426  27.080  23.824  1.00  0.00     0.021 A 
ATOM      8  C   UNL A   1      33.868  24.748  23.541  1.00  0.00     0.044 A 
ATOM      9  C   UNL A   1      34.550  24.769  24.757  1.00  0.00     0.027 A 
ATOM     10  C   UNL A   1      34.496  25.873  25.599  1.00  0.00     0.018 A 
BRANCH   8  11
ATOM     11  N   UNL A   1      33.436  23.530  22.967  1.00  0.00    -0.320 N 
ATOM     12  C   UNL A   1      32.194  22.913  23.128  1.00  0.00     0.276 C 
ATOM     13  H   UNL A   1      34.083  23.064  22.389  1.00  0.00     0.170 HD
ATOM     14  O   UNL A   1      31.936  21.815  22.647  1.00  0.00    -0.267 OA
BRANCH  12  15
ATOM     15  C   UNL A   1      31.109  23.641  23.915  1.00  0.00     0.149 A 
ATOM     16  C   UNL A   1      30.839  23.087  25.256  1.00  0.00     0.042 A 
ATOM     17  N   UNL A   1      30.527  24.701  23.431  1.00  0.00    -0.164 NA
ATOM     18  C   UNL A   1      30.485  24.004  26.158  1.00  0.00     0.076 A 
ATOM     19  N   UNL A   1      29.852  25.485  24.376  1.00  0.00    -0.226 N 
ATOM     20  C   UNL A   1      30.205  25.394  25.719  1.00  0.00     0.266 A 
ATOM     21  O   UNL A   1      30.202  26.295  26.550  1.00  0.00    -0.268 OA
BRANCH  19  22
ATOM     22  C   UNL A   1      29.022  26.597  23.902  1.00  0.00     0.190 C 
BRANCH  22  23
ATOM     23  C   UNL A   1      29.858  27.816  23.444  1.00  0.00     0.253 C 
BRANCH  23  24
ATOM     24  O   UNL A   1      29.390  28.413  22.210  1.00  0.00    -0.492 OA
BRANCH  24  25
ATOM     25  C   UNL A   1      29.010  29.716  22.355  1.00  0.00     0.119 A 
ATOM     26  C   UNL A   1      28.388  30.427  21.333  1.00  0.00     0.046 A 
ATOM     27  C   UNL A   1      29.354  30.374  23.527  1.00  0.00     0.046 A 
ATOM     28  C   UNL A   1      27.986  31.750  21.559  1.00  0.00     0.004 A 
ATOM     29  C   UNL A   1      28.888  31.660  23.789  1.00  0.00     0.004 A 
ATOM     30  C   UNL A   1      28.187  32.346  22.806  1.00  0.00     0.000 A 
ENDBRANCH  24  25
ENDBRANCH  23  24
ENDBRANCH  22  23
ENDBRANCH  19  22
ENDBRANCH  12  15
ENDBRANCH   8  11
ENDBRANCH   2   4
ENDBRANCH   1   2
BRANCH   1  31
ATOM     31  C   UNL A   1      33.400  30.011  27.162  1.00  0.00     0.275 C 
BRANCH  31  32
ATOM     32  C   UNL A   1      34.694  30.820  27.399  1.00  0.00     0.275 C 
BRANCH  32  33
ATOM     33  O   UNL A   1      35.803  30.232  28.122  1.00  0.00    -0.458 OA
BRANCH  33  34
ATOM     34  C   UNL A   1      36.745  31.076  28.602  1.00  0.00     0.338 C 
ATOM     35  O   UNL A   1      36.540  32.271  28.797  1.00  0.00    -0.246 OA
BRANCH  34  36
ATOM     36  C   UNL A   1      37.886  30.276  29.113  1.00  0.00     0.060 A 
ATOM     37  C   UNL A   1      37.627  29.033  29.699  1.00  0.00     0.016 A 
ATOM     38  C   UNL A   1      39.170  30.600  28.662  1.00  0.00     0.016 A 
ATOM     39  C   UNL A   1      38.607  28.048  29.699  1.00  0.00     0.010 A 
ATOM     40  C   UNL A   1      40.091  29.595  28.527  1.00  0.00     0.010 A 
ATOM     41  C   UNL A   1      39.814  28.329  29.065  1.00  0.00    -0.014 A 
BRANCH  41  42
ATOM     42  C   UNL A   1      41.016  27.549  29.272  1.00  0.00     0.031 A 
ATOM     43  C   UNL A   1      41.170  26.171  28.779  1.00  0.00     0.074 A 
ATOM     44  C   UNL A   1      41.976  28.365  29.763  1.00  0.00     0.049 A 
ATOM     45  N   UNL A   1      42.162  25.418  29.090  1.00  0.00    -0.248 NA
ATOM     46  C   UNL A   1      40.213  25.486  27.913  1.00  0.00     0.031 C 
ATOM     47  C   UNL A   1      43.413  28.246  29.858  1.00  0.00     0.029 A 
ATOM     48  N   UNL A   1      41.695  29.551  30.466  1.00  0.00    -0.354 N 
ATOM     49  C   UNL A   1      42.139  24.297  28.276  1.00  0.00     0.074 A 
ATOM     50  C   UNL A   1      40.847  24.336  27.645  1.00  0.00     0.031 C 
ATOM     51  C   UNL A   1      43.839  29.090  30.823  1.00  0.00     0.029 A 
ATOM     52  C   UNL A   1      42.654  29.672  31.459  1.00  0.00     0.049 A 
ATOM     53  H   UNL A   1      40.956  30.177  30.287  1.00  0.00     0.167 HD
ATOM     54  C   UNL A   1      43.297  23.582  28.151  1.00  0.00     0.037 A 
ATOM     55  C   UNL A   1      42.228  29.428  32.735  1.00  0.00     0.037 A 
ATOM     56  C   UNL A   1      44.266  24.116  29.112  1.00  0.00     0.049 A 
ATOM     57  C   UNL A   1      42.849  28.137  33.216  1.00  0.00     0.074 A 
ATOM     58  C   UNL A   1      45.232  25.102  28.986  1.00  0.00     0.029 A 
ATOM     59  N   UNL A   1      44.008  23.979  30.472  1.00  0.00    -0.354 N 
ATOM     60  N   UNL A   1      43.055  27.079  32.473  1.00  0.00    -0.248 NA
ATOM     61  C   UNL A   1      43.464  28.046  34.534  1.00  0.00     0.031 C 
ATOM     62  C   UNL A   1      45.439  25.659  30.278  1.00  0.00     0.029 A 
ATOM     63  C   UNL A   1      44.612  25.004  31.181  1.00  0.00     0.049 A 
ATOM     64  H   UNL A   1      43.473  23.257  30.873  1.00  0.00     0.167 HD
ATOM     65  C   UNL A   1      43.899  26.230  33.144  1.00  0.00     0.074 A 
ATOM     66  C   UNL A   1      44.105  26.872  34.434  1.00  0.00     0.031 C 
ATOM     67  C   UNL A   1      44.457  25.095  32.623  1.00  0.00     0.037 A 
BRANCH  54  68
ATOM     68  C   UNL A   1      43.689  22.622  27.033  1.00  0.00     0.058 A 
ATOM     69  C   UNL A   1      43.005  21.388  26.900  1.00  0.00     0.135 A 
ATOM     70  C   UNL A   1      44.746  22.792  26.114  1.00  0.00     0.135 A 
ATOM     71  F   UNL A   1      41.943  21.090  27.663  1.00  0.00    -0.206 F 
ATOM     72  C   UNL A   1      43.376  20.388  25.995  1.00  0.00     0.059 A 
ATOM     73  C   UNL A   1      45.146  21.799  25.204  1.00  0.00     0.059 A 
ATOM     74  F   UNL A   1      45.433  23.936  26.032  1.00  0.00    -0.206 F 
ATOM     75  C   UNL A   1      44.464  20.592  25.159  1.00  0.00     0.060 A 
BRANCH  75  76
ATOM     76  S   UNL A   1      44.942  19.277  24.021  1.00  0.00     0.124 S 
ATOM     77  O   UNL A   1      46.381  19.185  24.249  1.00  0.00    -0.237 OA
ATOM     78  O   UNL A   1      44.151  18.149  24.501  1.00  0.00    -0.237 OA
ATOM     79  O   UNL A   1      44.552  19.797  22.713  1.00  0.00    -0.744 OA
ENDBRANCH  75  76
ENDBRANCH  54  68
BRANCH  55  80
ATOM     80  C   UNL A   1      40.852  29.964  33.062  1.00  0.00     0.058 A 
ATOM     81  C   UNL A   1      40.704  31.365  33.214  1.00  0.00     0.135 A 
ATOM     82  C   UNL A   1      39.659  29.228  33.003  1.00  0.00     0.135 A 
ATOM     83  F   UNL A   1      41.793  32.149  33.305  1.00  0.00    -0.206 F 
ATOM     84  C   UNL A   1      39.467  32.010  33.187  1.00  0.00     0.059 A 
ATOM     85  C   UNL A   1      38.396  29.854  32.997  1.00  0.00     0.059 A 
ATOM     86  F   UNL A   1      39.690  27.895  32.870  1.00  0.00    -0.206 F 
ATOM     87  C   UNL A   1      38.312  31.249  33.056  1.00  0.00     0.060 A 
BRANCH  87  88
ATOM     88  S   UNL A   1      36.744  32.113  32.755  1.00  0.00     0.124 S 
ATOM     89  O   UNL A   1      37.173  33.252  31.951  1.00  0.00    -0.237 OA
ATOM     90  O   UNL A   1      35.973  31.096  32.046  1.00  0.00    -0.237 OA
ATOM     91  O   UNL A   1      36.283  32.428  34.105  1.00  0.00    -0.744 OA
ENDBRANCH  87  88
ENDBRANCH  55  80
BRANCH  67  92
ATOM     92  C   UNL A   1      45.031  23.990  33.472  1.00  0.00     0.058 A 
ATOM     93  C   UNL A   1      46.345  24.018  33.972  1.00  0.00     0.135 A 
ATOM     94  C   UNL A   1      44.215  22.938  33.954  1.00  0.00     0.135 A 
ATOM     95  F   UNL A   1      47.173  25.041  33.716  1.00  0.00    -0.206 F 
ATOM     96  C   UNL A   1      46.852  23.013  34.785  1.00  0.00     0.059 A 
ATOM     97  C   UNL A   1      44.679  21.971  34.837  1.00  0.00     0.059 A 
ATOM     98  F   UNL A   1      42.926  22.820  33.601  1.00  0.00    -0.206 F 
ATOM     99  C   UNL A   1      46.014  21.990  35.207  1.00  0.00     0.060 A 
BRANCH  99 100
ATOM    100  S   UNL A   1      46.669  20.693  36.262  1.00  0.00     0.124 S 
ATOM    101  O   UNL A   1      45.775  20.785  37.412  1.00  0.00    -0.237 OA
ATOM    102  O   UNL A   1      46.513  19.498  35.438  1.00  0.00    -0.237 OA
ATOM    103  O   UNL A   1      48.046  21.112  36.492  1.00  0.00    -0.744 OA
ENDBRANCH  99 100
ENDBRANCH  67  92
ENDBRANCH  41  42
ENDBRANCH  34  36
ENDBRANCH  33  34
ENDBRANCH  32  33
ENDBRANCH  31  32
ENDBRANCH   1  31
TORSDOF 20
ENDMDL
