MODEL 1
REMARK VINA RESULT:     -12.2      0.000      0.000
REMARK SMILES CC(=O)Nc1cccc(-c2cc(F)ccc2C(=O)OCCOC(=O)c2ccc(-c3c4nc(c(-c5c(F)cc(S(=O)(=O)[O-])cc5F)c5ccc([nH]5)c(-c5c(F)cc(S(=O)(=O)[O-])cc5F)c5nc(c(-c6c(F)cc(S(=O)(=O)[O-])cc6F)c6ccc3[nH]6)C=C5)C=C4)cc2)c1
REMARK SMILES IDX 21 1 20 2 19 3 17 4 18 5 16 6 10 7 11 8 12 9 15 10 13 11
REMARK SMILES IDX 14 12 9 13 5 14 6 15 91 16 7 17 8 18 4 19 1 20 2 21 3 22
REMARK SMILES IDX 22 24 23 25 24 26 25 27 26 28 90 29 27 30 89 31 28 32 29 33
REMARK SMILES IDX 30 34 83 35 31 36 88 37 82 38 84 39 32 40 87 41 81 42 80 43
REMARK SMILES IDX 33 45 67 46 46 47 66 48 47 49 50 50 65 51 85 52 48 53 49 54
REMARK SMILES IDX 64 56 86 57 51 58 34 59 35 60 44 61 36 62 37 63 43 64 45 65
REMARK SMILES IDX 38 66 39 67 40 68 41 69 42 70 68 71 69 72 78 73 70 74 71 75
REMARK SMILES IDX 77 76 79 77 72 78 73 79 74 80 75 81 76 82 52 83 53 84 62 85
REMARK SMILES IDX 54 86 55 87 61 88 63 89 56 90 57 91 58 92 59 93 60 94
REMARK H PARENT 4 23 84 44 50 55
REMARK Flexibility Score: inf
ROOT
ATOM      1  C   UNL A   1      32.922  30.643  27.172  1.00  0.00     0.275 C 
ENDROOT
BRANCH   1   2
ATOM      2  C   UNL A   1      31.760  29.694  26.897  1.00  0.00     0.275 C 
BRANCH   2   3
ATOM      3  O   UNL A   1      31.910  29.058  25.610  1.00  0.00    -0.458 OA
BRANCH   3   4
ATOM      4  C   UNL A   1      31.453  27.786  25.504  1.00  0.00     0.338 C 
ATOM      5  O   UNL A   1      30.823  27.170  26.341  1.00  0.00    -0.246 OA
BRANCH   4   6
ATOM      6  C   UNL A   1      31.797  27.191  24.182  1.00  0.00     0.068 A 
ATOM      7  C   UNL A   1      30.997  27.365  23.027  1.00  0.00    -0.001 A 
ATOM      8  C   UNL A   1      31.456  26.800  21.821  1.00  0.00     0.048 A 
ATOM      9  C   UNL A   1      32.655  26.091  21.772  1.00  0.00     0.123 A 
ATOM     10  C   UNL A   1      33.022  26.501  24.103  1.00  0.00     0.019 A 
ATOM     11  F   UNL A   1      33.065  25.573  20.607  1.00  0.00    -0.207 F 
ATOM     12  C   UNL A   1      33.440  25.932  22.903  1.00  0.00     0.040 A 
BRANCH   7  13
ATOM     13  C   UNL A   1      29.728  28.115  23.045  1.00  0.00    -0.015 A 
ATOM     14  C   UNL A   1      28.566  30.261  23.199  1.00  0.00     0.041 A 
ATOM     15  C   UNL A   1      27.377  29.573  23.467  1.00  0.00     0.026 A 
ATOM     16  C   UNL A   1      29.722  29.522  22.952  1.00  0.00     0.034 A 
ATOM     17  C   UNL A   1      27.343  28.178  23.479  1.00  0.00     0.003 A 
ATOM     18  C   UNL A   1      28.514  27.453  23.278  1.00  0.00     0.009 A 
BRANCH  14  19
ATOM     19  N   UNL A   1      28.529  31.661  23.320  1.00  0.00    -0.326 N 
ATOM     20  C   UNL A   1      27.995  32.425  20.999  1.00  0.00     0.114 C 
ATOM     21  C   UNL A   1      28.424  32.676  22.417  1.00  0.00     0.221 C 
ATOM     22  O   UNL A   1      28.643  33.826  22.809  1.00  0.00    -0.275 OA
ATOM     23  H   UNL A   1      28.592  31.972  24.251  1.00  0.00     0.169 HD
ENDBRANCH  14  19
ENDBRANCH   7  13
ENDBRANCH   4   6
ENDBRANCH   3   4
ENDBRANCH   2   3
ENDBRANCH   1   2
BRANCH   1  24
ATOM     24  O   UNL A   1      33.929  29.956  27.928  1.00  0.00    -0.458 OA
BRANCH  24  25
ATOM     25  C   UNL A   1      34.804  30.764  28.565  1.00  0.00     0.338 C 
ATOM     26  O   UNL A   1      34.572  31.804  29.160  1.00  0.00    -0.246 OA
BRANCH  25  27
ATOM     27  C   UNL A   1      36.126  30.135  28.546  1.00  0.00     0.060 A 
ATOM     28  C   UNL A   1      36.649  29.679  29.753  1.00  0.00     0.016 A 
ATOM     29  C   UNL A   1      36.897  30.123  27.389  1.00  0.00     0.016 A 
ATOM     30  C   UNL A   1      37.983  29.302  29.839  1.00  0.00     0.010 A 
ATOM     31  C   UNL A   1      38.211  29.653  27.456  1.00  0.00     0.010 A 
ATOM     32  C   UNL A   1      38.782  29.278  28.689  1.00  0.00    -0.014 A 
BRANCH  32  33
ATOM     33  C   UNL A   1      40.225  28.923  28.779  1.00  0.00     0.031 A 
ATOM     34  C   UNL A   1      41.217  29.945  29.270  1.00  0.00     0.074 A 
ATOM     35  C   UNL A   1      40.649  27.690  28.438  1.00  0.00     0.049 A 
ATOM     36  N   UNL A   1      42.524  29.916  29.242  1.00  0.00    -0.248 NA
ATOM     37  C   UNL A   1      40.658  31.175  29.856  1.00  0.00     0.031 C 
ATOM     38  C   UNL A   1      39.791  26.583  28.014  1.00  0.00     0.029 A 
ATOM     39  N   UNL A   1      41.914  27.157  28.403  1.00  0.00    -0.354 N 
ATOM     40  C   UNL A   1      42.944  31.143  29.743  1.00  0.00     0.074 A 
ATOM     41  C   UNL A   1      41.749  31.898  30.059  1.00  0.00     0.031 C 
ATOM     42  C   UNL A   1      40.544  25.493  27.808  1.00  0.00     0.029 A 
ATOM     43  C   UNL A   1      41.948  25.848  27.986  1.00  0.00     0.049 A 
ATOM     44  H   UNL A   1      42.720  27.665  28.652  1.00  0.00     0.167 HD
ATOM     45  C   UNL A   1      44.208  31.598  29.921  1.00  0.00     0.037 A 
ATOM     46  C   UNL A   1      42.991  25.035  27.732  1.00  0.00     0.037 A 
ATOM     47  C   UNL A   1      45.386  30.816  29.645  1.00  0.00     0.049 A 
ATOM     48  C   UNL A   1      44.385  25.575  27.878  1.00  0.00     0.074 A 
ATOM     49  C   UNL A   1      46.715  31.173  29.793  1.00  0.00     0.029 A 
ATOM     50  N   UNL A   1      45.375  29.510  29.172  1.00  0.00    -0.354 N 
ATOM     51  N   UNL A   1      44.771  26.762  28.283  1.00  0.00    -0.248 NA
ATOM     52  C   UNL A   1      45.485  24.676  27.505  1.00  0.00     0.031 C 
ATOM     53  C   UNL A   1      47.507  30.097  29.373  1.00  0.00     0.029 A 
ATOM     54  C   UNL A   1      46.673  29.052  29.008  1.00  0.00     0.049 A 
ATOM     55  H   UNL A   1      44.564  28.986  28.980  1.00  0.00     0.167 HD
ATOM     56  C   UNL A   1      46.160  26.748  28.232  1.00  0.00     0.074 A 
ATOM     57  C   UNL A   1      46.545  25.429  27.767  1.00  0.00     0.031 C 
ATOM     58  C   UNL A   1      47.036  27.735  28.543  1.00  0.00     0.037 A 
BRANCH  45  59
ATOM     59  C   UNL A   1      44.372  33.022  30.387  1.00  0.00     0.058 A 
ATOM     60  C   UNL A   1      44.429  33.364  31.747  1.00  0.00     0.135 A 
ATOM     61  C   UNL A   1      44.446  34.066  29.449  1.00  0.00     0.135 A 
ATOM     62  F   UNL A   1      44.349  32.410  32.689  1.00  0.00    -0.206 F 
ATOM     63  C   UNL A   1      44.495  34.692  32.162  1.00  0.00     0.059 A 
ATOM     64  C   UNL A   1      44.545  35.399  29.841  1.00  0.00     0.059 A 
ATOM     65  F   UNL A   1      44.404  33.800  28.134  1.00  0.00    -0.206 F 
ATOM     66  C   UNL A   1      44.539  35.703  31.201  1.00  0.00     0.060 A 
BRANCH  66  67
ATOM     67  S   UNL A   1      44.569  37.422  31.750  1.00  0.00     0.124 S 
ATOM     68  O   UNL A   1      45.994  37.730  31.661  1.00  0.00    -0.237 OA
ATOM     69  O   UNL A   1      43.717  38.083  30.765  1.00  0.00    -0.237 OA
ATOM     70  O   UNL A   1      44.024  37.358  33.102  1.00  0.00    -0.744 OA
ENDBRANCH  66  67
ENDBRANCH  45  59
BRANCH  46  71
ATOM     71  C   UNL A   1      42.745  23.634  27.298  1.00  0.00     0.058 A 
ATOM     72  C   UNL A   1      42.864  23.272  25.948  1.00  0.00     0.135 A 
ATOM     73  C   UNL A   1      42.444  22.621  28.222  1.00  0.00     0.135 A 
ATOM     74  F   UNL A   1      43.137  24.208  25.025  1.00  0.00    -0.206 F 
ATOM     75  C   UNL A   1      42.703  21.955  25.530  1.00  0.00     0.059 A 
ATOM     76  C   UNL A   1      42.305  21.293  27.833  1.00  0.00     0.059 A 
ATOM     77  F   UNL A   1      42.328  22.913  29.527  1.00  0.00    -0.206 F 
ATOM     78  C   UNL A   1      42.435  20.971  26.482  1.00  0.00     0.060 A 
BRANCH  78  79
ATOM     79  S   UNL A   1      42.318  19.252  25.939  1.00  0.00     0.124 S 
ATOM     80  O   UNL A   1      43.159  19.262  24.748  1.00  0.00    -0.237 OA
ATOM     81  O   UNL A   1      42.849  18.530  27.092  1.00  0.00    -0.237 OA
ATOM     82  O   UNL A   1      40.888  19.071  25.702  1.00  0.00    -0.744 OA
ENDBRANCH  78  79
ENDBRANCH  46  71
BRANCH  58  83
ATOM     83  C   UNL A   1      48.499  27.414  28.424  1.00  0.00     0.058 A 
ATOM     84  C   UNL A   1      49.226  27.708  27.261  1.00  0.00     0.135 A 
ATOM     85  C   UNL A   1      49.188  26.839  29.504  1.00  0.00     0.135 A 
ATOM     86  F   UNL A   1      48.612  28.248  26.196  1.00  0.00    -0.206 F 
ATOM     87  C   UNL A   1      50.585  27.423  27.164  1.00  0.00     0.059 A 
ATOM     88  C   UNL A   1      50.551  26.570  29.438  1.00  0.00     0.059 A 
ATOM     89  F   UNL A   1      48.538  26.546  30.641  1.00  0.00    -0.206 F 
ATOM     90  C   UNL A   1      51.239  26.855  28.259  1.00  0.00     0.060 A 
BRANCH  90  91
ATOM     91  S   UNL A   1      53.008  26.520  28.134  1.00  0.00     0.124 S 
ATOM     92  O   UNL A   1      53.031  25.416  27.180  1.00  0.00    -0.237 OA
ATOM     93  O   UNL A   1      53.533  27.791  27.646  1.00  0.00    -0.237 OA
ATOM     94  O   UNL A   1      53.386  26.177  29.502  1.00  0.00    -0.744 OA
ENDBRANCH  90  91
ENDBRANCH  58  83
ENDBRANCH  32  33
ENDBRANCH  25  27
ENDBRANCH  24  25
ENDBRANCH   1  24
TORSDOF 16
ENDMDL
MODEL 2
REMARK VINA RESULT:     -11.8      0.585      1.491
REMARK SMILES CC(=O)Nc1cccc(-c2cc(F)ccc2C(=O)OCCOC(=O)c2ccc(-c3c4nc(c(-c5c(F)cc(S(=O)(=O)[O-])cc5F)c5ccc([nH]5)c(-c5c(F)cc(S(=O)(=O)[O-])cc5F)c5nc(c(-c6c(F)cc(S(=O)(=O)[O-])cc6F)c6ccc3[nH]6)C=C5)C=C4)cc2)c1
REMARK SMILES IDX 21 1 20 2 19 3 17 4 18 5 16 6 10 7 11 8 12 9 15 10 13 11
REMARK SMILES IDX 14 12 9 13 5 14 6 15 91 16 7 17 8 18 4 19 1 20 2 21 3 22
REMARK SMILES IDX 22 24 23 25 24 26 25 27 26 28 90 29 27 30 89 31 28 32 29 33
REMARK SMILES IDX 30 34 83 35 31 36 88 37 82 38 84 39 32 40 87 41 81 42 80 43
REMARK SMILES IDX 33 45 67 46 46 47 66 48 47 49 50 50 65 51 85 52 48 53 49 54
REMARK SMILES IDX 64 56 86 57 51 58 34 59 35 60 44 61 36 62 37 63 43 64 45 65
REMARK SMILES IDX 38 66 39 67 40 68 41 69 42 70 68 71 69 72 78 73 70 74 71 75
REMARK SMILES IDX 77 76 79 77 72 78 73 79 74 80 75 81 76 82 52 83 53 84 62 85
REMARK SMILES IDX 54 86 55 87 61 88 63 89 56 90 57 91 58 92 59 93 60 94
REMARK H PARENT 4 23 84 44 50 55
REMARK Flexibility Score: inf
ROOT
ATOM      1  C   UNL A   1      32.913  29.194  27.597  1.00  0.00     0.275 C 
ENDROOT
BRANCH   1   2
ATOM      2  C   UNL A   1      32.806  28.219  26.429  1.00  0.00     0.275 C 
BRANCH   2   3
ATOM      3  O   UNL A   1      31.458  28.178  25.917  1.00  0.00    -0.458 OA
BRANCH   3   4
ATOM      4  C   UNL A   1      30.979  26.960  25.561  1.00  0.00     0.338 C 
ATOM      5  O   UNL A   1      30.259  26.242  26.227  1.00  0.00    -0.246 OA
BRANCH   4   6
ATOM      6  C   UNL A   1      31.428  26.575  24.194  1.00  0.00     0.068 A 
ATOM      7  C   UNL A   1      30.837  27.090  23.016  1.00  0.00    -0.001 A 
ATOM      8  C   UNL A   1      31.385  26.694  21.780  1.00  0.00     0.048 A 
ATOM      9  C   UNL A   1      32.470  25.820  21.725  1.00  0.00     0.123 A 
ATOM     10  C   UNL A   1      32.545  25.721  24.116  1.00  0.00     0.019 A 
ATOM     11  F   UNL A   1      32.970  25.470  20.533  1.00  0.00    -0.207 F 
ATOM     12  C   UNL A   1      33.052  25.326  22.880  1.00  0.00     0.040 A 
BRANCH   7  13
ATOM     13  C   UNL A   1      29.693  28.020  23.042  1.00  0.00    -0.015 A 
ATOM     14  C   UNL A   1      28.859  30.306  23.280  1.00  0.00     0.041 A 
ATOM     15  C   UNL A   1      27.573  29.793  23.481  1.00  0.00     0.026 A 
ATOM     16  C   UNL A   1      29.899  29.416  23.023  1.00  0.00     0.034 A 
ATOM     17  C   UNL A   1      27.331  28.419  23.419  1.00  0.00     0.003 A 
ATOM     18  C   UNL A   1      28.388  27.538  23.209  1.00  0.00     0.009 A 
BRANCH  14  19
ATOM     19  N   UNL A   1      29.026  31.689  23.474  1.00  0.00    -0.326 N 
ATOM     20  C   UNL A   1      28.090  32.682  21.378  1.00  0.00     0.114 C 
ATOM     21  C   UNL A   1      28.852  32.775  22.669  1.00  0.00     0.221 C 
ATOM     22  O   UNL A   1      29.295  33.860  23.055  1.00  0.00    -0.275 OA
ATOM     23  H   UNL A   1      29.333  31.920  24.380  1.00  0.00     0.169 HD
ENDBRANCH  14  19
ENDBRANCH   7  13
ENDBRANCH   4   6
ENDBRANCH   3   4
ENDBRANCH   2   3
ENDBRANCH   1   2
BRANCH   1  24
ATOM     24  O   UNL A   1      33.769  30.286  27.228  1.00  0.00    -0.458 OA
BRANCH  24  25
ATOM     25  C   UNL A   1      34.454  30.835  28.254  1.00  0.00     0.338 C 
ATOM     26  O   UNL A   1      34.056  31.640  29.079  1.00  0.00    -0.246 OA
BRANCH  25  27
ATOM     27  C   UNL A   1      35.780  30.217  28.320  1.00  0.00     0.060 A 
ATOM     28  C   UNL A   1      36.237  29.785  29.562  1.00  0.00     0.016 A 
ATOM     29  C   UNL A   1      36.615  30.191  27.208  1.00  0.00     0.016 A 
ATOM     30  C   UNL A   1      37.567  29.420  29.729  1.00  0.00     0.010 A 
ATOM     31  C   UNL A   1      37.926  29.732  27.357  1.00  0.00     0.010 A 
ATOM     32  C   UNL A   1      38.430  29.383  28.627  1.00  0.00    -0.014 A 
BRANCH  32  33
ATOM     33  C   UNL A   1      39.868  29.041  28.803  1.00  0.00     0.031 A 
ATOM     34  C   UNL A   1      40.818  30.070  29.360  1.00  0.00     0.074 A 
ATOM     35  C   UNL A   1      40.324  27.814  28.484  1.00  0.00     0.049 A 
ATOM     36  N   UNL A   1      42.124  30.053  29.411  1.00  0.00    -0.248 NA
ATOM     37  C   UNL A   1      40.212  31.292  29.915  1.00  0.00     0.031 C 
ATOM     38  C   UNL A   1      39.504  26.701  28.003  1.00  0.00     0.029 A 
ATOM     39  N   UNL A   1      41.594  27.293  28.525  1.00  0.00    -0.354 N 
ATOM     40  C   UNL A   1      42.501  31.282  29.943  1.00  0.00     0.074 A 
ATOM     41  C   UNL A   1      41.282  32.024  30.188  1.00  0.00     0.031 C 
ATOM     42  C   UNL A   1      40.279  25.619  27.839  1.00  0.00     0.029 A 
ATOM     43  C   UNL A   1      41.666  25.986  28.105  1.00  0.00     0.049 A 
ATOM     44  H   UNL A   1      42.377  27.807  28.825  1.00  0.00     0.167 HD
ATOM     45  C   UNL A   1      43.748  31.747  30.200  1.00  0.00     0.037 A 
ATOM     46  C   UNL A   1      42.730  25.184  27.911  1.00  0.00     0.037 A 
ATOM     47  C   UNL A   1      44.947  30.978  29.993  1.00  0.00     0.049 A 
ATOM     48  C   UNL A   1      44.107  25.736  28.145  1.00  0.00     0.074 A 
ATOM     49  C   UNL A   1      46.262  31.346  30.224  1.00  0.00     0.029 A 
ATOM     50  N   UNL A   1      44.978  29.674  29.515  1.00  0.00    -0.354 N 
ATOM     51  N   UNL A   1      44.456  26.925  28.578  1.00  0.00    -0.248 NA
ATOM     52  C   UNL A   1      45.237  24.850  27.837  1.00  0.00     0.031 C 
ATOM     53  C   UNL A   1      47.088  30.280  29.849  1.00  0.00     0.029 A 
ATOM     54  C   UNL A   1      46.288  29.229  29.429  1.00  0.00     0.049 A 
ATOM     55  H   UNL A   1      44.186  29.144  29.272  1.00  0.00     0.167 HD
ATOM     56  C   UNL A   1      45.845  26.924  28.613  1.00  0.00     0.074 A 
ATOM     57  C   UNL A   1      46.271  25.612  28.166  1.00  0.00     0.031 C 
ATOM     58  C   UNL A   1      46.691  27.918  28.982  1.00  0.00     0.037 A 
BRANCH  45  59
ATOM     59  C   UNL A   1      43.868  33.170  30.681  1.00  0.00     0.058 A 
ATOM     60  C   UNL A   1      44.014  34.251  29.797  1.00  0.00     0.135 A 
ATOM     61  C   UNL A   1      43.864  33.452  32.058  1.00  0.00     0.135 A 
ATOM     62  F   UNL A   1      44.040  34.042  28.471  1.00  0.00    -0.206 F 
ATOM     63  C   UNL A   1      44.209  35.550  30.260  1.00  0.00     0.059 A 
ATOM     64  C   UNL A   1      44.024  34.747  32.543  1.00  0.00     0.059 A 
ATOM     65  F   UNL A   1      43.720  32.461  32.951  1.00  0.00    -0.206 F 
ATOM     66  C   UNL A   1      44.226  35.786  31.636  1.00  0.00     0.060 A 
BRANCH  66  67
ATOM     67  S   UNL A   1      44.534  37.464  32.226  1.00  0.00     0.124 S 
ATOM     68  O   UNL A   1      44.093  38.258  31.082  1.00  0.00    -0.237 OA
ATOM     69  O   UNL A   1      43.689  37.541  33.414  1.00  0.00    -0.237 OA
ATOM     70  O   UNL A   1      45.971  37.477  32.481  1.00  0.00    -0.744 OA
ENDBRANCH  66  67
ENDBRANCH  45  59
BRANCH  46  71
ATOM     71  C   UNL A   1      42.525  23.783  27.457  1.00  0.00     0.058 A 
ATOM     72  C   UNL A   1      42.535  23.466  26.091  1.00  0.00     0.135 A 
ATOM     73  C   UNL A   1      42.372  22.729  28.372  1.00  0.00     0.135 A 
ATOM     74  F   UNL A   1      42.665  24.441  25.178  1.00  0.00    -0.206 F 
ATOM     75  C   UNL A   1      42.411  22.153  25.647  1.00  0.00     0.059 A 
ATOM     76  C   UNL A   1      42.273  21.406  27.954  1.00  0.00     0.059 A 
ATOM     77  F   UNL A   1      42.365  22.979  29.690  1.00  0.00    -0.206 F 
ATOM     78  C   UNL A   1      42.292  21.129  26.588  1.00  0.00     0.060 A 
BRANCH  78  79
ATOM     79  S   UNL A   1      42.222  19.421  26.002  1.00  0.00     0.124 S 
ATOM     80  O   UNL A   1      42.701  18.691  27.170  1.00  0.00    -0.237 OA
ATOM     81  O   UNL A   1      40.806  19.264  25.686  1.00  0.00    -0.237 OA
ATOM     82  O   UNL A   1      43.117  19.425  24.848  1.00  0.00    -0.744 OA
ENDBRANCH  78  79
ENDBRANCH  46  71
BRANCH  58  83
ATOM     83  C   UNL A   1      48.162  27.611  28.951  1.00  0.00     0.058 A 
ATOM     84  C   UNL A   1      48.834  27.103  30.072  1.00  0.00     0.135 A 
ATOM     85  C   UNL A   1      48.899  27.795  27.769  1.00  0.00     0.135 A 
ATOM     86  F   UNL A   1      48.178  26.920  31.229  1.00  0.00    -0.206 F 
ATOM     87  C   UNL A   1      50.193  26.806  30.031  1.00  0.00     0.059 A 
ATOM     88  C   UNL A   1      50.251  27.481  27.698  1.00  0.00     0.059 A 
ATOM     89  F   UNL A   1      48.300  28.272  26.666  1.00  0.00    -0.206 F 
ATOM     90  C   UNL A   1      50.893  26.997  28.838  1.00  0.00     0.060 A 
BRANCH  90  91
ATOM     91  S   UNL A   1      52.648  26.578  28.786  1.00  0.00     0.124 S 
ATOM     92  O   UNL A   1      52.705  25.696  27.624  1.00  0.00    -0.237 OA
ATOM     93  O   UNL A   1      53.276  27.885  28.622  1.00  0.00    -0.237 OA
ATOM     94  O   UNL A   1      52.881  25.935  30.076  1.00  0.00    -0.744 OA
ENDBRANCH  90  91
ENDBRANCH  58  83
ENDBRANCH  32  33
ENDBRANCH  25  27
ENDBRANCH  24  25
ENDBRANCH   1  24
TORSDOF 16
ENDMDL
MODEL 3
REMARK VINA RESULT:     -11.7      5.165     10.946
REMARK SMILES CC(=O)Nc1cccc(-c2cc(F)ccc2C(=O)OCCOC(=O)c2ccc(-c3c4nc(c(-c5c(F)cc(S(=O)(=O)[O-])cc5F)c5ccc([nH]5)c(-c5c(F)cc(S(=O)(=O)[O-])cc5F)c5nc(c(-c6c(F)cc(S(=O)(=O)[O-])cc6F)c6ccc3[nH]6)C=C5)C=C4)cc2)c1
REMARK SMILES IDX 21 1 20 2 19 3 17 4 18 5 16 6 10 7 11 8 12 9 15 10 13 11
REMARK SMILES IDX 14 12 9 13 5 14 6 15 91 16 7 17 8 18 4 19 1 20 2 21 3 22
REMARK SMILES IDX 22 24 23 25 24 26 25 27 26 28 90 29 27 30 89 31 28 32 29 33
REMARK SMILES IDX 30 34 83 35 31 36 88 37 82 38 84 39 32 40 87 41 81 42 80 43
REMARK SMILES IDX 33 45 67 46 46 47 66 48 47 49 50 50 65 51 85 52 48 53 49 54
REMARK SMILES IDX 64 56 86 57 51 58 34 59 35 60 44 61 36 62 37 63 43 64 45 65
REMARK SMILES IDX 38 66 39 67 40 68 41 69 42 70 68 71 69 72 78 73 70 74 71 75
REMARK SMILES IDX 77 76 79 77 72 78 73 79 74 80 75 81 76 82 52 83 53 84 62 85
REMARK SMILES IDX 54 86 55 87 61 88 63 89 56 90 57 91 58 92 59 93 60 94
REMARK H PARENT 4 23 84 44 50 55
REMARK Flexibility Score: inf
ROOT
ATOM      1  C   UNL A   1      38.340  21.673  25.741  1.00  0.00     0.275 C 
ENDROOT
BRANCH   1   2
ATOM      2  C   UNL A   1      37.382  21.391  24.589  1.00  0.00     0.275 C 
BRANCH   2   3
ATOM      3  O   UNL A   1      36.065  21.906  24.879  1.00  0.00    -0.458 OA
BRANCH   3   4
ATOM      4  C   UNL A   1      35.558  22.808  24.001  1.00  0.00     0.338 C 
ATOM      5  O   UNL A   1      35.885  22.951  22.839  1.00  0.00    -0.246 OA
BRANCH   4   6
ATOM      6  C   UNL A   1      34.490  23.636  24.627  1.00  0.00     0.068 A 
ATOM      7  C   UNL A   1      33.149  23.199  24.751  1.00  0.00    -0.001 A 
ATOM      8  C   UNL A   1      32.240  24.049  25.411  1.00  0.00     0.048 A 
ATOM      9  C   UNL A   1      32.651  25.280  25.920  1.00  0.00     0.123 A 
ATOM     10  C   UNL A   1      34.891  24.868  25.179  1.00  0.00     0.019 A 
ATOM     11  F   UNL A   1      31.763  26.060  26.548  1.00  0.00    -0.207 F 
ATOM     12  C   UNL A   1      33.966  25.700  25.805  1.00  0.00     0.040 A 
BRANCH   7  13
ATOM     13  C   UNL A   1      32.686  21.900  24.229  1.00  0.00    -0.015 A 
ATOM     14  C   UNL A   1      32.468  19.482  24.524  1.00  0.00     0.041 A 
ATOM     15  C   UNL A   1      32.185  19.363  23.159  1.00  0.00     0.026 A 
ATOM     16  C   UNL A   1      32.676  20.755  25.053  1.00  0.00     0.034 A 
ATOM     17  C   UNL A   1      32.104  20.492  22.342  1.00  0.00     0.003 A 
ATOM     18  C   UNL A   1      32.362  21.753  22.873  1.00  0.00     0.009 A 
BRANCH  14  19
ATOM     19  N   UNL A   1      32.641  18.286  25.242  1.00  0.00    -0.326 N 
ATOM     20  C   UNL A   1      34.749  17.341  24.284  1.00  0.00     0.114 C 
ATOM     21  C   UNL A   1      33.508  17.241  25.124  1.00  0.00     0.221 C 
ATOM     22  O   UNL A   1      33.272  16.217  25.771  1.00  0.00    -0.275 OA
ATOM     23  H   UNL A   1      32.004  18.182  25.984  1.00  0.00     0.169 HD
ENDBRANCH  14  19
ENDBRANCH   7  13
ENDBRANCH   4   6
ENDBRANCH   3   4
ENDBRANCH   2   3
ENDBRANCH   1   2
BRANCH   1  24
ATOM     24  O   UNL A   1      38.755  23.046  25.690  1.00  0.00    -0.458 OA
BRANCH  24  25
ATOM     25  C   UNL A   1      39.986  23.281  26.191  1.00  0.00     0.338 C 
ATOM     26  O   UNL A   1      41.017  22.663  25.977  1.00  0.00    -0.246 OA
BRANCH  25  27
ATOM     27  C   UNL A   1      39.947  24.513  26.982  1.00  0.00     0.060 A 
ATOM     28  C   UNL A   1      40.773  25.564  26.593  1.00  0.00     0.016 A 
ATOM     29  C   UNL A   1      39.218  24.582  28.164  1.00  0.00     0.016 A 
ATOM     30  C   UNL A   1      40.960  26.653  27.434  1.00  0.00     0.010 A 
ATOM     31  C   UNL A   1      39.333  25.722  28.964  1.00  0.00     0.010 A 
ATOM     32  C   UNL A   1      40.238  26.750  28.630  1.00  0.00    -0.014 A 
BRANCH  32  33
ATOM     33  C   UNL A   1      40.467  27.889  29.562  1.00  0.00     0.031 A 
ATOM     34  C   UNL A   1      41.696  27.905  30.434  1.00  0.00     0.074 A 
ATOM     35  C   UNL A   1      39.593  28.913  29.620  1.00  0.00     0.049 A 
ATOM     36  N   UNL A   1      41.989  28.685  31.441  1.00  0.00    -0.248 NA
ATOM     37  C   UNL A   1      42.723  26.892  30.141  1.00  0.00     0.031 C 
ATOM     38  C   UNL A   1      38.400  29.061  28.784  1.00  0.00     0.029 A 
ATOM     39  N   UNL A   1      39.577  30.031  30.416  1.00  0.00    -0.354 N 
ATOM     40  C   UNL A   1      43.200  28.219  31.943  1.00  0.00     0.074 A 
ATOM     41  C   UNL A   1      43.580  27.081  31.133  1.00  0.00     0.031 C 
ATOM     42  C   UNL A   1      37.797  30.222  29.076  1.00  0.00     0.029 A 
ATOM     43  C   UNL A   1      38.499  30.854  30.188  1.00  0.00     0.049 A 
ATOM     44  H   UNL A   1      40.270  30.225  31.087  1.00  0.00     0.167 HD
ATOM     45  C   UNL A   1      43.925  28.696  32.985  1.00  0.00     0.037 A 
ATOM     46  C   UNL A   1      38.094  31.966  30.828  1.00  0.00     0.037 A 
ATOM     47  C   UNL A   1      43.556  29.858  33.751  1.00  0.00     0.049 A 
ATOM     48  C   UNL A   1      38.877  32.446  32.017  1.00  0.00     0.074 A 
ATOM     49  C   UNL A   1      44.217  30.434  34.823  1.00  0.00     0.029 A 
ATOM     50  N   UNL A   1      42.425  30.632  33.519  1.00  0.00    -0.354 N 
ATOM     51  N   UNL A   1      39.981  31.956  32.529  1.00  0.00    -0.248 NA
ATOM     52  C   UNL A   1      38.346  33.614  32.732  1.00  0.00     0.031 C 
ATOM     53  C   UNL A   1      43.466  31.531  35.262  1.00  0.00     0.029 A 
ATOM     54  C   UNL A   1      42.362  31.669  34.436  1.00  0.00     0.049 A 
ATOM     55  H   UNL A   1      41.765  30.467  32.808  1.00  0.00     0.167 HD
ATOM     56  C   UNL A   1      40.288  32.765  33.617  1.00  0.00     0.074 A 
ATOM     57  C   UNL A   1      39.257  33.783  33.681  1.00  0.00     0.031 C 
ATOM     58  C   UNL A   1      41.327  32.674  34.482  1.00  0.00     0.037 A 
BRANCH  45  59
ATOM     59  C   UNL A   1      45.157  27.924  33.380  1.00  0.00     0.058 A 
ATOM     60  C   UNL A   1      46.424  28.209  32.846  1.00  0.00     0.135 A 
ATOM     61  C   UNL A   1      45.060  26.860  34.293  1.00  0.00     0.135 A 
ATOM     62  F   UNL A   1      46.576  29.205  31.960  1.00  0.00    -0.206 F 
ATOM     63  C   UNL A   1      47.537  27.432  33.158  1.00  0.00     0.059 A 
ATOM     64  C   UNL A   1      46.165  26.090  34.644  1.00  0.00     0.059 A 
ATOM     65  F   UNL A   1      43.876  26.545  34.842  1.00  0.00    -0.206 F 
ATOM     66  C   UNL A   1      47.394  26.366  34.048  1.00  0.00     0.060 A 
BRANCH  66  67
ATOM     67  S   UNL A   1      48.831  25.332  34.402  1.00  0.00     0.124 S 
ATOM     68  O   UNL A   1      48.204  24.169  35.024  1.00  0.00    -0.237 OA
ATOM     69  O   UNL A   1      49.396  25.111  33.074  1.00  0.00    -0.237 OA
ATOM     70  O   UNL A   1      49.637  26.161  35.291  1.00  0.00    -0.744 OA
ENDBRANCH  66  67
ENDBRANCH  45  59
BRANCH  46  71
ATOM     71  C   UNL A   1      36.879  32.685  30.361  1.00  0.00     0.058 A 
ATOM     72  C   UNL A   1      35.648  32.506  31.010  1.00  0.00     0.135 A 
ATOM     73  C   UNL A   1      36.930  33.603  29.299  1.00  0.00     0.135 A 
ATOM     74  F   UNL A   1      35.546  31.630  32.022  1.00  0.00    -0.206 F 
ATOM     75  C   UNL A   1      34.515  33.218  30.632  1.00  0.00     0.059 A 
ATOM     76  C   UNL A   1      35.817  34.345  28.920  1.00  0.00     0.059 A 
ATOM     77  F   UNL A   1      38.085  33.817  28.651  1.00  0.00    -0.206 F 
ATOM     78  C   UNL A   1      34.612  34.144  29.592  1.00  0.00     0.060 A 
BRANCH  78  79
ATOM     79  S   UNL A   1      33.156  35.126  29.169  1.00  0.00     0.124 S 
ATOM     80  O   UNL A   1      32.497  35.247  30.464  1.00  0.00    -0.237 OA
ATOM     81  O   UNL A   1      33.755  36.348  28.639  1.00  0.00    -0.237 OA
ATOM     82  O   UNL A   1      32.467  34.298  28.184  1.00  0.00    -0.744 OA
ENDBRANCH  78  79
ENDBRANCH  46  71
BRANCH  58  83
ATOM     83  C   UNL A   1      41.421  33.725  35.553  1.00  0.00     0.058 A 
ATOM     84  C   UNL A   1      40.877  33.528  36.830  1.00  0.00     0.135 A 
ATOM     85  C   UNL A   1      42.097  34.930  35.304  1.00  0.00     0.135 A 
ATOM     86  F   UNL A   1      40.210  32.398  37.115  1.00  0.00    -0.206 F 
ATOM     87  C   UNL A   1      40.982  34.500  37.821  1.00  0.00     0.059 A 
ATOM     88  C   UNL A   1      42.237  35.903  36.287  1.00  0.00     0.059 A 
ATOM     89  F   UNL A   1      42.642  35.163  34.099  1.00  0.00    -0.206 F 
ATOM     90  C   UNL A   1      41.666  35.684  37.540  1.00  0.00     0.060 A 
BRANCH  90  91
ATOM     91  S   UNL A   1      41.825  36.923  38.843  1.00  0.00     0.124 S 
ATOM     92  O   UNL A   1      42.103  36.090  40.008  1.00  0.00    -0.237 OA
ATOM     93  O   UNL A   1      42.936  37.738  38.365  1.00  0.00    -0.237 OA
ATOM     94  O   UNL A   1      40.523  37.586  38.840  1.00  0.00    -0.744 OA
ENDBRANCH  90  91
ENDBRANCH  58  83
ENDBRANCH  32  33
ENDBRANCH  25  27
ENDBRANCH  24  25
ENDBRANCH   1  24
TORSDOF 16
ENDMDL
