MODEL 1
REMARK VINA RESULT:     -11.2      0.000      0.000
REMARK SMILES CCc1cc(OC(F)(F)F)cc2c1O[C@@H](C(F)(F)F)C(C(=O)OCCOC(=O)c1ccc(-c3c4nc(c(-c5c(F)cc(S(=O)(=O)[O-])cc5F)c5ccc([nH]5)c(-c5c(F)cc(S(=O)(=O)[O-])cc5F)c5nc(c(-c6c(F)cc(S(=O)(=O)[O-])cc6F)c6ccc3[nH]6)C=C5)C=C4)cc1)=C2
REMARK SMILES IDX 25 1 24 2 23 3 21 4 22 5 20 6 3 7 4 8 13 9 5 10 12 11 14 12
REMARK SMILES IDX 11 13 95 14 15 15 2 16 1 17 6 18 7 19 8 20 9 21 10 22 16 23
REMARK SMILES IDX 17 24 18 25 19 26 26 27 27 28 28 29 29 30 30 31 94 32 31 33
REMARK SMILES IDX 93 34 32 35 33 36 34 37 87 38 35 39 92 40 86 41 88 42 36 43
REMARK SMILES IDX 91 44 85 45 84 46 37 48 71 49 50 50 70 51 51 52 54 53 69 54
REMARK SMILES IDX 89 55 52 56 53 57 68 59 90 60 55 61 38 62 39 63 48 64 40 65
REMARK SMILES IDX 41 66 47 67 49 68 42 69 43 70 44 71 45 72 46 73 72 74 73 75
REMARK SMILES IDX 82 76 74 77 75 78 81 79 83 80 76 81 77 82 78 83 79 84 80 85
REMARK SMILES IDX 56 86 57 87 66 88 58 89 59 90 65 91 67 92 60 93 61 94 62 95
REMARK SMILES IDX 63 96 64 97
REMARK H PARENT 88 47 54 58
REMARK Flexibility Score: inf
ROOT
ATOM      1  C   UNL A   1      33.257  30.245  26.368  1.00  0.00     0.275 C 
ENDROOT
BRANCH   1   2
ATOM      2  C   UNL A   1      31.758  29.933  26.354  1.00  0.00     0.275 C 
BRANCH   2   3
ATOM      3  O   UNL A   1      31.467  28.705  25.653  1.00  0.00    -0.459 OA
BRANCH   3   4
ATOM      4  C   UNL A   1      31.593  27.566  26.385  1.00  0.00     0.338 C 
ATOM      5  O   UNL A   1      31.211  27.421  27.527  1.00  0.00    -0.246 OA
BRANCH   4   6
ATOM      6  C   UNL A   1      32.233  26.478  25.605  1.00  0.00     0.087 C 
ATOM      7  C   UNL A   1      33.822  23.369  23.294  1.00  0.00    -0.002 A 
ATOM      8  C   UNL A   1      35.155  22.980  23.488  1.00  0.00     0.054 A 
ATOM      9  C   UNL A   1      33.281  24.335  24.157  1.00  0.00     0.131 A 
ATOM     10  C   UNL A   1      35.933  23.564  24.494  1.00  0.00     0.130 A 
ATOM     11  C   UNL A   1      34.063  24.988  25.115  1.00  0.00     0.021 A 
ATOM     12  O   UNL A   1      31.931  24.548  24.085  1.00  0.00    -0.475 OA
ATOM     13  C   UNL A   1      35.393  24.594  25.277  1.00  0.00     0.058 A 
ATOM     14  C   UNL A   1      33.462  26.041  25.934  1.00  0.00     0.027 C 
ATOM     15  C   UNL A   1      31.474  25.881  24.432  1.00  0.00     0.316 C 
BRANCH   7  16
ATOM     16  C   UNL A   1      32.946  22.782  22.203  1.00  0.00     0.036 C 
ATOM     17  C   UNL A   1      32.203  21.494  22.542  1.00  0.00     0.009 C 
ENDBRANCH   7  16
BRANCH  10  18
ATOM     18  O   UNL A   1      37.224  23.229  24.798  1.00  0.00    -0.406 OA
BRANCH  18  19
ATOM     19  C   UNL A   1      37.436  21.995  25.467  1.00  0.00     0.573 C 
ATOM     20  F   UNL A   1      38.480  22.066  26.322  1.00  0.00    -0.132 F 
ATOM     21  F   UNL A   1      36.330  21.609  26.137  1.00  0.00    -0.132 F 
ATOM     22  F   UNL A   1      37.719  21.046  24.546  1.00  0.00    -0.132 F 
ENDBRANCH  18  19
ENDBRANCH  10  18
BRANCH  15  23
ATOM     23  C   UNL A   1      29.935  25.823  24.496  1.00  0.00     0.430 C 
ATOM     24  F   UNL A   1      29.372  27.011  24.178  1.00  0.00    -0.167 F 
ATOM     25  F   UNL A   1      29.461  24.935  23.584  1.00  0.00    -0.167 F 
ATOM     26  F   UNL A   1      29.482  25.428  25.706  1.00  0.00    -0.167 F 
ENDBRANCH  15  23
ENDBRANCH   4   6
ENDBRANCH   3   4
ENDBRANCH   2   3
ENDBRANCH   1   2
BRANCH   1  27
ATOM     27  O   UNL A   1      33.885  29.777  27.576  1.00  0.00    -0.458 OA
BRANCH  27  28
ATOM     28  C   UNL A   1      34.609  30.712  28.238  1.00  0.00     0.338 C 
ATOM     29  O   UNL A   1      34.175  31.705  28.800  1.00  0.00    -0.246 OA
BRANCH  28  30
ATOM     30  C   UNL A   1      36.010  30.266  28.370  1.00  0.00     0.060 A 
ATOM     31  C   UNL A   1      36.436  29.914  29.654  1.00  0.00     0.016 A 
ATOM     32  C   UNL A   1      36.898  30.196  27.294  1.00  0.00     0.016 A 
ATOM     33  C   UNL A   1      37.720  29.416  29.862  1.00  0.00     0.010 A 
ATOM     34  C   UNL A   1      38.210  29.751  27.513  1.00  0.00     0.010 A 
ATOM     35  C   UNL A   1      38.622  29.346  28.795  1.00  0.00    -0.014 A 
BRANCH  35  36
ATOM     36  C   UNL A   1      40.028  28.959  29.065  1.00  0.00     0.031 A 
ATOM     37  C   UNL A   1      40.948  29.958  29.707  1.00  0.00     0.074 A 
ATOM     38  C   UNL A   1      40.465  27.716  28.790  1.00  0.00     0.049 A 
ATOM     39  N   UNL A   1      42.209  29.838  30.025  1.00  0.00    -0.248 NA
ATOM     40  C   UNL A   1      40.360  31.264  30.046  1.00  0.00     0.031 C 
ATOM     41  C   UNL A   1      39.650  26.634  28.243  1.00  0.00     0.029 A 
ATOM     42  N   UNL A   1      41.712  27.157  28.939  1.00  0.00    -0.354 N 
ATOM     43  C   UNL A   1      42.568  31.045  30.611  1.00  0.00     0.074 A 
ATOM     44  C   UNL A   1      41.394  31.891  30.588  1.00  0.00     0.031 C 
ATOM     45  C   UNL A   1      40.424  25.546  28.079  1.00  0.00     0.029 A 
ATOM     46  C   UNL A   1      41.794  25.863  28.482  1.00  0.00     0.049 A 
ATOM     47  H   UNL A   1      42.474  27.638  29.334  1.00  0.00     0.167 HD
ATOM     48  C   UNL A   1      43.766  31.415  31.121  1.00  0.00     0.037 A 
ATOM     49  C   UNL A   1      42.858  25.040  28.378  1.00  0.00     0.037 A 
ATOM     50  C   UNL A   1      44.942  30.584  31.110  1.00  0.00     0.049 A 
ATOM     51  C   UNL A   1      44.210  25.518  28.846  1.00  0.00     0.074 A 
ATOM     52  C   UNL A   1      46.208  30.880  31.584  1.00  0.00     0.029 A 
ATOM     53  N   UNL A   1      45.002  29.302  30.583  1.00  0.00    -0.354 N 
ATOM     54  N   UNL A   1      44.537  26.659  29.408  1.00  0.00    -0.248 NA
ATOM     55  C   UNL A   1      45.343  24.597  28.664  1.00  0.00     0.031 C 
ATOM     56  C   UNL A   1      47.047  29.799  31.294  1.00  0.00     0.029 A 
ATOM     57  C   UNL A   1      46.291  28.805  30.693  1.00  0.00     0.049 A 
ATOM     58  H   UNL A   1      44.242  28.816  30.189  1.00  0.00     0.167 HD
ATOM     59  C   UNL A   1      45.901  26.579  29.675  1.00  0.00     0.074 A 
ATOM     60  C   UNL A   1      46.338  25.275  29.220  1.00  0.00     0.031 C 
ATOM     61  C   UNL A   1      46.716  27.501  30.247  1.00  0.00     0.037 A 
BRANCH  48  62
ATOM     62  C   UNL A   1      43.875  32.801  31.690  1.00  0.00     0.058 A 
ATOM     63  C   UNL A   1      44.228  33.901  30.892  1.00  0.00     0.135 A 
ATOM     64  C   UNL A   1      43.607  33.033  33.047  1.00  0.00     0.135 A 
ATOM     65  F   UNL A   1      44.515  33.731  29.592  1.00  0.00    -0.206 F 
ATOM     66  C   UNL A   1      44.333  35.181  31.427  1.00  0.00     0.059 A 
ATOM     67  C   UNL A   1      43.683  34.308  33.599  1.00  0.00     0.059 A 
ATOM     68  F   UNL A   1      43.272  32.015  33.854  1.00  0.00    -0.206 F 
ATOM     69  C   UNL A   1      44.061  35.373  32.783  1.00  0.00     0.060 A 
BRANCH  69  70
ATOM     70  S   UNL A   1      44.211  37.039  33.465  1.00  0.00     0.124 S 
ATOM     71  O   UNL A   1      42.976  37.149  34.235  1.00  0.00    -0.237 OA
ATOM     72  O   UNL A   1      45.438  36.945  34.249  1.00  0.00    -0.237 OA
ATOM     73  O   UNL A   1      44.289  37.886  32.280  1.00  0.00    -0.744 OA
ENDBRANCH  69  70
ENDBRANCH  48  62
BRANCH  49  74
ATOM     74  C   UNL A   1      42.704  23.687  27.775  1.00  0.00     0.058 A 
ATOM     75  C   UNL A   1      42.502  22.551  28.573  1.00  0.00     0.135 A 
ATOM     76  C   UNL A   1      42.787  23.500  26.386  1.00  0.00     0.135 A 
ATOM     77  F   UNL A   1      42.434  22.672  29.907  1.00  0.00    -0.206 F 
ATOM     78  C   UNL A   1      42.411  21.277  28.019  1.00  0.00     0.059 A 
ATOM     79  C   UNL A   1      42.670  22.240  25.806  1.00  0.00     0.059 A 
ATOM     80  F   UNL A   1      42.978  24.554  25.576  1.00  0.00    -0.206 F 
ATOM     81  C   UNL A   1      42.495  21.132  26.633  1.00  0.00     0.060 A 
BRANCH  81  82
ATOM     82  S   UNL A   1      42.350  19.479  25.921  1.00  0.00     0.124 S 
ATOM     83  O   UNL A   1      40.927  19.418  25.606  1.00  0.00    -0.237 OA
ATOM     84  O   UNL A   1      43.253  19.556  24.778  1.00  0.00    -0.237 OA
ATOM     85  O   UNL A   1      42.795  18.606  27.003  1.00  0.00    -0.744 OA
ENDBRANCH  81  82
ENDBRANCH  49  74
BRANCH  61  86
ATOM     86  C   UNL A   1      48.159  27.126  30.457  1.00  0.00     0.058 A 
ATOM     87  C   UNL A   1      49.170  27.540  29.575  1.00  0.00     0.135 A 
ATOM     88  C   UNL A   1      48.544  26.399  31.596  1.00  0.00     0.135 A 
ATOM     89  F   UNL A   1      48.859  28.233  28.470  1.00  0.00    -0.206 F 
ATOM     90  C   UNL A   1      50.508  27.229  29.805  1.00  0.00     0.059 A 
ATOM     91  C   UNL A   1      49.878  26.102  31.860  1.00  0.00     0.059 A 
ATOM     92  F   UNL A   1      47.621  25.988  32.480  1.00  0.00    -0.206 F 
ATOM     93  C   UNL A   1      50.852  26.513  30.952  1.00  0.00     0.060 A 
BRANCH  93  94
ATOM     94  S   UNL A   1      52.596  26.155  31.261  1.00  0.00     0.124 S 
ATOM     95  O   UNL A   1      53.015  27.344  31.998  1.00  0.00    -0.237 OA
ATOM     96  O   UNL A   1      52.529  24.920  32.035  1.00  0.00    -0.237 OA
ATOM     97  O   UNL A   1      53.158  26.019  29.920  1.00  0.00    -0.744 OA
ENDBRANCH  93  94
ENDBRANCH  61  86
ENDBRANCH  35  36
ENDBRANCH  28  30
ENDBRANCH  27  28
ENDBRANCH   1  27
TORSDOF 18
ENDMDL
MODEL 2
REMARK VINA RESULT:     -11.0      2.669      3.441
REMARK SMILES CCc1cc(OC(F)(F)F)cc2c1O[C@@H](C(F)(F)F)C(C(=O)OCCOC(=O)c1ccc(-c3c4nc(c(-c5c(F)cc(S(=O)(=O)[O-])cc5F)c5ccc([nH]5)c(-c5c(F)cc(S(=O)(=O)[O-])cc5F)c5nc(c(-c6c(F)cc(S(=O)(=O)[O-])cc6F)c6ccc3[nH]6)C=C5)C=C4)cc1)=C2
REMARK SMILES IDX 25 1 24 2 23 3 21 4 22 5 20 6 3 7 4 8 13 9 5 10 12 11 14 12
REMARK SMILES IDX 11 13 95 14 15 15 2 16 1 17 6 18 7 19 8 20 9 21 10 22 16 23
REMARK SMILES IDX 17 24 18 25 19 26 26 27 27 28 28 29 29 30 30 31 94 32 31 33
REMARK SMILES IDX 93 34 32 35 33 36 34 37 87 38 35 39 92 40 86 41 88 42 36 43
REMARK SMILES IDX 91 44 85 45 84 46 37 48 71 49 50 50 70 51 51 52 54 53 69 54
REMARK SMILES IDX 89 55 52 56 53 57 68 59 90 60 55 61 38 62 39 63 48 64 40 65
REMARK SMILES IDX 41 66 47 67 49 68 42 69 43 70 44 71 45 72 46 73 72 74 73 75
REMARK SMILES IDX 82 76 74 77 75 78 81 79 83 80 76 81 77 82 78 83 79 84 80 85
REMARK SMILES IDX 56 86 57 87 66 88 58 89 59 90 65 91 67 92 60 93 61 94 62 95
REMARK SMILES IDX 63 96 64 97
REMARK H PARENT 88 47 54 58
REMARK Flexibility Score: inf
ROOT
ATOM      1  C   UNL A   1      34.539  30.730  27.743  1.00  0.00     0.275 C 
ENDROOT
BRANCH   1   2
ATOM      2  C   UNL A   1      33.358  29.999  27.097  1.00  0.00     0.275 C 
BRANCH   2   3
ATOM      3  O   UNL A   1      33.714  28.666  26.673  1.00  0.00    -0.459 OA
BRANCH   3   4
ATOM      4  C   UNL A   1      33.507  28.392  25.357  1.00  0.00     0.338 C 
ATOM      5  O   UNL A   1      33.404  29.221  24.477  1.00  0.00    -0.246 OA
BRANCH   4   6
ATOM      6  C   UNL A   1      33.455  26.932  25.100  1.00  0.00     0.087 C 
ATOM      7  C   UNL A   1      33.075  22.842  24.287  1.00  0.00    -0.002 A 
ATOM      8  C   UNL A   1      34.120  21.973  24.633  1.00  0.00     0.054 A 
ATOM      9  C   UNL A   1      33.179  24.189  24.671  1.00  0.00     0.131 A 
ATOM     10  C   UNL A   1      35.249  22.443  25.313  1.00  0.00     0.130 A 
ATOM     11  C   UNL A   1      34.332  24.694  25.280  1.00  0.00     0.021 A 
ATOM     12  O   UNL A   1      32.067  24.969  24.510  1.00  0.00    -0.475 OA
ATOM     13  C   UNL A   1      35.365  23.810  25.598  1.00  0.00     0.058 A 
ATOM     14  C   UNL A   1      34.412  26.123  25.587  1.00  0.00     0.027 C 
ATOM     15  C   UNL A   1      32.305  26.380  24.273  1.00  0.00     0.316 C 
BRANCH   7  16
ATOM     16  C   UNL A   1      31.842  22.385  23.531  1.00  0.00     0.036 C 
ATOM     17  C   UNL A   1      32.052  21.315  22.464  1.00  0.00     0.009 C 
ENDBRANCH   7  16
BRANCH  10  18
ATOM     18  O   UNL A   1      36.300  21.677  25.736  1.00  0.00    -0.406 OA
BRANCH  18  19
ATOM     19  C   UNL A   1      37.432  21.595  24.884  1.00  0.00     0.573 C 
ATOM     20  F   UNL A   1      37.982  20.362  24.905  1.00  0.00    -0.132 F 
ATOM     21  F   UNL A   1      37.110  21.925  23.616  1.00  0.00    -0.132 F 
ATOM     22  F   UNL A   1      38.366  22.472  25.318  1.00  0.00    -0.132 F 
ENDBRANCH  18  19
ENDBRANCH  10  18
BRANCH  15  23
ATOM     23  C   UNL A   1      30.936  27.084  24.346  1.00  0.00     0.430 C 
ATOM     24  F   UNL A   1      30.758  27.724  25.523  1.00  0.00    -0.167 F 
ATOM     25  F   UNL A   1      30.850  28.045  23.389  1.00  0.00    -0.167 F 
ATOM     26  F   UNL A   1      29.905  26.233  24.145  1.00  0.00    -0.167 F 
ENDBRANCH  15  23
ENDBRANCH   4   6
ENDBRANCH   3   4
ENDBRANCH   2   3
ENDBRANCH   1   2
BRANCH   1  27
ATOM     27  O   UNL A   1      35.487  29.808  28.310  1.00  0.00    -0.458 OA
BRANCH  27  28
ATOM     28  C   UNL A   1      36.236  30.313  29.320  1.00  0.00     0.338 C 
ATOM     29  O   UNL A   1      35.822  30.860  30.330  1.00  0.00    -0.246 OA
BRANCH  28  30
ATOM     30  C   UNL A   1      37.652  29.935  29.138  1.00  0.00     0.060 A 
ATOM     31  C   UNL A   1      38.071  29.689  27.828  1.00  0.00     0.016 A 
ATOM     32  C   UNL A   1      38.555  29.810  30.197  1.00  0.00     0.016 A 
ATOM     33  C   UNL A   1      39.404  29.396  27.554  1.00  0.00     0.010 A 
ATOM     34  C   UNL A   1      39.884  29.455  29.928  1.00  0.00     0.010 A 
ATOM     35  C   UNL A   1      40.318  29.261  28.605  1.00  0.00    -0.014 A 
BRANCH  35  36
ATOM     36  C   UNL A   1      41.695  28.798  28.307  1.00  0.00     0.031 A 
ATOM     37  C   UNL A   1      42.817  29.796  28.315  1.00  0.00     0.074 A 
ATOM     38  C   UNL A   1      41.950  27.495  28.082  1.00  0.00     0.049 A 
ATOM     39  N   UNL A   1      44.089  29.615  28.077  1.00  0.00    -0.248 NA
ATOM     40  C   UNL A   1      42.456  31.182  28.651  1.00  0.00     0.031 C 
ATOM     41  C   UNL A   1      40.961  26.420  28.126  1.00  0.00     0.029 A 
ATOM     42  N   UNL A   1      43.127  26.858  27.772  1.00  0.00    -0.354 N 
ATOM     43  C   UNL A   1      44.685  30.858  28.243  1.00  0.00     0.074 A 
ATOM     44  C   UNL A   1      43.631  31.790  28.585  1.00  0.00     0.031 C 
ATOM     45  C   UNL A   1      41.570  25.257  27.830  1.00  0.00     0.029 A 
ATOM     46  C   UNL A   1      42.983  25.510  27.547  1.00  0.00     0.049 A 
ATOM     47  H   UNL A   1      43.993  27.324  27.716  1.00  0.00     0.167 HD
ATOM     48  C   UNL A   1      45.991  31.193  28.119  1.00  0.00     0.037 A 
ATOM     49  C   UNL A   1      43.882  24.592  27.135  1.00  0.00     0.037 A 
ATOM     50  C   UNL A   1      47.031  30.272  27.744  1.00  0.00     0.049 A 
ATOM     51  C   UNL A   1      45.310  25.016  26.891  1.00  0.00     0.074 A 
ATOM     52  C   UNL A   1      48.381  30.523  27.571  1.00  0.00     0.029 A 
ATOM     53  N   UNL A   1      46.837  28.928  27.463  1.00  0.00    -0.354 N 
ATOM     54  N   UNL A   1      45.865  26.193  27.059  1.00  0.00    -0.248 NA
ATOM     55  C   UNL A   1      46.235  23.984  26.397  1.00  0.00     0.031 C 
ATOM     56  C   UNL A   1      48.994  29.344  27.134  1.00  0.00     0.029 A 
ATOM     57  C   UNL A   1      48.036  28.343  27.090  1.00  0.00     0.049 A 
ATOM     58  H   UNL A   1      45.974  28.457  27.520  1.00  0.00     0.167 HD
ATOM     59  C   UNL A   1      47.208  26.035  26.724  1.00  0.00     0.074 A 
ATOM     60  C   UNL A   1      47.384  24.647  26.350  1.00  0.00     0.031 C 
ATOM     61  C   UNL A   1      48.204  26.956  26.729  1.00  0.00     0.037 A 
BRANCH  48  62
ATOM     62  C   UNL A   1      46.358  32.633  28.346  1.00  0.00     0.058 A 
ATOM     63  C   UNL A   1      46.766  33.100  29.606  1.00  0.00     0.135 A 
ATOM     64  C   UNL A   1      46.316  33.551  27.286  1.00  0.00     0.135 A 
ATOM     65  F   UNL A   1      46.802  32.268  30.658  1.00  0.00    -0.206 F 
ATOM     66  C   UNL A   1      47.098  34.436  29.811  1.00  0.00     0.059 A 
ATOM     67  C   UNL A   1      46.667  34.886  27.462  1.00  0.00     0.059 A 
ATOM     68  F   UNL A   1      45.927  33.156  26.064  1.00  0.00    -0.206 F 
ATOM     69  C   UNL A   1      47.043  35.321  28.732  1.00  0.00     0.060 A 
BRANCH  69  70
ATOM     70  S   UNL A   1      47.468  37.053  29.015  1.00  0.00     0.124 S 
ATOM     71  O   UNL A   1      48.743  36.928  29.715  1.00  0.00    -0.237 OA
ATOM     72  O   UNL A   1      47.541  37.582  27.658  1.00  0.00    -0.237 OA
ATOM     73  O   UNL A   1      46.356  37.549  29.821  1.00  0.00    -0.744 OA
ENDBRANCH  69  70
ENDBRANCH  48  62
BRANCH  49  74
ATOM     74  C   UNL A   1      43.460  23.186  26.891  1.00  0.00     0.058 A 
ATOM     75  C   UNL A   1      43.194  22.309  27.953  1.00  0.00     0.135 A 
ATOM     76  C   UNL A   1      43.346  22.680  25.586  1.00  0.00     0.135 A 
ATOM     77  F   UNL A   1      43.306  22.736  29.220  1.00  0.00    -0.206 F 
ATOM     78  C   UNL A   1      42.851  20.977  27.732  1.00  0.00     0.059 A 
ATOM     79  C   UNL A   1      42.978  21.361  25.339  1.00  0.00     0.059 A 
ATOM     80  F   UNL A   1      43.589  23.477  24.533  1.00  0.00    -0.206 F 
ATOM     81  C   UNL A   1      42.745  20.513  26.420  1.00  0.00     0.060 A 
BRANCH  81  82
ATOM     82  S   UNL A   1      42.274  18.792  26.143  1.00  0.00     0.124 S 
ATOM     83  O   UNL A   1      42.507  18.207  27.458  1.00  0.00    -0.237 OA
ATOM     84  O   UNL A   1      40.878  18.917  25.738  1.00  0.00    -0.237 OA
ATOM     85  O   UNL A   1      43.187  18.359  25.089  1.00  0.00    -0.744 OA
ENDBRANCH  81  82
ENDBRANCH  49  74
BRANCH  61  86
ATOM     86  C   UNL A   1      49.589  26.494  26.358  1.00  0.00     0.058 A 
ATOM     87  C   UNL A   1      50.108  26.665  25.066  1.00  0.00     0.135 A 
ATOM     88  C   UNL A   1      50.432  25.931  27.332  1.00  0.00     0.135 A 
ATOM     89  F   UNL A   1      49.345  27.193  24.096  1.00  0.00    -0.206 F 
ATOM     90  C   UNL A   1      51.407  26.278  24.746  1.00  0.00     0.059 A 
ATOM     91  C   UNL A   1      51.743  25.564  27.042  1.00  0.00     0.059 A 
ATOM     92  F   UNL A   1      49.992  25.755  28.588  1.00  0.00    -0.206 F 
ATOM     93  C   UNL A   1      52.218  25.731  25.742  1.00  0.00     0.060 A 
BRANCH  93  94
ATOM     94  S   UNL A   1      53.915  25.274  25.325  1.00  0.00     0.124 S 
ATOM     95  O   UNL A   1      53.834  23.817  25.316  1.00  0.00    -0.237 OA
ATOM     96  O   UNL A   1      54.098  25.906  24.023  1.00  0.00    -0.237 OA
ATOM     97  O   UNL A   1      54.700  25.851  26.412  1.00  0.00    -0.744 OA
ENDBRANCH  93  94
ENDBRANCH  61  86
ENDBRANCH  35  36
ENDBRANCH  28  30
ENDBRANCH  27  28
ENDBRANCH   1  27
TORSDOF 18
ENDMDL
MODEL 3
REMARK VINA RESULT:     -11.0      1.724      2.209
REMARK SMILES CCc1cc(OC(F)(F)F)cc2c1O[C@@H](C(F)(F)F)C(C(=O)OCCOC(=O)c1ccc(-c3c4nc(c(-c5c(F)cc(S(=O)(=O)[O-])cc5F)c5ccc([nH]5)c(-c5c(F)cc(S(=O)(=O)[O-])cc5F)c5nc(c(-c6c(F)cc(S(=O)(=O)[O-])cc6F)c6ccc3[nH]6)C=C5)C=C4)cc1)=C2
REMARK SMILES IDX 25 1 24 2 23 3 21 4 22 5 20 6 3 7 4 8 13 9 5 10 12 11 14 12
REMARK SMILES IDX 11 13 95 14 15 15 2 16 1 17 6 18 7 19 8 20 9 21 10 22 16 23
REMARK SMILES IDX 17 24 18 25 19 26 26 27 27 28 28 29 29 30 30 31 94 32 31 33
REMARK SMILES IDX 93 34 32 35 33 36 34 37 87 38 35 39 92 40 86 41 88 42 36 43
REMARK SMILES IDX 91 44 85 45 84 46 37 48 71 49 50 50 70 51 51 52 54 53 69 54
REMARK SMILES IDX 89 55 52 56 53 57 68 59 90 60 55 61 38 62 39 63 48 64 40 65
REMARK SMILES IDX 41 66 47 67 49 68 42 69 43 70 44 71 45 72 46 73 72 74 73 75
REMARK SMILES IDX 82 76 74 77 75 78 81 79 83 80 76 81 77 82 78 83 79 84 80 85
REMARK SMILES IDX 56 86 57 87 66 88 58 89 59 90 65 91 67 92 60 93 61 94 62 95
REMARK SMILES IDX 63 96 64 97
REMARK H PARENT 88 47 54 58
REMARK Flexibility Score: inf
ROOT
ATOM      1  C   UNL A   1      32.397  29.284  27.007  1.00  0.00     0.275 C 
ENDROOT
BRANCH   1   2
ATOM      2  C   UNL A   1      31.380  28.226  27.444  1.00  0.00     0.275 C 
BRANCH   2   3
ATOM      3  O   UNL A   1      31.895  26.886  27.296  1.00  0.00    -0.459 OA
BRANCH   3   4
ATOM      4  C   UNL A   1      31.262  26.111  26.376  1.00  0.00     0.338 C 
ATOM      5  O   UNL A   1      30.138  26.294  25.960  1.00  0.00    -0.246 OA
BRANCH   4   6
ATOM      6  C   UNL A   1      32.129  25.006  25.896  1.00  0.00     0.087 C 
ATOM      7  C   UNL A   1      34.708  22.057  24.419  1.00  0.00    -0.002 A 
ATOM      8  C   UNL A   1      34.457  20.710  24.721  1.00  0.00     0.054 A 
ATOM      9  C   UNL A   1      33.767  23.015  24.831  1.00  0.00     0.131 A 
ATOM     10  C   UNL A   1      33.317  20.337  25.442  1.00  0.00     0.130 A 
ATOM     11  C   UNL A   1      32.665  22.672  25.620  1.00  0.00     0.021 A 
ATOM     12  O   UNL A   1      33.923  24.286  24.351  1.00  0.00    -0.475 OA
ATOM     13  C   UNL A   1      32.447  21.326  25.921  1.00  0.00     0.058 A 
ATOM     14  C   UNL A   1      31.760  23.726  26.083  1.00  0.00     0.027 C 
ATOM     15  C   UNL A   1      33.434  25.355  25.201  1.00  0.00     0.316 C 
BRANCH   7  16
ATOM     16  C   UNL A   1      35.940  22.513  23.661  1.00  0.00     0.036 C 
ATOM     17  C   UNL A   1      37.278  22.361  24.376  1.00  0.00     0.009 C 
ENDBRANCH   7  16
BRANCH  10  18
ATOM     18  O   UNL A   1      32.954  19.055  25.750  1.00  0.00    -0.406 OA
BRANCH  18  19
ATOM     19  C   UNL A   1      32.725  18.164  24.669  1.00  0.00     0.573 C 
ATOM     20  F   UNL A   1      33.883  17.700  24.152  1.00  0.00    -0.132 F 
ATOM     21  F   UNL A   1      31.952  17.126  25.051  1.00  0.00    -0.132 F 
ATOM     22  F   UNL A   1      32.073  18.831  23.689  1.00  0.00    -0.132 F 
ENDBRANCH  18  19
ENDBRANCH  10  18
BRANCH  15  23
ATOM     23  C   UNL A   1      33.509  26.654  24.374  1.00  0.00     0.430 C 
ATOM     24  F   UNL A   1      34.298  27.581  24.962  1.00  0.00    -0.167 F 
ATOM     25  F   UNL A   1      34.073  26.407  23.163  1.00  0.00    -0.167 F 
ATOM     26  F   UNL A   1      32.292  27.191  24.141  1.00  0.00    -0.167 F 
ENDBRANCH  15  23
ENDBRANCH   4   6
ENDBRANCH   3   4
ENDBRANCH   2   3
ENDBRANCH   1   2
BRANCH   1  27
ATOM     27  O   UNL A   1      33.676  29.082  27.635  1.00  0.00    -0.458 OA
BRANCH  27  28
ATOM     28  C   UNL A   1      34.344  30.221  27.941  1.00  0.00     0.338 C 
ATOM     29  O   UNL A   1      33.862  31.335  28.073  1.00  0.00    -0.246 OA
BRANCH  28  30
ATOM     30  C   UNL A   1      35.741  29.907  28.299  1.00  0.00     0.060 A 
ATOM     31  C   UNL A   1      36.684  29.986  27.271  1.00  0.00     0.016 A 
ATOM     32  C   UNL A   1      36.139  29.538  29.586  1.00  0.00     0.016 A 
ATOM     33  C   UNL A   1      38.036  29.776  27.532  1.00  0.00     0.010 A 
ATOM     34  C   UNL A   1      37.492  29.267  29.837  1.00  0.00     0.010 A 
ATOM     35  C   UNL A   1      38.448  29.399  28.814  1.00  0.00    -0.014 A 
BRANCH  35  36
ATOM     36  C   UNL A   1      39.867  29.030  29.035  1.00  0.00     0.031 A 
ATOM     37  C   UNL A   1      40.803  30.052  29.615  1.00  0.00     0.074 A 
ATOM     38  C   UNL A   1      40.304  27.785  28.772  1.00  0.00     0.049 A 
ATOM     39  N   UNL A   1      42.077  29.950  29.883  1.00  0.00    -0.248 NA
ATOM     40  C   UNL A   1      40.217  31.361  29.948  1.00  0.00     0.031 C 
ATOM     41  C   UNL A   1      39.477  26.684  28.284  1.00  0.00     0.029 A 
ATOM     42  N   UNL A   1      41.561  27.240  28.881  1.00  0.00    -0.354 N 
ATOM     43  C   UNL A   1      42.448  31.174  30.426  1.00  0.00     0.074 A 
ATOM     44  C   UNL A   1      41.266  32.009  30.432  1.00  0.00     0.031 C 
ATOM     45  C   UNL A   1      40.254  25.598  28.114  1.00  0.00     0.029 A 
ATOM     46  C   UNL A   1      41.637  25.936  28.452  1.00  0.00     0.049 A 
ATOM     47  H   UNL A   1      42.335  27.737  29.233  1.00  0.00     0.167 HD
ATOM     48  C   UNL A   1      43.663  31.566  30.876  1.00  0.00     0.037 A 
ATOM     49  C   UNL A   1      42.703  25.120  28.323  1.00  0.00     0.037 A 
ATOM     50  C   UNL A   1      44.845  30.745  30.836  1.00  0.00     0.049 A 
ATOM     51  C   UNL A   1      44.070  25.622  28.723  1.00  0.00     0.074 A 
ATOM     52  C   UNL A   1      46.127  31.063  31.250  1.00  0.00     0.029 A 
ATOM     53  N   UNL A   1      44.896  29.452  30.337  1.00  0.00    -0.354 N 
ATOM     54  N   UNL A   1      44.408  26.778  29.244  1.00  0.00    -0.248 NA
ATOM     55  C   UNL A   1      45.202  24.706  28.516  1.00  0.00     0.031 C 
ATOM     56  C   UNL A   1      46.964  29.983  30.951  1.00  0.00     0.029 A 
ATOM     57  C   UNL A   1      46.193  28.969  30.405  1.00  0.00     0.049 A 
ATOM     58  H   UNL A   1      44.125  28.950  29.986  1.00  0.00     0.167 HD
ATOM     59  C   UNL A   1      45.783  26.716  29.456  1.00  0.00     0.074 A 
ATOM     60  C   UNL A   1      46.213  25.406  29.014  1.00  0.00     0.031 C 
ATOM     61  C   UNL A   1      46.612  27.658  29.972  1.00  0.00     0.037 A 
BRANCH  48  62
ATOM     62  C   UNL A   1      43.782  32.966  31.408  1.00  0.00     0.058 A 
ATOM     63  C   UNL A   1      43.969  34.066  30.555  1.00  0.00     0.135 A 
ATOM     64  C   UNL A   1      43.692  33.212  32.786  1.00  0.00     0.135 A 
ATOM     65  F   UNL A   1      44.084  33.885  29.231  1.00  0.00    -0.206 F 
ATOM     66  C   UNL A   1      44.085  35.359  31.055  1.00  0.00     0.059 A 
ATOM     67  C   UNL A   1      43.781  34.499  33.306  1.00  0.00     0.059 A 
ATOM     68  F   UNL A   1      43.519  32.194  33.644  1.00  0.00    -0.206 F 
ATOM     69  C   UNL A   1      43.992  35.564  32.433  1.00  0.00     0.060 A 
BRANCH  69  70
ATOM     70  S   UNL A   1      44.154  37.247  33.068  1.00  0.00     0.124 S 
ATOM     71  O   UNL A   1      42.928  37.381  33.849  1.00  0.00    -0.237 OA
ATOM     72  O   UNL A   1      45.390  37.172  33.838  1.00  0.00    -0.237 OA
ATOM     73  O   UNL A   1      44.219  38.062  31.859  1.00  0.00    -0.744 OA
ENDBRANCH  69  70
ENDBRANCH  48  62
BRANCH  49  74
ATOM     74  C   UNL A   1      42.537  23.753  27.759  1.00  0.00     0.058 A 
ATOM     75  C   UNL A   1      42.403  22.631  28.590  1.00  0.00     0.135 A 
ATOM     76  C   UNL A   1      42.542  23.537  26.371  1.00  0.00     0.135 A 
ATOM     77  F   UNL A   1      42.410  22.780  29.923  1.00  0.00    -0.206 F 
ATOM     78  C   UNL A   1      42.301  21.344  28.069  1.00  0.00     0.059 A 
ATOM     79  C   UNL A   1      42.414  22.263  25.825  1.00  0.00     0.059 A 
ATOM     80  F   UNL A   1      42.667  24.575  25.530  1.00  0.00    -0.206 F 
ATOM     81  C   UNL A   1      42.306  21.170  26.684  1.00  0.00     0.060 A 
BRANCH  81  82
ATOM     82  S   UNL A   1      42.148  19.500  26.017  1.00  0.00     0.124 S 
ATOM     83  O   UNL A   1      42.634  18.691  27.129  1.00  0.00    -0.237 OA
ATOM     84  O   UNL A   1      40.717  19.413  25.744  1.00  0.00    -0.237 OA
ATOM     85  O   UNL A   1      43.003  19.527  24.834  1.00  0.00    -0.744 OA
ENDBRANCH  81  82
ENDBRANCH  49  74
BRANCH  61  86
ATOM     86  C   UNL A   1      48.066  27.301  30.131  1.00  0.00     0.058 A 
ATOM     87  C   UNL A   1      49.015  27.590  29.137  1.00  0.00     0.135 A 
ATOM     88  C   UNL A   1      48.527  26.722  31.325  1.00  0.00     0.135 A 
ATOM     89  F   UNL A   1      48.629  28.139  27.975  1.00  0.00    -0.206 F 
ATOM     90  C   UNL A   1      50.365  27.299  29.314  1.00  0.00     0.059 A 
ATOM     91  C   UNL A   1      49.876  26.450  31.534  1.00  0.00     0.059 A 
ATOM     92  F   UNL A   1      47.666  26.436  32.315  1.00  0.00    -0.206 F 
ATOM     93  C   UNL A   1      50.787  26.733  30.518  1.00  0.00     0.060 A 
BRANCH  93  94
ATOM     94  S   UNL A   1      52.547  26.402  30.751  1.00  0.00     0.124 S 
ATOM     95  O   UNL A   1      52.984  27.611  31.444  1.00  0.00    -0.237 OA
ATOM     96  O   UNL A   1      52.533  25.183  31.553  1.00  0.00    -0.237 OA
ATOM     97  O   UNL A   1      53.048  26.245  29.389  1.00  0.00    -0.744 OA
ENDBRANCH  93  94
ENDBRANCH  61  86
ENDBRANCH  35  36
ENDBRANCH  28  30
ENDBRANCH  27  28
ENDBRANCH   1  27
TORSDOF 18
ENDMDL
