MODEL 1
REMARK VINA RESULT:     -12.7      0.000      0.000
REMARK SMILES O=C(OCCOC(=O)[C@@H]1c2[nH]cnc2CCN1C(=O)CCCc1c[nH]c2ccccc12)c1ccc(-c2c3nc(c(-c4c(F)cc(S(=O)(=O)[O-])cc4F)c4ccc([nH]4)c(-c4c(F)cc(S(=O)(=O)[O-])cc4F)c4nc(c(-c5c(F)cc(S(=O)(=O)[O-])cc5F)c5ccc2[nH]5)C=C4)C=C3)cc1
REMARK SMILES IDX 5 1 4 2 3 3 2 4 1 5 32 6 33 7 97 8 34 9 96 10 35 11 36 12
REMARK SMILES IDX 37 13 90 14 38 15 95 16 89 17 91 18 39 19 94 20 88 21 87 22
REMARK SMILES IDX 40 24 74 25 53 26 73 27 54 28 57 29 72 30 92 31 55 32 56 33
REMARK SMILES IDX 71 35 93 36 58 37 41 38 42 39 51 40 43 41 44 42 50 43 52 44
REMARK SMILES IDX 45 45 46 46 47 47 48 48 49 49 75 50 76 51 85 52 77 53 78 54
REMARK SMILES IDX 84 55 86 56 79 57 80 58 81 59 82 60 83 61 59 62 60 63 69 64
REMARK SMILES IDX 61 65 62 66 68 67 70 68 63 69 64 70 65 71 66 72 67 73 6 74
REMARK SMILES IDX 7 75 8 76 9 77 10 78 17 79 11 80 14 81 16 82 12 83 13 85
REMARK SMILES IDX 15 86 18 87 19 88 20 89 21 90 22 91 23 92 24 93 31 94 25 95
REMARK SMILES IDX 26 96 30 97 27 99 29 100 28 101
REMARK H PARENT 91 23 57 34 11 84 25 98
REMARK Flexibility Score: inf
ROOT
ATOM      1  C   UNL A   1      33.244  29.512  25.417  1.00  0.00     0.274 C 
ENDROOT
BRANCH   1   2
ATOM      2  C   UNL A   1      32.638  30.543  26.368  1.00  0.00     0.275 C 
BRANCH   2   3
ATOM      3  O   UNL A   1      33.221  30.632  27.691  1.00  0.00    -0.458 OA
BRANCH   3   4
ATOM      4  C   UNL A   1      34.113  31.615  27.949  1.00  0.00     0.338 C 
ATOM      5  O   UNL A   1      33.824  32.795  28.068  1.00  0.00    -0.246 OA
BRANCH   4   6
ATOM      6  C   UNL A   1      35.483  31.100  28.197  1.00  0.00     0.060 A 
ATOM      7  C   UNL A   1      35.808  29.746  28.061  1.00  0.00     0.016 A 
ATOM      8  C   UNL A   1      36.473  32.024  28.560  1.00  0.00     0.016 A 
ATOM      9  C   UNL A   1      37.093  29.312  28.353  1.00  0.00     0.010 A 
ATOM     10  C   UNL A   1      37.762  31.593  28.838  1.00  0.00     0.010 A 
ATOM     11  C   UNL A   1      38.053  30.230  28.782  1.00  0.00    -0.014 A 
BRANCH  11  12
ATOM     12  C   UNL A   1      39.362  29.718  29.170  1.00  0.00     0.031 A 
ATOM     13  C   UNL A   1      39.617  29.612  30.631  1.00  0.00     0.074 A 
ATOM     14  C   UNL A   1      40.248  29.262  28.263  1.00  0.00     0.049 A 
ATOM     15  N   UNL A   1      40.496  30.242  31.342  1.00  0.00    -0.248 NA
ATOM     16  C   UNL A   1      38.713  28.763  31.419  1.00  0.00     0.031 C 
ATOM     17  C   UNL A   1      40.017  29.034  26.833  1.00  0.00     0.029 A 
ATOM     18  N   UNL A   1      41.514  28.791  28.450  1.00  0.00    -0.354 N 
ATOM     19  C   UNL A   1      40.417  29.692  32.621  1.00  0.00     0.074 A 
ATOM     20  C   UNL A   1      39.194  28.933  32.651  1.00  0.00     0.031 C 
ATOM     21  C   UNL A   1      41.010  28.263  26.342  1.00  0.00     0.029 A 
ATOM     22  C   UNL A   1      42.004  28.054  27.380  1.00  0.00     0.049 A 
ATOM     23  H   UNL A   1      42.032  28.957  29.270  1.00  0.00     0.167 HD
ATOM     24  C   UNL A   1      41.486  29.699  33.467  1.00  0.00     0.037 A 
ATOM     25  C   UNL A   1      43.108  27.265  27.370  1.00  0.00     0.037 A 
ATOM     26  C   UNL A   1      42.461  30.690  33.073  1.00  0.00     0.049 A 
ATOM     27  C   UNL A   1      43.981  27.702  28.489  1.00  0.00     0.074 A 
ATOM     28  C   UNL A   1      42.436  32.054  32.851  1.00  0.00     0.029 A 
ATOM     29  N   UNL A   1      43.644  30.253  32.527  1.00  0.00    -0.354 N 
ATOM     30  N   UNL A   1      44.593  28.854  28.533  1.00  0.00    -0.248 NA
ATOM     31  C   UNL A   1      43.853  27.019  29.767  1.00  0.00     0.031 C 
ATOM     32  C   UNL A   1      43.347  32.273  31.775  1.00  0.00     0.029 A 
ATOM     33  C   UNL A   1      43.906  31.041  31.439  1.00  0.00     0.049 A 
ATOM     34  H   UNL A   1      44.201  29.512  32.860  1.00  0.00     0.167 HD
ATOM     35  C   UNL A   1      44.542  29.232  29.866  1.00  0.00     0.074 A 
ATOM     36  C   UNL A   1      44.181  28.017  30.590  1.00  0.00     0.031 C 
ATOM     37  C   UNL A   1      44.520  30.550  30.226  1.00  0.00     0.037 A 
BRANCH  24  38
ATOM     38  C   UNL A   1      41.852  28.546  34.392  1.00  0.00     0.058 A 
ATOM     39  C   UNL A   1      42.046  28.812  35.767  1.00  0.00     0.135 A 
ATOM     40  C   UNL A   1      42.339  27.296  33.950  1.00  0.00     0.135 A 
ATOM     41  F   UNL A   1      41.592  29.950  36.315  1.00  0.00    -0.206 F 
ATOM     42  C   UNL A   1      42.799  27.977  36.594  1.00  0.00     0.059 A 
ATOM     43  C   UNL A   1      43.045  26.423  34.772  1.00  0.00     0.059 A 
ATOM     44  F   UNL A   1      42.246  26.890  32.679  1.00  0.00    -0.206 F 
ATOM     45  C   UNL A   1      43.325  26.801  36.072  1.00  0.00     0.060 A 
BRANCH  45  46
ATOM     46  S   UNL A   1      44.444  25.808  37.074  1.00  0.00     0.124 S 
ATOM     47  O   UNL A   1      45.715  26.478  36.827  1.00  0.00    -0.237 OA
ATOM     48  O   UNL A   1      43.881  25.972  38.410  1.00  0.00    -0.237 OA
ATOM     49  O   UNL A   1      44.306  24.472  36.500  1.00  0.00    -0.744 OA
ENDBRANCH  45  46
ENDBRANCH  24  38
BRANCH  25  50
ATOM     50  C   UNL A   1      43.295  25.973  26.656  1.00  0.00     0.058 A 
ATOM     51  C   UNL A   1      44.170  25.864  25.560  1.00  0.00     0.135 A 
ATOM     52  C   UNL A   1      42.823  24.757  27.194  1.00  0.00     0.135 A 
ATOM     53  F   UNL A   1      44.688  26.967  24.998  1.00  0.00    -0.206 F 
ATOM     54  C   UNL A   1      44.588  24.625  25.059  1.00  0.00     0.059 A 
ATOM     55  C   UNL A   1      43.210  23.514  26.701  1.00  0.00     0.059 A 
ATOM     56  F   UNL A   1      42.040  24.735  28.282  1.00  0.00    -0.206 F 
ATOM     57  C   UNL A   1      44.116  23.454  25.649  1.00  0.00     0.060 A 
BRANCH  57  58
ATOM     58  S   UNL A   1      44.779  21.857  25.123  1.00  0.00     0.124 S 
ATOM     59  O   UNL A   1      44.756  21.985  23.670  1.00  0.00    -0.237 OA
ATOM     60  O   UNL A   1      46.099  21.849  25.744  1.00  0.00    -0.237 OA
ATOM     61  O   UNL A   1      43.828  20.895  25.678  1.00  0.00    -0.744 OA
ENDBRANCH  57  58
ENDBRANCH  25  50
BRANCH  37  62
ATOM     62  C   UNL A   1      44.921  31.579  29.205  1.00  0.00     0.058 A 
ATOM     63  C   UNL A   1      46.247  31.956  28.935  1.00  0.00     0.135 A 
ATOM     64  C   UNL A   1      43.922  32.100  28.367  1.00  0.00     0.135 A 
ATOM     65  F   UNL A   1      47.270  31.418  29.613  1.00  0.00    -0.206 F 
ATOM     66  C   UNL A   1      46.561  32.848  27.908  1.00  0.00     0.059 A 
ATOM     67  C   UNL A   1      44.215  32.966  27.318  1.00  0.00     0.059 A 
ATOM     68  F   UNL A   1      42.641  31.728  28.533  1.00  0.00    -0.206 F 
ATOM     69  C   UNL A   1      45.537  33.347  27.102  1.00  0.00     0.060 A 
BRANCH  69  70
ATOM     70  S   UNL A   1      45.955  34.433  25.722  1.00  0.00     0.124 S 
ATOM     71  O   UNL A   1      45.109  33.912  24.653  1.00  0.00    -0.237 OA
ATOM     72  O   UNL A   1      45.591  35.751  26.233  1.00  0.00    -0.237 OA
ATOM     73  O   UNL A   1      47.389  34.221  25.542  1.00  0.00    -0.744 OA
ENDBRANCH  69  70
ENDBRANCH  37  62
ENDBRANCH  11  12
ENDBRANCH   4   6
ENDBRANCH   3   4
ENDBRANCH   2   3
ENDBRANCH   1   2
BRANCH   1  74
ATOM     74  O   UNL A   1      32.324  29.308  24.344  1.00  0.00    -0.460 OA
BRANCH  74  75
ATOM     75  C   UNL A   1      32.495  28.179  23.581  1.00  0.00     0.335 C 
ATOM     76  O   UNL A   1      33.569  27.701  23.243  1.00  0.00    -0.249 OA
BRANCH  75  77
ATOM     77  C   UNL A   1      31.087  27.635  23.260  1.00  0.00     0.244 C 
ATOM     78  C   UNL A   1      30.232  28.723  22.668  1.00  0.00     0.072 A 
ATOM     79  N   UNL A   1      30.272  26.996  24.327  1.00  0.00    -0.323 N 
ATOM     80  N   UNL A   1      30.616  29.816  21.939  1.00  0.00    -0.346 N 
ATOM     81  C   UNL A   1      28.860  28.803  22.722  1.00  0.00     0.066 A 
ATOM     82  C   UNL A   1      28.917  26.628  23.859  1.00  0.00     0.127 C 
ATOM     83  C   UNL A   1      29.471  30.475  21.574  1.00  0.00     0.197 A 
ATOM     84  H   UNL A   1      31.539  30.079  21.719  1.00  0.00     0.167 HD
ATOM     85  N   UNL A   1      28.391  29.891  22.049  1.00  0.00    -0.242 NA
ATOM     86  C   UNL A   1      28.035  27.836  23.469  1.00  0.00     0.080 C 
BRANCH  79  87
ATOM     87  C   UNL A   1      30.933  26.469  25.424  1.00  0.00     0.223 C 
ATOM     88  O   UNL A   1      30.941  27.067  26.508  1.00  0.00    -0.275 OA
BRANCH  87  89
ATOM     89  C   UNL A   1      31.730  25.172  25.381  1.00  0.00     0.100 C 
BRANCH  89  90
ATOM     90  C   UNL A   1      33.235  25.178  25.574  1.00  0.00     0.015 C 
BRANCH  90  91
ATOM     91  C   UNL A   1      34.110  24.299  24.693  1.00  0.00     0.038 C 
BRANCH  91  92
ATOM     92  C   UNL A   1      33.510  23.166  23.889  1.00  0.00    -0.023 A 
ATOM     93  C   UNL A   1      32.922  23.428  22.659  1.00  0.00     0.087 A 
ATOM     94  C   UNL A   1      33.455  21.719  24.035  1.00  0.00     0.003 A 
ATOM     95  N   UNL A   1      32.360  22.286  22.176  1.00  0.00    -0.361 N 
ATOM     96  C   UNL A   1      32.600  21.244  23.033  1.00  0.00     0.046 A 
ATOM     97  C   UNL A   1      34.021  20.720  24.870  1.00  0.00     0.010 A 
ATOM     98  H   UNL A   1      31.855  22.218  21.334  1.00  0.00     0.166 HD
ATOM     99  C   UNL A   1      32.163  19.914  22.949  1.00  0.00     0.026 A 
ATOM    100  C   UNL A   1      33.636  19.376  24.774  1.00  0.00     0.001 A 
ATOM    101  C   UNL A   1      32.684  18.987  23.849  1.00  0.00     0.002 A 
ENDBRANCH  91  92
ENDBRANCH  90  91
ENDBRANCH  89  90
ENDBRANCH  87  89
ENDBRANCH  79  87
ENDBRANCH  75  77
ENDBRANCH  74  75
ENDBRANCH   1  74
TORSDOF 19
ENDMDL
MODEL 2
REMARK VINA RESULT:     -12.5      2.889      9.112
REMARK SMILES O=C(OCCOC(=O)[C@@H]1c2[nH]cnc2CCN1C(=O)CCCc1c[nH]c2ccccc12)c1ccc(-c2c3nc(c(-c4c(F)cc(S(=O)(=O)[O-])cc4F)c4ccc([nH]4)c(-c4c(F)cc(S(=O)(=O)[O-])cc4F)c4nc(c(-c5c(F)cc(S(=O)(=O)[O-])cc5F)c5ccc2[nH]5)C=C4)C=C3)cc1
REMARK SMILES IDX 5 1 4 2 3 3 2 4 1 5 32 6 33 7 97 8 34 9 96 10 35 11 36 12
REMARK SMILES IDX 37 13 90 14 38 15 95 16 89 17 91 18 39 19 94 20 88 21 87 22
REMARK SMILES IDX 40 24 74 25 53 26 73 27 54 28 57 29 72 30 92 31 55 32 56 33
REMARK SMILES IDX 71 35 93 36 58 37 41 38 42 39 51 40 43 41 44 42 50 43 52 44
REMARK SMILES IDX 45 45 46 46 47 47 48 48 49 49 75 50 76 51 85 52 77 53 78 54
REMARK SMILES IDX 84 55 86 56 79 57 80 58 81 59 82 60 83 61 59 62 60 63 69 64
REMARK SMILES IDX 61 65 62 66 68 67 70 68 63 69 64 70 65 71 66 72 67 73 6 74
REMARK SMILES IDX 7 75 8 76 9 77 10 78 17 79 11 80 14 81 16 82 12 83 13 85
REMARK SMILES IDX 15 86 18 87 19 88 20 89 21 90 22 91 23 92 24 93 31 94 25 95
REMARK SMILES IDX 26 96 30 97 27 99 29 100 28 101
REMARK H PARENT 91 23 57 34 11 84 25 98
REMARK Flexibility Score: inf
ROOT
ATOM      1  C   UNL A   1      35.562  21.200  24.979  1.00  0.00     0.274 C 
ENDROOT
BRANCH   1   2
ATOM      2  C   UNL A   1      36.586  21.787  25.949  1.00  0.00     0.275 C 
BRANCH   2   3
ATOM      3  O   UNL A   1      37.849  22.215  25.385  1.00  0.00    -0.458 OA
BRANCH   3   4
ATOM      4  C   UNL A   1      38.983  22.030  26.100  1.00  0.00     0.338 C 
ATOM      5  O   UNL A   1      39.625  20.992  26.117  1.00  0.00    -0.246 OA
BRANCH   4   6
ATOM      6  C   UNL A   1      39.445  23.267  26.777  1.00  0.00     0.060 A 
ATOM      7  C   UNL A   1      38.719  24.461  26.731  1.00  0.00     0.016 A 
ATOM      8  C   UNL A   1      40.645  23.206  27.501  1.00  0.00     0.016 A 
ATOM      9  C   UNL A   1      39.222  25.600  27.341  1.00  0.00     0.010 A 
ATOM     10  C   UNL A   1      41.142  24.341  28.124  1.00  0.00     0.010 A 
ATOM     11  C   UNL A   1      40.452  25.547  27.998  1.00  0.00    -0.014 A 
BRANCH  11  12
ATOM     12  C   UNL A   1      40.991  26.788  28.543  1.00  0.00     0.031 A 
ATOM     13  C   UNL A   1      42.223  27.308  27.896  1.00  0.00     0.074 A 
ATOM     14  C   UNL A   1      40.349  27.484  29.502  1.00  0.00     0.049 A 
ATOM     15  N   UNL A   1      43.400  27.461  28.412  1.00  0.00    -0.248 NA
ATOM     16  C   UNL A   1      42.161  27.608  26.458  1.00  0.00     0.031 C 
ATOM     17  C   UNL A   1      38.996  27.248  30.015  1.00  0.00     0.029 A 
ATOM     18  N   UNL A   1      40.725  28.628  30.140  1.00  0.00    -0.354 N 
ATOM     19  C   UNL A   1      44.164  28.101  27.436  1.00  0.00     0.074 A 
ATOM     20  C   UNL A   1      43.413  27.996  26.213  1.00  0.00     0.031 C 
ATOM     21  C   UNL A   1      38.586  28.336  30.700  1.00  0.00     0.029 A 
ATOM     22  C   UNL A   1      39.684  29.284  30.783  1.00  0.00     0.049 A 
ATOM     23  H   UNL A   1      41.653  28.960  30.144  1.00  0.00     0.167 HD
ATOM     24  C   UNL A   1      45.231  28.883  27.767  1.00  0.00     0.037 A 
ATOM     25  C   UNL A   1      39.697  30.546  31.281  1.00  0.00     0.037 A 
ATOM     26  C   UNL A   1      45.704  28.589  29.099  1.00  0.00     0.049 A 
ATOM     27  C   UNL A   1      41.117  30.928  31.493  1.00  0.00     0.074 A 
ATOM     28  C   UNL A   1      46.143  27.454  29.755  1.00  0.00     0.029 A 
ATOM     29  N   UNL A   1      45.471  29.514  30.089  1.00  0.00    -0.354 N 
ATOM     30  N   UNL A   1      41.896  30.383  32.387  1.00  0.00    -0.248 NA
ATOM     31  C   UNL A   1      41.801  31.646  30.428  1.00  0.00     0.031 C 
ATOM     32  C   UNL A   1      45.682  27.597  31.097  1.00  0.00     0.029 A 
ATOM     33  C   UNL A   1      45.035  28.829  31.191  1.00  0.00     0.049 A 
ATOM     34  H   UNL A   1      45.595  30.488  30.018  1.00  0.00     0.167 HD
ATOM     35  C   UNL A   1      43.140  30.317  31.779  1.00  0.00     0.074 A 
ATOM     36  C   UNL A   1      43.047  31.210  30.628  1.00  0.00     0.031 C 
ATOM     37  C   UNL A   1      44.033  29.335  32.102  1.00  0.00     0.037 A 
BRANCH  24  38
ATOM     38  C   UNL A   1      45.584  30.189  27.067  1.00  0.00     0.058 A 
ATOM     39  C   UNL A   1      46.944  30.485  26.824  1.00  0.00     0.135 A 
ATOM     40  C   UNL A   1      44.699  31.283  26.932  1.00  0.00     0.135 A 
ATOM     41  F   UNL A   1      47.876  29.521  26.883  1.00  0.00    -0.206 F 
ATOM     42  C   UNL A   1      47.404  31.787  26.622  1.00  0.00     0.059 A 
ATOM     43  C   UNL A   1      45.132  32.580  26.677  1.00  0.00     0.059 A 
ATOM     44  F   UNL A   1      43.382  31.179  27.134  1.00  0.00    -0.206 F 
ATOM     45  C   UNL A   1      46.488  32.833  26.588  1.00  0.00     0.060 A 
BRANCH  45  46
ATOM     46  S   UNL A   1      47.082  34.531  26.509  1.00  0.00     0.124 S 
ATOM     47  O   UNL A   1      45.835  35.273  26.656  1.00  0.00    -0.237 OA
ATOM     48  O   UNL A   1      47.998  34.584  27.643  1.00  0.00    -0.237 OA
ATOM     49  O   UNL A   1      47.712  34.601  25.194  1.00  0.00    -0.744 OA
ENDBRANCH  45  46
ENDBRANCH  24  38
BRANCH  25  50
ATOM     50  C   UNL A   1      38.585  31.534  31.282  1.00  0.00     0.058 A 
ATOM     51  C   UNL A   1      37.765  31.712  30.153  1.00  0.00     0.135 A 
ATOM     52  C   UNL A   1      38.133  32.136  32.474  1.00  0.00     0.135 A 
ATOM     53  F   UNL A   1      38.102  31.155  28.979  1.00  0.00    -0.206 F 
ATOM     54  C   UNL A   1      36.549  32.404  30.214  1.00  0.00     0.059 A 
ATOM     55  C   UNL A   1      36.937  32.845  32.556  1.00  0.00     0.059 A 
ATOM     56  F   UNL A   1      38.796  31.976  33.629  1.00  0.00    -0.206 F 
ATOM     57  C   UNL A   1      36.135  32.952  31.427  1.00  0.00     0.060 A 
BRANCH  57  58
ATOM     58  S   UNL A   1      34.494  33.698  31.558  1.00  0.00     0.124 S 
ATOM     59  O   UNL A   1      33.788  32.727  32.388  1.00  0.00    -0.237 OA
ATOM     60  O   UNL A   1      34.786  34.982  32.185  1.00  0.00    -0.237 OA
ATOM     61  O   UNL A   1      34.044  33.774  30.170  1.00  0.00    -0.744 OA
ENDBRANCH  57  58
ENDBRANCH  25  50
BRANCH  37  62
ATOM     62  C   UNL A   1      43.813  28.553  33.368  1.00  0.00     0.058 A 
ATOM     63  C   UNL A   1      42.882  27.510  33.506  1.00  0.00     0.135 A 
ATOM     64  C   UNL A   1      44.685  28.781  34.444  1.00  0.00     0.135 A 
ATOM     65  F   UNL A   1      42.088  27.153  32.487  1.00  0.00    -0.206 F 
ATOM     66  C   UNL A   1      42.792  26.758  34.679  1.00  0.00     0.059 A 
ATOM     67  C   UNL A   1      44.635  28.023  35.610  1.00  0.00     0.059 A 
ATOM     68  F   UNL A   1      45.641  29.722  34.349  1.00  0.00    -0.206 F 
ATOM     69  C   UNL A   1      43.675  27.021  35.727  1.00  0.00     0.060 A 
BRANCH  69  70
ATOM     70  S   UNL A   1      43.612  25.992  37.208  1.00  0.00     0.124 S 
ATOM     71  O   UNL A   1      44.759  25.110  37.019  1.00  0.00    -0.237 OA
ATOM     72  O   UNL A   1      43.738  26.973  38.283  1.00  0.00    -0.237 OA
ATOM     73  O   UNL A   1      42.305  25.345  37.120  1.00  0.00    -0.744 OA
ENDBRANCH  69  70
ENDBRANCH  37  62
ENDBRANCH  11  12
ENDBRANCH   4   6
ENDBRANCH   3   4
ENDBRANCH   2   3
ENDBRANCH   1   2
BRANCH   1  74
ATOM     74  O   UNL A   1      34.287  21.219  25.620  1.00  0.00    -0.460 OA
BRANCH  74  75
ATOM     75  C   UNL A   1      33.280  21.909  24.988  1.00  0.00     0.335 C 
ATOM     76  O   UNL A   1      32.709  21.561  23.964  1.00  0.00    -0.249 OA
BRANCH  75  77
ATOM     77  C   UNL A   1      33.008  23.175  25.827  1.00  0.00     0.244 C 
ATOM     78  C   UNL A   1      31.586  23.177  26.320  1.00  0.00     0.072 A 
ATOM     79  N   UNL A   1      33.252  24.523  25.247  1.00  0.00    -0.323 N 
ATOM     80  N   UNL A   1      30.769  22.112  26.587  1.00  0.00    -0.346 N 
ATOM     81  C   UNL A   1      30.833  24.284  26.635  1.00  0.00     0.066 A 
ATOM     82  C   UNL A   1      32.841  25.614  26.160  1.00  0.00     0.127 C 
ATOM     83  C   UNL A   1      29.591  22.623  27.069  1.00  0.00     0.197 A 
ATOM     84  H   UNL A   1      30.985  21.160  26.459  1.00  0.00     0.167 HD
ATOM     85  N   UNL A   1      29.598  23.939  27.093  1.00  0.00    -0.242 NA
ATOM     86  C   UNL A   1      31.322  25.661  26.441  1.00  0.00     0.080 C 
BRANCH  79  87
ATOM     87  C   UNL A   1      34.144  24.626  24.193  1.00  0.00     0.223 C 
ATOM     88  O   UNL A   1      35.364  24.537  24.383  1.00  0.00    -0.275 OA
BRANCH  87  89
ATOM     89  C   UNL A   1      33.720  24.903  22.756  1.00  0.00     0.100 C 
BRANCH  89  90
ATOM     90  C   UNL A   1      33.005  26.192  22.393  1.00  0.00     0.015 C 
BRANCH  90  91
ATOM     91  C   UNL A   1      33.607  27.528  22.800  1.00  0.00     0.038 C 
BRANCH  91  92
ATOM     92  C   UNL A   1      32.895  28.431  23.784  1.00  0.00    -0.023 A 
ATOM     93  C   UNL A   1      31.582  28.813  23.544  1.00  0.00     0.087 A 
ATOM     94  C   UNL A   1      33.221  28.991  25.087  1.00  0.00     0.003 A 
ATOM     95  N   UNL A   1      31.192  29.703  24.498  1.00  0.00    -0.361 N 
ATOM     96  C   UNL A   1      32.199  29.892  25.407  1.00  0.00     0.046 A 
ATOM     97  C   UNL A   1      34.238  28.858  26.069  1.00  0.00     0.010 A 
ATOM     98  H   UNL A   1      30.314  30.146  24.529  1.00  0.00     0.166 HD
ATOM     99  C   UNL A   1      32.239  30.755  26.512  1.00  0.00     0.026 A 
ATOM    100  C   UNL A   1      34.275  29.676  27.206  1.00  0.00     0.001 A 
ATOM    101  C   UNL A   1      33.306  30.644  27.401  1.00  0.00     0.002 A 
ENDBRANCH  91  92
ENDBRANCH  90  91
ENDBRANCH  89  90
ENDBRANCH  87  89
ENDBRANCH  79  87
ENDBRANCH  75  77
ENDBRANCH  74  75
ENDBRANCH   1  74
TORSDOF 19
ENDMDL
MODEL 3
REMARK VINA RESULT:     -12.4      1.358      2.352
REMARK SMILES O=C(OCCOC(=O)[C@@H]1c2[nH]cnc2CCN1C(=O)CCCc1c[nH]c2ccccc12)c1ccc(-c2c3nc(c(-c4c(F)cc(S(=O)(=O)[O-])cc4F)c4ccc([nH]4)c(-c4c(F)cc(S(=O)(=O)[O-])cc4F)c4nc(c(-c5c(F)cc(S(=O)(=O)[O-])cc5F)c5ccc2[nH]5)C=C4)C=C3)cc1
REMARK SMILES IDX 5 1 4 2 3 3 2 4 1 5 32 6 33 7 97 8 34 9 96 10 35 11 36 12
REMARK SMILES IDX 37 13 90 14 38 15 95 16 89 17 91 18 39 19 94 20 88 21 87 22
REMARK SMILES IDX 40 24 74 25 53 26 73 27 54 28 57 29 72 30 92 31 55 32 56 33
REMARK SMILES IDX 71 35 93 36 58 37 41 38 42 39 51 40 43 41 44 42 50 43 52 44
REMARK SMILES IDX 45 45 46 46 47 47 48 48 49 49 75 50 76 51 85 52 77 53 78 54
REMARK SMILES IDX 84 55 86 56 79 57 80 58 81 59 82 60 83 61 59 62 60 63 69 64
REMARK SMILES IDX 61 65 62 66 68 67 70 68 63 69 64 70 65 71 66 72 67 73 6 74
REMARK SMILES IDX 7 75 8 76 9 77 10 78 17 79 11 80 14 81 16 82 12 83 13 85
REMARK SMILES IDX 15 86 18 87 19 88 20 89 21 90 22 91 23 92 24 93 31 94 25 95
REMARK SMILES IDX 26 96 30 97 27 99 29 100 28 101
REMARK H PARENT 91 23 57 34 11 84 25 98
REMARK Flexibility Score: inf
ROOT
ATOM      1  C   UNL A   1      31.884  29.755  26.956  1.00  0.00     0.274 C 
ENDROOT
BRANCH   1   2
ATOM      2  C   UNL A   1      32.906  30.889  26.886  1.00  0.00     0.275 C 
BRANCH   2   3
ATOM      3  O   UNL A   1      33.735  31.093  28.055  1.00  0.00    -0.458 OA
BRANCH   3   4
ATOM      4  C   UNL A   1      34.702  32.037  28.016  1.00  0.00     0.338 C 
ATOM      5  O   UNL A   1      34.492  33.237  27.928  1.00  0.00    -0.246 OA
BRANCH   4   6
ATOM      6  C   UNL A   1      36.062  31.478  28.215  1.00  0.00     0.060 A 
ATOM      7  C   UNL A   1      36.369  30.141  27.939  1.00  0.00     0.016 A 
ATOM      8  C   UNL A   1      37.064  32.344  28.677  1.00  0.00     0.016 A 
ATOM      9  C   UNL A   1      37.645  29.659  28.190  1.00  0.00     0.010 A 
ATOM     10  C   UNL A   1      38.345  31.866  28.915  1.00  0.00     0.010 A 
ATOM     11  C   UNL A   1      38.616  30.512  28.717  1.00  0.00    -0.014 A 
BRANCH  11  12
ATOM     12  C   UNL A   1      39.915  29.943  29.056  1.00  0.00     0.031 A 
ATOM     13  C   UNL A   1      40.254  29.899  30.502  1.00  0.00     0.074 A 
ATOM     14  C   UNL A   1      40.714  29.385  28.125  1.00  0.00     0.049 A 
ATOM     15  N   UNL A   1      41.211  30.511  31.123  1.00  0.00    -0.248 NA
ATOM     16  C   UNL A   1      39.353  29.151  31.390  1.00  0.00     0.031 C 
ATOM     17  C   UNL A   1      40.381  29.095  26.727  1.00  0.00     0.029 A 
ATOM     18  N   UNL A   1      41.959  28.847  28.264  1.00  0.00    -0.354 N 
ATOM     19  C   UNL A   1      41.180  30.037  32.434  1.00  0.00     0.074 A 
ATOM     20  C   UNL A   1      39.920  29.357  32.579  1.00  0.00     0.031 C 
ATOM     21  C   UNL A   1      41.294  28.239  26.223  1.00  0.00     0.029 A 
ATOM     22  C   UNL A   1      42.338  28.025  27.210  1.00  0.00     0.049 A 
ATOM     23  H   UNL A   1      42.537  29.024  29.041  1.00  0.00     0.167 HD
ATOM     24  C   UNL A   1      42.299  30.023  33.213  1.00  0.00     0.037 A 
ATOM     25  C   UNL A   1      43.391  27.170  27.180  1.00  0.00     0.037 A 
ATOM     26  C   UNL A   1      43.303  30.929  32.706  1.00  0.00     0.049 A 
ATOM     27  C   UNL A   1      44.357  27.612  28.218  1.00  0.00     0.074 A 
ATOM     28  C   UNL A   1      43.344  32.279  32.408  1.00  0.00     0.029 A 
ATOM     29  N   UNL A   1      44.423  30.392  32.117  1.00  0.00    -0.354 N 
ATOM     30  N   UNL A   1      45.037  28.725  28.160  1.00  0.00    -0.248 NA
ATOM     31  C   UNL A   1      44.270  27.008  29.539  1.00  0.00     0.031 C 
ATOM     32  C   UNL A   1      44.196  32.383  31.269  1.00  0.00     0.029 A 
ATOM     33  C   UNL A   1      44.661  31.102  30.971  1.00  0.00     0.049 A 
ATOM     34  H   UNL A   1      44.955  29.637  32.457  1.00  0.00     0.167 HD
ATOM     35  C   UNL A   1      45.091  29.176  29.470  1.00  0.00     0.074 A 
ATOM     36  C   UNL A   1      44.706  28.026  30.282  1.00  0.00     0.031 C 
ATOM     37  C   UNL A   1      45.168  30.510  29.754  1.00  0.00     0.037 A 
BRANCH  24  38
ATOM     38  C   UNL A   1      42.655  28.901  34.179  1.00  0.00     0.058 A 
ATOM     39  C   UNL A   1      42.640  27.568  33.710  1.00  0.00     0.135 A 
ATOM     40  C   UNL A   1      42.679  29.041  35.585  1.00  0.00     0.135 A 
ATOM     41  F   UNL A   1      42.657  27.305  32.394  1.00  0.00    -0.206 F 
ATOM     42  C   UNL A   1      42.500  26.474  34.564  1.00  0.00     0.059 A 
ATOM     43  C   UNL A   1      42.594  27.959  36.456  1.00  0.00     0.059 A 
ATOM     44  F   UNL A   1      42.686  30.230  36.196  1.00  0.00    -0.206 F 
ATOM     45  C   UNL A   1      42.440  26.687  35.937  1.00  0.00     0.060 A 
BRANCH  45  46
ATOM     46  S   UNL A   1      42.080  25.307  37.035  1.00  0.00     0.124 S 
ATOM     47  O   UNL A   1      43.358  25.148  37.718  1.00  0.00    -0.237 OA
ATOM     48  O   UNL A   1      40.984  25.838  37.839  1.00  0.00    -0.237 OA
ATOM     49  O   UNL A   1      41.714  24.236  36.113  1.00  0.00    -0.744 OA
ENDBRANCH  45  46
ENDBRANCH  24  38
BRANCH  25  50
ATOM     50  C   UNL A   1      43.457  25.833  26.531  1.00  0.00     0.058 A 
ATOM     51  C   UNL A   1      44.312  25.592  25.440  1.00  0.00     0.135 A 
ATOM     52  C   UNL A   1      42.884  24.692  27.131  1.00  0.00     0.135 A 
ATOM     53  F   UNL A   1      44.922  26.615  24.821  1.00  0.00    -0.206 F 
ATOM     54  C   UNL A   1      44.615  24.298  25.001  1.00  0.00     0.059 A 
ATOM     55  C   UNL A   1      43.155  23.396  26.700  1.00  0.00     0.059 A 
ATOM     56  F   UNL A   1      42.109  24.795  28.221  1.00  0.00    -0.206 F 
ATOM     57  C   UNL A   1      44.044  23.204  25.650  1.00  0.00     0.060 A 
BRANCH  57  58
ATOM     58  S   UNL A   1      44.559  21.530  25.204  1.00  0.00     0.124 S 
ATOM     59  O   UNL A   1      45.923  21.486  25.720  1.00  0.00    -0.237 OA
ATOM     60  O   UNL A   1      43.582  20.706  25.908  1.00  0.00    -0.237 OA
ATOM     61  O   UNL A   1      44.444  21.516  23.747  1.00  0.00    -0.744 OA
ENDBRANCH  57  58
ENDBRANCH  25  50
BRANCH  37  62
ATOM     62  C   UNL A   1      45.563  31.457  28.654  1.00  0.00     0.058 A 
ATOM     63  C   UNL A   1      44.718  31.850  27.602  1.00  0.00     0.135 A 
ATOM     64  C   UNL A   1      46.807  32.101  28.753  1.00  0.00     0.135 A 
ATOM     65  F   UNL A   1      43.472  31.368  27.500  1.00  0.00    -0.206 F 
ATOM     66  C   UNL A   1      45.112  32.807  26.665  1.00  0.00     0.059 A 
ATOM     67  C   UNL A   1      47.206  33.080  27.848  1.00  0.00     0.059 A 
ATOM     68  F   UNL A   1      47.634  31.816  29.773  1.00  0.00    -0.206 F 
ATOM     69  C   UNL A   1      46.359  33.419  26.797  1.00  0.00     0.060 A 
BRANCH  69  70
ATOM     70  S   UNL A   1      46.828  34.716  25.633  1.00  0.00     0.124 S 
ATOM     71  O   UNL A   1      48.132  34.254  25.168  1.00  0.00    -0.237 OA
ATOM     72  O   UNL A   1      45.751  34.665  24.649  1.00  0.00    -0.237 OA
ATOM     73  O   UNL A   1      46.849  35.923  26.456  1.00  0.00    -0.744 OA
ENDBRANCH  69  70
ENDBRANCH  37  62
ENDBRANCH  11  12
ENDBRANCH   4   6
ENDBRANCH   3   4
ENDBRANCH   2   3
ENDBRANCH   1   2
BRANCH   1  74
ATOM     74  O   UNL A   1      32.569  28.527  26.710  1.00  0.00    -0.460 OA
BRANCH  74  75
ATOM     75  C   UNL A   1      31.800  27.436  26.388  1.00  0.00     0.335 C 
ATOM     76  O   UNL A   1      30.912  26.958  27.080  1.00  0.00    -0.249 OA
BRANCH  75  77
ATOM     77  C   UNL A   1      32.259  26.958  24.994  1.00  0.00     0.244 C 
ATOM     78  C   UNL A   1      31.406  27.583  23.923  1.00  0.00     0.072 A 
ATOM     79  N   UNL A   1      32.321  25.505  24.685  1.00  0.00    -0.323 N 
ATOM     80  N   UNL A   1      30.745  28.782  23.942  1.00  0.00    -0.346 N 
ATOM     81  C   UNL A   1      31.152  27.063  22.675  1.00  0.00     0.066 A 
ATOM     82  C   UNL A   1      32.686  25.242  23.274  1.00  0.00     0.127 C 
ATOM     83  C   UNL A   1      30.158  28.934  22.712  1.00  0.00     0.197 A 
ATOM     84  H   UNL A   1      30.701  29.415  24.695  1.00  0.00     0.167 HD
ATOM     85  N   UNL A   1      30.376  27.898  21.929  1.00  0.00    -0.242 NA
ATOM     86  C   UNL A   1      31.639  25.738  22.251  1.00  0.00     0.080 C 
BRANCH  79  87
ATOM     87  C   UNL A   1      32.441  24.619  25.743  1.00  0.00     0.223 C 
ATOM     88  O   UNL A   1      33.521  24.476  26.332  1.00  0.00    -0.275 OA
BRANCH  87  89
ATOM     89  C   UNL A   1      31.303  23.731  26.228  1.00  0.00     0.100 C 
BRANCH  89  90
ATOM     90  C   UNL A   1      31.087  22.351  25.634  1.00  0.00     0.015 C 
BRANCH  90  91
ATOM     91  C   UNL A   1      31.903  21.916  24.426  1.00  0.00     0.038 C 
BRANCH  91  92
ATOM     92  C   UNL A   1      33.248  21.244  24.601  1.00  0.00    -0.023 A 
ATOM     93  C   UNL A   1      33.309  19.900  24.943  1.00  0.00     0.087 A 
ATOM     94  C   UNL A   1      34.633  21.648  24.403  1.00  0.00     0.003 A 
ATOM     95  N   UNL A   1      34.608  19.547  25.149  1.00  0.00    -0.361 N 
ATOM     96  C   UNL A   1      35.431  20.615  24.905  1.00  0.00     0.046 A 
ATOM     97  C   UNL A   1      35.343  22.747  23.851  1.00  0.00     0.010 A 
ATOM     98  H   UNL A   1      34.911  18.655  25.433  1.00  0.00     0.166 HD
ATOM     99  C   UNL A   1      36.824  20.704  25.045  1.00  0.00     0.026 A 
ATOM    100  C   UNL A   1      36.739  22.838  23.935  1.00  0.00     0.001 A 
ATOM    101  C   UNL A   1      37.466  21.844  24.565  1.00  0.00     0.002 A 
ENDBRANCH  91  92
ENDBRANCH  90  91
ENDBRANCH  89  90
ENDBRANCH  87  89
ENDBRANCH  79  87
ENDBRANCH  75  77
ENDBRANCH  74  75
ENDBRANCH   1  74
TORSDOF 19
ENDMDL
