MODEL 1
REMARK VINA RESULT:     -11.7      0.000      0.000
REMARK SMILES COc1ccc(CCc2nnc(NC(=O)[C@@H]3[C@@H](C(=O)OCCOC(=O)c4ccc(-c5c6nc(c(-c7c(F)cc(S(=O)(=O)[O-])cc7F)c7ccc([nH]7)c(-c7c(F)cc(S(=O)(=O)[O-])cc7F)c7nc(c(-c8c(F)cc(S(=O)(=O)[O-])cc8F)c8ccc5[nH]8)C=C7)C=C6)cc4)C3(C)C)s2)cc1
REMARK SMILES IDX 20 1 18 2 19 3 17 4 16 5 92 6 93 7 94 8 14 9 13 10 15 12
REMARK SMILES IDX 12 13 9 14 10 15 95 16 11 17 8 18 7 19 6 20 3 21 4 22 97 23
REMARK SMILES IDX 5 24 96 25 2 26 1 27 21 28 22 29 23 30 24 31 25 32 26 33
REMARK SMILES IDX 27 34 91 35 28 36 90 37 29 38 30 39 31 40 84 41 32 42 89 43
REMARK SMILES IDX 83 44 85 45 33 46 88 47 82 48 81 49 34 51 68 52 47 53 67 54
REMARK SMILES IDX 48 55 51 56 66 57 86 58 49 59 50 60 65 62 87 63 52 64 35 65
REMARK SMILES IDX 36 66 45 67 37 68 38 69 44 70 46 71 39 72 40 73 41 74 42 75
REMARK SMILES IDX 43 76 69 77 70 78 79 79 71 80 72 81 78 82 80 83 73 84 74 85
REMARK SMILES IDX 75 86 76 87 77 88 53 89 54 90 63 91 55 92 56 93 62 94 64 95
REMARK SMILES IDX 57 96 58 97 59 98 60 99 61 100
REMARK H PARENT 13 11 85 50 51 61
REMARK Flexibility Score: inf
ROOT
ATOM      1  O   UNL A   1      31.968  30.619  26.260  1.00  0.00    -0.462 OA
ENDROOT
BRANCH   1   2
ATOM      2  C   UNL A   1      31.792  29.309  26.562  1.00  0.00     0.310 C 
ATOM      3  O   UNL A   1      31.457  28.862  27.643  1.00  0.00    -0.252 OA
BRANCH   2   4
ATOM      4  C   UNL A   1      31.915  28.391  25.411  1.00  0.00     0.118 C 
ATOM      5  C   UNL A   1      31.676  26.905  25.653  1.00  0.00     0.100 C 
ATOM      6  C   UNL A   1      32.958  27.391  24.994  1.00  0.00    -0.009 C 
ATOM      7  C   UNL A   1      34.231  27.214  25.784  1.00  0.00     0.013 C 
ATOM      8  C   UNL A   1      33.158  27.190  23.508  1.00  0.00     0.013 C 
BRANCH   5   9
ATOM      9  C   UNL A   1      30.420  26.447  25.002  1.00  0.00     0.230 C 
ATOM     10  N   UNL A   1      29.903  25.244  25.411  1.00  0.00    -0.300 N 
ATOM     11  H   UNL A   1      28.936  25.098  25.298  1.00  0.00     0.172 HD
ATOM     12  O   UNL A   1      29.792  27.186  24.253  1.00  0.00    -0.274 OA
BRANCH  10  13
ATOM     13  C   UNL A   1      30.638  24.233  25.962  1.00  0.00     0.212 A 
ATOM     14  C   UNL A   1      32.313  22.581  26.227  1.00  0.00     0.119 A 
ATOM     15  N   UNL A   1      31.792  22.960  27.380  1.00  0.00    -0.142 NA
ATOM     16  S   UNL A   1      31.521  23.284  24.868  1.00  0.00    -0.080 S 
ATOM     17  N   UNL A   1      30.810  23.916  27.222  1.00  0.00    -0.120 NA
BRANCH  14  18
ATOM     18  C   UNL A   1      33.455  21.608  26.139  1.00  0.00     0.074 C 
BRANCH  18  19
ATOM     19  C   UNL A   1      33.694  20.900  24.799  1.00  0.00     0.043 C 
BRANCH  19  20
ATOM     20  C   UNL A   1      33.690  19.389  24.872  1.00  0.00    -0.047 A 
ATOM     21  C   UNL A   1      33.626  16.589  24.924  1.00  0.00     0.118 A 
ATOM     22  C   UNL A   1      32.538  17.312  25.397  1.00  0.00     0.046 A 
ATOM     23  C   UNL A   1      34.744  17.246  24.419  1.00  0.00     0.046 A 
ATOM     24  C   UNL A   1      32.588  18.705  25.404  1.00  0.00     0.007 A 
ATOM     25  C   UNL A   1      34.777  18.643  24.392  1.00  0.00     0.007 A 
BRANCH  21  26
ATOM     26  O   UNL A   1      33.588  15.222  24.870  1.00  0.00    -0.497 OA
ATOM     27  C   UNL A   1      32.450  14.713  25.563  1.00  0.00     0.278 C 
ENDBRANCH  21  26
ENDBRANCH  19  20
ENDBRANCH  18  19
ENDBRANCH  14  18
ENDBRANCH  10  13
ENDBRANCH   5   9
ENDBRANCH   2   4
ENDBRANCH   1   2
BRANCH   1  28
ATOM     28  C   UNL A   1      32.805  31.342  27.178  1.00  0.00     0.274 C 
BRANCH  28  29
ATOM     29  C   UNL A   1      32.224  32.735  27.427  1.00  0.00     0.275 C 
BRANCH  29  30
ATOM     30  O   UNL A   1      33.269  33.706  27.622  1.00  0.00    -0.458 OA
BRANCH  30  31
ATOM     31  C   UNL A   1      33.360  34.212  28.875  1.00  0.00     0.338 C 
ATOM     32  O   UNL A   1      32.560  34.931  29.449  1.00  0.00    -0.246 OA
BRANCH  31  33
ATOM     33  C   UNL A   1      34.588  33.713  29.508  1.00  0.00     0.060 A 
ATOM     34  C   UNL A   1      34.486  32.747  30.508  1.00  0.00     0.016 A 
ATOM     35  C   UNL A   1      35.826  34.258  29.174  1.00  0.00     0.016 A 
ATOM     36  C   UNL A   1      35.617  32.336  31.204  1.00  0.00     0.010 A 
ATOM     37  C   UNL A   1      36.971  33.808  29.839  1.00  0.00     0.010 A 
ATOM     38  C   UNL A   1      36.874  32.850  30.864  1.00  0.00    -0.014 A 
BRANCH  38  39
ATOM     39  C   UNL A   1      38.088  32.370  31.568  1.00  0.00     0.031 A 
ATOM     40  C   UNL A   1      38.916  31.264  30.982  1.00  0.00     0.074 A 
ATOM     41  C   UNL A   1      38.436  32.931  32.743  1.00  0.00     0.049 A 
ATOM     42  N   UNL A   1      39.927  30.623  31.508  1.00  0.00    -0.248 NA
ATOM     43  C   UNL A   1      38.554  30.818  29.628  1.00  0.00     0.031 C 
ATOM     44  C   UNL A   1      37.740  34.049  33.383  1.00  0.00     0.029 A 
ATOM     45  N   UNL A   1      39.459  32.638  33.607  1.00  0.00    -0.354 N 
ATOM     46  C   UNL A   1      40.305  29.674  30.565  1.00  0.00     0.074 A 
ATOM     47  C   UNL A   1      39.406  29.819  29.439  1.00  0.00     0.031 C 
ATOM     48  C   UNL A   1      38.368  34.360  34.527  1.00  0.00     0.029 A 
ATOM     49  C   UNL A   1      39.461  33.417  34.738  1.00  0.00     0.049 A 
ATOM     50  H   UNL A   1      40.127  31.936  33.433  1.00  0.00     0.167 HD
ATOM     51  C   UNL A   1      41.309  28.769  30.638  1.00  0.00     0.037 A 
ATOM     52  C   UNL A   1      40.230  33.355  35.842  1.00  0.00     0.037 A 
ATOM     53  C   UNL A   1      42.205  28.649  31.760  1.00  0.00     0.049 A 
ATOM     54  C   UNL A   1      41.272  32.279  35.944  1.00  0.00     0.074 A 
ATOM     55  C   UNL A   1      43.281  27.791  31.918  1.00  0.00     0.029 A 
ATOM     56  N   UNL A   1      42.124  29.404  32.922  1.00  0.00    -0.354 N 
ATOM     57  N   UNL A   1      41.616  31.382  35.051  1.00  0.00    -0.248 NA
ATOM     58  C   UNL A   1      42.010  32.188  37.210  1.00  0.00     0.031 C 
ATOM     59  C   UNL A   1      43.816  27.993  33.196  1.00  0.00     0.029 A 
ATOM     60  C   UNL A   1      43.101  29.005  33.819  1.00  0.00     0.049 A 
ATOM     61  H   UNL A   1      41.467  30.119  33.084  1.00  0.00     0.167 HD
ATOM     62  C   UNL A   1      42.613  30.618  35.646  1.00  0.00     0.074 A 
ATOM     63  C   UNL A   1      42.827  31.170  36.968  1.00  0.00     0.031 C 
ATOM     64  C   UNL A   1      43.285  29.554  35.141  1.00  0.00     0.037 A 
BRANCH  51  65
ATOM     65  C   UNL A   1      41.451  27.805  29.492  1.00  0.00     0.058 A 
ATOM     66  C   UNL A   1      40.518  26.784  29.256  1.00  0.00     0.135 A 
ATOM     67  C   UNL A   1      42.552  27.899  28.623  1.00  0.00     0.135 A 
ATOM     68  F   UNL A   1      39.455  26.641  30.063  1.00  0.00    -0.206 F 
ATOM     69  C   UNL A   1      40.696  25.858  28.231  1.00  0.00     0.059 A 
ATOM     70  C   UNL A   1      42.736  27.000  27.577  1.00  0.00     0.059 A 
ATOM     71  F   UNL A   1      43.472  28.859  28.799  1.00  0.00    -0.206 F 
ATOM     72  C   UNL A   1      41.816  25.968  27.404  1.00  0.00     0.060 A 
BRANCH  72  73
ATOM     73  S   UNL A   1      42.063  24.734  26.109  1.00  0.00     0.124 S 
ATOM     74  O   UNL A   1      43.390  24.225  26.444  1.00  0.00    -0.237 OA
ATOM     75  O   UNL A   1      40.955  23.811  26.336  1.00  0.00    -0.237 OA
ATOM     76  O   UNL A   1      41.982  25.513  24.878  1.00  0.00    -0.744 OA
ENDBRANCH  72  73
ENDBRANCH  51  65
BRANCH  52  77
ATOM     77  C   UNL A   1      40.010  34.328  36.943  1.00  0.00     0.058 A 
ATOM     78  C   UNL A   1      40.604  35.597  36.906  1.00  0.00     0.135 A 
ATOM     79  C   UNL A   1      39.150  34.038  38.015  1.00  0.00     0.135 A 
ATOM     80  F   UNL A   1      41.441  35.916  35.908  1.00  0.00    -0.206 F 
ATOM     81  C   UNL A   1      40.340  36.552  37.883  1.00  0.00     0.059 A 
ATOM     82  C   UNL A   1      38.855  34.982  38.992  1.00  0.00     0.059 A 
ATOM     83  F   UNL A   1      38.552  32.838  38.090  1.00  0.00    -0.206 F 
ATOM     84  C   UNL A   1      39.454  36.239  38.916  1.00  0.00     0.060 A 
BRANCH  84  85
ATOM     85  S   UNL A   1      39.040  37.520  40.120  1.00  0.00     0.124 S 
ATOM     86  O   UNL A   1      40.341  38.138  40.351  1.00  0.00    -0.237 OA
ATOM     87  O   UNL A   1      38.070  38.328  39.387  1.00  0.00    -0.237 OA
ATOM     88  O   UNL A   1      38.491  36.763  41.241  1.00  0.00    -0.744 OA
ENDBRANCH  84  85
ENDBRANCH  52  77
BRANCH  64  89
ATOM     89  C   UNL A   1      44.312  28.908  36.027  1.00  0.00     0.058 A 
ATOM     90  C   UNL A   1      43.987  27.805  36.833  1.00  0.00     0.135 A 
ATOM     91  C   UNL A   1      45.642  29.356  36.030  1.00  0.00     0.135 A 
ATOM     92  F   UNL A   1      42.726  27.348  36.878  1.00  0.00    -0.206 F 
ATOM     93  C   UNL A   1      44.947  27.173  37.616  1.00  0.00     0.059 A 
ATOM     94  C   UNL A   1      46.622  28.725  36.788  1.00  0.00     0.059 A 
ATOM     95  F   UNL A   1      46.003  30.404  35.273  1.00  0.00    -0.206 F 
ATOM     96  C   UNL A   1      46.264  27.637  37.584  1.00  0.00     0.060 A 
BRANCH  96  97
ATOM     97  S   UNL A   1      47.510  26.773  38.564  1.00  0.00     0.124 S 
ATOM     98  O   UNL A   1      48.742  27.381  38.074  1.00  0.00    -0.237 OA
ATOM     99  O   UNL A   1      47.130  27.121  39.929  1.00  0.00    -0.237 OA
ATOM    100  O   UNL A   1      47.313  25.372  38.203  1.00  0.00    -0.744 OA
ENDBRANCH  96  97
ENDBRANCH  64  89
ENDBRANCH  38  39
ENDBRANCH  31  33
ENDBRANCH  30  31
ENDBRANCH  29  30
ENDBRANCH  28  29
ENDBRANCH   1  28
TORSDOF 20
ENDMDL
MODEL 2
REMARK VINA RESULT:     -11.1      6.482     10.023
REMARK SMILES COc1ccc(CCc2nnc(NC(=O)[C@@H]3[C@@H](C(=O)OCCOC(=O)c4ccc(-c5c6nc(c(-c7c(F)cc(S(=O)(=O)[O-])cc7F)c7ccc([nH]7)c(-c7c(F)cc(S(=O)(=O)[O-])cc7F)c7nc(c(-c8c(F)cc(S(=O)(=O)[O-])cc8F)c8ccc5[nH]8)C=C7)C=C6)cc4)C3(C)C)s2)cc1
REMARK SMILES IDX 20 1 18 2 19 3 17 4 16 5 92 6 93 7 94 8 14 9 13 10 15 12
REMARK SMILES IDX 12 13 9 14 10 15 95 16 11 17 8 18 7 19 6 20 3 21 4 22 97 23
REMARK SMILES IDX 5 24 96 25 2 26 1 27 21 28 22 29 23 30 24 31 25 32 26 33
REMARK SMILES IDX 27 34 91 35 28 36 90 37 29 38 30 39 31 40 84 41 32 42 89 43
REMARK SMILES IDX 83 44 85 45 33 46 88 47 82 48 81 49 34 51 68 52 47 53 67 54
REMARK SMILES IDX 48 55 51 56 66 57 86 58 49 59 50 60 65 62 87 63 52 64 35 65
REMARK SMILES IDX 36 66 45 67 37 68 38 69 44 70 46 71 39 72 40 73 41 74 42 75
REMARK SMILES IDX 43 76 69 77 70 78 79 79 71 80 72 81 78 82 80 83 73 84 74 85
REMARK SMILES IDX 75 86 76 87 77 88 53 89 54 90 63 91 55 92 56 93 62 94 64 95
REMARK SMILES IDX 57 96 58 97 59 98 60 99 61 100
REMARK H PARENT 13 11 85 50 51 61
REMARK Flexibility Score: inf
ROOT
ATOM      1  O   UNL A   1      35.769  33.781  31.546  1.00  0.00    -0.462 OA
ENDROOT
BRANCH   1   2
ATOM      2  C   UNL A   1      34.459  33.435  31.620  1.00  0.00     0.310 C 
ATOM      3  O   UNL A   1      34.025  32.328  31.881  1.00  0.00    -0.252 OA
BRANCH   2   4
ATOM      4  C   UNL A   1      33.516  34.562  31.477  1.00  0.00     0.118 C 
ATOM      5  C   UNL A   1      33.895  35.696  30.533  1.00  0.00     0.100 C 
ATOM      6  C   UNL A   1      33.515  35.980  31.979  1.00  0.00    -0.009 C 
ATOM      7  C   UNL A   1      34.613  36.490  32.878  1.00  0.00     0.013 C 
ATOM      8  C   UNL A   1      32.168  36.594  32.292  1.00  0.00     0.013 C 
BRANCH   5   9
ATOM      9  C   UNL A   1      33.023  35.713  29.329  1.00  0.00     0.230 C 
ATOM     10  N   UNL A   1      33.073  34.621  28.501  1.00  0.00    -0.300 N 
ATOM     11  H   UNL A   1      32.283  34.430  27.946  1.00  0.00     0.172 HD
ATOM     12  O   UNL A   1      32.182  36.591  29.172  1.00  0.00    -0.274 OA
BRANCH  10  13
ATOM     13  C   UNL A   1      34.144  33.780  28.394  1.00  0.00     0.212 A 
ATOM     14  C   UNL A   1      35.428  31.856  27.888  1.00  0.00     0.119 A 
ATOM     15  N   UNL A   1      36.171  32.942  27.999  1.00  0.00    -0.142 NA
ATOM     16  S   UNL A   1      33.775  32.127  28.289  1.00  0.00    -0.080 S 
ATOM     17  N   UNL A   1      35.421  34.060  28.303  1.00  0.00    -0.120 NA
BRANCH  14  18
ATOM     18  C   UNL A   1      36.000  30.526  27.484  1.00  0.00     0.074 C 
BRANCH  18  19
ATOM     19  C   UNL A   1      35.272  29.259  27.953  1.00  0.00     0.043 C 
BRANCH  19  20
ATOM     20  C   UNL A   1      34.141  28.810  27.055  1.00  0.00    -0.047 A 
ATOM     21  C   UNL A   1      32.006  28.069  25.399  1.00  0.00     0.118 A 
ATOM     22  C   UNL A   1      31.821  28.136  26.775  1.00  0.00     0.046 A 
ATOM     23  C   UNL A   1      33.242  28.373  24.839  1.00  0.00     0.046 A 
ATOM     24  C   UNL A   1      32.894  28.469  27.599  1.00  0.00     0.007 A 
ATOM     25  C   UNL A   1      34.309  28.743  25.664  1.00  0.00     0.007 A 
BRANCH  21  26
ATOM     26  O   UNL A   1      30.960  27.782  24.565  1.00  0.00    -0.497 OA
ATOM     27  C   UNL A   1      30.598  28.922  23.786  1.00  0.00     0.278 C 
ENDBRANCH  21  26
ENDBRANCH  19  20
ENDBRANCH  18  19
ENDBRANCH  14  18
ENDBRANCH  10  13
ENDBRANCH   5   9
ENDBRANCH   2   4
ENDBRANCH   1   2
BRANCH   1  28
ATOM     28  C   UNL A   1      36.549  33.444  32.704  1.00  0.00     0.274 C 
BRANCH  28  29
ATOM     29  C   UNL A   1      37.791  32.657  32.286  1.00  0.00     0.275 C 
BRANCH  29  30
ATOM     30  O   UNL A   1      37.713  31.289  32.727  1.00  0.00    -0.458 OA
BRANCH  30  31
ATOM     31  C   UNL A   1      37.390  30.390  31.767  1.00  0.00     0.338 C 
ATOM     32  O   UNL A   1      36.283  29.960  31.489  1.00  0.00    -0.246 OA
BRANCH  31  33
ATOM     33  C   UNL A   1      38.603  30.019  31.026  1.00  0.00     0.060 A 
ATOM     34  C   UNL A   1      39.679  29.473  31.725  1.00  0.00     0.016 A 
ATOM     35  C   UNL A   1      38.709  30.288  29.663  1.00  0.00     0.016 A 
ATOM     36  C   UNL A   1      40.880  29.216  31.075  1.00  0.00     0.010 A 
ATOM     37  C   UNL A   1      39.900  29.982  28.998  1.00  0.00     0.010 A 
ATOM     38  C   UNL A   1      40.997  29.451  29.701  1.00  0.00    -0.014 A 
BRANCH  38  39
ATOM     39  C   UNL A   1      42.260  29.125  28.995  1.00  0.00     0.031 A 
ATOM     40  C   UNL A   1      42.482  27.749  28.437  1.00  0.00     0.074 A 
ATOM     41  C   UNL A   1      43.210  30.072  28.867  1.00  0.00     0.049 A 
ATOM     42  N   UNL A   1      43.563  27.238  27.910  1.00  0.00    -0.248 NA
ATOM     43  C   UNL A   1      41.337  26.828  28.484  1.00  0.00     0.031 C 
ATOM     44  C   UNL A   1      43.084  31.459  29.320  1.00  0.00     0.029 A 
ATOM     45  N   UNL A   1      44.466  30.013  28.321  1.00  0.00    -0.354 N 
ATOM     46  C   UNL A   1      43.243  25.923  27.590  1.00  0.00     0.074 A 
ATOM     47  C   UNL A   1      41.868  25.716  27.993  1.00  0.00     0.031 C 
ATOM     48  C   UNL A   1      44.209  32.123  29.015  1.00  0.00     0.029 A 
ATOM     49  C   UNL A   1      45.161  31.194  28.416  1.00  0.00     0.049 A 
ATOM     50  H   UNL A   1      44.834  29.202  27.901  1.00  0.00     0.167 HD
ATOM     51  C   UNL A   1      44.028  24.982  27.015  1.00  0.00     0.037 A 
ATOM     52  C   UNL A   1      46.436  31.487  28.095  1.00  0.00     0.037 A 
ATOM     53  C   UNL A   1      45.391  25.210  26.606  1.00  0.00     0.049 A 
ATOM     54  C   UNL A   1      47.317  30.401  27.550  1.00  0.00     0.074 A 
ATOM     55  C   UNL A   1      46.262  24.335  25.978  1.00  0.00     0.029 A 
ATOM     56  N   UNL A   1      46.084  26.397  26.793  1.00  0.00    -0.354 N 
ATOM     57  N   UNL A   1      47.008  29.160  27.260  1.00  0.00    -0.248 NA
ATOM     58  C   UNL A   1      48.726  30.745  27.318  1.00  0.00     0.031 C 
ATOM     59  C   UNL A   1      47.497  24.979  25.833  1.00  0.00     0.029 A 
ATOM     60  C   UNL A   1      47.385  26.267  26.332  1.00  0.00     0.049 A 
ATOM     61  H   UNL A   1      45.707  27.213  27.194  1.00  0.00     0.167 HD
ATOM     62  C   UNL A   1      48.183  28.572  26.808  1.00  0.00     0.074 A 
ATOM     63  C   UNL A   1      49.205  29.599  26.848  1.00  0.00     0.031 C 
ATOM     64  C   UNL A   1      48.394  27.296  26.400  1.00  0.00     0.037 A 
BRANCH  51  65
ATOM     65  C   UNL A   1      43.442  23.606  26.847  1.00  0.00     0.058 A 
ATOM     66  C   UNL A   1      43.291  22.723  27.928  1.00  0.00     0.135 A 
ATOM     67  C   UNL A   1      43.039  23.161  25.577  1.00  0.00     0.135 A 
ATOM     68  F   UNL A   1      43.671  23.093  29.161  1.00  0.00    -0.206 F 
ATOM     69  C   UNL A   1      42.809  21.430  27.747  1.00  0.00     0.059 A 
ATOM     70  C   UNL A   1      42.531  21.881  25.378  1.00  0.00     0.059 A 
ATOM     71  F   UNL A   1      43.157  23.965  24.510  1.00  0.00    -0.206 F 
ATOM     72  C   UNL A   1      42.443  21.015  26.466  1.00  0.00     0.060 A 
BRANCH  72  73
ATOM     73  S   UNL A   1      41.864  19.319  26.235  1.00  0.00     0.124 S 
ATOM     74  O   UNL A   1      42.664  18.894  25.090  1.00  0.00    -0.237 OA
ATOM     75  O   UNL A   1      42.201  18.694  27.510  1.00  0.00    -0.237 OA
ATOM     76  O   UNL A   1      40.436  19.480  25.978  1.00  0.00    -0.744 OA
ENDBRANCH  72  73
ENDBRANCH  51  65
BRANCH  52  77
ATOM     77  C   UNL A   1      46.947  32.865  28.315  1.00  0.00     0.058 A 
ATOM     78  C   UNL A   1      47.580  33.210  29.517  1.00  0.00     0.135 A 
ATOM     79  C   UNL A   1      46.876  33.840  27.308  1.00  0.00     0.135 A 
ATOM     80  F   UNL A   1      47.662  32.314  30.512  1.00  0.00    -0.206 F 
ATOM     81  C   UNL A   1      48.141  34.468  29.709  1.00  0.00     0.059 A 
ATOM     82  C   UNL A   1      47.448  35.099  27.467  1.00  0.00     0.059 A 
ATOM     83  F   UNL A   1      46.286  33.556  26.137  1.00  0.00    -0.206 F 
ATOM     84  C   UNL A   1      48.081  35.402  28.672  1.00  0.00     0.060 A 
BRANCH  84  85
ATOM     85  S   UNL A   1      48.903  36.996  28.894  1.00  0.00     0.124 S 
ATOM     86  O   UNL A   1      48.362  37.430  30.176  1.00  0.00    -0.237 OA
ATOM     87  O   UNL A   1      50.312  36.616  28.890  1.00  0.00    -0.237 OA
ATOM     88  O   UNL A   1      48.467  37.762  27.730  1.00  0.00    -0.744 OA
ENDBRANCH  84  85
ENDBRANCH  52  77
BRANCH  64  89
ATOM     89  C   UNL A   1      49.789  26.934  25.973  1.00  0.00     0.058 A 
ATOM     90  C   UNL A   1      50.217  27.125  24.651  1.00  0.00     0.135 A 
ATOM     91  C   UNL A   1      50.720  26.447  26.904  1.00  0.00     0.135 A 
ATOM     92  F   UNL A   1      49.360  27.574  23.721  1.00  0.00    -0.206 F 
ATOM     93  C   UNL A   1      51.522  26.840  24.263  1.00  0.00     0.059 A 
ATOM     94  C   UNL A   1      52.036  26.176  26.543  1.00  0.00     0.059 A 
ATOM     95  F   UNL A   1      50.360  26.252  28.182  1.00  0.00    -0.206 F 
ATOM     96  C   UNL A   1      52.426  26.369  25.218  1.00  0.00     0.060 A 
BRANCH  96  97
ATOM     97  S   UNL A   1      54.131  26.054  24.713  1.00  0.00     0.124 S 
ATOM     98  O   UNL A   1      54.864  26.996  25.552  1.00  0.00    -0.237 OA
ATOM     99  O   UNL A   1      54.300  24.643  25.046  1.00  0.00    -0.237 OA
ATOM    100  O   UNL A   1      54.123  26.358  23.286  1.00  0.00    -0.744 OA
ENDBRANCH  96  97
ENDBRANCH  64  89
ENDBRANCH  38  39
ENDBRANCH  31  33
ENDBRANCH  30  31
ENDBRANCH  29  30
ENDBRANCH  28  29
ENDBRANCH   1  28
TORSDOF 20
ENDMDL
MODEL 3
REMARK VINA RESULT:     -10.7      6.798     11.162
REMARK SMILES COc1ccc(CCc2nnc(NC(=O)[C@@H]3[C@@H](C(=O)OCCOC(=O)c4ccc(-c5c6nc(c(-c7c(F)cc(S(=O)(=O)[O-])cc7F)c7ccc([nH]7)c(-c7c(F)cc(S(=O)(=O)[O-])cc7F)c7nc(c(-c8c(F)cc(S(=O)(=O)[O-])cc8F)c8ccc5[nH]8)C=C7)C=C6)cc4)C3(C)C)s2)cc1
REMARK SMILES IDX 20 1 18 2 19 3 17 4 16 5 92 6 93 7 94 8 14 9 13 10 15 12
REMARK SMILES IDX 12 13 9 14 10 15 95 16 11 17 8 18 7 19 6 20 3 21 4 22 97 23
REMARK SMILES IDX 5 24 96 25 2 26 1 27 21 28 22 29 23 30 24 31 25 32 26 33
REMARK SMILES IDX 27 34 91 35 28 36 90 37 29 38 30 39 31 40 84 41 32 42 89 43
REMARK SMILES IDX 83 44 85 45 33 46 88 47 82 48 81 49 34 51 68 52 47 53 67 54
REMARK SMILES IDX 48 55 51 56 66 57 86 58 49 59 50 60 65 62 87 63 52 64 35 65
REMARK SMILES IDX 36 66 45 67 37 68 38 69 44 70 46 71 39 72 40 73 41 74 42 75
REMARK SMILES IDX 43 76 69 77 70 78 79 79 71 80 72 81 78 82 80 83 73 84 74 85
REMARK SMILES IDX 75 86 76 87 77 88 53 89 54 90 63 91 55 92 56 93 62 94 64 95
REMARK SMILES IDX 57 96 58 97 59 98 60 99 61 100
REMARK H PARENT 13 11 85 50 51 61
REMARK Flexibility Score: inf
ROOT
ATOM      1  O   UNL A   1      35.587  33.833  32.794  1.00  0.00    -0.462 OA
ENDROOT
BRANCH   1   2
ATOM      2  C   UNL A   1      34.397  33.407  32.302  1.00  0.00     0.310 C 
ATOM      3  O   UNL A   1      34.061  32.248  32.144  1.00  0.00    -0.252 OA
BRANCH   2   4
ATOM      4  C   UNL A   1      33.413  34.481  32.058  1.00  0.00     0.118 C 
ATOM      5  C   UNL A   1      33.774  35.567  31.052  1.00  0.00     0.100 C 
ATOM      6  C   UNL A   1      33.339  35.927  32.465  1.00  0.00    -0.009 C 
ATOM      7  C   UNL A   1      34.387  36.542  33.358  1.00  0.00     0.013 C 
ATOM      8  C   UNL A   1      31.959  36.502  32.699  1.00  0.00     0.013 C 
BRANCH   5   9
ATOM      9  C   UNL A   1      32.939  35.468  29.826  1.00  0.00     0.230 C 
ATOM     10  N   UNL A   1      33.133  34.375  29.020  1.00  0.00    -0.300 N 
ATOM     11  H   UNL A   1      32.384  34.089  28.448  1.00  0.00     0.172 HD
ATOM     12  O   UNL A   1      32.011  36.244  29.630  1.00  0.00    -0.274 OA
BRANCH  10  13
ATOM     13  C   UNL A   1      34.293  33.657  28.955  1.00  0.00     0.212 A 
ATOM     14  C   UNL A   1      36.595  33.121  29.093  1.00  0.00     0.119 A 
ATOM     15  N   UNL A   1      35.824  32.051  29.151  1.00  0.00    -0.142 NA
ATOM     16  S   UNL A   1      35.714  34.568  28.783  1.00  0.00    -0.080 S 
ATOM     17  N   UNL A   1      34.484  32.366  29.062  1.00  0.00    -0.120 NA
BRANCH  14  18
ATOM     18  C   UNL A   1      38.088  33.049  29.248  1.00  0.00     0.074 C 
BRANCH  18  19
ATOM     19  C   UNL A   1      38.886  34.354  29.128  1.00  0.00     0.043 C 
BRANCH  19  20
ATOM     20  C   UNL A   1      40.188  34.373  29.899  1.00  0.00    -0.047 A 
ATOM     21  C   UNL A   1      42.577  34.503  31.356  1.00  0.00     0.118 A 
ATOM     22  C   UNL A   1      42.489  35.131  30.119  1.00  0.00     0.046 A 
ATOM     23  C   UNL A   1      41.485  33.817  31.878  1.00  0.00     0.046 A 
ATOM     24  C   UNL A   1      41.311  35.034  29.380  1.00  0.00     0.007 A 
ATOM     25  C   UNL A   1      40.292  33.752  31.152  1.00  0.00     0.007 A 
BRANCH  21  26
ATOM     26  O   UNL A   1      43.707  34.615  32.119  1.00  0.00    -0.497 OA
ATOM     27  C   UNL A   1      43.911  33.445  32.909  1.00  0.00     0.278 C 
ENDBRANCH  21  26
ENDBRANCH  19  20
ENDBRANCH  18  19
ENDBRANCH  14  18
ENDBRANCH  10  13
ENDBRANCH   5   9
ENDBRANCH   2   4
ENDBRANCH   1   2
BRANCH   1  28
ATOM     28  C   UNL A   1      36.294  32.865  33.587  1.00  0.00     0.274 C 
BRANCH  28  29
ATOM     29  C   UNL A   1      37.490  32.322  32.805  1.00  0.00     0.275 C 
BRANCH  29  30
ATOM     30  O   UNL A   1      37.662  30.911  33.030  1.00  0.00    -0.458 OA
BRANCH  30  31
ATOM     31  C   UNL A   1      37.325  30.113  31.989  1.00  0.00     0.338 C 
ATOM     32  O   UNL A   1      36.210  29.741  31.666  1.00  0.00    -0.246 OA
BRANCH  31  33
ATOM     33  C   UNL A   1      38.534  29.781  31.225  1.00  0.00     0.060 A 
ATOM     34  C   UNL A   1      39.657  29.315  31.909  1.00  0.00     0.016 A 
ATOM     35  C   UNL A   1      38.587  30.009  29.851  1.00  0.00     0.016 A 
ATOM     36  C   UNL A   1      40.851  29.099  31.231  1.00  0.00     0.010 A 
ATOM     37  C   UNL A   1      39.774  29.743  29.161  1.00  0.00     0.010 A 
ATOM     38  C   UNL A   1      40.916  29.294  29.848  1.00  0.00    -0.014 A 
BRANCH  38  39
ATOM     39  C   UNL A   1      42.175  29.009  29.116  1.00  0.00     0.031 A 
ATOM     40  C   UNL A   1      42.427  27.644  28.545  1.00  0.00     0.074 A 
ATOM     41  C   UNL A   1      43.093  29.985  28.974  1.00  0.00     0.049 A 
ATOM     42  N   UNL A   1      43.513  27.168  27.994  1.00  0.00    -0.248 NA
ATOM     43  C   UNL A   1      41.311  26.688  28.608  1.00  0.00     0.031 C 
ATOM     44  C   UNL A   1      42.935  31.365  29.438  1.00  0.00     0.029 A 
ATOM     45  N   UNL A   1      44.339  29.967  28.404  1.00  0.00    -0.354 N 
ATOM     46  C   UNL A   1      43.226  25.847  27.672  1.00  0.00     0.074 A 
ATOM     47  C   UNL A   1      41.866  25.596  28.101  1.00  0.00     0.031 C 
ATOM     48  C   UNL A   1      44.033  32.065  29.116  1.00  0.00     0.029 A 
ATOM     49  C   UNL A   1      45.000  31.168  28.492  1.00  0.00     0.049 A 
ATOM     50  H   UNL A   1      44.723  29.170  27.972  1.00  0.00     0.167 HD
ATOM     51  C   UNL A   1      44.028  24.932  27.076  1.00  0.00     0.037 A 
ATOM     52  C   UNL A   1      46.259  31.502  28.148  1.00  0.00     0.037 A 
ATOM     53  C   UNL A   1      45.374  25.204  26.642  1.00  0.00     0.049 A 
ATOM     54  C   UNL A   1      47.162  30.446  27.580  1.00  0.00     0.074 A 
ATOM     55  C   UNL A   1      46.259  24.359  25.992  1.00  0.00     0.029 A 
ATOM     56  N   UNL A   1      46.035  26.411  26.822  1.00  0.00    -0.354 N 
ATOM     57  N   UNL A   1      46.884  29.197  27.288  1.00  0.00    -0.248 NA
ATOM     58  C   UNL A   1      48.555  30.833  27.322  1.00  0.00     0.031 C 
ATOM     59  C   UNL A   1      47.471  25.041  25.826  1.00  0.00     0.029 A 
ATOM     60  C   UNL A   1      47.330  26.322  26.335  1.00  0.00     0.049 A 
ATOM     61  H   UNL A   1      45.642  27.213  27.236  1.00  0.00     0.167 HD
ATOM     62  C   UNL A   1      48.067  28.648  26.809  1.00  0.00     0.074 A 
ATOM     63  C   UNL A   1      49.058  29.705  26.836  1.00  0.00     0.031 C 
ATOM     64  C   UNL A   1      48.309  27.381  26.391  1.00  0.00     0.037 A 
BRANCH  51  65
ATOM     65  C   UNL A   1      43.480  23.541  26.911  1.00  0.00     0.058 A 
ATOM     66  C   UNL A   1      43.462  22.617  27.968  1.00  0.00     0.135 A 
ATOM     67  C   UNL A   1      42.978  23.123  25.667  1.00  0.00     0.135 A 
ATOM     68  F   UNL A   1      43.940  22.960  29.174  1.00  0.00    -0.206 F 
ATOM     69  C   UNL A   1      43.013  21.311  27.784  1.00  0.00     0.059 A 
ATOM     70  C   UNL A   1      42.502  21.831  25.468  1.00  0.00     0.059 A 
ATOM     71  F   UNL A   1      42.968  23.966  24.624  1.00  0.00    -0.206 F 
ATOM     72  C   UNL A   1      42.546  20.925  26.526  1.00  0.00     0.060 A 
BRANCH  72  73
ATOM     73  S   UNL A   1      42.013  19.216  26.287  1.00  0.00     0.124 S 
ATOM     74  O   UNL A   1      42.097  18.693  27.648  1.00  0.00    -0.237 OA
ATOM     75  O   UNL A   1      40.664  19.377  25.753  1.00  0.00    -0.237 OA
ATOM     76  O   UNL A   1      42.995  18.682  25.348  1.00  0.00    -0.744 OA
ENDBRANCH  72  73
ENDBRANCH  51  65
BRANCH  52  77
ATOM     77  C   UNL A   1      46.733  32.893  28.367  1.00  0.00     0.058 A 
ATOM     78  C   UNL A   1      46.418  33.908  27.454  1.00  0.00     0.135 A 
ATOM     79  C   UNL A   1      47.448  33.248  29.522  1.00  0.00     0.135 A 
ATOM     80  F   UNL A   1      45.746  33.615  26.331  1.00  0.00    -0.206 F 
ATOM     81  C   UNL A   1      46.778  35.232  27.685  1.00  0.00     0.059 A 
ATOM     82  C   UNL A   1      47.802  34.567  29.786  1.00  0.00     0.059 A 
ATOM     83  F   UNL A   1      47.767  32.313  30.430  1.00  0.00    -0.206 F 
ATOM     84  C   UNL A   1      47.460  35.554  28.861  1.00  0.00     0.060 A 
BRANCH  84  85
ATOM     85  S   UNL A   1      47.832  37.289  29.199  1.00  0.00     0.124 S 
ATOM     86  O   UNL A   1      47.993  37.823  27.852  1.00  0.00    -0.237 OA
ATOM     87  O   UNL A   1      46.639  37.722  29.920  1.00  0.00    -0.237 OA
ATOM     88  O   UNL A   1      49.048  37.220  30.003  1.00  0.00    -0.744 OA
ENDBRANCH  84  85
ENDBRANCH  52  77
BRANCH  64  89
ATOM     89  C   UNL A   1      49.705  27.064  25.934  1.00  0.00     0.058 A 
ATOM     90  C   UNL A   1      50.661  26.547  26.823  1.00  0.00     0.135 A 
ATOM     91  C   UNL A   1      50.074  27.224  24.590  1.00  0.00     0.135 A 
ATOM     92  F   UNL A   1      50.362  26.390  28.121  1.00  0.00    -0.206 F 
ATOM     93  C   UNL A   1      51.938  26.204  26.393  1.00  0.00     0.059 A 
ATOM     94  C   UNL A   1      51.339  26.867  24.134  1.00  0.00     0.059 A 
ATOM     95  F   UNL A   1      49.194  27.711  23.701  1.00  0.00    -0.206 F 
ATOM     96  C   UNL A   1      52.267  26.363  25.045  1.00  0.00     0.060 A 
BRANCH  96  97
ATOM     97  S   UNL A   1      53.912  25.864  24.491  1.00  0.00     0.124 S 
ATOM     98  O   UNL A   1      54.768  26.593  25.420  1.00  0.00    -0.237 OA
ATOM     99  O   UNL A   1      53.874  24.416  24.665  1.00  0.00    -0.237 OA
ATOM    100  O   UNL A   1      53.955  26.321  23.105  1.00  0.00    -0.744 OA
ENDBRANCH  96  97
ENDBRANCH  64  89
ENDBRANCH  38  39
ENDBRANCH  31  33
ENDBRANCH  30  31
ENDBRANCH  29  30
ENDBRANCH  28  29
ENDBRANCH   1  28
TORSDOF 20
ENDMDL
