MODEL 1
REMARK VINA RESULT:     -11.6      0.000      0.000
REMARK SMILES CCCc1cc2c(cc1Cl)C=C(C(=O)OCCOC(=O)c1ccc(-c3c4nc(c(-c5c(F)cc(S(=O)(=O)[O-])cc5F)c5ccc([nH]5)c(-c5c(F)cc(S(=O)(=O)[O-])cc5F)c5nc(c(-c6c(F)cc(S(=O)(=O)[O-])cc6F)c6ccc3[nH]6)C=C5)C=C4)cc1)[C@@H](C(F)(F)F)O2
REMARK SMILES IDX 17 1 16 2 15 3 13 4 14 5 12 6 4 7 5 8 9 9 6 10 8 11 10 12
REMARK SMILES IDX 7 13 92 14 11 15 87 16 3 17 2 18 1 19 88 20 89 21 90 22
REMARK SMILES IDX 91 23 18 24 19 25 20 26 21 27 22 28 86 29 23 30 85 31 24 32
REMARK SMILES IDX 25 33 26 34 79 35 27 36 84 37 78 38 80 39 28 40 83 41 77 42
REMARK SMILES IDX 76 43 29 45 63 46 42 47 62 48 43 49 46 50 61 51 81 52 44 53
REMARK SMILES IDX 45 54 60 56 82 57 47 58 30 59 31 60 40 61 32 62 33 63 39 64
REMARK SMILES IDX 41 65 34 66 35 67 36 68 37 69 38 70 64 71 65 72 74 73 66 74
REMARK SMILES IDX 67 75 73 76 75 77 68 78 69 79 70 80 71 81 72 82 48 83 49 84
REMARK SMILES IDX 58 85 50 86 51 87 57 88 59 89 52 90 53 91 54 92 55 93 56 94
REMARK H PARENT 80 44 46 55
REMARK Flexibility Score: inf
ROOT
ATOM      1  C   UNL A   1      39.225  23.131  26.157  1.00  0.00     0.275 C 
ENDROOT
BRANCH   1   2
ATOM      2  C   UNL A   1      37.873  22.523  25.770  1.00  0.00     0.275 C 
BRANCH   2   3
ATOM      3  O   UNL A   1      37.014  23.484  25.116  1.00  0.00    -0.459 OA
BRANCH   3   4
ATOM      4  C   UNL A   1      35.754  23.577  25.607  1.00  0.00     0.338 C 
ATOM      5  O   UNL A   1      35.339  23.056  26.631  1.00  0.00    -0.246 OA
BRANCH   4   6
ATOM      6  C   UNL A   1      34.933  24.473  24.767  1.00  0.00     0.087 C 
ATOM      7  C   UNL A   1      31.759  28.013  23.119  1.00  0.00    -0.026 A 
ATOM      8  C   UNL A   1      32.449  26.949  22.505  1.00  0.00     0.052 A 
ATOM      9  C   UNL A   1      32.116  28.358  24.436  1.00  0.00     0.045 A 
ATOM     10  C   UNL A   1      33.335  26.151  23.228  1.00  0.00     0.128 A 
ATOM     11  C   UNL A   1      33.023  27.580  25.150  1.00  0.00     0.032 A 
ATOM     12  Cl  UNL A   1      31.436  29.726  25.244  1.00  0.00    -0.084 Cl
ATOM     13  C   UNL A   1      33.578  26.443  24.562  1.00  0.00     0.019 A 
ATOM     14  O   UNL A   1      33.916  25.105  22.568  1.00  0.00    -0.475 OA
ATOM     15  C   UNL A   1      34.387  25.545  25.352  1.00  0.00     0.027 C 
ATOM     16  C   UNL A   1      34.622  24.093  23.347  1.00  0.00     0.316 C 
BRANCH   7  17
ATOM     17  C   UNL A   1      30.639  28.762  22.426  1.00  0.00     0.037 C 
BRANCH  17  18
ATOM     18  C   UNL A   1      29.199  28.499  22.880  1.00  0.00     0.001 C 
ATOM     19  C   UNL A   1      28.323  29.748  22.906  1.00  0.00     0.004 C 
ENDBRANCH  17  18
ENDBRANCH   7  17
BRANCH  16  20
ATOM     20  C   UNL A   1      33.796  22.795  23.332  1.00  0.00     0.430 C 
ATOM     21  F   UNL A   1      33.241  22.571  22.117  1.00  0.00    -0.167 F 
ATOM     22  F   UNL A   1      34.562  21.711  23.610  1.00  0.00    -0.167 F 
ATOM     23  F   UNL A   1      32.790  22.817  24.236  1.00  0.00    -0.167 F 
ENDBRANCH  16  20
ENDBRANCH   4   6
ENDBRANCH   3   4
ENDBRANCH   2   3
ENDBRANCH   1   2
BRANCH   1  24
ATOM     24  O   UNL A   1      39.099  24.516  26.526  1.00  0.00    -0.458 OA
BRANCH  24  25
ATOM     25  C   UNL A   1      40.262  25.206  26.548  1.00  0.00     0.338 C 
ATOM     26  O   UNL A   1      41.087  25.288  25.654  1.00  0.00    -0.246 OA
BRANCH  25  27
ATOM     27  C   UNL A   1      40.333  26.030  27.763  1.00  0.00     0.060 A 
ATOM     28  C   UNL A   1      41.136  27.151  27.884  1.00  0.00     0.016 A 
ATOM     29  C   UNL A   1      39.415  25.732  28.758  1.00  0.00     0.016 A 
ATOM     30  C   UNL A   1      41.014  27.944  29.036  1.00  0.00     0.010 A 
ATOM     31  C   UNL A   1      39.180  26.599  29.816  1.00  0.00     0.010 A 
ATOM     32  C   UNL A   1      40.013  27.698  30.006  1.00  0.00    -0.014 A 
BRANCH  32  33
ATOM     33  C   UNL A   1      39.858  28.572  31.208  1.00  0.00     0.031 A 
ATOM     34  C   UNL A   1      40.754  28.416  32.420  1.00  0.00     0.074 A 
ATOM     35  C   UNL A   1      38.899  29.522  31.210  1.00  0.00     0.049 A 
ATOM     36  N   UNL A   1      40.836  29.179  33.484  1.00  0.00    -0.248 NA
ATOM     37  C   UNL A   1      41.641  27.241  32.478  1.00  0.00     0.031 C 
ATOM     38  C   UNL A   1      37.879  29.693  30.172  1.00  0.00     0.029 A 
ATOM     39  N   UNL A   1      38.644  30.546  32.089  1.00  0.00    -0.354 N 
ATOM     40  C   UNL A   1      41.775  28.576  34.318  1.00  0.00     0.074 A 
ATOM     41  C   UNL A   1      42.156  27.333  33.695  1.00  0.00     0.031 C 
ATOM     42  C   UNL A   1      37.188  30.817  30.411  1.00  0.00     0.029 A 
ATOM     43  C   UNL A   1      37.680  31.424  31.644  1.00  0.00     0.049 A 
ATOM     44  H   UNL A   1      39.105  30.644  32.953  1.00  0.00     0.167 HD
ATOM     45  C   UNL A   1      42.324  29.041  35.466  1.00  0.00     0.037 A 
ATOM     46  C   UNL A   1      37.262  32.601  32.150  1.00  0.00     0.037 A 
ATOM     47  C   UNL A   1      41.982  30.307  36.053  1.00  0.00     0.049 A 
ATOM     48  C   UNL A   1      37.905  33.121  33.407  1.00  0.00     0.074 A 
ATOM     49  C   UNL A   1      42.539  30.919  37.161  1.00  0.00     0.029 A 
ATOM     50  N   UNL A   1      40.997  31.158  35.574  1.00  0.00    -0.354 N 
ATOM     51  N   UNL A   1      38.882  32.597  34.108  1.00  0.00    -0.248 NA
ATOM     52  C   UNL A   1      37.387  34.386  33.946  1.00  0.00     0.031 C 
ATOM     53  C   UNL A   1      41.856  32.117  37.382  1.00  0.00     0.029 A 
ATOM     54  C   UNL A   1      40.905  32.274  36.385  1.00  0.00     0.049 A 
ATOM     55  H   UNL A   1      40.445  30.991  34.778  1.00  0.00     0.167 HD
ATOM     56  C   UNL A   1      39.098  33.467  35.169  1.00  0.00     0.074 A 
ATOM     57  C   UNL A   1      38.172  34.569  35.001  1.00  0.00     0.031 C 
ATOM     58  C   UNL A   1      39.973  33.358  36.199  1.00  0.00     0.037 A 
BRANCH  45  59
ATOM     59  C   UNL A   1      43.391  28.210  36.130  1.00  0.00     0.058 A 
ATOM     60  C   UNL A   1      43.062  27.116  36.950  1.00  0.00     0.135 A 
ATOM     61  C   UNL A   1      44.754  28.465  35.905  1.00  0.00     0.135 A 
ATOM     62  F   UNL A   1      41.776  26.829  37.210  1.00  0.00    -0.206 F 
ATOM     63  C   UNL A   1      44.040  26.327  37.544  1.00  0.00     0.059 A 
ATOM     64  C   UNL A   1      45.751  27.669  36.465  1.00  0.00     0.059 A 
ATOM     65  F   UNL A   1      45.130  29.494  35.128  1.00  0.00    -0.206 F 
ATOM     66  C   UNL A   1      45.384  26.609  37.293  1.00  0.00     0.060 A 
BRANCH  66  67
ATOM     67  S   UNL A   1      46.635  25.557  38.059  1.00  0.00     0.124 S 
ATOM     68  O   UNL A   1      45.840  24.821  39.037  1.00  0.00    -0.237 OA
ATOM     69  O   UNL A   1      47.121  24.779  36.924  1.00  0.00    -0.237 OA
ATOM     70  O   UNL A   1      47.589  26.511  38.617  1.00  0.00    -0.744 OA
ENDBRANCH  66  67
ENDBRANCH  45  59
BRANCH  46  71
ATOM     71  C   UNL A   1      36.225  33.390  31.430  1.00  0.00     0.058 A 
ATOM     72  C   UNL A   1      36.520  34.036  30.220  1.00  0.00     0.135 A 
ATOM     73  C   UNL A   1      34.909  33.479  31.910  1.00  0.00     0.135 A 
ATOM     74  F   UNL A   1      37.764  33.987  29.718  1.00  0.00    -0.206 F 
ATOM     75  C   UNL A   1      35.552  34.745  29.514  1.00  0.00     0.059 A 
ATOM     76  C   UNL A   1      33.916  34.159  31.209  1.00  0.00     0.059 A 
ATOM     77  F   UNL A   1      34.568  32.867  33.054  1.00  0.00    -0.206 F 
ATOM     78  C   UNL A   1      34.250  34.793  30.013  1.00  0.00     0.060 A 
BRANCH  78  79
ATOM     79  S   UNL A   1      32.989  35.665  29.057  1.00  0.00     0.124 S 
ATOM     80  O   UNL A   1      32.146  36.216  30.112  1.00  0.00    -0.237 OA
ATOM     81  O   UNL A   1      33.790  36.631  28.310  1.00  0.00    -0.237 OA
ATOM     82  O   UNL A   1      32.384  34.608  28.253  1.00  0.00    -0.744 OA
ENDBRANCH  78  79
ENDBRANCH  46  71
BRANCH  58  83
ATOM     83  C   UNL A   1      39.963  34.436  37.244  1.00  0.00     0.058 A 
ATOM     84  C   UNL A   1      40.738  35.595  37.092  1.00  0.00     0.135 A 
ATOM     85  C   UNL A   1      39.086  34.368  38.339  1.00  0.00     0.135 A 
ATOM     86  F   UNL A   1      41.596  35.705  36.065  1.00  0.00    -0.206 F 
ATOM     87  C   UNL A   1      40.642  36.653  37.988  1.00  0.00     0.059 A 
ATOM     88  C   UNL A   1      38.954  35.425  39.233  1.00  0.00     0.059 A 
ATOM     89  F   UNL A   1      38.315  33.284  38.523  1.00  0.00    -0.206 F 
ATOM     90  C   UNL A   1      39.737  36.565  39.047  1.00  0.00     0.060 A 
BRANCH  90  91
ATOM     91  S   UNL A   1      39.571  37.981  40.152  1.00  0.00     0.124 S 
ATOM     92  O   UNL A   1      40.802  38.714  39.881  1.00  0.00    -0.237 OA
ATOM     93  O   UNL A   1      38.341  38.606  39.670  1.00  0.00    -0.237 OA
ATOM     94  O   UNL A   1      39.481  37.373  41.476  1.00  0.00    -0.744 OA
ENDBRANCH  90  91
ENDBRANCH  58  83
ENDBRANCH  32  33
ENDBRANCH  25  27
ENDBRANCH  24  25
ENDBRANCH   1  24
TORSDOF 17
ENDMDL
MODEL 2
REMARK VINA RESULT:     -11.6      5.761     10.327
REMARK SMILES CCCc1cc2c(cc1Cl)C=C(C(=O)OCCOC(=O)c1ccc(-c3c4nc(c(-c5c(F)cc(S(=O)(=O)[O-])cc5F)c5ccc([nH]5)c(-c5c(F)cc(S(=O)(=O)[O-])cc5F)c5nc(c(-c6c(F)cc(S(=O)(=O)[O-])cc6F)c6ccc3[nH]6)C=C5)C=C4)cc1)[C@@H](C(F)(F)F)O2
REMARK SMILES IDX 17 1 16 2 15 3 13 4 14 5 12 6 4 7 5 8 9 9 6 10 8 11 10 12
REMARK SMILES IDX 7 13 92 14 11 15 87 16 3 17 2 18 1 19 88 20 89 21 90 22
REMARK SMILES IDX 91 23 18 24 19 25 20 26 21 27 22 28 86 29 23 30 85 31 24 32
REMARK SMILES IDX 25 33 26 34 79 35 27 36 84 37 78 38 80 39 28 40 83 41 77 42
REMARK SMILES IDX 76 43 29 45 63 46 42 47 62 48 43 49 46 50 61 51 81 52 44 53
REMARK SMILES IDX 45 54 60 56 82 57 47 58 30 59 31 60 40 61 32 62 33 63 39 64
REMARK SMILES IDX 41 65 34 66 35 67 36 68 37 69 38 70 64 71 65 72 74 73 66 74
REMARK SMILES IDX 67 75 73 76 75 77 68 78 69 79 70 80 71 81 72 82 48 83 49 84
REMARK SMILES IDX 58 85 50 86 51 87 57 88 59 89 52 90 53 91 54 92 55 93 56 94
REMARK H PARENT 80 44 46 55
REMARK Flexibility Score: inf
ROOT
ATOM      1  C   UNL A   1      32.787  28.974  26.946  1.00  0.00     0.275 C 
ENDROOT
BRANCH   1   2
ATOM      2  C   UNL A   1      32.956  28.774  25.436  1.00  0.00     0.275 C 
BRANCH   2   3
ATOM      3  O   UNL A   1      32.425  27.504  24.996  1.00  0.00    -0.459 OA
BRANCH   3   4
ATOM      4  C   UNL A   1      33.155  26.854  24.058  1.00  0.00     0.338 C 
ATOM      5  O   UNL A   1      33.753  27.369  23.124  1.00  0.00    -0.246 OA
BRANCH   4   6
ATOM      6  C   UNL A   1      33.208  25.406  24.349  1.00  0.00     0.087 C 
ATOM      7  C   UNL A   1      34.651  20.613  24.859  1.00  0.00    -0.026 A 
ATOM      8  C   UNL A   1      33.419  21.287  24.978  1.00  0.00     0.052 A 
ATOM      9  C   UNL A   1      35.821  21.390  24.765  1.00  0.00     0.045 A 
ATOM     10  C   UNL A   1      33.337  22.672  24.837  1.00  0.00     0.128 A 
ATOM     11  C   UNL A   1      35.744  22.776  24.655  1.00  0.00     0.032 A 
ATOM     12  Cl  UNL A   1      37.397  20.680  24.750  1.00  0.00    -0.084 Cl
ATOM     13  C   UNL A   1      34.498  23.403  24.627  1.00  0.00     0.019 A 
ATOM     14  O   UNL A   1      32.095  23.235  24.910  1.00  0.00    -0.475 OA
ATOM     15  C   UNL A   1      34.408  24.816  24.347  1.00  0.00     0.027 C 
ATOM     16  C   UNL A   1      31.934  24.625  24.496  1.00  0.00     0.316 C 
BRANCH   7  17
ATOM     17  C   UNL A   1      34.748  19.102  24.794  1.00  0.00     0.037 C 
BRANCH  17  18
ATOM     18  C   UNL A   1      33.520  18.315  24.324  1.00  0.00     0.001 C 
ATOM     19  C   UNL A   1      33.825  17.287  23.239  1.00  0.00     0.004 C 
ENDBRANCH  17  18
ENDBRANCH   7  17
BRANCH  16  20
ATOM     20  C   UNL A   1      31.156  24.656  23.168  1.00  0.00     0.430 C 
ATOM     21  F   UNL A   1      30.386  23.553  23.016  1.00  0.00    -0.167 F 
ATOM     22  F   UNL A   1      30.319  25.721  23.104  1.00  0.00    -0.167 F 
ATOM     23  F   UNL A   1      31.976  24.726  22.095  1.00  0.00    -0.167 F 
ENDBRANCH  16  20
ENDBRANCH   4   6
ENDBRANCH   3   4
ENDBRANCH   2   3
ENDBRANCH   1   2
BRANCH   1  24
ATOM     24  O   UNL A   1      34.049  28.908  27.635  1.00  0.00    -0.458 OA
BRANCH  24  25
ATOM     25  C   UNL A   1      34.554  30.105  28.012  1.00  0.00     0.338 C 
ATOM     26  O   UNL A   1      33.939  31.145  28.171  1.00  0.00    -0.246 OA
BRANCH  25  27
ATOM     27  C   UNL A   1      35.962  29.954  28.402  1.00  0.00     0.060 A 
ATOM     28  C   UNL A   1      36.371  29.509  29.648  1.00  0.00     0.016 A 
ATOM     29  C   UNL A   1      36.897  30.121  27.391  1.00  0.00     0.016 A 
ATOM     30  C   UNL A   1      37.736  29.265  29.860  1.00  0.00     0.010 A 
ATOM     31  C   UNL A   1      38.219  29.727  27.551  1.00  0.00     0.010 A 
ATOM     32  C   UNL A   1      38.679  29.341  28.806  1.00  0.00    -0.014 A 
BRANCH  32  33
ATOM     33  C   UNL A   1      40.124  29.036  29.027  1.00  0.00     0.031 A 
ATOM     34  C   UNL A   1      40.712  27.687  28.662  1.00  0.00     0.074 A 
ATOM     35  C   UNL A   1      40.923  29.985  29.559  1.00  0.00     0.049 A 
ATOM     36  N   UNL A   1      41.968  27.311  28.664  1.00  0.00    -0.248 NA
ATOM     37  C   UNL A   1      39.783  26.606  28.287  1.00  0.00     0.031 C 
ATOM     38  C   UNL A   1      40.466  31.275  30.083  1.00  0.00     0.029 A 
ATOM     39  N   UNL A   1      42.286  30.034  29.716  1.00  0.00    -0.354 N 
ATOM     40  C   UNL A   1      41.969  25.968  28.295  1.00  0.00     0.074 A 
ATOM     41  C   UNL A   1      40.591  25.563  28.179  1.00  0.00     0.031 C 
ATOM     42  C   UNL A   1      41.531  32.029  30.394  1.00  0.00     0.029 A 
ATOM     43  C   UNL A   1      42.746  31.263  30.138  1.00  0.00     0.049 A 
ATOM     44  H   UNL A   1      42.878  29.267  29.543  1.00  0.00     0.167 HD
ATOM     45  C   UNL A   1      43.018  25.160  28.009  1.00  0.00     0.037 A 
ATOM     46  C   UNL A   1      44.002  31.732  30.271  1.00  0.00     0.037 A 
ATOM     47  C   UNL A   1      44.389  25.586  28.070  1.00  0.00     0.049 A 
ATOM     48  C   UNL A   1      45.156  30.834  29.919  1.00  0.00     0.074 A 
ATOM     49  C   UNL A   1      45.525  24.882  27.716  1.00  0.00     0.029 A 
ATOM     50  N   UNL A   1      44.807  26.833  28.510  1.00  0.00    -0.354 N 
ATOM     51  N   UNL A   1      45.130  29.610  29.446  1.00  0.00    -0.248 NA
ATOM     52  C   UNL A   1      46.508  31.373  30.121  1.00  0.00     0.031 C 
ATOM     53  C   UNL A   1      46.635  25.685  27.989  1.00  0.00     0.029 A 
ATOM     54  C   UNL A   1      46.188  26.907  28.469  1.00  0.00     0.049 A 
ATOM     55  H   UNL A   1      44.211  27.557  28.807  1.00  0.00     0.167 HD
ATOM     56  C   UNL A   1      46.459  29.234  29.293  1.00  0.00     0.074 A 
ATOM     57  C   UNL A   1      47.263  30.370  29.693  1.00  0.00     0.031 C 
ATOM     58  C   UNL A   1      46.968  28.050  28.875  1.00  0.00     0.037 A 
BRANCH  45  59
ATOM     59  C   UNL A   1      42.726  23.755  27.549  1.00  0.00     0.058 A 
ATOM     60  C   UNL A   1      42.623  23.439  26.183  1.00  0.00     0.135 A 
ATOM     61  C   UNL A   1      42.605  22.701  28.470  1.00  0.00     0.135 A 
ATOM     62  F   UNL A   1      42.720  24.407  25.256  1.00  0.00    -0.206 F 
ATOM     63  C   UNL A   1      42.381  22.141  25.748  1.00  0.00     0.059 A 
ATOM     64  C   UNL A   1      42.394  21.386  28.056  1.00  0.00     0.059 A 
ATOM     65  F   UNL A   1      42.698  22.940  29.787  1.00  0.00    -0.206 F 
ATOM     66  C   UNL A   1      42.272  21.119  26.692  1.00  0.00     0.060 A 
BRANCH  66  67
ATOM     67  S   UNL A   1      41.980  19.439  26.102  1.00  0.00     0.124 S 
ATOM     68  O   UNL A   1      40.544  19.466  25.842  1.00  0.00    -0.237 OA
ATOM     69  O   UNL A   1      42.836  19.372  24.923  1.00  0.00    -0.237 OA
ATOM     70  O   UNL A   1      42.397  18.604  27.225  1.00  0.00    -0.744 OA
ENDBRANCH  66  67
ENDBRANCH  45  59
BRANCH  46  71
ATOM     71  C   UNL A   1      44.224  33.141  30.703  1.00  0.00     0.058 A 
ATOM     72  C   UNL A   1      44.280  34.182  29.764  1.00  0.00     0.135 A 
ATOM     73  C   UNL A   1      44.341  33.481  32.060  1.00  0.00     0.135 A 
ATOM     74  F   UNL A   1      44.178  33.912  28.454  1.00  0.00    -0.206 F 
ATOM     75  C   UNL A   1      44.447  35.508  30.153  1.00  0.00     0.059 A 
ATOM     76  C   UNL A   1      44.481  34.803  32.475  1.00  0.00     0.059 A 
ATOM     77  F   UNL A   1      44.278  32.526  33.000  1.00  0.00    -0.206 F 
ATOM     78  C   UNL A   1      44.538  35.809  31.513  1.00  0.00     0.060 A 
BRANCH  78  79
ATOM     79  S   UNL A   1      44.694  37.540  32.007  1.00  0.00     0.124 S 
ATOM     80  O   UNL A   1      44.306  37.482  33.411  1.00  0.00    -0.237 OA
ATOM     81  O   UNL A   1      46.106  37.804  31.744  1.00  0.00    -0.237 OA
ATOM     82  O   UNL A   1      43.760  38.229  31.122  1.00  0.00    -0.744 OA
ENDBRANCH  78  79
ENDBRANCH  46  71
BRANCH  58  83
ATOM     83  C   UNL A   1      48.462  27.899  28.847  1.00  0.00     0.058 A 
ATOM     84  C   UNL A   1      49.163  27.460  29.980  1.00  0.00     0.135 A 
ATOM     85  C   UNL A   1      49.180  28.074  27.653  1.00  0.00     0.135 A 
ATOM     86  F   UNL A   1      48.523  27.285  31.146  1.00  0.00    -0.206 F 
ATOM     87  C   UNL A   1      50.527  27.197  29.930  1.00  0.00     0.059 A 
ATOM     88  C   UNL A   1      50.539  27.791  27.573  1.00  0.00     0.059 A 
ATOM     89  F   UNL A   1      48.552  28.482  26.538  1.00  0.00    -0.206 F 
ATOM     90  C   UNL A   1      51.203  27.351  28.718  1.00  0.00     0.060 A 
BRANCH  90  91
ATOM     91  S   UNL A   1      52.956  26.928  28.656  1.00  0.00     0.124 S 
ATOM     92  O   UNL A   1      53.034  26.172  27.411  1.00  0.00    -0.237 OA
ATOM     93  O   UNL A   1      53.590  28.244  28.639  1.00  0.00    -0.237 OA
ATOM     94  O   UNL A   1      53.164  26.153  29.875  1.00  0.00    -0.744 OA
ENDBRANCH  90  91
ENDBRANCH  58  83
ENDBRANCH  32  33
ENDBRANCH  25  27
ENDBRANCH  24  25
ENDBRANCH   1  24
TORSDOF 17
ENDMDL
MODEL 3
REMARK VINA RESULT:     -11.3      5.597     10.094
REMARK SMILES CCCc1cc2c(cc1Cl)C=C(C(=O)OCCOC(=O)c1ccc(-c3c4nc(c(-c5c(F)cc(S(=O)(=O)[O-])cc5F)c5ccc([nH]5)c(-c5c(F)cc(S(=O)(=O)[O-])cc5F)c5nc(c(-c6c(F)cc(S(=O)(=O)[O-])cc6F)c6ccc3[nH]6)C=C5)C=C4)cc1)[C@@H](C(F)(F)F)O2
REMARK SMILES IDX 17 1 16 2 15 3 13 4 14 5 12 6 4 7 5 8 9 9 6 10 8 11 10 12
REMARK SMILES IDX 7 13 92 14 11 15 87 16 3 17 2 18 1 19 88 20 89 21 90 22
REMARK SMILES IDX 91 23 18 24 19 25 20 26 21 27 22 28 86 29 23 30 85 31 24 32
REMARK SMILES IDX 25 33 26 34 79 35 27 36 84 37 78 38 80 39 28 40 83 41 77 42
REMARK SMILES IDX 76 43 29 45 63 46 42 47 62 48 43 49 46 50 61 51 81 52 44 53
REMARK SMILES IDX 45 54 60 56 82 57 47 58 30 59 31 60 40 61 32 62 33 63 39 64
REMARK SMILES IDX 41 65 34 66 35 67 36 68 37 69 38 70 64 71 65 72 74 73 66 74
REMARK SMILES IDX 67 75 73 76 75 77 68 78 69 79 70 80 71 81 72 82 48 83 49 84
REMARK SMILES IDX 58 85 50 86 51 87 57 88 59 89 52 90 53 91 54 92 55 93 56 94
REMARK H PARENT 80 44 46 55
REMARK Flexibility Score: inf
ROOT
ATOM      1  C   UNL A   1      32.506  28.692  27.395  1.00  0.00     0.275 C 
ENDROOT
BRANCH   1   2
ATOM      2  C   UNL A   1      31.903  29.224  26.090  1.00  0.00     0.275 C 
BRANCH   2   3
ATOM      3  O   UNL A   1      32.256  28.402  24.956  1.00  0.00    -0.459 OA
BRANCH   3   4
ATOM      4  C   UNL A   1      31.264  27.621  24.464  1.00  0.00     0.338 C 
ATOM      5  O   UNL A   1      30.151  27.996  24.126  1.00  0.00    -0.246 OA
BRANCH   4   6
ATOM      6  C   UNL A   1      31.726  26.226  24.307  1.00  0.00     0.087 C 
ATOM      7  C   UNL A   1      33.833  21.711  25.005  1.00  0.00    -0.026 A 
ATOM      8  C   UNL A   1      33.223  22.352  23.908  1.00  0.00     0.052 A 
ATOM      9  C   UNL A   1      33.704  22.307  26.273  1.00  0.00     0.045 A 
ATOM     10  C   UNL A   1      32.657  23.620  24.037  1.00  0.00     0.128 A 
ATOM     11  C   UNL A   1      33.112  23.560  26.409  1.00  0.00     0.032 A 
ATOM     12  Cl  UNL A   1      34.292  21.548  27.711  1.00  0.00    -0.084 Cl
ATOM     13  C   UNL A   1      32.651  24.237  25.280  1.00  0.00     0.019 A 
ATOM     14  O   UNL A   1      32.140  24.192  22.909  1.00  0.00    -0.475 OA
ATOM     15  C   UNL A   1      32.190  25.600  25.395  1.00  0.00     0.027 C 
ATOM     16  C   UNL A   1      31.796  25.609  22.940  1.00  0.00     0.316 C 
BRANCH   7  17
ATOM     17  C   UNL A   1      34.639  20.436  24.856  1.00  0.00     0.037 C 
BRANCH  17  18
ATOM     18  C   UNL A   1      36.163  20.518  25.005  1.00  0.00     0.001 C 
ATOM     19  C   UNL A   1      36.776  21.767  24.381  1.00  0.00     0.004 C 
ENDBRANCH  17  18
ENDBRANCH   7  17
BRANCH  16  20
ATOM     20  C   UNL A   1      32.811  26.381  22.079  1.00  0.00     0.430 C 
ATOM     21  F   UNL A   1      33.973  26.587  22.744  1.00  0.00    -0.167 F 
ATOM     22  F   UNL A   1      33.130  25.701  20.950  1.00  0.00    -0.167 F 
ATOM     23  F   UNL A   1      32.345  27.593  21.699  1.00  0.00    -0.167 F 
ENDBRANCH  16  20
ENDBRANCH   4   6
ENDBRANCH   3   4
ENDBRANCH   2   3
ENDBRANCH   1   2
BRANCH   1  24
ATOM     24  O   UNL A   1      33.941  28.807  27.402  1.00  0.00    -0.458 OA
BRANCH  24  25
ATOM     25  C   UNL A   1      34.413  30.010  27.802  1.00  0.00     0.338 C 
ATOM     26  O   UNL A   1      33.776  31.040  27.941  1.00  0.00    -0.246 OA
BRANCH  25  27
ATOM     27  C   UNL A   1      35.807  29.879  28.244  1.00  0.00     0.060 A 
ATOM     28  C   UNL A   1      36.176  29.395  29.488  1.00  0.00     0.016 A 
ATOM     29  C   UNL A   1      36.778  30.109  27.282  1.00  0.00     0.016 A 
ATOM     30  C   UNL A   1      37.538  29.177  29.748  1.00  0.00     0.010 A 
ATOM     31  C   UNL A   1      38.102  29.743  27.481  1.00  0.00     0.010 A 
ATOM     32  C   UNL A   1      38.520  29.318  28.739  1.00  0.00    -0.014 A 
BRANCH  32  33
ATOM     33  C   UNL A   1      39.963  29.041  29.008  1.00  0.00     0.031 A 
ATOM     34  C   UNL A   1      40.590  27.706  28.656  1.00  0.00     0.074 A 
ATOM     35  C   UNL A   1      40.723  30.002  29.574  1.00  0.00     0.049 A 
ATOM     36  N   UNL A   1      41.853  27.356  28.700  1.00  0.00    -0.248 NA
ATOM     37  C   UNL A   1      39.698  26.610  28.241  1.00  0.00     0.031 C 
ATOM     38  C   UNL A   1      40.222  31.279  30.089  1.00  0.00     0.029 A 
ATOM     39  N   UNL A   1      42.079  30.077  29.778  1.00  0.00    -0.354 N 
ATOM     40  C   UNL A   1      41.894  26.016  28.322  1.00  0.00     0.074 A 
ATOM     41  C   UNL A   1      40.530  25.583  28.156  1.00  0.00     0.031 C 
ATOM     42  C   UNL A   1      41.260  32.052  30.442  1.00  0.00     0.029 A 
ATOM     43  C   UNL A   1      42.498  31.312  30.224  1.00  0.00     0.049 A 
ATOM     44  H   UNL A   1      42.692  29.324  29.622  1.00  0.00     0.167 HD
ATOM     45  C   UNL A   1      42.969  25.231  28.068  1.00  0.00     0.037 A 
ATOM     46  C   UNL A   1      43.739  31.806  30.404  1.00  0.00     0.037 A 
ATOM     47  C   UNL A   1      44.328  25.684  28.180  1.00  0.00     0.049 A 
ATOM     48  C   UNL A   1      44.923  30.933  30.087  1.00  0.00     0.074 A 
ATOM     49  C   UNL A   1      45.489  25.005  27.862  1.00  0.00     0.029 A 
ATOM     50  N   UNL A   1      44.705  26.936  28.642  1.00  0.00    -0.354 N 
ATOM     51  N   UNL A   1      44.938  29.713  29.605  1.00  0.00    -0.248 NA
ATOM     52  C   UNL A   1      46.255  31.498  30.340  1.00  0.00     0.031 C 
ATOM     53  C   UNL A   1      46.572  25.828  28.178  1.00  0.00     0.029 A 
ATOM     54  C   UNL A   1      46.084  27.038  28.650  1.00  0.00     0.049 A 
ATOM     55  H   UNL A   1      44.084  27.645  28.923  1.00  0.00     0.167 HD
ATOM     56  C   UNL A   1      46.279  29.364  29.497  1.00  0.00     0.074 A 
ATOM     57  C   UNL A   1      47.046  30.514  29.932  1.00  0.00     0.031 C 
ATOM     58  C   UNL A   1      46.827  28.193  29.089  1.00  0.00     0.037 A 
BRANCH  45  59
ATOM     59  C   UNL A   1      42.722  23.823  27.589  1.00  0.00     0.058 A 
ATOM     60  C   UNL A   1      42.564  22.760  28.494  1.00  0.00     0.135 A 
ATOM     61  C   UNL A   1      42.583  23.537  26.220  1.00  0.00     0.135 A 
ATOM     62  F   UNL A   1      42.695  22.970  29.814  1.00  0.00    -0.206 F 
ATOM     63  C   UNL A   1      42.308  21.463  28.061  1.00  0.00     0.059 A 
ATOM     64  C   UNL A   1      42.296  22.252  25.765  1.00  0.00     0.059 A 
ATOM     65  F   UNL A   1      42.720  24.513  25.309  1.00  0.00    -0.206 F 
ATOM     66  C   UNL A   1      42.172  21.219  26.694  1.00  0.00     0.060 A 
BRANCH  66  67
ATOM     67  S   UNL A   1      41.819  19.532  26.159  1.00  0.00     0.124 S 
ATOM     68  O   UNL A   1      42.672  19.414  24.980  1.00  0.00    -0.237 OA
ATOM     69  O   UNL A   1      42.230  18.747  27.318  1.00  0.00    -0.237 OA
ATOM     70  O   UNL A   1      40.383  19.550  25.894  1.00  0.00    -0.744 OA
ENDBRANCH  66  67
ENDBRANCH  45  59
BRANCH  46  71
ATOM     71  C   UNL A   1      43.917  33.215  30.852  1.00  0.00     0.058 A 
ATOM     72  C   UNL A   1      44.003  34.262  29.921  1.00  0.00     0.135 A 
ATOM     73  C   UNL A   1      43.962  33.550  32.214  1.00  0.00     0.135 A 
ATOM     74  F   UNL A   1      43.970  33.997  28.607  1.00  0.00    -0.206 F 
ATOM     75  C   UNL A   1      44.129  35.589  30.324  1.00  0.00     0.059 A 
ATOM     76  C   UNL A   1      44.061  34.872  32.641  1.00  0.00     0.059 A 
ATOM     77  F   UNL A   1      43.868  32.590  33.146  1.00  0.00    -0.206 F 
ATOM     78  C   UNL A   1      44.149  35.885  31.687  1.00  0.00     0.060 A 
BRANCH  78  79
ATOM     79  S   UNL A   1      44.253  37.615  32.195  1.00  0.00     0.124 S 
ATOM     80  O   UNL A   1      45.672  37.746  32.506  1.00  0.00    -0.237 OA
ATOM     81  O   UNL A   1      43.795  38.310  30.996  1.00  0.00    -0.237 OA
ATOM     82  O   UNL A   1      43.347  37.687  33.338  1.00  0.00    -0.744 OA
ENDBRANCH  78  79
ENDBRANCH  46  71
BRANCH  58  83
ATOM     83  C   UNL A   1      48.323  28.073  29.113  1.00  0.00     0.058 A 
ATOM     84  C   UNL A   1      48.988  27.559  30.237  1.00  0.00     0.135 A 
ATOM     85  C   UNL A   1      49.085  28.355  27.967  1.00  0.00     0.135 A 
ATOM     86  F   UNL A   1      48.304  27.280  31.357  1.00  0.00    -0.206 F 
ATOM     87  C   UNL A   1      50.357  27.326  30.224  1.00  0.00     0.059 A 
ATOM     88  C   UNL A   1      50.453  28.104  27.923  1.00  0.00     0.059 A 
ATOM     89  F   UNL A   1      48.494  28.839  26.863  1.00  0.00    -0.206 F 
ATOM     90  C   UNL A   1      51.079  27.588  29.058  1.00  0.00     0.060 A 
BRANCH  90  91
ATOM     91  S   UNL A   1      52.842  27.203  29.036  1.00  0.00     0.124 S 
ATOM     92  O   UNL A   1      52.965  26.449  27.794  1.00  0.00    -0.237 OA
ATOM     93  O   UNL A   1      53.447  28.533  29.034  1.00  0.00    -0.237 OA
ATOM     94  O   UNL A   1      53.038  26.433  30.261  1.00  0.00    -0.744 OA
ENDBRANCH  90  91
ENDBRANCH  58  83
ENDBRANCH  32  33
ENDBRANCH  25  27
ENDBRANCH  24  25
ENDBRANCH   1  24
TORSDOF 17
ENDMDL
