MODEL 1
REMARK VINA RESULT:     -10.5      0.000      0.000
REMARK SMILES Cc1ccc(/C=C/C(=O)N[C@@H](CO)C(=O)OCCOC(=O)c2ccc(-c3c4nc(c(-c5c(F)cc(S(=O)(=O)[O-])cc5F)c5ccc([nH]5)c(-c5c(F)cc(S(=O)(=O)[O-])cc5F)c5nc(c(-c6c(F)cc(S(=O)(=O)[O-])cc6F)c6ccc3[nH]6)C=C5)C=C4)cc2)o1
REMARK SMILES IDX 17 1 16 2 14 3 15 4 11 5 10 6 8 7 9 8 7 10 6 11 5 12 1 13
REMARK SMILES IDX 2 14 3 15 88 16 4 17 12 18 13 19 18 21 19 22 20 23 21 24
REMARK SMILES IDX 22 25 23 26 87 27 24 28 86 29 25 30 26 31 27 32 80 33 28 34
REMARK SMILES IDX 85 35 79 36 81 37 29 38 84 39 78 40 77 41 30 43 64 44 43 45
REMARK SMILES IDX 63 46 44 47 47 48 62 49 82 50 45 51 46 52 61 54 83 55 48 56
REMARK SMILES IDX 31 57 32 58 41 59 33 60 34 61 40 62 42 63 35 64 36 65 37 66
REMARK SMILES IDX 38 67 39 68 65 69 66 70 75 71 67 72 68 73 74 74 76 75 69 76
REMARK SMILES IDX 70 77 71 78 72 79 73 80 49 81 50 82 59 83 51 84 52 85 58 86
REMARK SMILES IDX 60 87 53 88 54 89 55 90 56 91 57 92
REMARK H PARENT 10 9 13 20 81 42 47 53
REMARK Flexibility Score: inf
ROOT
ATOM      1  C   UNL A   1      44.346  22.522  25.362  1.00  0.00     0.274 C 
ENDROOT
BRANCH   1   2
ATOM      2  O   UNL A   1      44.932  21.953  24.175  1.00  0.00    -0.460 OA
BRANCH   2   3
ATOM      3  C   UNL A   1      44.812  20.604  24.041  1.00  0.00     0.331 C 
ATOM      4  O   UNL A   1      44.483  20.027  23.010  1.00  0.00    -0.250 OA
BRANCH   3   5
ATOM      5  C   UNL A   1      45.129  19.848  25.337  1.00  0.00     0.218 C 
BRANCH   5   6
ATOM      6  N   UNL A   1      44.271  18.687  25.611  1.00  0.00    -0.337 N 
ATOM      7  C   UNL A   1      42.952  18.586  25.922  1.00  0.00     0.244 C 
ATOM      8  O   UNL A   1      42.470  17.473  26.117  1.00  0.00    -0.270 OA
ATOM      9  H   UNL A   1      44.738  17.822  25.560  1.00  0.00     0.164 HD
BRANCH   7  10
ATOM     10  C   UNL A   1      42.074  19.775  25.939  1.00  0.00     0.075 C 
ATOM     11  C   UNL A   1      40.841  19.824  26.463  1.00  0.00     0.053 C 
BRANCH  11  12
ATOM     12  C   UNL A   1      40.122  21.051  26.492  1.00  0.00     0.127 A 
ATOM     13  C   UNL A   1      37.364  23.042  25.305  1.00  0.00     0.087 C 
ATOM     14  C   UNL A   1      38.592  22.583  25.989  1.00  0.00     0.101 A 
ATOM     15  C   UNL A   1      39.456  23.188  26.869  1.00  0.00     0.046 A 
ATOM     16  O   UNL A   1      38.996  21.307  25.741  1.00  0.00    -0.462 OA
ATOM     17  C   UNL A   1      40.414  22.205  27.212  1.00  0.00     0.050 A 
ENDBRANCH  11  12
ENDBRANCH   7  10
ENDBRANCH   5   6
BRANCH   5  18
ATOM     18  C   UNL A   1      46.599  19.413  25.295  1.00  0.00     0.193 C 
BRANCH  18  19
ATOM     19  O   UNL A   1      47.243  19.879  24.105  1.00  0.00    -0.394 OA
ATOM     20  H   UNL A   1      47.047  19.274  23.373  1.00  0.00     0.210 HD
ENDBRANCH  18  19
ENDBRANCH   5  18
ENDBRANCH   3   5
ENDBRANCH   2   3
ENDBRANCH   1   2
BRANCH   1  21
ATOM     21  C   UNL A   1      43.624  23.825  25.028  1.00  0.00     0.275 C 
BRANCH  21  22
ATOM     22  O   UNL A   1      42.933  24.324  26.188  1.00  0.00    -0.458 OA
BRANCH  22  23
ATOM     23  C   UNL A   1      42.341  25.529  26.022  1.00  0.00     0.338 C 
ATOM     24  O   UNL A   1      41.857  25.985  25.000  1.00  0.00    -0.246 OA
BRANCH  23  25
ATOM     25  C   UNL A   1      42.288  26.231  27.309  1.00  0.00     0.060 A 
ATOM     26  C   UNL A   1      41.421  25.756  28.290  1.00  0.00     0.016 A 
ATOM     27  C   UNL A   1      42.981  27.427  27.495  1.00  0.00     0.016 A 
ATOM     28  C   UNL A   1      41.193  26.511  29.437  1.00  0.00     0.010 A 
ATOM     29  C   UNL A   1      42.789  28.156  28.675  1.00  0.00     0.010 A 
ATOM     30  C   UNL A   1      41.864  27.725  29.642  1.00  0.00    -0.014 A 
BRANCH  30  31
ATOM     31  C   UNL A   1      41.536  28.562  30.830  1.00  0.00     0.031 A 
ATOM     32  C   UNL A   1      40.350  29.491  30.797  1.00  0.00     0.074 A 
ATOM     33  C   UNL A   1      42.269  28.469  31.959  1.00  0.00     0.049 A 
ATOM     34  N   UNL A   1      39.978  30.388  31.676  1.00  0.00    -0.248 NA
ATOM     35  C   UNL A   1      39.467  29.401  29.623  1.00  0.00     0.031 C 
ATOM     36  C   UNL A   1      43.417  27.583  32.152  1.00  0.00     0.029 A 
ATOM     37  N   UNL A   1      42.155  29.130  33.158  1.00  0.00    -0.354 N 
ATOM     38  C   UNL A   1      38.858  31.009  31.136  1.00  0.00     0.074 A 
ATOM     39  C   UNL A   1      38.601  30.378  29.858  1.00  0.00     0.031 C 
ATOM     40  C   UNL A   1      43.885  27.735  33.401  1.00  0.00     0.029 A 
ATOM     41  C   UNL A   1      43.117  28.778  34.075  1.00  0.00     0.049 A 
ATOM     42  H   UNL A   1      41.450  29.791  33.343  1.00  0.00     0.167 HD
ATOM     43  C   UNL A   1      38.112  32.013  31.655  1.00  0.00     0.037 A 
ATOM     44  C   UNL A   1      43.380  29.263  35.304  1.00  0.00     0.037 A 
ATOM     45  C   UNL A   1      38.327  32.604  32.951  1.00  0.00     0.049 A 
ATOM     46  C   UNL A   1      42.546  30.384  35.856  1.00  0.00     0.074 A 
ATOM     47  C   UNL A   1      37.604  33.613  33.565  1.00  0.00     0.029 A 
ATOM     48  N   UNL A   1      39.327  32.233  33.835  1.00  0.00    -0.354 N 
ATOM     49  N   UNL A   1      41.518  30.989  35.312  1.00  0.00    -0.248 NA
ATOM     50  C   UNL A   1      42.920  30.902  37.180  1.00  0.00     0.031 C 
ATOM     51  C   UNL A   1      38.183  33.868  34.814  1.00  0.00     0.029 A 
ATOM     52  C   UNL A   1      39.246  32.998  34.987  1.00  0.00     0.049 A 
ATOM     53  H   UNL A   1      39.995  31.530  33.669  1.00  0.00     0.167 HD
ATOM     54  C   UNL A   1      41.126  31.962  36.224  1.00  0.00     0.074 A 
ATOM     55  C   UNL A   1      42.008  31.848  37.366  1.00  0.00     0.031 C 
ATOM     56  C   UNL A   1      40.130  32.876  36.117  1.00  0.00     0.037 A 
BRANCH  43  57
ATOM     57  C   UNL A   1      37.006  32.569  30.805  1.00  0.00     0.058 A 
ATOM     58  C   UNL A   1      37.246  33.530  29.812  1.00  0.00     0.135 A 
ATOM     59  C   UNL A   1      35.694  32.095  30.962  1.00  0.00     0.135 A 
ATOM     60  F   UNL A   1      38.481  34.024  29.635  1.00  0.00    -0.206 F 
ATOM     61  C   UNL A   1      36.216  34.014  29.011  1.00  0.00     0.059 A 
ATOM     62  C   UNL A   1      34.653  32.553  30.161  1.00  0.00     0.059 A 
ATOM     63  F   UNL A   1      35.415  31.177  31.900  1.00  0.00    -0.206 F 
ATOM     64  C   UNL A   1      34.922  33.521  29.195  1.00  0.00     0.060 A 
BRANCH  64  65
ATOM     65  S   UNL A   1      33.594  34.145  28.143  1.00  0.00     0.124 S 
ATOM     66  O   UNL A   1      34.336  34.978  27.203  1.00  0.00    -0.237 OA
ATOM     67  O   UNL A   1      33.026  32.918  27.591  1.00  0.00    -0.237 OA
ATOM     68  O   UNL A   1      32.733  34.863  29.076  1.00  0.00    -0.744 OA
ENDBRANCH  64  65
ENDBRANCH  43  57
BRANCH  44  69
ATOM     69  C   UNL A   1      44.521  28.716  36.083  1.00  0.00     0.058 A 
ATOM     70  C   UNL A   1      45.808  29.257  35.955  1.00  0.00     0.135 A 
ATOM     71  C   UNL A   1      44.342  27.651  36.980  1.00  0.00     0.135 A 
ATOM     72  F   UNL A   1      46.029  30.268  35.102  1.00  0.00    -0.206 F 
ATOM     73  C   UNL A   1      46.881  28.758  36.686  1.00  0.00     0.059 A 
ATOM     74  C   UNL A   1      45.394  27.151  37.738  1.00  0.00     0.059 A 
ATOM     75  F   UNL A   1      43.125  27.108  37.144  1.00  0.00    -0.206 F 
ATOM     76  C   UNL A   1      46.663  27.706  37.577  1.00  0.00     0.060 A 
BRANCH  76  77
ATOM     77  S   UNL A   1      48.040  27.105  38.579  1.00  0.00     0.124 S 
ATOM     78  O   UNL A   1      47.544  25.803  39.007  1.00  0.00    -0.237 OA
ATOM     79  O   UNL A   1      49.140  27.085  37.619  1.00  0.00    -0.237 OA
ATOM     80  O   UNL A   1      48.153  28.118  39.625  1.00  0.00    -0.744 OA
ENDBRANCH  76  77
ENDBRANCH  44  69
BRANCH  56  81
ATOM     81  C   UNL A   1      39.936  33.818  37.269  1.00  0.00     0.058 A 
ATOM     82  C   UNL A   1      40.655  35.020  37.358  1.00  0.00     0.135 A 
ATOM     83  C   UNL A   1      38.991  33.539  38.270  1.00  0.00     0.135 A 
ATOM     84  F   UNL A   1      41.573  35.327  36.428  1.00  0.00    -0.206 F 
ATOM     85  C   UNL A   1      40.458  35.906  38.411  1.00  0.00     0.059 A 
ATOM     86  C   UNL A   1      38.766  34.420  39.323  1.00  0.00     0.059 A 
ATOM     87  F   UNL A   1      38.274  32.405  38.225  1.00  0.00    -0.206 F 
ATOM     88  C   UNL A   1      39.512  35.597  39.391  1.00  0.00     0.060 A 
BRANCH  88  89
ATOM     89  S   UNL A   1      39.241  36.766  40.740  1.00  0.00     0.124 S 
ATOM     90  O   UNL A   1      40.608  37.154  41.070  1.00  0.00    -0.237 OA
ATOM     91  O   UNL A   1      38.424  37.797  40.106  1.00  0.00    -0.237 OA
ATOM     92  O   UNL A   1      38.553  35.964  41.747  1.00  0.00    -0.744 OA
ENDBRANCH  88  89
ENDBRANCH  56  81
ENDBRANCH  30  31
ENDBRANCH  23  25
ENDBRANCH  22  23
ENDBRANCH  21  22
ENDBRANCH   1  21
TORSDOF 19
ENDMDL
MODEL 2
REMARK VINA RESULT:     -10.2      0.676      8.422
REMARK SMILES Cc1ccc(/C=C/C(=O)N[C@@H](CO)C(=O)OCCOC(=O)c2ccc(-c3c4nc(c(-c5c(F)cc(S(=O)(=O)[O-])cc5F)c5ccc([nH]5)c(-c5c(F)cc(S(=O)(=O)[O-])cc5F)c5nc(c(-c6c(F)cc(S(=O)(=O)[O-])cc6F)c6ccc3[nH]6)C=C5)C=C4)cc2)o1
REMARK SMILES IDX 17 1 16 2 14 3 15 4 11 5 10 6 8 7 9 8 7 10 6 11 5 12 1 13
REMARK SMILES IDX 2 14 3 15 88 16 4 17 12 18 13 19 18 21 19 22 20 23 21 24
REMARK SMILES IDX 22 25 23 26 87 27 24 28 86 29 25 30 26 31 27 32 80 33 28 34
REMARK SMILES IDX 85 35 79 36 81 37 29 38 84 39 78 40 77 41 30 43 64 44 43 45
REMARK SMILES IDX 63 46 44 47 47 48 62 49 82 50 45 51 46 52 61 54 83 55 48 56
REMARK SMILES IDX 31 57 32 58 41 59 33 60 34 61 40 62 42 63 35 64 36 65 37 66
REMARK SMILES IDX 38 67 39 68 65 69 66 70 75 71 67 72 68 73 74 74 76 75 69 76
REMARK SMILES IDX 70 77 71 78 72 79 73 80 49 81 50 82 59 83 51 84 52 85 58 86
REMARK SMILES IDX 60 87 53 88 54 89 55 90 56 91 57 92
REMARK H PARENT 10 9 13 20 81 42 47 53
REMARK Flexibility Score: inf
ROOT
ATOM      1  C   UNL A   1      43.987  23.024  24.342  1.00  0.00     0.274 C 
ENDROOT
BRANCH   1   2
ATOM      2  O   UNL A   1      44.481  21.979  25.201  1.00  0.00    -0.460 OA
BRANCH   2   3
ATOM      3  C   UNL A   1      44.713  20.778  24.604  1.00  0.00     0.331 C 
ATOM      4  O   UNL A   1      44.531  20.540  23.415  1.00  0.00    -0.250 OA
BRANCH   3   5
ATOM      5  C   UNL A   1      45.230  19.718  25.582  1.00  0.00     0.218 C 
BRANCH   5   6
ATOM      6  N   UNL A   1      44.351  18.554  25.767  1.00  0.00    -0.337 N 
ATOM      7  C   UNL A   1      43.032  18.453  26.075  1.00  0.00     0.244 C 
ATOM      8  O   UNL A   1      42.529  17.337  26.183  1.00  0.00    -0.270 OA
ATOM      9  H   UNL A   1      44.802  17.688  25.645  1.00  0.00     0.164 HD
BRANCH   7  10
ATOM     10  C   UNL A   1      42.175  19.652  26.191  1.00  0.00     0.075 C 
ATOM     11  C   UNL A   1      40.837  19.662  26.121  1.00  0.00     0.053 C 
BRANCH  11  12
ATOM     12  C   UNL A   1      40.117  20.871  26.329  1.00  0.00     0.127 A 
ATOM     13  C   UNL A   1      37.253  22.927  25.584  1.00  0.00     0.087 C 
ATOM     14  C   UNL A   1      38.539  22.423  26.110  1.00  0.00     0.101 A 
ATOM     15  C   UNL A   1      39.476  22.954  26.963  1.00  0.00     0.046 A 
ATOM     16  O   UNL A   1      38.927  21.181  25.709  1.00  0.00    -0.462 OA
ATOM     17  C   UNL A   1      40.466  21.957  27.125  1.00  0.00     0.050 A 
ENDBRANCH  11  12
ENDBRANCH   7  10
ENDBRANCH   5   6
BRANCH   5  18
ATOM     18  C   UNL A   1      46.613  19.257  25.108  1.00  0.00     0.193 C 
BRANCH  18  19
ATOM     19  O   UNL A   1      47.151  18.257  25.977  1.00  0.00    -0.394 OA
ATOM     20  H   UNL A   1      46.547  18.118  26.724  1.00  0.00     0.210 HD
ENDBRANCH  18  19
ENDBRANCH   5  18
ENDBRANCH   3   5
ENDBRANCH   2   3
ENDBRANCH   1   2
BRANCH   1  21
ATOM     21  C   UNL A   1      43.948  24.355  25.089  1.00  0.00     0.275 C 
BRANCH  21  22
ATOM     22  O   UNL A   1      42.874  24.359  26.047  1.00  0.00    -0.458 OA
BRANCH  22  23
ATOM     23  C   UNL A   1      42.019  25.401  25.938  1.00  0.00     0.338 C 
ATOM     24  O   UNL A   1      41.278  25.661  25.004  1.00  0.00    -0.246 OA
BRANCH  23  25
ATOM     25  C   UNL A   1      42.040  26.186  27.176  1.00  0.00     0.060 A 
ATOM     26  C   UNL A   1      41.182  25.821  28.210  1.00  0.00     0.016 A 
ATOM     27  C   UNL A   1      42.796  27.355  27.263  1.00  0.00     0.016 A 
ATOM     28  C   UNL A   1      41.028  26.658  29.311  1.00  0.00     0.010 A 
ATOM     29  C   UNL A   1      42.677  28.168  28.398  1.00  0.00     0.010 A 
ATOM     30  C   UNL A   1      41.763  27.847  29.417  1.00  0.00    -0.014 A 
BRANCH  30  31
ATOM     31  C   UNL A   1      41.514  28.774  30.556  1.00  0.00     0.031 A 
ATOM     32  C   UNL A   1      42.411  28.744  31.766  1.00  0.00     0.074 A 
ATOM     33  C   UNL A   1      40.511  29.675  30.502  1.00  0.00     0.049 A 
ATOM     34  N   UNL A   1      42.284  29.377  32.906  1.00  0.00    -0.248 NA
ATOM     35  C   UNL A   1      43.607  27.890  31.687  1.00  0.00     0.031 C 
ATOM     36  C   UNL A   1      39.590  29.850  29.379  1.00  0.00     0.029 A 
ATOM     37  N   UNL A   1      40.101  30.615  31.416  1.00  0.00    -0.354 N 
ATOM     38  C   UNL A   1      43.345  28.954  33.698  1.00  0.00     0.074 A 
ATOM     39  C   UNL A   1      44.116  28.019  32.905  1.00  0.00     0.031 C 
ATOM     40  C   UNL A   1      38.741  30.851  29.658  1.00  0.00     0.029 A 
ATOM     41  C   UNL A   1      39.010  31.344  31.005  1.00  0.00     0.049 A 
ATOM     42  H   UNL A   1      40.547  30.754  32.283  1.00  0.00     0.167 HD
ATOM     43  C   UNL A   1      43.649  29.309  34.968  1.00  0.00     0.037 A 
ATOM     44  C   UNL A   1      38.281  32.275  31.651  1.00  0.00     0.037 A 
ATOM     45  C   UNL A   1      42.922  30.283  35.741  1.00  0.00     0.049 A 
ATOM     46  C   UNL A   1      38.631  32.647  33.063  1.00  0.00     0.074 A 
ATOM     47  C   UNL A   1      43.174  30.719  37.031  1.00  0.00     0.029 A 
ATOM     48  N   UNL A   1      41.810  30.978  35.293  1.00  0.00    -0.354 N 
ATOM     49  N   UNL A   1      39.611  32.203  33.812  1.00  0.00    -0.248 NA
ATOM     50  C   UNL A   1      37.762  33.630  33.727  1.00  0.00     0.031 C 
ATOM     51  C   UNL A   1      42.199  31.664  37.371  1.00  0.00     0.029 A 
ATOM     52  C   UNL A   1      41.359  31.835  36.284  1.00  0.00     0.049 A 
ATOM     53  H   UNL A   1      41.401  30.878  34.404  1.00  0.00     0.167 HD
ATOM     54  C   UNL A   1      39.475  32.849  35.035  1.00  0.00     0.074 A 
ATOM     55  C   UNL A   1      38.335  33.735  34.919  1.00  0.00     0.031 C 
ATOM     56  C   UNL A   1      40.223  32.711  36.157  1.00  0.00     0.037 A 
BRANCH  43  57
ATOM     57  C   UNL A   1      44.807  28.615  35.626  1.00  0.00     0.058 A 
ATOM     58  C   UNL A   1      44.646  27.419  36.340  1.00  0.00     0.135 A 
ATOM     59  C   UNL A   1      46.104  29.138  35.498  1.00  0.00     0.135 A 
ATOM     60  F   UNL A   1      43.424  26.890  36.502  1.00  0.00    -0.206 F 
ATOM     61  C   UNL A   1      45.732  26.771  36.919  1.00  0.00     0.059 A 
ATOM     62  C   UNL A   1      47.206  28.497  36.054  1.00  0.00     0.059 A 
ATOM     63  F   UNL A   1      46.309  30.281  34.826  1.00  0.00    -0.206 F 
ATOM     64  C   UNL A   1      47.009  27.319  36.773  1.00  0.00     0.060 A 
BRANCH  64  65
ATOM     65  S   UNL A   1      48.416  26.465  37.516  1.00  0.00     0.124 S 
ATOM     66  O   UNL A   1      47.923  25.092  37.574  1.00  0.00    -0.237 OA
ATOM     67  O   UNL A   1      49.482  26.715  36.551  1.00  0.00    -0.237 OA
ATOM     68  O   UNL A   1      48.573  27.131  38.805  1.00  0.00    -0.744 OA
ENDBRANCH  64  65
ENDBRANCH  43  57
BRANCH  44  69
ATOM     69  C   UNL A   1      37.110  32.892  30.975  1.00  0.00     0.058 A 
ATOM     70  C   UNL A   1      37.280  33.885  29.999  1.00  0.00     0.135 A 
ATOM     71  C   UNL A   1      35.800  32.491  31.283  1.00  0.00     0.135 A 
ATOM     72  F   UNL A   1      38.513  34.308  29.680  1.00  0.00    -0.206 F 
ATOM     73  C   UNL A   1      36.192  34.463  29.354  1.00  0.00     0.059 A 
ATOM     74  C   UNL A   1      34.699  33.037  30.635  1.00  0.00     0.059 A 
ATOM     75  F   UNL A   1      35.589  31.537  32.202  1.00  0.00    -0.206 F 
ATOM     76  C   UNL A   1      34.905  34.030  29.677  1.00  0.00     0.060 A 
BRANCH  76  77
ATOM     77  S   UNL A   1      33.496  34.728  28.790  1.00  0.00     0.124 S 
ATOM     78  O   UNL A   1      34.090  35.911  28.181  1.00  0.00    -0.237 OA
ATOM     79  O   UNL A   1      33.137  33.650  27.874  1.00  0.00    -0.237 OA
ATOM     80  O   UNL A   1      32.528  34.979  29.855  1.00  0.00    -0.744 OA
ENDBRANCH  76  77
ENDBRANCH  44  69
BRANCH  56  81
ATOM     81  C   UNL A   1      39.838  33.542  37.346  1.00  0.00     0.058 A 
ATOM     82  C   UNL A   1      38.872  33.099  38.264  1.00  0.00     0.135 A 
ATOM     83  C   UNL A   1      40.470  34.771  37.595  1.00  0.00     0.135 A 
ATOM     84  F   UNL A   1      38.237  31.934  38.065  1.00  0.00    -0.206 F 
ATOM     85  C   UNL A   1      38.532  33.856  39.380  1.00  0.00     0.059 A 
ATOM     86  C   UNL A   1      40.158  35.535  38.714  1.00  0.00     0.059 A 
ATOM     87  F   UNL A   1      41.405  35.233  36.750  1.00  0.00    -0.206 F 
ATOM     88  C   UNL A   1      39.179  35.075  39.597  1.00  0.00     0.060 A 
BRANCH  88  89
ATOM     89  S   UNL A   1      38.754  36.039  41.063  1.00  0.00     0.124 S 
ATOM     90  O   UNL A   1      40.002  35.990  41.817  1.00  0.00    -0.237 OA
ATOM     91  O   UNL A   1      38.405  37.339  40.497  1.00  0.00    -0.237 OA
ATOM     92  O   UNL A   1      37.638  35.296  41.641  1.00  0.00    -0.744 OA
ENDBRANCH  88  89
ENDBRANCH  56  81
ENDBRANCH  30  31
ENDBRANCH  23  25
ENDBRANCH  22  23
ENDBRANCH  21  22
ENDBRANCH   1  21
TORSDOF 19
ENDMDL
MODEL 3
REMARK VINA RESULT:     -10.0      6.321     14.047
REMARK SMILES Cc1ccc(/C=C/C(=O)N[C@@H](CO)C(=O)OCCOC(=O)c2ccc(-c3c4nc(c(-c5c(F)cc(S(=O)(=O)[O-])cc5F)c5ccc([nH]5)c(-c5c(F)cc(S(=O)(=O)[O-])cc5F)c5nc(c(-c6c(F)cc(S(=O)(=O)[O-])cc6F)c6ccc3[nH]6)C=C5)C=C4)cc2)o1
REMARK SMILES IDX 17 1 16 2 14 3 15 4 11 5 10 6 8 7 9 8 7 10 6 11 5 12 1 13
REMARK SMILES IDX 2 14 3 15 88 16 4 17 12 18 13 19 18 21 19 22 20 23 21 24
REMARK SMILES IDX 22 25 23 26 87 27 24 28 86 29 25 30 26 31 27 32 80 33 28 34
REMARK SMILES IDX 85 35 79 36 81 37 29 38 84 39 78 40 77 41 30 43 64 44 43 45
REMARK SMILES IDX 63 46 44 47 47 48 62 49 82 50 45 51 46 52 61 54 83 55 48 56
REMARK SMILES IDX 31 57 32 58 41 59 33 60 34 61 40 62 42 63 35 64 36 65 37 66
REMARK SMILES IDX 38 67 39 68 65 69 66 70 75 71 67 72 68 73 74 74 76 75 69 76
REMARK SMILES IDX 70 77 71 78 72 79 73 80 49 81 50 82 59 83 51 84 52 85 58 86
REMARK SMILES IDX 60 87 53 88 54 89 55 90 56 91 57 92
REMARK H PARENT 10 9 13 20 81 42 47 53
REMARK Flexibility Score: inf
ROOT
ATOM      1  C   UNL A   1      35.863  33.307  33.612  1.00  0.00     0.274 C 
ENDROOT
BRANCH   1   2
ATOM      2  O   UNL A   1      35.422  33.855  32.355  1.00  0.00    -0.460 OA
BRANCH   2   3
ATOM      3  C   UNL A   1      34.225  34.502  32.375  1.00  0.00     0.331 C 
ATOM      4  O   UNL A   1      33.154  33.987  32.680  1.00  0.00    -0.250 OA
BRANCH   3   5
ATOM      5  C   UNL A   1      34.338  35.973  31.963  1.00  0.00     0.218 C 
BRANCH   5   6
ATOM      6  N   UNL A   1      33.457  36.386  30.861  1.00  0.00    -0.337 N 
ATOM      7  C   UNL A   1      33.229  35.852  29.633  1.00  0.00     0.244 C 
ATOM      8  O   UNL A   1      32.433  36.408  28.880  1.00  0.00    -0.270 OA
ATOM      9  H   UNL A   1      32.935  37.199  31.048  1.00  0.00     0.164 HD
BRANCH   7  10
ATOM     10  C   UNL A   1      33.847  34.573  29.224  1.00  0.00     0.075 C 
ATOM     11  C   UNL A   1      33.278  33.651  28.435  1.00  0.00     0.053 C 
BRANCH  11  12
ATOM     12  C   UNL A   1      34.006  32.493  28.045  1.00  0.00     0.127 A 
ATOM     13  C   UNL A   1      33.999  29.136  26.738  1.00  0.00     0.087 C 
ATOM     14  C   UNL A   1      34.412  30.432  27.315  1.00  0.00     0.101 A 
ATOM     15  C   UNL A   1      35.631  30.950  27.679  1.00  0.00     0.046 A 
ATOM     16  O   UNL A   1      33.429  31.344  27.551  1.00  0.00    -0.462 OA
ATOM     17  C   UNL A   1      35.378  32.272  28.117  1.00  0.00     0.050 A 
ENDBRANCH  11  12
ENDBRANCH   7  10
ENDBRANCH   5   6
BRANCH   5  18
ATOM     18  C   UNL A   1      34.071  36.842  33.198  1.00  0.00     0.193 C 
BRANCH  18  19
ATOM     19  O   UNL A   1      32.687  36.819  33.557  1.00  0.00    -0.394 OA
ATOM     20  H   UNL A   1      32.145  36.978  32.768  1.00  0.00     0.210 HD
ENDBRANCH  18  19
ENDBRANCH   5  18
ENDBRANCH   3   5
ENDBRANCH   2   3
ENDBRANCH   1   2
BRANCH   1  21
ATOM     21  C   UNL A   1      37.094  32.427  33.409  1.00  0.00     0.275 C 
BRANCH  21  22
ATOM     22  O   UNL A   1      37.277  32.141  32.010  1.00  0.00    -0.458 OA
BRANCH  22  23
ATOM     23  C   UNL A   1      37.025  30.860  31.655  1.00  0.00     0.338 C 
ATOM     24  O   UNL A   1      35.990  30.234  31.815  1.00  0.00    -0.246 OA
BRANCH  23  25
ATOM     25  C   UNL A   1      38.187  30.307  30.953  1.00  0.00     0.060 A 
ATOM     26  C   UNL A   1      39.185  29.690  31.703  1.00  0.00     0.016 A 
ATOM     27  C   UNL A   1      38.359  30.520  29.586  1.00  0.00     0.016 A 
ATOM     28  C   UNL A   1      40.389  29.339  31.099  1.00  0.00     0.010 A 
ATOM     29  C   UNL A   1      39.552  30.117  28.972  1.00  0.00     0.010 A 
ATOM     30  C   UNL A   1      40.595  29.557  29.730  1.00  0.00    -0.014 A 
BRANCH  30  31
ATOM     31  C   UNL A   1      41.923  29.261  29.123  1.00  0.00     0.031 A 
ATOM     32  C   UNL A   1      42.207  27.896  28.552  1.00  0.00     0.074 A 
ATOM     33  C   UNL A   1      42.869  30.219  29.042  1.00  0.00     0.049 A 
ATOM     34  N   UNL A   1      43.335  27.407  28.101  1.00  0.00    -0.248 NA
ATOM     35  C   UNL A   1      41.077  26.956  28.480  1.00  0.00     0.031 C 
ATOM     36  C   UNL A   1      42.722  31.597  29.512  1.00  0.00     0.029 A 
ATOM     37  N   UNL A   1      44.145  30.178  28.533  1.00  0.00    -0.354 N 
ATOM     38  C   UNL A   1      43.066  26.090  27.748  1.00  0.00     0.074 A 
ATOM     39  C   UNL A   1      41.664  25.857  28.025  1.00  0.00     0.031 C 
ATOM     40  C   UNL A   1      43.849  32.276  29.247  1.00  0.00     0.029 A 
ATOM     41  C   UNL A   1      44.825  31.367  28.652  1.00  0.00     0.049 A 
ATOM     42  H   UNL A   1      44.534  29.374  28.120  1.00  0.00     0.167 HD
ATOM     43  C   UNL A   1      43.908  25.159  27.242  1.00  0.00     0.037 A 
ATOM     44  C   UNL A   1      46.100  31.684  28.356  1.00  0.00     0.037 A 
ATOM     45  C   UNL A   1      45.288  25.401  26.907  1.00  0.00     0.049 A 
ATOM     46  C   UNL A   1      47.020  30.632  27.804  1.00  0.00     0.074 A 
ATOM     47  C   UNL A   1      46.210  24.518  26.369  1.00  0.00     0.029 A 
ATOM     48  N   UNL A   1      45.941  26.613  27.067  1.00  0.00    -0.354 N 
ATOM     49  N   UNL A   1      46.759  29.380  27.519  1.00  0.00    -0.248 NA
ATOM     50  C   UNL A   1      48.412  31.032  27.552  1.00  0.00     0.031 C 
ATOM     51  C   UNL A   1      47.428  25.192  26.224  1.00  0.00     0.029 A 
ATOM     52  C   UNL A   1      47.256  26.500  26.645  1.00  0.00     0.049 A 
ATOM     53  H   UNL A   1      45.531  27.432  27.427  1.00  0.00     0.167 HD
ATOM     54  C   UNL A   1      47.955  28.840  27.060  1.00  0.00     0.074 A 
ATOM     55  C   UNL A   1      48.933  29.908  27.078  1.00  0.00     0.031 C 
ATOM     56  C   UNL A   1      48.220  27.569  26.669  1.00  0.00     0.037 A 
BRANCH  43  57
ATOM     57  C   UNL A   1      43.373  23.770  27.045  1.00  0.00     0.058 A 
ATOM     58  C   UNL A   1      43.165  22.896  28.123  1.00  0.00     0.135 A 
ATOM     59  C   UNL A   1      43.022  23.327  25.760  1.00  0.00     0.135 A 
ATOM     60  F   UNL A   1      43.500  23.269  29.368  1.00  0.00    -0.206 F 
ATOM     61  C   UNL A   1      42.640  21.622  27.930  1.00  0.00     0.059 A 
ATOM     62  C   UNL A   1      42.479  22.065  25.547  1.00  0.00     0.059 A 
ATOM     63  F   UNL A   1      43.203  24.127  24.697  1.00  0.00    -0.206 F 
ATOM     64  C   UNL A   1      42.302  21.215  26.638  1.00  0.00     0.060 A 
BRANCH  64  65
ATOM     65  S   UNL A   1      41.608  19.565  26.397  1.00  0.00     0.124 S 
ATOM     66  O   UNL A   1      41.909  18.935  27.678  1.00  0.00    -0.237 OA
ATOM     67  O   UNL A   1      40.198  19.849  26.146  1.00  0.00    -0.237 OA
ATOM     68  O   UNL A   1      42.352  19.049  25.253  1.00  0.00    -0.744 OA
ENDBRANCH  64  65
ENDBRANCH  43  57
BRANCH  44  69
ATOM     69  C   UNL A   1      46.597  33.059  28.620  1.00  0.00     0.058 A 
ATOM     70  C   UNL A   1      47.153  33.400  29.861  1.00  0.00     0.135 A 
ATOM     71  C   UNL A   1      46.536  34.054  27.631  1.00  0.00     0.135 A 
ATOM     72  F   UNL A   1      47.222  32.485  30.839  1.00  0.00    -0.206 F 
ATOM     73  C   UNL A   1      47.630  34.682  30.116  1.00  0.00     0.059 A 
ATOM     74  C   UNL A   1      47.027  35.335  27.855  1.00  0.00     0.059 A 
ATOM     75  F   UNL A   1      46.022  33.772  26.425  1.00  0.00    -0.206 F 
ATOM     76  C   UNL A   1      47.565  35.642  29.105  1.00  0.00     0.060 A 
BRANCH  76  77
ATOM     77  S   UNL A   1      48.247  37.285  29.411  1.00  0.00     0.124 S 
ATOM     78  O   UNL A   1      47.261  37.846  30.326  1.00  0.00    -0.237 OA
ATOM     79  O   UNL A   1      49.553  36.980  29.987  1.00  0.00    -0.237 OA
ATOM     80  O   UNL A   1      48.286  37.879  28.077  1.00  0.00    -0.744 OA
ENDBRANCH  76  77
ENDBRANCH  44  69
BRANCH  56  81
ATOM     81  C   UNL A   1      49.620  27.266  26.220  1.00  0.00     0.058 A 
ATOM     82  C   UNL A   1      50.599  26.833  27.128  1.00  0.00     0.135 A 
ATOM     83  C   UNL A   1      49.975  27.366  24.866  1.00  0.00     0.135 A 
ATOM     84  F   UNL A   1      50.308  26.728  28.435  1.00  0.00    -0.206 F 
ATOM     85  C   UNL A   1      51.889  26.527  26.711  1.00  0.00     0.059 A 
ATOM     86  C   UNL A   1      51.255  27.048  24.424  1.00  0.00     0.059 A 
ATOM     87  F   UNL A   1      49.071  27.769  23.959  1.00  0.00    -0.206 F 
ATOM     88  C   UNL A   1      52.210  26.639  25.356  1.00  0.00     0.060 A 
BRANCH  88  89
ATOM     89  S   UNL A   1      53.879  26.212  24.817  1.00  0.00     0.124 S 
ATOM     90  O   UNL A   1      54.663  27.290  25.411  1.00  0.00    -0.237 OA
ATOM     91  O   UNL A   1      54.073  24.889  25.404  1.00  0.00    -0.237 OA
ATOM     92  O   UNL A   1      53.778  26.235  23.360  1.00  0.00    -0.744 OA
ENDBRANCH  88  89
ENDBRANCH  56  81
ENDBRANCH  30  31
ENDBRANCH  23  25
ENDBRANCH  22  23
ENDBRANCH  21  22
ENDBRANCH   1  21
TORSDOF 19
ENDMDL
