MODEL 1
REMARK VINA RESULT:     -11.5      0.000      0.000
REMARK SMILES CCCC(=O)Nc1cccc(C(=O)N[C@@H](C(=O)OCCOC(=O)c2ccc(-c3c4nc(c(-c5c(F)cc(S(=O)(=O)[O-])cc5F)c5ccc([nH]5)c(-c5c(F)cc(S(=O)(=O)[O-])cc5F)c5nc(c(-c6c(F)cc(S(=O)(=O)[O-])cc6F)c6ccc3[nH]6)C=C5)C=C4)cc2)C2=C(C)N=N[C@@H]2C)c1
REMARK SMILES IDX 19 1 18 2 16 3 17 4 15 5 14 6 12 7 13 8 11 10 7 11 8 12
REMARK SMILES IDX 97 13 9 14 10 15 6 16 4 17 5 18 3 20 2 21 1 22 90 23 91 24
REMARK SMILES IDX 95 25 92 26 93 27 94 28 96 29 20 30 21 31 22 32 23 33 24 34
REMARK SMILES IDX 25 35 89 36 26 37 88 38 27 39 28 40 29 41 82 42 30 43 87 44
REMARK SMILES IDX 81 45 83 46 31 47 86 48 80 49 79 50 32 52 66 53 45 54 65 55
REMARK SMILES IDX 46 56 49 57 64 58 84 59 47 60 48 61 63 63 85 64 50 65 33 66
REMARK SMILES IDX 34 67 43 68 35 69 36 70 42 71 44 72 37 73 38 74 39 75 40 76
REMARK SMILES IDX 41 77 67 78 68 79 77 80 69 81 70 82 76 83 78 84 71 85 72 86
REMARK SMILES IDX 73 87 74 88 75 89 51 90 52 91 61 92 53 93 54 94 60 95 62 96
REMARK SMILES IDX 55 97 56 98 57 99 58 100 59 101
REMARK H PARENT 14 9 6 19 83 51 49 62
REMARK Flexibility Score: inf
ROOT
ATOM      1  C   UNL A   1      33.635  29.102  26.526  1.00  0.00     0.274 C 
ENDROOT
BRANCH   1   2
ATOM      2  O   UNL A   1      33.212  29.900  25.403  1.00  0.00    -0.460 OA
BRANCH   2   3
ATOM      3  C   UNL A   1      31.898  29.803  25.043  1.00  0.00     0.333 C 
ATOM      4  O   UNL A   1      31.018  30.535  25.478  1.00  0.00    -0.249 OA
BRANCH   3   5
ATOM      5  C   UNL A   1      31.641  28.615  24.066  1.00  0.00     0.223 C 
BRANCH   5   6
ATOM      6  N   UNL A   1      32.556  28.698  22.925  1.00  0.00    -0.335 N 
ATOM      7  C   UNL A   1      33.441  27.784  22.401  1.00  0.00     0.252 C 
ATOM      8  O   UNL A   1      34.241  28.142  21.541  1.00  0.00    -0.269 OA
ATOM      9  H   UNL A   1      32.534  29.561  22.450  1.00  0.00     0.165 HD
BRANCH   7  10
ATOM     10  C   UNL A   1      33.386  26.349  22.769  1.00  0.00     0.041 A 
ATOM     11  C   UNL A   1      33.527  24.599  24.408  1.00  0.00     0.041 A 
ATOM     12  C   UNL A   1      32.800  23.745  23.579  1.00  0.00     0.026 A 
ATOM     13  C   UNL A   1      33.929  25.854  23.952  1.00  0.00     0.040 A 
ATOM     14  C   UNL A   1      32.422  24.173  22.307  1.00  0.00     0.003 A 
ATOM     15  C   UNL A   1      32.685  25.487  21.914  1.00  0.00     0.014 A 
BRANCH  11  16
ATOM     16  N   UNL A   1      33.816  24.282  25.737  1.00  0.00    -0.326 N 
ATOM     17  C   UNL A   1      34.535  23.205  26.188  1.00  0.00     0.224 C 
ATOM     18  O   UNL A   1      34.545  22.985  27.401  1.00  0.00    -0.275 OA
ATOM     19  H   UNL A   1      33.465  24.896  26.422  1.00  0.00     0.169 HD
BRANCH  17  20
ATOM     20  C   UNL A   1      35.206  22.244  25.215  1.00  0.00     0.100 C 
BRANCH  20  21
ATOM     21  C   UNL A   1      36.567  22.751  24.733  1.00  0.00     0.006 C 
ATOM     22  C   UNL A   1      37.210  23.772  25.661  1.00  0.00     0.004 C 
ENDBRANCH  20  21
ENDBRANCH  17  20
ENDBRANCH  11  16
ENDBRANCH   7  10
ENDBRANCH   5   6
BRANCH   5  23
ATOM     23  C   UNL A   1      30.216  28.464  23.648  1.00  0.00     0.012 C 
ATOM     24  C   UNL A   1      29.443  27.364  23.702  1.00  0.00     0.064 C 
ATOM     25  C   UNL A   1      29.320  29.526  23.093  1.00  0.00     0.156 C 
ATOM     26  C   UNL A   1      29.737  26.000  24.236  1.00  0.00     0.069 C 
ATOM     27  N   UNL A   1      28.176  27.591  23.228  1.00  0.00    -0.160 NA
ATOM     28  N   UNL A   1      28.032  28.801  22.920  1.00  0.00    -0.181 NA
ATOM     29  C   UNL A   1      29.690  30.083  21.724  1.00  0.00     0.040 C 
ENDBRANCH   5  23
ENDBRANCH   3   5
ENDBRANCH   2   3
ENDBRANCH   1   2
BRANCH   1  30
ATOM     30  C   UNL A   1      33.369  29.830  27.840  1.00  0.00     0.275 C 
BRANCH  30  31
ATOM     31  O   UNL A   1      34.042  31.102  27.834  1.00  0.00    -0.458 OA
BRANCH  31  32
ATOM     32  C   UNL A   1      34.940  31.294  28.826  1.00  0.00     0.338 C 
ATOM     33  O   UNL A   1      34.824  32.042  29.789  1.00  0.00    -0.246 OA
BRANCH  32  34
ATOM     34  C   UNL A   1      36.100  30.405  28.653  1.00  0.00     0.060 A 
ATOM     35  C   UNL A   1      36.598  29.720  29.754  1.00  0.00     0.016 A 
ATOM     36  C   UNL A   1      36.819  30.406  27.458  1.00  0.00     0.016 A 
ATOM     37  C   UNL A   1      37.882  29.177  29.709  1.00  0.00     0.010 A 
ATOM     38  C   UNL A   1      38.065  29.763  27.392  1.00  0.00     0.010 A 
ATOM     39  C   UNL A   1      38.657  29.213  28.545  1.00  0.00    -0.014 A 
BRANCH  39  40
ATOM     40  C   UNL A   1      40.114  28.842  28.581  1.00  0.00     0.031 A 
ATOM     41  C   UNL A   1      41.114  29.813  29.171  1.00  0.00     0.074 A 
ATOM     42  C   UNL A   1      40.573  27.632  28.196  1.00  0.00     0.049 A 
ATOM     43  N   UNL A   1      42.419  29.834  29.063  1.00  0.00    -0.248 NA
ATOM     44  C   UNL A   1      40.569  30.924  29.968  1.00  0.00     0.031 C 
ATOM     45  C   UNL A   1      39.760  26.517  27.709  1.00  0.00     0.029 A 
ATOM     46  N   UNL A   1      41.853  27.123  28.194  1.00  0.00    -0.354 N 
ATOM     47  C   UNL A   1      42.833  31.019  29.664  1.00  0.00     0.074 A 
ATOM     48  C   UNL A   1      41.644  31.673  30.164  1.00  0.00     0.031 C 
ATOM     49  C   UNL A   1      40.540  25.434  27.558  1.00  0.00     0.029 A 
ATOM     50  C   UNL A   1      41.928  25.805  27.806  1.00  0.00     0.049 A 
ATOM     51  H   UNL A   1      42.642  27.655  28.447  1.00  0.00     0.167 HD
ATOM     52  C   UNL A   1      44.087  31.523  29.773  1.00  0.00     0.037 A 
ATOM     53  C   UNL A   1      42.990  24.996  27.626  1.00  0.00     0.037 A 
ATOM     54  C   UNL A   1      45.281  30.809  29.405  1.00  0.00     0.049 A 
ATOM     55  C   UNL A   1      44.380  25.550  27.782  1.00  0.00     0.074 A 
ATOM     56  C   UNL A   1      46.598  31.238  29.454  1.00  0.00     0.029 A 
ATOM     57  N   UNL A   1      45.308  29.490  28.977  1.00  0.00    -0.354 N 
ATOM     58  N   UNL A   1      44.755  26.748  28.158  1.00  0.00    -0.248 NA
ATOM     59  C   UNL A   1      45.493  24.650  27.443  1.00  0.00     0.031 C 
ATOM     60  C   UNL A   1      47.420  30.179  29.048  1.00  0.00     0.029 A 
ATOM     61  C   UNL A   1      46.617  29.084  28.774  1.00  0.00     0.049 A 
ATOM     62  H   UNL A   1      44.513  28.926  28.838  1.00  0.00     0.167 HD
ATOM     63  C   UNL A   1      46.144  26.747  28.101  1.00  0.00     0.074 A 
ATOM     64  C   UNL A   1      46.545  25.422  27.678  1.00  0.00     0.031 C 
ATOM     65  C   UNL A   1      47.007  27.759  28.364  1.00  0.00     0.037 A 
BRANCH  52  66
ATOM     66  C   UNL A   1      44.216  32.946  30.240  1.00  0.00     0.058 A 
ATOM     67  C   UNL A   1      44.427  33.290  31.583  1.00  0.00     0.135 A 
ATOM     68  C   UNL A   1      44.100  33.991  29.307  1.00  0.00     0.135 A 
ATOM     69  F   UNL A   1      44.526  32.333  32.519  1.00  0.00    -0.206 F 
ATOM     70  C   UNL A   1      44.469  34.621  31.993  1.00  0.00     0.059 A 
ATOM     71  C   UNL A   1      44.165  35.326  29.690  1.00  0.00     0.059 A 
ATOM     72  F   UNL A   1      43.903  33.719  28.007  1.00  0.00    -0.206 F 
ATOM     73  C   UNL A   1      44.324  35.631  31.040  1.00  0.00     0.060 A 
BRANCH  73  74
ATOM     74  S   UNL A   1      44.330  37.354  31.580  1.00  0.00     0.124 S 
ATOM     75  O   UNL A   1      45.755  37.580  31.807  1.00  0.00    -0.237 OA
ATOM     76  O   UNL A   1      43.755  38.050  30.434  1.00  0.00    -0.237 OA
ATOM     77  O   UNL A   1      43.498  37.335  32.779  1.00  0.00    -0.744 OA
ENDBRANCH  73  74
ENDBRANCH  52  66
BRANCH  53  78
ATOM     78  C   UNL A   1      42.786  23.576  27.226  1.00  0.00     0.058 A 
ATOM     79  C   UNL A   1      42.871  23.190  25.880  1.00  0.00     0.135 A 
ATOM     80  C   UNL A   1      42.516  22.579  28.175  1.00  0.00     0.135 A 
ATOM     81  F   UNL A   1      43.105  24.109  24.931  1.00  0.00    -0.206 F 
ATOM     82  C   UNL A   1      42.699  21.865  25.489  1.00  0.00     0.059 A 
ATOM     83  C   UNL A   1      42.369  21.245  27.813  1.00  0.00     0.059 A 
ATOM     84  F   UNL A   1      42.427  22.895  29.477  1.00  0.00    -0.206 F 
ATOM     85  C   UNL A   1      42.455  20.897  26.465  1.00  0.00     0.060 A 
BRANCH  85  86
ATOM     86  S   UNL A   1      42.310  19.168  25.966  1.00  0.00     0.124 S 
ATOM     87  O   UNL A   1      43.186  19.125  24.801  1.00  0.00    -0.237 OA
ATOM     88  O   UNL A   1      42.787  18.460  27.150  1.00  0.00    -0.237 OA
ATOM     89  O   UNL A   1      40.883  19.020  25.692  1.00  0.00    -0.744 OA
ENDBRANCH  85  86
ENDBRANCH  53  78
BRANCH  65  90
ATOM     90  C   UNL A   1      48.473  27.462  28.234  1.00  0.00     0.058 A 
ATOM     91  C   UNL A   1      49.186  27.767  27.065  1.00  0.00     0.135 A 
ATOM     92  C   UNL A   1      49.179  26.886  29.303  1.00  0.00     0.135 A 
ATOM     93  F   UNL A   1      48.556  28.314  26.014  1.00  0.00    -0.206 F 
ATOM     94  C   UNL A   1      50.544  27.488  26.948  1.00  0.00     0.059 A 
ATOM     95  C   UNL A   1      50.542  26.615  29.215  1.00  0.00     0.059 A 
ATOM     96  F   UNL A   1      48.544  26.582  30.447  1.00  0.00    -0.206 F 
ATOM     97  C   UNL A   1      51.213  26.906  28.028  1.00  0.00     0.060 A 
BRANCH  97  98
ATOM     98  S   UNL A   1      52.978  26.559  27.876  1.00  0.00     0.124 S 
ATOM     99  O   UNL A   1      52.972  25.375  27.023  1.00  0.00    -0.237 OA
ATOM    100  O   UNL A   1      53.489  27.780  27.260  1.00  0.00    -0.237 OA
ATOM    101  O   UNL A   1      53.399  26.338  29.255  1.00  0.00    -0.744 OA
ENDBRANCH  97  98
ENDBRANCH  65  90
ENDBRANCH  39  40
ENDBRANCH  32  34
ENDBRANCH  31  32
ENDBRANCH  30  31
ENDBRANCH   1  30
TORSDOF 20
ENDMDL
MODEL 2
REMARK VINA RESULT:     -11.3      1.867      3.056
REMARK SMILES CCCC(=O)Nc1cccc(C(=O)N[C@@H](C(=O)OCCOC(=O)c2ccc(-c3c4nc(c(-c5c(F)cc(S(=O)(=O)[O-])cc5F)c5ccc([nH]5)c(-c5c(F)cc(S(=O)(=O)[O-])cc5F)c5nc(c(-c6c(F)cc(S(=O)(=O)[O-])cc6F)c6ccc3[nH]6)C=C5)C=C4)cc2)C2=C(C)N=N[C@@H]2C)c1
REMARK SMILES IDX 19 1 18 2 16 3 17 4 15 5 14 6 12 7 13 8 11 10 7 11 8 12
REMARK SMILES IDX 97 13 9 14 10 15 6 16 4 17 5 18 3 20 2 21 1 22 90 23 91 24
REMARK SMILES IDX 95 25 92 26 93 27 94 28 96 29 20 30 21 31 22 32 23 33 24 34
REMARK SMILES IDX 25 35 89 36 26 37 88 38 27 39 28 40 29 41 82 42 30 43 87 44
REMARK SMILES IDX 81 45 83 46 31 47 86 48 80 49 79 50 32 52 66 53 45 54 65 55
REMARK SMILES IDX 46 56 49 57 64 58 84 59 47 60 48 61 63 63 85 64 50 65 33 66
REMARK SMILES IDX 34 67 43 68 35 69 36 70 42 71 44 72 37 73 38 74 39 75 40 76
REMARK SMILES IDX 41 77 67 78 68 79 77 80 69 81 70 82 76 83 78 84 71 85 72 86
REMARK SMILES IDX 73 87 74 88 75 89 51 90 52 91 61 92 53 93 54 94 60 95 62 96
REMARK SMILES IDX 55 97 56 98 57 99 58 100 59 101
REMARK H PARENT 14 9 6 19 83 51 49 62
REMARK Flexibility Score: inf
ROOT
ATOM      1  C   UNL A   1      33.631  29.471  24.536  1.00  0.00     0.274 C 
ENDROOT
BRANCH   1   2
ATOM      2  O   UNL A   1      33.845  28.049  24.623  1.00  0.00    -0.460 OA
BRANCH   2   3
ATOM      3  C   UNL A   1      33.402  27.297  23.573  1.00  0.00     0.333 C 
ATOM      4  O   UNL A   1      33.137  27.758  22.470  1.00  0.00    -0.249 OA
BRANCH   3   5
ATOM      5  C   UNL A   1      33.213  25.798  23.961  1.00  0.00     0.223 C 
BRANCH   5   6
ATOM      6  N   UNL A   1      33.059  24.984  22.751  1.00  0.00    -0.335 N 
ATOM      7  C   UNL A   1      33.510  23.722  22.443  1.00  0.00     0.252 C 
ATOM      8  O   UNL A   1      33.411  23.310  21.290  1.00  0.00    -0.269 OA
ATOM      9  H   UNL A   1      32.542  25.418  22.034  1.00  0.00     0.165 HD
BRANCH   7  10
ATOM     10  C   UNL A   1      34.016  22.799  23.486  1.00  0.00     0.041 A 
ATOM     11  C   UNL A   1      33.755  20.849  24.864  1.00  0.00     0.041 A 
ATOM     12  C   UNL A   1      35.134  20.785  25.060  1.00  0.00     0.026 A 
ATOM     13  C   UNL A   1      33.186  21.925  24.186  1.00  0.00     0.040 A 
ATOM     14  C   UNL A   1      35.955  21.775  24.521  1.00  0.00     0.003 A 
ATOM     15  C   UNL A   1      35.400  22.763  23.705  1.00  0.00     0.014 A 
BRANCH  11  16
ATOM     16  N   UNL A   1      32.897  19.820  25.259  1.00  0.00    -0.326 N 
ATOM     17  C   UNL A   1      33.049  18.481  25.006  1.00  0.00     0.224 C 
ATOM     18  O   UNL A   1      32.108  17.732  25.279  1.00  0.00    -0.275 OA
ATOM     19  H   UNL A   1      32.100  20.084  25.772  1.00  0.00     0.169 HD
BRANCH  17  20
ATOM     20  C   UNL A   1      34.292  17.948  24.306  1.00  0.00     0.100 C 
BRANCH  20  21
ATOM     21  C   UNL A   1      34.279  16.425  24.161  1.00  0.00     0.006 C 
ATOM     22  C   UNL A   1      35.148  15.700  25.178  1.00  0.00     0.004 C 
ENDBRANCH  20  21
ENDBRANCH  17  20
ENDBRANCH  11  16
ENDBRANCH   7  10
ENDBRANCH   5   6
BRANCH   5  23
ATOM     23  C   UNL A   1      32.127  25.555  24.956  1.00  0.00     0.012 C 
ATOM     24  C   UNL A   1      32.170  24.803  26.070  1.00  0.00     0.064 C 
ATOM     25  C   UNL A   1      30.744  26.126  24.941  1.00  0.00     0.156 C 
ATOM     26  C   UNL A   1      33.301  24.040  26.679  1.00  0.00     0.069 C 
ATOM     27  N   UNL A   1      30.980  24.806  26.751  1.00  0.00    -0.160 NA
ATOM     28  N   UNL A   1      30.157  25.574  26.192  1.00  0.00    -0.181 NA
ATOM     29  C   UNL A   1      29.835  25.681  23.802  1.00  0.00     0.040 C 
ENDBRANCH   5  23
ENDBRANCH   3   5
ENDBRANCH   2   3
ENDBRANCH   1   2
BRANCH   1  30
ATOM     30  C   UNL A   1      32.824  29.972  25.730  1.00  0.00     0.275 C 
BRANCH  30  31
ATOM     31  O   UNL A   1      33.717  30.398  26.774  1.00  0.00    -0.458 OA
BRANCH  31  32
ATOM     32  C   UNL A   1      34.134  29.430  27.621  1.00  0.00     0.338 C 
ATOM     33  O   UNL A   1      33.497  28.451  27.990  1.00  0.00    -0.246 OA
BRANCH  32  34
ATOM     34  C   UNL A   1      35.535  29.653  28.014  1.00  0.00     0.060 A 
ATOM     35  C   UNL A   1      36.456  30.034  27.047  1.00  0.00     0.016 A 
ATOM     36  C   UNL A   1      35.979  29.289  29.284  1.00  0.00     0.016 A 
ATOM     37  C   UNL A   1      37.821  29.896  27.299  1.00  0.00     0.010 A 
ATOM     38  C   UNL A   1      37.355  29.257  29.561  1.00  0.00     0.010 A 
ATOM     39  C   UNL A   1      38.302  29.475  28.543  1.00  0.00    -0.014 A 
BRANCH  39  40
ATOM     40  C   UNL A   1      39.748  29.105  28.722  1.00  0.00     0.031 A 
ATOM     41  C   UNL A   1      40.678  30.060  29.441  1.00  0.00     0.074 A 
ATOM     42  C   UNL A   1      40.250  27.906  28.354  1.00  0.00     0.049 A 
ATOM     43  N   UNL A   1      41.986  30.085  29.472  1.00  0.00    -0.248 NA
ATOM     44  C   UNL A   1      40.047  31.148  30.207  1.00  0.00     0.031 C 
ATOM     45  C   UNL A   1      39.497  26.804  27.754  1.00  0.00     0.029 A 
ATOM     46  N   UNL A   1      41.525  27.399  28.473  1.00  0.00    -0.354 N 
ATOM     47  C   UNL A   1      42.330  31.254  30.145  1.00  0.00     0.074 A 
ATOM     48  C   UNL A   1      41.092  31.892  30.535  1.00  0.00     0.031 C 
ATOM     49  C   UNL A   1      40.293  25.727  27.656  1.00  0.00     0.029 A 
ATOM     50  C   UNL A   1      41.646  26.093  28.059  1.00  0.00     0.049 A 
ATOM     51  H   UNL A   1      42.281  27.924  28.822  1.00  0.00     0.167 HD
ATOM     52  C   UNL A   1      43.564  31.755  30.399  1.00  0.00     0.037 A 
ATOM     53  C   UNL A   1      42.724  25.289  27.969  1.00  0.00     0.037 A 
ATOM     54  C   UNL A   1      44.793  31.053  30.140  1.00  0.00     0.049 A 
ATOM     55  C   UNL A   1      44.088  25.840  28.287  1.00  0.00     0.074 A 
ATOM     56  C   UNL A   1      46.095  31.481  30.339  1.00  0.00     0.029 A 
ATOM     57  N   UNL A   1      44.870  29.747  29.681  1.00  0.00    -0.354 N 
ATOM     58  N   UNL A   1      44.416  27.027  28.733  1.00  0.00    -0.248 NA
ATOM     59  C   UNL A   1      45.234  24.951  28.042  1.00  0.00     0.031 C 
ATOM     60  C   UNL A   1      46.959  30.435  29.993  1.00  0.00     0.029 A 
ATOM     61  C   UNL A   1      46.194  29.347  29.605  1.00  0.00     0.049 A 
ATOM     62  H   UNL A   1      44.096  29.185  29.444  1.00  0.00     0.167 HD
ATOM     63  C   UNL A   1      45.804  27.030  28.823  1.00  0.00     0.074 A 
ATOM     64  C   UNL A   1      46.253  25.717  28.408  1.00  0.00     0.031 C 
ATOM     65  C   UNL A   1      46.630  28.034  29.202  1.00  0.00     0.037 A 
BRANCH  52  66
ATOM     66  C   UNL A   1      43.637  33.165  30.917  1.00  0.00     0.058 A 
ATOM     67  C   UNL A   1      43.514  34.288  30.087  1.00  0.00     0.135 A 
ATOM     68  C   UNL A   1      43.863  33.385  32.287  1.00  0.00     0.135 A 
ATOM     69  F   UNL A   1      43.317  34.135  28.768  1.00  0.00    -0.206 F 
ATOM     70  C   UNL A   1      43.660  35.579  30.587  1.00  0.00     0.059 A 
ATOM     71  C   UNL A   1      43.986  34.666  32.813  1.00  0.00     0.059 A 
ATOM     72  F   UNL A   1      43.984  32.345  33.129  1.00  0.00    -0.206 F 
ATOM     73  C   UNL A   1      43.909  35.757  31.950  1.00  0.00     0.060 A 
BRANCH  73  74
ATOM     74  S   UNL A   1      44.146  37.429  32.588  1.00  0.00     0.124 S 
ATOM     75  O   UNL A   1      45.394  37.281  33.332  1.00  0.00    -0.237 OA
ATOM     76  O   UNL A   1      44.229  38.227  31.369  1.00  0.00    -0.237 OA
ATOM     77  O   UNL A   1      42.954  37.653  33.398  1.00  0.00    -0.744 OA
ENDBRANCH  73  74
ENDBRANCH  52  66
BRANCH  53  78
ATOM     78  C   UNL A   1      42.569  23.881  27.511  1.00  0.00     0.058 A 
ATOM     79  C   UNL A   1      42.523  22.826  28.435  1.00  0.00     0.135 A 
ATOM     80  C   UNL A   1      42.449  23.562  26.150  1.00  0.00     0.135 A 
ATOM     81  F   UNL A   1      42.656  23.076  29.747  1.00  0.00    -0.206 F 
ATOM     82  C   UNL A   1      42.362  21.505  28.027  1.00  0.00     0.059 A 
ATOM     83  C   UNL A   1      42.258  22.254  25.720  1.00  0.00     0.059 A 
ATOM     84  F   UNL A   1      42.483  24.534  25.225  1.00  0.00    -0.206 F 
ATOM     85  C   UNL A   1      42.223  21.230  26.665  1.00  0.00     0.060 A 
BRANCH  85  86
ATOM     86  S   UNL A   1      41.936  19.525  26.142  1.00  0.00     0.124 S 
ATOM     87  O   UNL A   1      40.504  19.542  25.864  1.00  0.00    -0.237 OA
ATOM     88  O   UNL A   1      42.811  19.403  24.980  1.00  0.00    -0.237 OA
ATOM     89  O   UNL A   1      42.345  18.747  27.308  1.00  0.00    -0.744 OA
ENDBRANCH  85  86
ENDBRANCH  53  78
BRANCH  65  90
ATOM     90  C   UNL A   1      48.103  27.742  29.220  1.00  0.00     0.058 A 
ATOM     91  C   UNL A   1      48.729  27.183  30.344  1.00  0.00     0.135 A 
ATOM     92  C   UNL A   1      48.893  28.004  28.089  1.00  0.00     0.135 A 
ATOM     93  F   UNL A   1      48.018  26.918  31.451  1.00  0.00    -0.206 F 
ATOM     94  C   UNL A   1      50.095  26.916  30.357  1.00  0.00     0.059 A 
ATOM     95  C   UNL A   1      50.258  27.728  28.074  1.00  0.00     0.059 A 
ATOM     96  F   UNL A   1      48.340  28.532  26.986  1.00  0.00    -0.206 F 
ATOM     97  C   UNL A   1      50.852  27.197  29.218  1.00  0.00     0.060 A 
BRANCH  97  98
ATOM     98  S   UNL A   1      52.621  26.836  29.236  1.00  0.00     0.124 S 
ATOM     99  O   UNL A   1      52.787  26.121  27.974  1.00  0.00    -0.237 OA
ATOM    100  O   UNL A   1      53.217  28.167  29.292  1.00  0.00    -0.237 OA
ATOM    101  O   UNL A   1      52.789  26.030  30.441  1.00  0.00    -0.744 OA
ENDBRANCH  97  98
ENDBRANCH  65  90
ENDBRANCH  39  40
ENDBRANCH  32  34
ENDBRANCH  31  32
ENDBRANCH  30  31
ENDBRANCH   1  30
TORSDOF 20
ENDMDL
MODEL 3
REMARK VINA RESULT:     -11.1      2.693      7.690
REMARK SMILES CCCC(=O)Nc1cccc(C(=O)N[C@@H](C(=O)OCCOC(=O)c2ccc(-c3c4nc(c(-c5c(F)cc(S(=O)(=O)[O-])cc5F)c5ccc([nH]5)c(-c5c(F)cc(S(=O)(=O)[O-])cc5F)c5nc(c(-c6c(F)cc(S(=O)(=O)[O-])cc6F)c6ccc3[nH]6)C=C5)C=C4)cc2)C2=C(C)N=N[C@@H]2C)c1
REMARK SMILES IDX 19 1 18 2 16 3 17 4 15 5 14 6 12 7 13 8 11 10 7 11 8 12
REMARK SMILES IDX 97 13 9 14 10 15 6 16 4 17 5 18 3 20 2 21 1 22 90 23 91 24
REMARK SMILES IDX 95 25 92 26 93 27 94 28 96 29 20 30 21 31 22 32 23 33 24 34
REMARK SMILES IDX 25 35 89 36 26 37 88 38 27 39 28 40 29 41 82 42 30 43 87 44
REMARK SMILES IDX 81 45 83 46 31 47 86 48 80 49 79 50 32 52 66 53 45 54 65 55
REMARK SMILES IDX 46 56 49 57 64 58 84 59 47 60 48 61 63 63 85 64 50 65 33 66
REMARK SMILES IDX 34 67 43 68 35 69 36 70 42 71 44 72 37 73 38 74 39 75 40 76
REMARK SMILES IDX 41 77 67 78 68 79 77 80 69 81 70 82 76 83 78 84 71 85 72 86
REMARK SMILES IDX 73 87 74 88 75 89 51 90 52 91 61 92 53 93 54 94 60 95 62 96
REMARK SMILES IDX 55 97 56 98 57 99 58 100 59 101
REMARK H PARENT 14 9 6 19 83 51 49 62
REMARK Flexibility Score: inf
ROOT
ATOM      1  C   UNL A   1      36.423  22.369  23.940  1.00  0.00     0.274 C 
ENDROOT
BRANCH   1   2
ATOM      2  O   UNL A   1      36.005  23.479  24.758  1.00  0.00    -0.460 OA
BRANCH   2   3
ATOM      3  C   UNL A   1      34.734  23.429  25.255  1.00  0.00     0.333 C 
ATOM      4  O   UNL A   1      34.333  22.552  26.011  1.00  0.00    -0.249 OA
BRANCH   3   5
ATOM      5  C   UNL A   1      33.838  24.579  24.700  1.00  0.00     0.223 C 
BRANCH   5   6
ATOM      6  N   UNL A   1      32.598  24.666  25.476  1.00  0.00    -0.335 N 
ATOM      7  C   UNL A   1      31.995  25.729  26.108  1.00  0.00     0.252 C 
ATOM      8  O   UNL A   1      31.042  25.526  26.855  1.00  0.00    -0.269 OA
ATOM      9  H   UNL A   1      32.112  23.814  25.560  1.00  0.00     0.165 HD
BRANCH   7  10
ATOM     10  C   UNL A   1      32.394  27.129  25.830  1.00  0.00     0.041 A 
ATOM     11  C   UNL A   1      31.836  29.388  25.234  1.00  0.00     0.041 A 
ATOM     12  C   UNL A   1      33.029  29.845  25.792  1.00  0.00     0.026 A 
ATOM     13  C   UNL A   1      31.578  28.022  25.138  1.00  0.00     0.040 A 
ATOM     14  C   UNL A   1      33.944  28.930  26.312  1.00  0.00     0.003 A 
ATOM     15  C   UNL A   1      33.612  27.575  26.363  1.00  0.00     0.014 A 
BRANCH  11  16
ATOM     16  N   UNL A   1      30.823  30.257  24.823  1.00  0.00    -0.326 N 
ATOM     17  C   UNL A   1      29.995  30.102  23.740  1.00  0.00     0.224 C 
ATOM     18  O   UNL A   1      29.273  31.051  23.425  1.00  0.00    -0.275 OA
ATOM     19  H   UNL A   1      30.690  31.066  25.367  1.00  0.00     0.169 HD
BRANCH  17  20
ATOM     20  C   UNL A   1      30.045  28.842  22.886  1.00  0.00     0.100 C 
BRANCH  20  21
ATOM     21  C   UNL A   1      28.689  28.140  22.794  1.00  0.00     0.006 C 
ATOM     22  C   UNL A   1      28.520  26.991  23.778  1.00  0.00     0.004 C 
ENDBRANCH  20  21
ENDBRANCH  17  20
ENDBRANCH  11  16
ENDBRANCH   7  10
ENDBRANCH   5   6
BRANCH   5  23
ATOM     23  C   UNL A   1      33.590  24.506  23.230  1.00  0.00     0.012 C 
ATOM     24  C   UNL A   1      33.483  25.519  22.351  1.00  0.00     0.064 C 
ATOM     25  C   UNL A   1      33.430  23.271  22.401  1.00  0.00     0.156 C 
ATOM     26  C   UNL A   1      33.631  26.992  22.550  1.00  0.00     0.069 C 
ATOM     27  N   UNL A   1      33.251  25.080  21.073  1.00  0.00    -0.160 NA
ATOM     28  N   UNL A   1      33.263  23.825  21.030  1.00  0.00    -0.181 NA
ATOM     29  C   UNL A   1      32.198  22.419  22.678  1.00  0.00     0.040 C 
ENDBRANCH   5  23
ENDBRANCH   3   5
ENDBRANCH   2   3
ENDBRANCH   1   2
BRANCH   1  30
ATOM     30  C   UNL A   1      37.447  21.510  24.674  1.00  0.00     0.275 C 
BRANCH  30  31
ATOM     31  O   UNL A   1      37.842  22.161  25.894  1.00  0.00    -0.458 OA
BRANCH  31  32
ATOM     32  C   UNL A   1      39.162  22.120  26.181  1.00  0.00     0.338 C 
ATOM     33  O   UNL A   1      39.966  21.268  25.826  1.00  0.00    -0.246 OA
BRANCH  32  34
ATOM     34  C   UNL A   1      39.563  23.314  26.944  1.00  0.00     0.060 A 
ATOM     35  C   UNL A   1      39.049  24.552  26.584  1.00  0.00     0.016 A 
ATOM     36  C   UNL A   1      40.597  23.240  27.876  1.00  0.00     0.016 A 
ATOM     37  C   UNL A   1      39.674  25.717  27.029  1.00  0.00     0.010 A 
ATOM     38  C   UNL A   1      41.149  24.420  28.402  1.00  0.00     0.010 A 
ATOM     39  C   UNL A   1      40.753  25.681  27.917  1.00  0.00    -0.014 A 
BRANCH  39  40
ATOM     40  C   UNL A   1      41.560  26.919  28.197  1.00  0.00     0.031 A 
ATOM     41  C   UNL A   1      40.952  28.032  29.024  1.00  0.00     0.074 A 
ATOM     42  C   UNL A   1      42.851  27.054  27.824  1.00  0.00     0.049 A 
ATOM     43  N   UNL A   1      41.338  29.275  29.160  1.00  0.00    -0.248 NA
ATOM     44  C   UNL A   1      39.731  27.705  29.779  1.00  0.00     0.031 C 
ATOM     45  C   UNL A   1      43.655  26.052  27.124  1.00  0.00     0.029 A 
ATOM     46  N   UNL A   1      43.733  28.092  28.025  1.00  0.00    -0.354 N 
ATOM     47  C   UNL A   1      40.344  29.905  29.904  1.00  0.00     0.074 A 
ATOM     48  C   UNL A   1      39.354  28.897  30.218  1.00  0.00     0.031 C 
ATOM     49  C   UNL A   1      44.926  26.478  27.048  1.00  0.00     0.029 A 
ATOM     50  C   UNL A   1      45.007  27.837  27.571  1.00  0.00     0.049 A 
ATOM     51  H   UNL A   1      43.475  28.940  28.453  1.00  0.00     0.167 HD
ATOM     52  C   UNL A   1      40.256  31.205  30.275  1.00  0.00     0.037 A 
ATOM     53  C   UNL A   1      46.106  28.616  27.537  1.00  0.00     0.037 A 
ATOM     54  C   UNL A   1      41.304  32.174  30.087  1.00  0.00     0.049 A 
ATOM     55  C   UNL A   1      46.013  30.050  27.984  1.00  0.00     0.074 A 
ATOM     56  C   UNL A   1      41.308  33.521  30.406  1.00  0.00     0.029 A 
ATOM     57  N   UNL A   1      42.564  31.881  29.586  1.00  0.00    -0.354 N 
ATOM     58  N   UNL A   1      44.993  30.690  28.500  1.00  0.00    -0.248 NA
ATOM     59  C   UNL A   1      47.213  30.880  27.797  1.00  0.00     0.031 C 
ATOM     60  C   UNL A   1      42.568  34.045  30.090  1.00  0.00     0.029 A 
ATOM     61  C   UNL A   1      43.357  33.017  29.601  1.00  0.00     0.049 A 
ATOM     62  H   UNL A   1      42.852  30.995  29.266  1.00  0.00     0.167 HD
ATOM     63  C   UNL A   1      45.426  31.996  28.701  1.00  0.00     0.074 A 
ATOM     64  C   UNL A   1      46.809  32.050  28.272  1.00  0.00     0.031 C 
ATOM     65  C   UNL A   1      44.735  33.058  29.184  1.00  0.00     0.037 A 
BRANCH  52  66
ATOM     66  C   UNL A   1      38.946  31.668  30.851  1.00  0.00     0.058 A 
ATOM     67  C   UNL A   1      37.874  32.096  30.056  1.00  0.00     0.135 A 
ATOM     68  C   UNL A   1      38.781  31.700  32.246  1.00  0.00     0.135 A 
ATOM     69  F   UNL A   1      37.986  32.105  28.718  1.00  0.00    -0.206 F 
ATOM     70  C   UNL A   1      36.701  32.588  30.623  1.00  0.00     0.059 A 
ATOM     71  C   UNL A   1      37.608  32.162  32.835  1.00  0.00     0.059 A 
ATOM     72  F   UNL A   1      39.773  31.296  33.055  1.00  0.00    -0.206 F 
ATOM     73  C   UNL A   1      36.583  32.628  32.015  1.00  0.00     0.060 A 
BRANCH  73  74
ATOM     74  S   UNL A   1      35.081  33.310  32.749  1.00  0.00     0.124 S 
ATOM     75  O   UNL A   1      35.219  34.727  32.427  1.00  0.00    -0.237 OA
ATOM     76  O   UNL A   1      34.026  32.599  32.033  1.00  0.00    -0.237 OA
ATOM     77  O   UNL A   1      35.212  32.970  34.161  1.00  0.00    -0.744 OA
ENDBRANCH  73  74
ENDBRANCH  52  66
BRANCH  53  78
ATOM     78  C   UNL A   1      47.389  28.072  27.014  1.00  0.00     0.058 A 
ATOM     79  C   UNL A   1      47.646  28.039  25.635  1.00  0.00     0.135 A 
ATOM     80  C   UNL A   1      48.386  27.589  27.875  1.00  0.00     0.135 A 
ATOM     81  F   UNL A   1      46.716  28.468  24.769  1.00  0.00    -0.206 F 
ATOM     82  C   UNL A   1      48.846  27.548  25.128  1.00  0.00     0.059 A 
ATOM     83  C   UNL A   1      49.604  27.121  27.395  1.00  0.00     0.059 A 
ATOM     84  F   UNL A   1      48.192  27.600  29.204  1.00  0.00    -0.206 F 
ATOM     85  C   UNL A   1      49.823  27.098  26.018  1.00  0.00     0.060 A 
BRANCH  85  86
ATOM     86  S   UNL A   1      51.410  26.535  25.365  1.00  0.00     0.124 S 
ATOM     87  O   UNL A   1      52.339  27.437  26.035  1.00  0.00    -0.237 OA
ATOM     88  O   UNL A   1      51.449  25.141  25.796  1.00  0.00    -0.237 OA
ATOM     89  O   UNL A   1      51.264  26.731  23.925  1.00  0.00    -0.744 OA
ENDBRANCH  85  86
ENDBRANCH  53  78
BRANCH  65  90
ATOM     90  C   UNL A   1      45.473  34.359  29.308  1.00  0.00     0.058 A 
ATOM     91  C   UNL A   1      45.489  35.299  28.266  1.00  0.00     0.135 A 
ATOM     92  C   UNL A   1      46.154  34.680  30.493  1.00  0.00     0.135 A 
ATOM     93  F   UNL A   1      44.857  35.037  27.111  1.00  0.00    -0.206 F 
ATOM     94  C   UNL A   1      46.176  36.503  28.384  1.00  0.00     0.059 A 
ATOM     95  C   UNL A   1      46.833  35.887  30.640  1.00  0.00     0.059 A 
ATOM     96  F   UNL A   1      46.162  33.819  31.523  1.00  0.00    -0.206 F 
ATOM     97  C   UNL A   1      46.851  36.786  29.574  1.00  0.00     0.060 A 
BRANCH  97  98
ATOM     98  S   UNL A   1      47.729  38.356  29.726  1.00  0.00     0.124 S 
ATOM     99  O   UNL A   1      48.136  38.599  28.346  1.00  0.00    -0.237 OA
ATOM    100  O   UNL A   1      46.697  39.247  30.248  1.00  0.00    -0.237 OA
ATOM    101  O   UNL A   1      48.811  38.049  30.656  1.00  0.00    -0.744 OA
ENDBRANCH  97  98
ENDBRANCH  65  90
ENDBRANCH  39  40
ENDBRANCH  32  34
ENDBRANCH  31  32
ENDBRANCH  30  31
ENDBRANCH   1  30
TORSDOF 20
ENDMDL
