MODEL 1
REMARK VINA RESULT:     -11.4      0.000      0.000
REMARK SMILES O=C(OCCOC(=O)[C@@H]1[C@H](C(=O)Nc2ccccc2OC(F)F)[C@@H]2C=C[C@H]1C2)c1ccc(-c2c3nc(c(-c4c(F)cc(S(=O)(=O)[O-])cc4F)c4ccc([nH]4)c(-c4c(F)cc(S(=O)(=O)[O-])cc4F)c4nc(c(-c5c(F)cc(S(=O)(=O)[O-])cc5F)c5ccc2[nH]5)C=C4)C=C3)cc1
REMARK SMILES IDX 5 1 4 2 3 3 2 4 1 5 29 6 30 7 94 8 31 9 93 10 32 11 33 12
REMARK SMILES IDX 34 13 87 14 35 15 92 16 86 17 88 18 36 19 91 20 85 21 84 22
REMARK SMILES IDX 37 24 71 25 50 26 70 27 51 28 54 29 69 30 89 31 52 32 53 33
REMARK SMILES IDX 68 35 90 36 55 37 38 38 39 39 48 40 40 41 41 42 47 43 49 44
REMARK SMILES IDX 42 45 43 46 44 47 45 48 46 49 72 50 73 51 82 52 74 53 75 54
REMARK SMILES IDX 81 55 83 56 76 57 77 58 78 59 79 60 80 61 56 62 57 63 66 64
REMARK SMILES IDX 58 65 59 66 65 67 67 68 60 69 61 70 62 71 63 72 64 73 6 74
REMARK SMILES IDX 7 75 8 76 9 77 10 78 27 79 24 80 26 81 28 82 25 83 11 84
REMARK SMILES IDX 12 85 13 86 14 88 15 89 19 90 16 91 18 92 17 93 20 94 21 95
REMARK SMILES IDX 22 96 23 97
REMARK H PARENT 88 23 54 34 13 87
REMARK Flexibility Score: inf
ROOT
ATOM      1  C   UNL A   1      32.916  29.254  25.544  1.00  0.00     0.274 C 
ENDROOT
BRANCH   1   2
ATOM      2  C   UNL A   1      32.939  29.180  27.078  1.00  0.00     0.275 C 
BRANCH   2   3
ATOM      3  O   UNL A   1      34.326  29.057  27.441  1.00  0.00    -0.458 OA
BRANCH   3   4
ATOM      4  C   UNL A   1      34.732  30.190  28.048  1.00  0.00     0.338 C 
ATOM      5  O   UNL A   1      34.031  31.176  28.123  1.00  0.00    -0.246 OA
BRANCH   4   6
ATOM      6  C   UNL A   1      36.190  30.211  28.368  1.00  0.00     0.060 A 
ATOM      7  C   UNL A   1      37.199  30.166  27.405  1.00  0.00     0.016 A 
ATOM      8  C   UNL A   1      36.498  29.823  29.663  1.00  0.00     0.016 A 
ATOM      9  C   UNL A   1      38.399  29.539  27.664  1.00  0.00     0.010 A 
ATOM     10  C   UNL A   1      37.659  29.131  29.931  1.00  0.00     0.010 A 
ATOM     11  C   UNL A   1      38.611  29.011  28.927  1.00  0.00    -0.014 A 
BRANCH  11  12
ATOM     12  C   UNL A   1      39.975  28.699  29.296  1.00  0.00     0.031 A 
ATOM     13  C   UNL A   1      40.536  27.361  29.000  1.00  0.00     0.074 A 
ATOM     14  C   UNL A   1      40.644  29.776  29.737  1.00  0.00     0.049 A 
ATOM     15  N   UNL A   1      41.787  27.051  28.847  1.00  0.00    -0.248 NA
ATOM     16  C   UNL A   1      39.597  26.253  28.752  1.00  0.00     0.031 C 
ATOM     17  C   UNL A   1      40.065  31.127  29.914  1.00  0.00     0.029 A 
ATOM     18  N   UNL A   1      41.930  29.931  30.118  1.00  0.00    -0.354 N 
ATOM     19  C   UNL A   1      41.794  25.737  28.408  1.00  0.00     0.074 A 
ATOM     20  C   UNL A   1      40.421  25.290  28.351  1.00  0.00     0.031 C 
ATOM     21  C   UNL A   1      40.964  31.935  30.470  1.00  0.00     0.029 A 
ATOM     22  C   UNL A   1      42.201  31.196  30.569  1.00  0.00     0.049 A 
ATOM     23  H   UNL A   1      42.601  29.212  30.075  1.00  0.00     0.167 HD
ATOM     24  C   UNL A   1      42.891  25.009  28.099  1.00  0.00     0.037 A 
ATOM     25  C   UNL A   1      43.365  31.722  30.956  1.00  0.00     0.037 A 
ATOM     26  C   UNL A   1      44.214  25.525  28.352  1.00  0.00     0.049 A 
ATOM     27  C   UNL A   1      44.549  30.865  30.682  1.00  0.00     0.074 A 
ATOM     28  C   UNL A   1      45.438  24.905  28.210  1.00  0.00     0.029 A 
ATOM     29  N   UNL A   1      44.467  26.801  28.865  1.00  0.00    -0.354 N 
ATOM     30  N   UNL A   1      44.568  29.648  30.181  1.00  0.00    -0.248 NA
ATOM     31  C   UNL A   1      45.855  31.447  30.952  1.00  0.00     0.031 C 
ATOM     32  C   UNL A   1      46.415  25.775  28.714  1.00  0.00     0.029 A 
ATOM     33  C   UNL A   1      45.815  26.968  29.102  1.00  0.00     0.049 A 
ATOM     34  H   UNL A   1      43.777  27.484  29.034  1.00  0.00     0.167 HD
ATOM     35  C   UNL A   1      45.898  29.310  30.058  1.00  0.00     0.074 A 
ATOM     36  C   UNL A   1      46.648  30.474  30.519  1.00  0.00     0.031 C 
ATOM     37  C   UNL A   1      46.460  28.157  29.614  1.00  0.00     0.037 A 
BRANCH  24  38
ATOM     38  C   UNL A   1      42.688  23.614  27.579  1.00  0.00     0.058 A 
ATOM     39  C   UNL A   1      42.527  22.514  28.440  1.00  0.00     0.135 A 
ATOM     40  C   UNL A   1      42.667  23.360  26.199  1.00  0.00     0.135 A 
ATOM     41  F   UNL A   1      42.561  22.687  29.772  1.00  0.00    -0.206 F 
ATOM     42  C   UNL A   1      42.368  21.217  27.952  1.00  0.00     0.059 A 
ATOM     43  C   UNL A   1      42.494  22.074  25.688  1.00  0.00     0.059 A 
ATOM     44  F   UNL A   1      42.833  24.367  25.327  1.00  0.00    -0.206 F 
ATOM     45  C   UNL A   1      42.357  21.006  26.573  1.00  0.00     0.060 A 
BRANCH  45  46
ATOM     46  S   UNL A   1      42.160  19.321  25.952  1.00  0.00     0.124 S 
ATOM     47  O   UNL A   1      43.010  19.342  24.765  1.00  0.00    -0.237 OA
ATOM     48  O   UNL A   1      42.650  18.517  27.067  1.00  0.00    -0.237 OA
ATOM     49  O   UNL A   1      40.727  19.217  25.692  1.00  0.00    -0.744 OA
ENDBRANCH  45  46
ENDBRANCH  24  38
BRANCH  25  50
ATOM     50  C   UNL A   1      43.379  33.107  31.471  1.00  0.00     0.058 A 
ATOM     51  C   UNL A   1      43.373  33.381  32.843  1.00  0.00     0.135 A 
ATOM     52  C   UNL A   1      43.582  34.182  30.586  1.00  0.00     0.135 A 
ATOM     53  F   UNL A   1      43.257  32.379  33.728  1.00  0.00    -0.206 F 
ATOM     54  C   UNL A   1      43.521  34.679  33.321  1.00  0.00     0.059 A 
ATOM     55  C   UNL A   1      43.756  35.482  31.040  1.00  0.00     0.059 A 
ATOM     56  F   UNL A   1      43.686  33.956  29.265  1.00  0.00    -0.206 F 
ATOM     57  C   UNL A   1      43.701  35.724  32.410  1.00  0.00     0.060 A 
BRANCH  57  58
ATOM     58  S   UNL A   1      43.874  37.405  33.040  1.00  0.00     0.124 S 
ATOM     59  O   UNL A   1      43.749  38.186  31.816  1.00  0.00    -0.237 OA
ATOM     60  O   UNL A   1      42.760  37.500  33.978  1.00  0.00    -0.237 OA
ATOM     61  O   UNL A   1      45.201  37.401  33.653  1.00  0.00    -0.744 OA
ENDBRANCH  57  58
ENDBRANCH  25  50
BRANCH  37  62
ATOM     62  C   UNL A   1      47.949  28.131  29.676  1.00  0.00     0.058 A 
ATOM     63  C   UNL A   1      48.612  27.660  30.818  1.00  0.00     0.135 A 
ATOM     64  C   UNL A   1      48.706  28.551  28.575  1.00  0.00     0.135 A 
ATOM     65  F   UNL A   1      47.914  27.269  31.896  1.00  0.00    -0.206 F 
ATOM     66  C   UNL A   1      49.995  27.633  30.877  1.00  0.00     0.059 A 
ATOM     67  C   UNL A   1      50.090  28.497  28.600  1.00  0.00     0.059 A 
ATOM     68  F   UNL A   1      48.100  29.003  27.466  1.00  0.00    -0.206 F 
ATOM     69  C   UNL A   1      50.722  28.048  29.761  1.00  0.00     0.060 A 
BRANCH  69  70
ATOM     70  S   UNL A   1      52.518  27.963  29.837  1.00  0.00     0.124 S 
ATOM     71  O   UNL A   1      52.811  28.947  30.873  1.00  0.00    -0.237 OA
ATOM     72  O   UNL A   1      52.746  26.569  30.201  1.00  0.00    -0.237 OA
ATOM     73  O   UNL A   1      52.930  28.329  28.486  1.00  0.00    -0.744 OA
ENDBRANCH  69  70
ENDBRANCH  37  62
ENDBRANCH  11  12
ENDBRANCH   4   6
ENDBRANCH   3   4
ENDBRANCH   2   3
ENDBRANCH   1   2
BRANCH   1  74
ATOM     74  O   UNL A   1      33.773  28.258  24.904  1.00  0.00    -0.462 OA
BRANCH  74  75
ATOM     75  C   UNL A   1      33.225  27.364  24.015  1.00  0.00     0.310 C 
ATOM     76  O   UNL A   1      33.761  27.115  22.941  1.00  0.00    -0.252 OA
BRANCH  75  77
ATOM     77  C   UNL A   1      31.799  26.917  24.455  1.00  0.00     0.119 C 
ATOM     78  C   UNL A   1      31.171  25.795  25.482  1.00  0.00     0.100 C 
ATOM     79  C   UNL A   1      31.000  26.650  23.152  1.00  0.00     0.027 C 
ATOM     80  C   UNL A   1      29.955  25.305  24.589  1.00  0.00     0.025 C 
ATOM     81  C   UNL A   1      31.246  25.228  22.705  1.00  0.00    -0.027 C 
ATOM     82  C   UNL A   1      29.591  26.508  23.717  1.00  0.00     0.017 C 
ATOM     83  C   UNL A   1      30.568  24.423  23.534  1.00  0.00    -0.027 C 
BRANCH  78  84
ATOM     84  C   UNL A   1      31.663  24.466  26.302  1.00  0.00     0.229 C 
ATOM     85  O   UNL A   1      30.955  24.105  27.261  1.00  0.00    -0.274 OA
ATOM     86  N   UNL A   1      32.934  23.905  26.252  1.00  0.00    -0.323 N 
ATOM     87  H   UNL A   1      33.695  24.489  26.471  1.00  0.00     0.170 HD
BRANCH  86  88
ATOM     88  C   UNL A   1      33.226  22.530  25.900  1.00  0.00     0.084 A 
ATOM     89  C   UNL A   1      32.145  21.739  25.516  1.00  0.00     0.030 A 
ATOM     90  C   UNL A   1      34.557  21.973  25.789  1.00  0.00     0.149 A 
ATOM     91  C   UNL A   1      32.343  20.507  24.908  1.00  0.00     0.002 A 
ATOM     92  C   UNL A   1      34.732  20.773  25.095  1.00  0.00     0.049 A 
ATOM     93  C   UNL A   1      33.629  20.061  24.634  1.00  0.00     0.004 A 
BRANCH  90  94
ATOM     94  O   UNL A   1      35.636  22.607  26.338  1.00  0.00    -0.433 OA
BRANCH  94  95
ATOM     95  C   UNL A   1      36.700  23.200  25.573  1.00  0.00     0.542 C 
ATOM     96  F   UNL A   1      36.211  24.308  24.940  1.00  0.00    -0.167 F 
ATOM     97  F   UNL A   1      37.623  23.696  26.436  1.00  0.00    -0.167 F 
ENDBRANCH  94  95
ENDBRANCH  90  94
ENDBRANCH  86  88
ENDBRANCH  78  84
ENDBRANCH  75  77
ENDBRANCH  74  75
ENDBRANCH   1  74
TORSDOF 18
ENDMDL
MODEL 2
REMARK VINA RESULT:     -11.4      1.443      2.374
REMARK SMILES O=C(OCCOC(=O)[C@@H]1[C@H](C(=O)Nc2ccccc2OC(F)F)[C@@H]2C=C[C@H]1C2)c1ccc(-c2c3nc(c(-c4c(F)cc(S(=O)(=O)[O-])cc4F)c4ccc([nH]4)c(-c4c(F)cc(S(=O)(=O)[O-])cc4F)c4nc(c(-c5c(F)cc(S(=O)(=O)[O-])cc5F)c5ccc2[nH]5)C=C4)C=C3)cc1
REMARK SMILES IDX 5 1 4 2 3 3 2 4 1 5 29 6 30 7 94 8 31 9 93 10 32 11 33 12
REMARK SMILES IDX 34 13 87 14 35 15 92 16 86 17 88 18 36 19 91 20 85 21 84 22
REMARK SMILES IDX 37 24 71 25 50 26 70 27 51 28 54 29 69 30 89 31 52 32 53 33
REMARK SMILES IDX 68 35 90 36 55 37 38 38 39 39 48 40 40 41 41 42 47 43 49 44
REMARK SMILES IDX 42 45 43 46 44 47 45 48 46 49 72 50 73 51 82 52 74 53 75 54
REMARK SMILES IDX 81 55 83 56 76 57 77 58 78 59 79 60 80 61 56 62 57 63 66 64
REMARK SMILES IDX 58 65 59 66 65 67 67 68 60 69 61 70 62 71 63 72 64 73 6 74
REMARK SMILES IDX 7 75 8 76 9 77 10 78 27 79 24 80 26 81 28 82 25 83 11 84
REMARK SMILES IDX 12 85 13 86 14 88 15 89 19 90 16 91 18 92 17 93 20 94 21 95
REMARK SMILES IDX 22 96 23 97
REMARK H PARENT 88 23 54 34 13 87
REMARK Flexibility Score: inf
ROOT
ATOM      1  C   UNL A   1      32.207  27.749  27.316  1.00  0.00     0.274 C 
ENDROOT
BRANCH   1   2
ATOM      2  C   UNL A   1      32.966  29.021  26.910  1.00  0.00     0.275 C 
BRANCH   2   3
ATOM      3  O   UNL A   1      34.256  28.922  27.540  1.00  0.00    -0.458 OA
BRANCH   3   4
ATOM      4  C   UNL A   1      34.728  30.159  27.794  1.00  0.00     0.338 C 
ATOM      5  O   UNL A   1      34.121  31.163  27.486  1.00  0.00    -0.246 OA
BRANCH   4   6
ATOM      6  C   UNL A   1      36.155  30.182  28.229  1.00  0.00     0.060 A 
ATOM      7  C   UNL A   1      37.235  30.243  27.347  1.00  0.00     0.016 A 
ATOM      8  C   UNL A   1      36.374  29.688  29.505  1.00  0.00     0.016 A 
ATOM      9  C   UNL A   1      38.429  29.620  27.645  1.00  0.00     0.010 A 
ATOM     10  C   UNL A   1      37.530  28.998  29.802  1.00  0.00     0.010 A 
ATOM     11  C   UNL A   1      38.558  28.987  28.869  1.00  0.00    -0.014 A 
BRANCH  11  12
ATOM     12  C   UNL A   1      39.899  28.672  29.316  1.00  0.00     0.031 A 
ATOM     13  C   UNL A   1      40.484  27.343  29.026  1.00  0.00     0.074 A 
ATOM     14  C   UNL A   1      40.533  29.742  29.821  1.00  0.00     0.049 A 
ATOM     15  N   UNL A   1      41.743  27.041  28.944  1.00  0.00    -0.248 NA
ATOM     16  C   UNL A   1      39.567  26.238  28.695  1.00  0.00     0.031 C 
ATOM     17  C   UNL A   1      39.938  31.085  29.992  1.00  0.00     0.029 A 
ATOM     18  N   UNL A   1      41.792  29.892  30.285  1.00  0.00    -0.354 N 
ATOM     19  C   UNL A   1      41.784  25.737  28.478  1.00  0.00     0.074 A 
ATOM     20  C   UNL A   1      40.420  25.287  28.326  1.00  0.00     0.031 C 
ATOM     21  C   UNL A   1      40.796  31.884  30.620  1.00  0.00     0.029 A 
ATOM     22  C   UNL A   1      42.028  31.148  30.780  1.00  0.00     0.049 A 
ATOM     23  H   UNL A   1      42.468  29.177  30.269  1.00  0.00     0.167 HD
ATOM     24  C   UNL A   1      42.902  25.020  28.222  1.00  0.00     0.037 A 
ATOM     25  C   UNL A   1      43.163  31.669  31.251  1.00  0.00     0.037 A 
ATOM     26  C   UNL A   1      44.204  25.535  28.569  1.00  0.00     0.049 A 
ATOM     27  C   UNL A   1      44.366  30.823  31.032  1.00  0.00     0.074 A 
ATOM     28  C   UNL A   1      45.437  24.923  28.490  1.00  0.00     0.029 A 
ATOM     29  N   UNL A   1      44.417  26.800  29.125  1.00  0.00    -0.354 N 
ATOM     30  N   UNL A   1      44.423  29.617  30.507  1.00  0.00    -0.248 NA
ATOM     31  C   UNL A   1      45.650  31.404  31.396  1.00  0.00     0.031 C 
ATOM     32  C   UNL A   1      46.377  25.784  29.073  1.00  0.00     0.029 A 
ATOM     33  C   UNL A   1      45.748  26.967  29.449  1.00  0.00     0.049 A 
ATOM     34  H   UNL A   1      43.716  27.476  29.265  1.00  0.00     0.167 HD
ATOM     35  C   UNL A   1      45.759  29.287  30.460  1.00  0.00     0.074 A 
ATOM     36  C   UNL A   1      46.473  30.444  30.993  1.00  0.00     0.031 C 
ATOM     37  C   UNL A   1      46.354  28.146  30.027  1.00  0.00     0.037 A 
BRANCH  24  38
ATOM     38  C   UNL A   1      42.738  23.636  27.660  1.00  0.00     0.058 A 
ATOM     39  C   UNL A   1      42.701  23.395  26.275  1.00  0.00     0.135 A 
ATOM     40  C   UNL A   1      42.599  22.529  28.511  1.00  0.00     0.135 A 
ATOM     41  F   UNL A   1      42.805  24.416  25.407  1.00  0.00    -0.206 F 
ATOM     42  C   UNL A   1      42.521  22.112  25.758  1.00  0.00     0.059 A 
ATOM     43  C   UNL A   1      42.433  21.236  28.016  1.00  0.00     0.059 A 
ATOM     44  F   UNL A   1      42.608  22.698  29.842  1.00  0.00    -0.206 F 
ATOM     45  C   UNL A   1      42.383  21.038  26.638  1.00  0.00     0.060 A 
BRANCH  45  46
ATOM     46  S   UNL A   1      42.139  19.382  25.957  1.00  0.00     0.124 S 
ATOM     47  O   UNL A   1      40.696  19.365  25.733  1.00  0.00    -0.237 OA
ATOM     48  O   UNL A   1      42.965  19.413  24.754  1.00  0.00    -0.237 OA
ATOM     49  O   UNL A   1      42.616  18.501  27.019  1.00  0.00    -0.744 OA
ENDBRANCH  45  46
ENDBRANCH  24  38
BRANCH  25  50
ATOM     50  C   UNL A   1      43.138  33.042  31.796  1.00  0.00     0.058 A 
ATOM     51  C   UNL A   1      42.982  33.286  33.165  1.00  0.00     0.135 A 
ATOM     52  C   UNL A   1      43.453  34.133  30.965  1.00  0.00     0.135 A 
ATOM     53  F   UNL A   1      42.756  32.268  34.008  1.00  0.00    -0.206 F 
ATOM     54  C   UNL A   1      43.093  34.572  33.686  1.00  0.00     0.059 A 
ATOM     55  C   UNL A   1      43.592  35.420  31.465  1.00  0.00     0.059 A 
ATOM     56  F   UNL A   1      43.700  33.934  29.658  1.00  0.00    -0.206 F 
ATOM     57  C   UNL A   1      43.389  35.633  32.826  1.00  0.00     0.060 A 
BRANCH  57  58
ATOM     58  S   UNL A   1      43.513  37.297  33.511  1.00  0.00     0.124 S 
ATOM     59  O   UNL A   1      44.745  37.199  34.284  1.00  0.00    -0.237 OA
ATOM     60  O   UNL A   1      43.575  38.122  32.309  1.00  0.00    -0.237 OA
ATOM     61  O   UNL A   1      42.286  37.433  34.292  1.00  0.00    -0.744 OA
ENDBRANCH  57  58
ENDBRANCH  25  50
BRANCH  37  62
ATOM     62  C   UNL A   1      47.836  28.124  30.181  1.00  0.00     0.058 A 
ATOM     63  C   UNL A   1      48.672  28.579  29.151  1.00  0.00     0.135 A 
ATOM     64  C   UNL A   1      48.413  27.675  31.375  1.00  0.00     0.135 A 
ATOM     65  F   UNL A   1      48.149  28.998  27.986  1.00  0.00    -0.206 F 
ATOM     66  C   UNL A   1      50.048  28.560  29.291  1.00  0.00     0.059 A 
ATOM     67  C   UNL A   1      49.786  27.684  31.550  1.00  0.00     0.059 A 
ATOM     68  F   UNL A   1      47.639  27.237  32.381  1.00  0.00    -0.206 F 
ATOM     69  C   UNL A   1      50.593  28.117  30.496  1.00  0.00     0.060 A 
BRANCH  69  70
ATOM     70  S   UNL A   1      52.384  28.143  30.681  1.00  0.00     0.124 S 
ATOM     71  O   UNL A   1      52.614  29.531  31.069  1.00  0.00    -0.237 OA
ATOM     72  O   UNL A   1      52.601  27.146  31.724  1.00  0.00    -0.237 OA
ATOM     73  O   UNL A   1      52.864  27.771  29.354  1.00  0.00    -0.744 OA
ENDBRANCH  69  70
ENDBRANCH  37  62
ENDBRANCH  11  12
ENDBRANCH   4   6
ENDBRANCH   3   4
ENDBRANCH   2   3
ENDBRANCH   1   2
BRANCH   1  74
ATOM     74  O   UNL A   1      31.263  27.290  26.300  1.00  0.00    -0.462 OA
BRANCH  74  75
ATOM     75  C   UNL A   1      31.182  25.948  26.008  1.00  0.00     0.310 C 
ATOM     76  O   UNL A   1      31.361  25.092  26.865  1.00  0.00    -0.252 OA
BRANCH  75  77
ATOM     77  C   UNL A   1      31.058  25.701  24.474  1.00  0.00     0.119 C 
ATOM     78  C   UNL A   1      31.359  24.453  23.445  1.00  0.00     0.100 C 
ATOM     79  C   UNL A   1      31.788  26.881  23.779  1.00  0.00     0.027 C 
ATOM     80  C   UNL A   1      31.989  25.277  22.245  1.00  0.00     0.025 C 
ATOM     81  C   UNL A   1      33.257  26.548  23.657  1.00  0.00    -0.027 C 
ATOM     82  C   UNL A   1      31.349  26.664  22.335  1.00  0.00     0.017 C 
ATOM     83  C   UNL A   1      33.382  25.628  22.692  1.00  0.00    -0.027 C 
BRANCH  78  84
ATOM     84  C   UNL A   1      32.155  23.023  23.447  1.00  0.00     0.229 C 
ATOM     85  O   UNL A   1      31.756  22.158  22.643  1.00  0.00    -0.274 OA
ATOM     86  N   UNL A   1      32.994  22.561  24.454  1.00  0.00    -0.323 N 
ATOM     87  H   UNL A   1      32.624  22.510  25.364  1.00  0.00     0.170 HD
BRANCH  86  88
ATOM     88  C   UNL A   1      34.372  22.151  24.270  1.00  0.00     0.084 A 
ATOM     89  C   UNL A   1      35.213  23.055  23.625  1.00  0.00     0.030 A 
ATOM     90  C   UNL A   1      34.954  20.948  24.823  1.00  0.00     0.149 A 
ATOM     91  C   UNL A   1      36.591  22.882  23.638  1.00  0.00     0.002 A 
ATOM     92  C   UNL A   1      36.346  20.844  24.900  1.00  0.00     0.049 A 
ATOM     93  C   UNL A   1      37.156  21.822  24.333  1.00  0.00     0.004 A 
BRANCH  90  94
ATOM     94  O   UNL A   1      34.168  19.927  25.280  1.00  0.00    -0.433 OA
BRANCH  94  95
ATOM     95  C   UNL A   1      33.556  18.937  24.435  1.00  0.00     0.542 C 
ATOM     96  F   UNL A   1      33.827  17.702  24.951  1.00  0.00    -0.167 F 
ATOM     97  F   UNL A   1      32.209  19.053  24.548  1.00  0.00    -0.167 F 
ENDBRANCH  94  95
ENDBRANCH  90  94
ENDBRANCH  86  88
ENDBRANCH  78  84
ENDBRANCH  75  77
ENDBRANCH  74  75
ENDBRANCH   1  74
TORSDOF 18
ENDMDL
MODEL 3
REMARK VINA RESULT:     -11.4      3.397      8.818
REMARK SMILES O=C(OCCOC(=O)[C@@H]1[C@H](C(=O)Nc2ccccc2OC(F)F)[C@@H]2C=C[C@H]1C2)c1ccc(-c2c3nc(c(-c4c(F)cc(S(=O)(=O)[O-])cc4F)c4ccc([nH]4)c(-c4c(F)cc(S(=O)(=O)[O-])cc4F)c4nc(c(-c5c(F)cc(S(=O)(=O)[O-])cc5F)c5ccc2[nH]5)C=C4)C=C3)cc1
REMARK SMILES IDX 5 1 4 2 3 3 2 4 1 5 29 6 30 7 94 8 31 9 93 10 32 11 33 12
REMARK SMILES IDX 34 13 87 14 35 15 92 16 86 17 88 18 36 19 91 20 85 21 84 22
REMARK SMILES IDX 37 24 71 25 50 26 70 27 51 28 54 29 69 30 89 31 52 32 53 33
REMARK SMILES IDX 68 35 90 36 55 37 38 38 39 39 48 40 40 41 41 42 47 43 49 44
REMARK SMILES IDX 42 45 43 46 44 47 45 48 46 49 72 50 73 51 82 52 74 53 75 54
REMARK SMILES IDX 81 55 83 56 76 57 77 58 78 59 79 60 80 61 56 62 57 63 66 64
REMARK SMILES IDX 58 65 59 66 65 67 67 68 60 69 61 70 62 71 63 72 64 73 6 74
REMARK SMILES IDX 7 75 8 76 9 77 10 78 27 79 24 80 26 81 28 82 25 83 11 84
REMARK SMILES IDX 12 85 13 86 14 88 15 89 19 90 16 91 18 92 17 93 20 94 21 95
REMARK SMILES IDX 22 96 23 97
REMARK H PARENT 88 23 54 34 13 87
REMARK Flexibility Score: inf
ROOT
ATOM      1  C   UNL A   1      32.289  28.300  26.657  1.00  0.00     0.274 C 
ENDROOT
BRANCH   1   2
ATOM      2  C   UNL A   1      33.543  28.914  26.017  1.00  0.00     0.275 C 
BRANCH   2   3
ATOM      3  O   UNL A   1      34.572  28.828  27.019  1.00  0.00    -0.458 OA
BRANCH   3   4
ATOM      4  C   UNL A   1      34.724  30.030  27.611  1.00  0.00     0.338 C 
ATOM      5  O   UNL A   1      33.950  30.946  27.430  1.00  0.00    -0.246 OA
BRANCH   4   6
ATOM      6  C   UNL A   1      36.048  30.212  28.273  1.00  0.00     0.060 A 
ATOM      7  C   UNL A   1      37.232  30.481  27.585  1.00  0.00     0.016 A 
ATOM      8  C   UNL A   1      36.136  29.660  29.542  1.00  0.00     0.016 A 
ATOM      9  C   UNL A   1      38.442  30.003  28.042  1.00  0.00     0.010 A 
ATOM     10  C   UNL A   1      37.318  29.112  29.989  1.00  0.00     0.010 A 
ATOM     11  C   UNL A   1      38.470  29.305  29.238  1.00  0.00    -0.014 A 
BRANCH  11  12
ATOM     12  C   UNL A   1      39.756  29.141  29.881  1.00  0.00     0.031 A 
ATOM     13  C   UNL A   1      40.105  29.964  31.061  1.00  0.00     0.074 A 
ATOM     14  C   UNL A   1      40.438  28.091  29.397  1.00  0.00     0.049 A 
ATOM     15  N   UNL A   1      40.959  29.675  31.994  1.00  0.00    -0.248 NA
ATOM     16  C   UNL A   1      39.353  31.212  31.285  1.00  0.00     0.031 C 
ATOM     17  C   UNL A   1      39.995  27.226  28.282  1.00  0.00     0.029 A 
ATOM     18  N   UNL A   1      41.629  27.563  29.755  1.00  0.00    -0.354 N 
ATOM     19  C   UNL A   1      40.802  30.656  32.960  1.00  0.00     0.074 A 
ATOM     20  C   UNL A   1      39.791  31.574  32.487  1.00  0.00     0.031 C 
ATOM     21  C   UNL A   1      40.951  26.351  27.981  1.00  0.00     0.029 A 
ATOM     22  C   UNL A   1      42.005  26.516  28.955  1.00  0.00     0.049 A 
ATOM     23  H   UNL A   1      42.168  27.893  30.509  1.00  0.00     0.167 HD
ATOM     24  C   UNL A   1      41.479  30.737  34.127  1.00  0.00     0.037 A 
ATOM     25  C   UNL A   1      43.073  25.721  29.053  1.00  0.00     0.037 A 
ATOM     26  C   UNL A   1      42.577  29.843  34.407  1.00  0.00     0.049 A 
ATOM     27  C   UNL A   1      43.851  25.888  30.309  1.00  0.00     0.074 A 
ATOM     28  C   UNL A   1      43.448  29.834  35.475  1.00  0.00     0.029 A 
ATOM     29  N   UNL A   1      42.980  28.815  33.550  1.00  0.00    -0.354 N 
ATOM     30  N   UNL A   1      43.651  26.761  31.274  1.00  0.00    -0.248 NA
ATOM     31  C   UNL A   1      44.940  24.950  30.534  1.00  0.00     0.031 C 
ATOM     32  C   UNL A   1      44.422  28.858  35.221  1.00  0.00     0.029 A 
ATOM     33  C   UNL A   1      44.119  28.204  34.031  1.00  0.00     0.049 A 
ATOM     34  H   UNL A   1      42.515  28.563  32.719  1.00  0.00     0.167 HD
ATOM     35  C   UNL A   1      44.586  26.474  32.244  1.00  0.00     0.074 A 
ATOM     36  C   UNL A   1      45.334  25.324  31.746  1.00  0.00     0.031 C 
ATOM     37  C   UNL A   1      44.821  27.091  33.430  1.00  0.00     0.037 A 
BRANCH  24  38
ATOM     38  C   UNL A   1      41.119  31.846  35.077  1.00  0.00     0.058 A 
ATOM     39  C   UNL A   1      40.098  31.705  36.033  1.00  0.00     0.135 A 
ATOM     40  C   UNL A   1      41.790  33.077  35.026  1.00  0.00     0.135 A 
ATOM     41  F   UNL A   1      39.403  30.558  36.116  1.00  0.00    -0.206 F 
ATOM     42  C   UNL A   1      39.749  32.746  36.892  1.00  0.00     0.059 A 
ATOM     43  C   UNL A   1      41.468  34.128  35.885  1.00  0.00     0.059 A 
ATOM     44  F   UNL A   1      42.761  33.278  34.122  1.00  0.00    -0.206 F 
ATOM     45  C   UNL A   1      40.437  33.957  36.807  1.00  0.00     0.060 A 
BRANCH  45  46
ATOM     46  S   UNL A   1      39.969  35.304  37.918  1.00  0.00     0.124 S 
ATOM     47  O   UNL A   1      38.728  34.793  38.493  1.00  0.00    -0.237 OA
ATOM     48  O   UNL A   1      41.108  35.369  38.829  1.00  0.00    -0.237 OA
ATOM     49  O   UNL A   1      39.819  36.448  37.025  1.00  0.00    -0.744 OA
ENDBRANCH  45  46
ENDBRANCH  24  38
BRANCH  25  50
ATOM     50  C   UNL A   1      43.290  24.696  28.011  1.00  0.00     0.058 A 
ATOM     51  C   UNL A   1      44.085  24.947  26.887  1.00  0.00     0.135 A 
ATOM     52  C   UNL A   1      42.844  23.378  28.221  1.00  0.00     0.135 A 
ATOM     53  F   UNL A   1      44.596  26.171  26.686  1.00  0.00    -0.206 F 
ATOM     54  C   UNL A   1      44.394  23.938  25.981  1.00  0.00     0.059 A 
ATOM     55  C   UNL A   1      43.159  22.350  27.343  1.00  0.00     0.059 A 
ATOM     56  F   UNL A   1      42.153  23.069  29.331  1.00  0.00    -0.206 F 
ATOM     57  C   UNL A   1      43.917  22.645  26.213  1.00  0.00     0.060 A 
BRANCH  57  58
ATOM     58  S   UNL A   1      44.308  21.349  25.021  1.00  0.00     0.124 S 
ATOM     59  O   UNL A   1      45.657  20.977  25.432  1.00  0.00    -0.237 OA
ATOM     60  O   UNL A   1      43.265  20.363  25.283  1.00  0.00    -0.237 OA
ATOM     61  O   UNL A   1      44.206  22.032  23.734  1.00  0.00    -0.744 OA
ENDBRANCH  57  58
ENDBRANCH  25  50
BRANCH  37  62
ATOM     62  C   UNL A   1      45.966  26.532  34.202  1.00  0.00     0.058 A 
ATOM     63  C   UNL A   1      47.264  27.032  34.024  1.00  0.00     0.135 A 
ATOM     64  C   UNL A   1      45.752  25.517  35.144  1.00  0.00     0.135 A 
ATOM     65  F   UNL A   1      47.504  27.991  33.115  1.00  0.00    -0.206 F 
ATOM     66  C   UNL A   1      48.330  26.516  34.740  1.00  0.00     0.059 A 
ATOM     67  C   UNL A   1      46.798  25.014  35.898  1.00  0.00     0.059 A 
ATOM     68  F   UNL A   1      44.520  25.022  35.340  1.00  0.00    -0.206 F 
ATOM     69  C   UNL A   1      48.083  25.512  35.679  1.00  0.00     0.060 A 
BRANCH  69  70
ATOM     70  S   UNL A   1      49.472  24.885  36.637  1.00  0.00     0.124 S 
ATOM     71  O   UNL A   1      49.873  23.728  35.842  1.00  0.00    -0.237 OA
ATOM     72  O   UNL A   1      50.393  26.016  36.622  1.00  0.00    -0.237 OA
ATOM     73  O   UNL A   1      48.877  24.583  37.934  1.00  0.00    -0.744 OA
ENDBRANCH  69  70
ENDBRANCH  37  62
ENDBRANCH  11  12
ENDBRANCH   4   6
ENDBRANCH   3   4
ENDBRANCH   2   3
ENDBRANCH   1   2
BRANCH   1  74
ATOM     74  O   UNL A   1      31.352  27.749  25.680  1.00  0.00    -0.462 OA
BRANCH  74  75
ATOM     75  C   UNL A   1      31.206  26.384  25.576  1.00  0.00     0.310 C 
ATOM     76  O   UNL A   1      31.323  25.650  26.550  1.00  0.00    -0.252 OA
BRANCH  75  77
ATOM     77  C   UNL A   1      31.102  25.930  24.090  1.00  0.00     0.119 C 
ATOM     78  C   UNL A   1      31.391  24.545  23.249  1.00  0.00     0.100 C 
ATOM     79  C   UNL A   1      31.867  26.987  23.252  1.00  0.00     0.027 C 
ATOM     80  C   UNL A   1      32.057  25.182  21.958  1.00  0.00     0.025 C 
ATOM     81  C   UNL A   1      33.330  26.613  23.204  1.00  0.00    -0.027 C 
ATOM     82  C   UNL A   1      31.446  26.580  21.844  1.00  0.00     0.017 C 
ATOM     83  C   UNL A   1      33.450  25.565  22.378  1.00  0.00    -0.027 C 
BRANCH  78  84
ATOM     84  C   UNL A   1      32.157  23.114  23.463  1.00  0.00     0.229 C 
ATOM     85  O   UNL A   1      31.676  22.126  22.875  1.00  0.00    -0.274 OA
ATOM     86  N   UNL A   1      33.068  22.823  24.472  1.00  0.00    -0.323 N 
ATOM     87  H   UNL A   1      32.774  22.959  25.401  1.00  0.00     0.170 HD
BRANCH  86  88
ATOM     88  C   UNL A   1      34.417  22.337  24.262  1.00  0.00     0.084 A 
ATOM     89  C   UNL A   1      35.260  23.140  23.496  1.00  0.00     0.030 A 
ATOM     90  C   UNL A   1      34.979  21.165  24.899  1.00  0.00     0.149 A 
ATOM     91  C   UNL A   1      36.628  22.908  23.461  1.00  0.00     0.002 A 
ATOM     92  C   UNL A   1      36.368  21.007  24.920  1.00  0.00     0.049 A 
ATOM     93  C   UNL A   1      37.186  21.892  24.226  1.00  0.00     0.004 A 
BRANCH  90  94
ATOM     94  O   UNL A   1      34.177  20.227  25.486  1.00  0.00    -0.433 OA
BRANCH  94  95
ATOM     95  C   UNL A   1      33.609  19.101  24.794  1.00  0.00     0.542 C 
ATOM     96  F   UNL A   1      33.091  19.540  23.609  1.00  0.00    -0.167 F 
ATOM     97  F   UNL A   1      34.619  18.273  24.425  1.00  0.00    -0.167 F 
ENDBRANCH  94  95
ENDBRANCH  90  94
ENDBRANCH  86  88
ENDBRANCH  78  84
ENDBRANCH  75  77
ENDBRANCH  74  75
ENDBRANCH   1  74
TORSDOF 18
ENDMDL
