MODEL 1
REMARK VINA RESULT:     -10.0      0.000      0.000
REMARK SMILES C[C@H](C(=O)OCCOC(=O)c1ccc(-c2c3nc(c(-c4c(F)cc(S(=O)(=O)[O-])cc4F)c4ccc([nH]4)c(-c4c(F)cc(S(=O)(=O)[O-])cc4F)c4nc(c(-c5c(F)cc(S(=O)(=O)[O-])cc5F)c5ccc2[nH]5)C=C4)C=C3)cc1)c1ccc2c(c1)[nH]c1ccc(Cl)cc12
REMARK SMILES IDX 7 1 6 2 5 3 3 4 4 5 2 6 1 7 77 8 78 9 82 10 79 11 81 12
REMARK SMILES IDX 80 13 83 14 90 15 84 16 89 18 85 19 87 20 86 21 88 22 8 23
REMARK SMILES IDX 9 24 10 25 11 26 12 27 76 28 13 29 75 30 14 31 15 32 16 33
REMARK SMILES IDX 69 34 17 35 74 36 68 37 70 38 18 39 73 40 67 41 66 42 19 44
REMARK SMILES IDX 53 45 32 46 52 47 33 48 36 49 51 50 71 51 34 52 35 53 50 55
REMARK SMILES IDX 72 56 37 57 20 58 21 59 30 60 22 61 23 62 29 63 31 64 24 65
REMARK SMILES IDX 25 66 26 67 27 68 28 69 54 70 55 71 64 72 56 73 57 74 63 75
REMARK SMILES IDX 65 76 58 77 59 78 60 79 61 80 62 81 38 82 39 83 48 84 40 85
REMARK SMILES IDX 41 86 47 87 49 88 42 89 43 90 44 91 45 92 46 93
REMARK H PARENT 83 17 70 43 36 54
REMARK Flexibility Score: inf
ROOT
ATOM      1  C   UNL A   1      34.362  33.010  28.672  1.00  0.00     0.275 C 
ENDROOT
BRANCH   1   2
ATOM      2  C   UNL A   1      34.287  33.984  29.844  1.00  0.00     0.274 C 
BRANCH   2   3
ATOM      3  O   UNL A   1      35.344  33.754  30.794  1.00  0.00    -0.462 OA
BRANCH   3   4
ATOM      4  C   UNL A   1      34.951  33.386  32.046  1.00  0.00     0.313 C 
ATOM      5  O   UNL A   1      33.949  32.721  32.289  1.00  0.00    -0.252 OA
BRANCH   4   6
ATOM      6  C   UNL A   1      35.829  33.999  33.140  1.00  0.00     0.126 C 
ATOM      7  C   UNL A   1      35.061  34.366  34.405  1.00  0.00     0.025 C 
BRANCH   6   8
ATOM      8  C   UNL A   1      37.046  33.128  33.417  1.00  0.00    -0.032 A 
ATOM      9  C   UNL A   1      38.289  33.713  33.691  1.00  0.00     0.005 A 
ATOM     10  C   UNL A   1      36.945  31.732  33.310  1.00  0.00     0.031 A 
ATOM     11  C   UNL A   1      39.453  32.933  33.788  1.00  0.00     0.011 A 
ATOM     12  C   UNL A   1      38.122  30.988  33.317  1.00  0.00     0.047 A 
ATOM     13  C   UNL A   1      39.374  31.545  33.553  1.00  0.00     0.007 A 
ATOM     14  N   UNL A   1      38.302  29.656  33.055  1.00  0.00    -0.355 N 
ATOM     15  C   UNL A   1      40.328  30.481  33.454  1.00  0.00     0.009 A 
ATOM     16  C   UNL A   1      39.633  29.330  33.078  1.00  0.00     0.047 A 
ATOM     17  H   UNL A   1      37.573  29.018  32.874  1.00  0.00     0.167 HD
ATOM     18  C   UNL A   1      41.728  30.399  33.600  1.00  0.00     0.031 A 
ATOM     19  C   UNL A   1      40.258  28.114  32.786  1.00  0.00     0.028 A 
ATOM     20  C   UNL A   1      42.364  29.182  33.339  1.00  0.00     0.041 A 
ATOM     21  C   UNL A   1      41.646  28.063  32.921  1.00  0.00     0.022 A 
ATOM     22  Cl  UNL A   1      44.073  29.063  33.530  1.00  0.00    -0.084 Cl
ENDBRANCH   6   8
ENDBRANCH   4   6
ENDBRANCH   3   4
ENDBRANCH   2   3
ENDBRANCH   1   2
BRANCH   1  23
ATOM     23  O   UNL A   1      34.231  31.653  29.121  1.00  0.00    -0.458 OA
BRANCH  23  24
ATOM     24  C   UNL A   1      34.469  30.716  28.173  1.00  0.00     0.338 C 
ATOM     25  O   UNL A   1      33.742  30.383  27.254  1.00  0.00    -0.246 OA
BRANCH  24  26
ATOM     26  C   UNL A   1      35.832  30.203  28.344  1.00  0.00     0.060 A 
ATOM     27  C   UNL A   1      36.257  29.849  29.626  1.00  0.00     0.016 A 
ATOM     28  C   UNL A   1      36.711  30.161  27.264  1.00  0.00     0.016 A 
ATOM     29  C   UNL A   1      37.571  29.459  29.844  1.00  0.00     0.010 A 
ATOM     30  C   UNL A   1      38.028  29.752  27.480  1.00  0.00     0.010 A 
ATOM     31  C   UNL A   1      38.467  29.413  28.773  1.00  0.00    -0.014 A 
BRANCH  31  32
ATOM     32  C   UNL A   1      39.885  29.074  29.021  1.00  0.00     0.031 A 
ATOM     33  C   UNL A   1      40.805  30.123  29.570  1.00  0.00     0.074 A 
ATOM     34  C   UNL A   1      40.331  27.831  28.765  1.00  0.00     0.049 A 
ATOM     35  N   UNL A   1      42.102  30.088  29.718  1.00  0.00    -0.248 NA
ATOM     36  C   UNL A   1      40.179  31.382  30.008  1.00  0.00     0.031 C 
ATOM     37  C   UNL A   1      39.507  26.719  28.287  1.00  0.00     0.029 A 
ATOM     38  N   UNL A   1      41.590  27.298  28.862  1.00  0.00    -0.354 N 
ATOM     39  C   UNL A   1      42.456  31.330  30.231  1.00  0.00     0.074 A 
ATOM     40  C   UNL A   1      41.236  32.099  30.365  1.00  0.00     0.031 C 
ATOM     41  C   UNL A   1      40.285  25.636  28.126  1.00  0.00     0.029 A 
ATOM     42  C   UNL A   1      41.665  25.994  28.434  1.00  0.00     0.049 A 
ATOM     43  H   UNL A   1      42.364  27.800  29.205  1.00  0.00     0.167 HD
ATOM     44  C   UNL A   1      43.689  31.783  30.556  1.00  0.00     0.037 A 
ATOM     45  C   UNL A   1      42.737  25.194  28.272  1.00  0.00     0.037 A 
ATOM     46  C   UNL A   1      44.889  30.996  30.435  1.00  0.00     0.049 A 
ATOM     47  C   UNL A   1      44.102  25.734  28.598  1.00  0.00     0.074 A 
ATOM     48  C   UNL A   1      46.191  31.357  30.732  1.00  0.00     0.029 A 
ATOM     49  N   UNL A   1      44.929  29.683  29.988  1.00  0.00    -0.354 N 
ATOM     50  N   UNL A   1      44.432  26.924  29.041  1.00  0.00    -0.248 NA
ATOM     51  C   UNL A   1      45.239  24.829  28.391  1.00  0.00     0.031 C 
ATOM     52  C   UNL A   1      47.022  30.270  30.435  1.00  0.00     0.029 A 
ATOM     53  C   UNL A   1      46.233  29.220  29.990  1.00  0.00     0.049 A 
ATOM     54  H   UNL A   1      44.144  29.157  29.710  1.00  0.00     0.167 HD
ATOM     55  C   UNL A   1      45.815  26.907  29.182  1.00  0.00     0.074 A 
ATOM     56  C   UNL A   1      46.256  25.584  28.788  1.00  0.00     0.031 C 
ATOM     57  C   UNL A   1      46.644  27.896  29.595  1.00  0.00     0.037 A 
BRANCH  44  58
ATOM     58  C   UNL A   1      43.801  33.203  31.034  1.00  0.00     0.058 A 
ATOM     59  C   UNL A   1      43.888  33.521  32.398  1.00  0.00     0.135 A 
ATOM     60  C   UNL A   1      43.831  34.260  30.111  1.00  0.00     0.135 A 
ATOM     61  F   UNL A   1      43.842  32.550  33.323  1.00  0.00    -0.206 F 
ATOM     62  C   UNL A   1      43.974  34.841  32.832  1.00  0.00     0.059 A 
ATOM     63  C   UNL A   1      43.940  35.586  30.521  1.00  0.00     0.059 A 
ATOM     64  F   UNL A   1      43.745  34.012  28.794  1.00  0.00    -0.206 F 
ATOM     65  C   UNL A   1      43.995  35.866  31.885  1.00  0.00     0.060 A 
BRANCH  65  66
ATOM     66  S   UNL A   1      44.099  37.575  32.461  1.00  0.00     0.124 S 
ATOM     67  O   UNL A   1      45.495  37.655  32.881  1.00  0.00    -0.237 OA
ATOM     68  O   UNL A   1      43.755  38.332  31.262  1.00  0.00    -0.237 OA
ATOM     69  O   UNL A   1      43.115  37.631  33.537  1.00  0.00    -0.744 OA
ENDBRANCH  65  66
ENDBRANCH  44  58
BRANCH  45  70
ATOM     70  C   UNL A   1      42.556  23.819  27.742  1.00  0.00     0.058 A 
ATOM     71  C   UNL A   1      42.476  23.580  26.363  1.00  0.00     0.135 A 
ATOM     72  C   UNL A   1      42.489  22.712  28.603  1.00  0.00     0.135 A 
ATOM     73  F   UNL A   1      42.527  24.606  25.500  1.00  0.00    -0.206 F 
ATOM     74  C   UNL A   1      42.329  22.293  25.854  1.00  0.00     0.059 A 
ATOM     75  C   UNL A   1      42.366  21.414  28.118  1.00  0.00     0.059 A 
ATOM     76  F   UNL A   1      42.574  22.887  29.931  1.00  0.00    -0.206 F 
ATOM     77  C   UNL A   1      42.277  21.215  26.742  1.00  0.00     0.060 A 
BRANCH  77  78
ATOM     78  S   UNL A   1      42.145  19.542  26.074  1.00  0.00     0.124 S 
ATOM     79  O   UNL A   1      42.533  18.736  27.225  1.00  0.00    -0.237 OA
ATOM     80  O   UNL A   1      40.738  19.473  25.690  1.00  0.00    -0.237 OA
ATOM     81  O   UNL A   1      43.089  19.552  24.960  1.00  0.00    -0.744 OA
ENDBRANCH  77  78
ENDBRANCH  45  70
BRANCH  57  82
ATOM     82  C   UNL A   1      48.109  27.573  29.668  1.00  0.00     0.058 A 
ATOM     83  C   UNL A   1      48.963  27.793  28.578  1.00  0.00     0.135 A 
ATOM     84  C   UNL A   1      48.669  27.084  30.858  1.00  0.00     0.135 A 
ATOM     85  F   UNL A   1      48.471  28.253  27.416  1.00  0.00    -0.206 F 
ATOM     86  C   UNL A   1      50.324  27.519  28.657  1.00  0.00     0.059 A 
ATOM     87  C   UNL A   1      50.030  26.824  30.968  1.00  0.00     0.059 A 
ATOM     88  F   UNL A   1      47.894  26.867  31.932  1.00  0.00    -0.206 F 
ATOM     89  C   UNL A   1      50.849  27.035  29.858  1.00  0.00     0.060 A 
BRANCH  89  90
ATOM     90  S   UNL A   1      52.622  26.715  29.962  1.00  0.00     0.124 S 
ATOM     91  O   UNL A   1      53.138  28.035  30.306  1.00  0.00    -0.237 OA
ATOM     92  O   UNL A   1      52.700  25.709  31.017  1.00  0.00    -0.237 OA
ATOM     93  O   UNL A   1      52.958  26.236  28.624  1.00  0.00    -0.744 OA
ENDBRANCH  89  90
ENDBRANCH  57  82
ENDBRANCH  31  32
ENDBRANCH  24  26
ENDBRANCH  23  24
ENDBRANCH   1  23
TORSDOF 15
ENDMDL
MODEL 2
REMARK VINA RESULT:      -9.9      5.169     11.658
REMARK SMILES C[C@H](C(=O)OCCOC(=O)c1ccc(-c2c3nc(c(-c4c(F)cc(S(=O)(=O)[O-])cc4F)c4ccc([nH]4)c(-c4c(F)cc(S(=O)(=O)[O-])cc4F)c4nc(c(-c5c(F)cc(S(=O)(=O)[O-])cc5F)c5ccc2[nH]5)C=C4)C=C3)cc1)c1ccc2c(c1)[nH]c1ccc(Cl)cc12
REMARK SMILES IDX 7 1 6 2 5 3 3 4 4 5 2 6 1 7 77 8 78 9 82 10 79 11 81 12
REMARK SMILES IDX 80 13 83 14 90 15 84 16 89 18 85 19 87 20 86 21 88 22 8 23
REMARK SMILES IDX 9 24 10 25 11 26 12 27 76 28 13 29 75 30 14 31 15 32 16 33
REMARK SMILES IDX 69 34 17 35 74 36 68 37 70 38 18 39 73 40 67 41 66 42 19 44
REMARK SMILES IDX 53 45 32 46 52 47 33 48 36 49 51 50 71 51 34 52 35 53 50 55
REMARK SMILES IDX 72 56 37 57 20 58 21 59 30 60 22 61 23 62 29 63 31 64 24 65
REMARK SMILES IDX 25 66 26 67 27 68 28 69 54 70 55 71 64 72 56 73 57 74 63 75
REMARK SMILES IDX 65 76 58 77 59 78 60 79 61 80 62 81 38 82 39 83 48 84 40 85
REMARK SMILES IDX 41 86 47 87 49 88 42 89 43 90 44 91 45 92 46 93
REMARK H PARENT 83 17 70 43 36 54
REMARK Flexibility Score: inf
ROOT
ATOM      1  C   UNL A   1      43.710  24.247  25.097  1.00  0.00     0.275 C 
ENDROOT
BRANCH   1   2
ATOM      2  C   UNL A   1      43.640  22.722  25.064  1.00  0.00     0.274 C 
BRANCH   2   3
ATOM      3  O   UNL A   1      42.289  22.250  25.212  1.00  0.00    -0.462 OA
BRANCH   3   4
ATOM      4  C   UNL A   1      42.107  21.235  26.105  1.00  0.00     0.313 C 
ATOM      5  O   UNL A   1      42.631  20.130  26.011  1.00  0.00    -0.252 OA
BRANCH   4   6
ATOM      6  C   UNL A   1      41.074  21.579  27.181  1.00  0.00     0.126 C 
ATOM      7  C   UNL A   1      41.644  22.398  28.333  1.00  0.00     0.025 C 
BRANCH   6   8
ATOM      8  C   UNL A   1      39.830  22.203  26.567  1.00  0.00    -0.032 A 
ATOM      9  C   UNL A   1      39.469  23.521  26.880  1.00  0.00     0.005 A 
ATOM     10  C   UNL A   1      38.990  21.429  25.751  1.00  0.00     0.031 A 
ATOM     11  C   UNL A   1      38.245  24.058  26.453  1.00  0.00     0.011 A 
ATOM     12  C   UNL A   1      37.742  21.949  25.417  1.00  0.00     0.047 A 
ATOM     13  C   UNL A   1      37.342  23.240  25.743  1.00  0.00     0.007 A 
ATOM     14  N   UNL A   1      36.689  21.332  24.794  1.00  0.00    -0.355 N 
ATOM     15  C   UNL A   1      36.003  23.395  25.260  1.00  0.00     0.009 A 
ATOM     16  C   UNL A   1      35.603  22.166  24.732  1.00  0.00     0.047 A 
ATOM     17  H   UNL A   1      36.710  20.413  24.440  1.00  0.00     0.167 HD
ATOM     18  C   UNL A   1      35.072  24.454  25.267  1.00  0.00     0.031 A 
ATOM     19  C   UNL A   1      34.312  21.914  24.261  1.00  0.00     0.028 A 
ATOM     20  C   UNL A   1      33.784  24.223  24.773  1.00  0.00     0.041 A 
ATOM     21  C   UNL A   1      33.403  22.971  24.294  1.00  0.00     0.022 A 
ATOM     22  Cl  UNL A   1      32.640  25.513  24.759  1.00  0.00    -0.084 Cl
ENDBRANCH   6   8
ENDBRANCH   4   6
ENDBRANCH   3   4
ENDBRANCH   2   3
ENDBRANCH   1   2
BRANCH   1  23
ATOM     23  O   UNL A   1      43.124  24.763  26.302  1.00  0.00    -0.458 OA
BRANCH  23  24
ATOM     24  C   UNL A   1      42.268  25.795  26.120  1.00  0.00     0.338 C 
ATOM     25  O   UNL A   1      41.633  26.070  25.117  1.00  0.00    -0.246 OA
BRANCH  24  26
ATOM     26  C   UNL A   1      42.117  26.516  27.388  1.00  0.00     0.060 A 
ATOM     27  C   UNL A   1      41.203  26.033  28.327  1.00  0.00     0.016 A 
ATOM     28  C   UNL A   1      42.804  27.708  27.608  1.00  0.00     0.016 A 
ATOM     29  C   UNL A   1      40.957  26.745  29.492  1.00  0.00     0.010 A 
ATOM     30  C   UNL A   1      42.570  28.415  28.789  1.00  0.00     0.010 A 
ATOM     31  C   UNL A   1      41.635  27.943  29.729  1.00  0.00    -0.014 A 
BRANCH  31  32
ATOM     32  C   UNL A   1      41.313  28.739  30.934  1.00  0.00     0.031 A 
ATOM     33  C   UNL A   1      40.165  29.703  30.891  1.00  0.00     0.074 A 
ATOM     34  C   UNL A   1      42.041  28.583  32.053  1.00  0.00     0.049 A 
ATOM     35  N   UNL A   1      39.807  30.600  31.770  1.00  0.00    -0.248 NA
ATOM     36  C   UNL A   1      39.308  29.652  29.695  1.00  0.00     0.031 C 
ATOM     37  C   UNL A   1      43.140  27.630  32.222  1.00  0.00     0.029 A 
ATOM     38  N   UNL A   1      41.972  29.231  33.259  1.00  0.00    -0.354 N 
ATOM     39  C   UNL A   1      38.706  31.245  31.222  1.00  0.00     0.074 A 
ATOM     40  C   UNL A   1      38.457  30.641  29.930  1.00  0.00     0.031 C 
ATOM     41  C   UNL A   1      43.646  27.760  33.459  1.00  0.00     0.029 A 
ATOM     42  C   UNL A   1      42.947  28.841  34.146  1.00  0.00     0.049 A 
ATOM     43  H   UNL A   1      41.289  29.908  33.470  1.00  0.00     0.167 HD
ATOM     44  C   UNL A   1      37.975  32.254  31.751  1.00  0.00     0.037 A 
ATOM     45  C   UNL A   1      43.263  29.331  35.360  1.00  0.00     0.037 A 
ATOM     46  C   UNL A   1      38.225  32.829  33.047  1.00  0.00     0.049 A 
ATOM     47  C   UNL A   1      42.465  30.481  35.909  1.00  0.00     0.074 A 
ATOM     48  C   UNL A   1      37.549  33.857  33.680  1.00  0.00     0.029 A 
ATOM     49  N   UNL A   1      39.228  32.416  33.913  1.00  0.00    -0.354 N 
ATOM     50  N   UNL A   1      41.453  31.114  35.365  1.00  0.00    -0.248 NA
ATOM     51  C   UNL A   1      42.857  30.989  37.230  1.00  0.00     0.031 C 
ATOM     52  C   UNL A   1      38.164  34.085  34.917  1.00  0.00     0.029 A 
ATOM     53  C   UNL A   1      39.198  33.175  35.071  1.00  0.00     0.049 A 
ATOM     54  H   UNL A   1      39.868  31.691  33.730  1.00  0.00     0.167 HD
ATOM     55  C   UNL A   1      41.076  32.088  36.283  1.00  0.00     0.074 A 
ATOM     56  C   UNL A   1      41.961  31.949  37.422  1.00  0.00     0.031 C 
ATOM     57  C   UNL A   1      40.090  33.013  36.191  1.00  0.00     0.037 A 
BRANCH  44  58
ATOM     58  C   UNL A   1      36.865  32.820  30.912  1.00  0.00     0.058 A 
ATOM     59  C   UNL A   1      37.109  33.746  29.886  1.00  0.00     0.135 A 
ATOM     60  C   UNL A   1      35.537  32.422  31.132  1.00  0.00     0.135 A 
ATOM     61  F   UNL A   1      38.358  34.177  29.648  1.00  0.00    -0.206 F 
ATOM     62  C   UNL A   1      36.072  34.278  29.125  1.00  0.00     0.059 A 
ATOM     63  C   UNL A   1      34.487  32.923  30.368  1.00  0.00     0.059 A 
ATOM     64  F   UNL A   1      35.247  31.543  32.105  1.00  0.00    -0.206 F 
ATOM     65  C   UNL A   1      34.764  33.862  29.377  1.00  0.00     0.060 A 
BRANCH  65  66
ATOM     66  S   UNL A   1      33.426  34.564  28.388  1.00  0.00     0.124 S 
ATOM     67  O   UNL A   1      32.528  35.063  29.425  1.00  0.00    -0.237 OA
ATOM     68  O   UNL A   1      34.115  35.583  27.604  1.00  0.00    -0.237 OA
ATOM     69  O   UNL A   1      32.932  33.421  27.626  1.00  0.00    -0.744 OA
ENDBRANCH  65  66
ENDBRANCH  44  58
BRANCH  45  70
ATOM     70  C   UNL A   1      44.410  28.758  36.110  1.00  0.00     0.058 A 
ATOM     71  C   UNL A   1      45.695  29.306  35.996  1.00  0.00     0.135 A 
ATOM     72  C   UNL A   1      44.237  27.669  36.979  1.00  0.00     0.135 A 
ATOM     73  F   UNL A   1      45.912  30.342  35.172  1.00  0.00    -0.206 F 
ATOM     74  C   UNL A   1      46.772  28.790  36.711  1.00  0.00     0.059 A 
ATOM     75  C   UNL A   1      45.292  27.151  37.722  1.00  0.00     0.059 A 
ATOM     76  F   UNL A   1      43.023  27.118  37.133  1.00  0.00    -0.206 F 
ATOM     77  C   UNL A   1      46.559  27.713  37.575  1.00  0.00     0.060 A 
BRANCH  77  78
ATOM     78  S   UNL A   1      47.948  27.086  38.545  1.00  0.00     0.124 S 
ATOM     79  O   UNL A   1      48.849  26.618  37.497  1.00  0.00    -0.237 OA
ATOM     80  O   UNL A   1      48.379  28.277  39.273  1.00  0.00    -0.237 OA
ATOM     81  O   UNL A   1      47.338  26.046  39.367  1.00  0.00    -0.744 OA
ENDBRANCH  77  78
ENDBRANCH  45  70
BRANCH  57  82
ATOM     82  C   UNL A   1      39.902  33.929  37.366  1.00  0.00     0.058 A 
ATOM     83  C   UNL A   1      40.494  35.200  37.407  1.00  0.00     0.135 A 
ATOM     84  C   UNL A   1      39.082  33.547  38.439  1.00  0.00     0.135 A 
ATOM     85  F   UNL A   1      41.293  35.606  36.407  1.00  0.00    -0.206 F 
ATOM     86  C   UNL A   1      40.295  36.057  38.484  1.00  0.00     0.059 A 
ATOM     87  C   UNL A   1      38.850  34.396  39.515  1.00  0.00     0.059 A 
ATOM     88  F   UNL A   1      38.485  32.345  38.440  1.00  0.00    -0.206 F 
ATOM     89  C   UNL A   1      39.470  35.646  39.534  1.00  0.00     0.060 A 
BRANCH  89  90
ATOM     90  S   UNL A   1      39.190  36.779  40.911  1.00  0.00     0.124 S 
ATOM     91  O   UNL A   1      40.553  37.021  41.373  1.00  0.00    -0.237 OA
ATOM     92  O   UNL A   1      38.529  37.906  40.263  1.00  0.00    -0.237 OA
ATOM     93  O   UNL A   1      38.347  36.005  41.819  1.00  0.00    -0.744 OA
ENDBRANCH  89  90
ENDBRANCH  57  82
ENDBRANCH  31  32
ENDBRANCH  24  26
ENDBRANCH  23  24
ENDBRANCH   1  23
TORSDOF 15
ENDMDL
MODEL 3
REMARK VINA RESULT:      -9.9      3.100      5.605
REMARK SMILES C[C@H](C(=O)OCCOC(=O)c1ccc(-c2c3nc(c(-c4c(F)cc(S(=O)(=O)[O-])cc4F)c4ccc([nH]4)c(-c4c(F)cc(S(=O)(=O)[O-])cc4F)c4nc(c(-c5c(F)cc(S(=O)(=O)[O-])cc5F)c5ccc2[nH]5)C=C4)C=C3)cc1)c1ccc2c(c1)[nH]c1ccc(Cl)cc12
REMARK SMILES IDX 7 1 6 2 5 3 3 4 4 5 2 6 1 7 77 8 78 9 82 10 79 11 81 12
REMARK SMILES IDX 80 13 83 14 90 15 84 16 89 18 85 19 87 20 86 21 88 22 8 23
REMARK SMILES IDX 9 24 10 25 11 26 12 27 76 28 13 29 75 30 14 31 15 32 16 33
REMARK SMILES IDX 69 34 17 35 74 36 68 37 70 38 18 39 73 40 67 41 66 42 19 44
REMARK SMILES IDX 53 45 32 46 52 47 33 48 36 49 51 50 71 51 34 52 35 53 50 55
REMARK SMILES IDX 72 56 37 57 20 58 21 59 30 60 22 61 23 62 29 63 31 64 24 65
REMARK SMILES IDX 25 66 26 67 27 68 28 69 54 70 55 71 64 72 56 73 57 74 63 75
REMARK SMILES IDX 65 76 58 77 59 78 60 79 61 80 62 81 38 82 39 83 48 84 40 85
REMARK SMILES IDX 41 86 47 87 49 88 42 89 43 90 44 91 45 92 46 93
REMARK H PARENT 83 17 70 43 36 54
REMARK Flexibility Score: inf
ROOT
ATOM      1  C   UNL A   1      32.570  30.303  26.877  1.00  0.00     0.275 C 
ENDROOT
BRANCH   1   2
ATOM      2  C   UNL A   1      32.462  29.981  25.388  1.00  0.00     0.274 C 
BRANCH   2   3
ATOM      3  O   UNL A   1      31.118  29.628  25.018  1.00  0.00    -0.462 OA
BRANCH   3   4
ATOM      4  C   UNL A   1      30.996  28.717  24.011  1.00  0.00     0.313 C 
ATOM      5  O   UNL A   1      31.178  28.970  22.825  1.00  0.00    -0.252 OA
BRANCH   4   6
ATOM      6  C   UNL A   1      30.485  27.361  24.505  1.00  0.00     0.126 C 
ATOM      7  C   UNL A   1      29.441  26.732  23.589  1.00  0.00     0.025 C 
BRANCH   6   8
ATOM      8  C   UNL A   1      31.640  26.423  24.822  1.00  0.00    -0.032 A 
ATOM      9  C   UNL A   1      32.391  26.593  25.992  1.00  0.00     0.005 A 
ATOM     10  C   UNL A   1      32.012  25.436  23.895  1.00  0.00     0.031 A 
ATOM     11  C   UNL A   1      33.556  25.843  26.222  1.00  0.00     0.011 A 
ATOM     12  C   UNL A   1      33.218  24.770  24.098  1.00  0.00     0.047 A 
ATOM     13  C   UNL A   1      34.003  24.943  25.233  1.00  0.00     0.007 A 
ATOM     14  N   UNL A   1      33.879  23.909  23.262  1.00  0.00    -0.355 N 
ATOM     15  C   UNL A   1      35.163  24.120  25.066  1.00  0.00     0.009 A 
ATOM     16  C   UNL A   1      35.085  23.539  23.798  1.00  0.00     0.047 A 
ATOM     17  H   UNL A   1      33.534  23.598  22.393  1.00  0.00     0.167 HD
ATOM     18  C   UNL A   1      36.299  23.851  25.855  1.00  0.00     0.031 A 
ATOM     19  C   UNL A   1      36.100  22.751  23.249  1.00  0.00     0.028 A 
ATOM     20  C   UNL A   1      37.310  23.040  25.329  1.00  0.00     0.041 A 
ATOM     21  C   UNL A   1      37.223  22.514  24.042  1.00  0.00     0.022 A 
ATOM     22  Cl  UNL A   1      38.698  22.690  26.289  1.00  0.00    -0.084 Cl
ENDBRANCH   6   8
ENDBRANCH   4   6
ENDBRANCH   3   4
ENDBRANCH   2   3
ENDBRANCH   1   2
BRANCH   1  23
ATOM     23  O   UNL A   1      33.782  29.769  27.432  1.00  0.00    -0.458 OA
BRANCH  23  24
ATOM     24  C   UNL A   1      34.484  30.635  28.200  1.00  0.00     0.338 C 
ATOM     25  O   UNL A   1      34.071  31.626  28.774  1.00  0.00    -0.246 OA
BRANCH  24  26
ATOM     26  C   UNL A   1      35.856  30.136  28.344  1.00  0.00     0.060 A 
ATOM     27  C   UNL A   1      36.300  29.760  29.613  1.00  0.00     0.016 A 
ATOM     28  C   UNL A   1      36.722  30.130  27.253  1.00  0.00     0.016 A 
ATOM     29  C   UNL A   1      37.621  29.383  29.807  1.00  0.00     0.010 A 
ATOM     30  C   UNL A   1      38.046  29.733  27.445  1.00  0.00     0.010 A 
ATOM     31  C   UNL A   1      38.505  29.371  28.725  1.00  0.00    -0.014 A 
BRANCH  31  32
ATOM     32  C   UNL A   1      39.930  29.046  28.949  1.00  0.00     0.031 A 
ATOM     33  C   UNL A   1      40.852  30.107  29.473  1.00  0.00     0.074 A 
ATOM     34  C   UNL A   1      40.382  27.805  28.694  1.00  0.00     0.049 A 
ATOM     35  N   UNL A   1      42.151  30.084  29.596  1.00  0.00    -0.248 NA
ATOM     36  C   UNL A   1      40.224  31.364  29.912  1.00  0.00     0.031 C 
ATOM     37  C   UNL A   1      39.558  26.682  28.240  1.00  0.00     0.029 A 
ATOM     38  N   UNL A   1      41.646  27.283  28.771  1.00  0.00    -0.354 N 
ATOM     39  C   UNL A   1      42.505  31.332  30.093  1.00  0.00     0.074 A 
ATOM     40  C   UNL A   1      41.282  32.092  30.244  1.00  0.00     0.031 C 
ATOM     41  C   UNL A   1      40.342  25.604  28.073  1.00  0.00     0.029 A 
ATOM     42  C   UNL A   1      41.724  25.976  28.353  1.00  0.00     0.049 A 
ATOM     43  H   UNL A   1      42.422  27.794  29.096  1.00  0.00     0.167 HD
ATOM     44  C   UNL A   1      43.741  31.798  30.391  1.00  0.00     0.037 A 
ATOM     45  C   UNL A   1      42.799  25.183  28.177  1.00  0.00     0.037 A 
ATOM     46  C   UNL A   1      44.944  31.020  30.254  1.00  0.00     0.049 A 
ATOM     47  C   UNL A   1      44.166  25.737  28.472  1.00  0.00     0.074 A 
ATOM     48  C   UNL A   1      46.249  31.393  30.522  1.00  0.00     0.029 A 
ATOM     49  N   UNL A   1      44.986  29.703  29.816  1.00  0.00    -0.354 N 
ATOM     50  N   UNL A   1      44.494  26.932  28.900  1.00  0.00    -0.248 NA
ATOM     51  C   UNL A   1      45.307  24.839  28.252  1.00  0.00     0.031 C 
ATOM     52  C   UNL A   1      47.083  30.310  30.218  1.00  0.00     0.029 A 
ATOM     53  C   UNL A   1      46.294  29.251  29.797  1.00  0.00     0.049 A 
ATOM     54  H   UNL A   1      44.201  29.169  29.557  1.00  0.00     0.167 HD
ATOM     55  C   UNL A   1      45.879  26.928  29.015  1.00  0.00     0.074 A 
ATOM     56  C   UNL A   1      46.324  25.606  28.623  1.00  0.00     0.031 C 
ATOM     57  C   UNL A   1      46.708  27.927  29.405  1.00  0.00     0.037 A 
BRANCH  44  58
ATOM     58  C   UNL A   1      43.850  33.222  30.856  1.00  0.00     0.058 A 
ATOM     59  C   UNL A   1      43.972  34.290  29.952  1.00  0.00     0.135 A 
ATOM     60  C   UNL A   1      43.824  33.523  32.227  1.00  0.00     0.135 A 
ATOM     61  F   UNL A   1      44.024  34.055  28.632  1.00  0.00    -0.206 F 
ATOM     62  C   UNL A   1      44.090  35.604  30.394  1.00  0.00     0.059 A 
ATOM     63  C   UNL A   1      43.918  34.832  32.690  1.00  0.00     0.059 A 
ATOM     64  F   UNL A   1      43.716  32.539  33.133  1.00  0.00    -0.206 F 
ATOM     65  C   UNL A   1      44.066  35.864  31.765  1.00  0.00     0.060 A 
BRANCH  65  66
ATOM     66  S   UNL A   1      44.227  37.574  32.326  1.00  0.00     0.124 S 
ATOM     67  O   UNL A   1      43.853  38.310  31.122  1.00  0.00    -0.237 OA
ATOM     68  O   UNL A   1      43.274  37.634  33.428  1.00  0.00    -0.237 OA
ATOM     69  O   UNL A   1      45.632  37.673  32.710  1.00  0.00    -0.744 OA
ENDBRANCH  65  66
ENDBRANCH  44  58
BRANCH  45  70
ATOM     70  C   UNL A   1      42.620  23.802  27.660  1.00  0.00     0.058 A 
ATOM     71  C   UNL A   1      42.486  22.715  28.534  1.00  0.00     0.135 A 
ATOM     72  C   UNL A   1      42.552  23.547  26.281  1.00  0.00     0.135 A 
ATOM     73  F   UNL A   1      42.553  22.907  29.860  1.00  0.00    -0.206 F 
ATOM     74  C   UNL A   1      42.296  21.420  28.061  1.00  0.00     0.059 A 
ATOM     75  C   UNL A   1      42.340  22.265  25.785  1.00  0.00     0.059 A 
ATOM     76  F   UNL A   1      42.662  24.556  25.404  1.00  0.00    -0.206 F 
ATOM     77  C   UNL A   1      42.222  21.206  26.683  1.00  0.00     0.060 A 
BRANCH  77  78
ATOM     78  S   UNL A   1      41.917  19.532  26.076  1.00  0.00     0.124 S 
ATOM     79  O   UNL A   1      42.770  19.489  24.894  1.00  0.00    -0.237 OA
ATOM     80  O   UNL A   1      42.349  18.711  27.205  1.00  0.00    -0.237 OA
ATOM     81  O   UNL A   1      40.480  19.525  25.823  1.00  0.00    -0.744 OA
ENDBRANCH  77  78
ENDBRANCH  45  70
BRANCH  57  82
ATOM     82  C   UNL A   1      48.177  27.617  29.452  1.00  0.00     0.058 A 
ATOM     83  C   UNL A   1      49.029  27.936  28.385  1.00  0.00     0.135 A 
ATOM     84  C   UNL A   1      48.743  27.037  30.598  1.00  0.00     0.135 A 
ATOM     85  F   UNL A   1      48.532  28.485  27.265  1.00  0.00    -0.206 F 
ATOM     86  C   UNL A   1      50.393  27.672  28.444  1.00  0.00     0.059 A 
ATOM     87  C   UNL A   1      50.107  26.785  30.688  1.00  0.00     0.059 A 
ATOM     88  F   UNL A   1      47.969  26.723  31.650  1.00  0.00    -0.206 F 
ATOM     89  C   UNL A   1      50.923  27.096  29.600  1.00  0.00     0.060 A 
BRANCH  89  90
ATOM     90  S   UNL A   1      52.700  26.790  29.681  1.00  0.00     0.124 S 
ATOM     91  O   UNL A   1      53.225  28.144  29.820  1.00  0.00    -0.237 OA
ATOM     92  O   UNL A   1      52.821  25.937  30.859  1.00  0.00    -0.237 OA
ATOM     93  O   UNL A   1      52.987  26.132  28.409  1.00  0.00    -0.744 OA
ENDBRANCH  89  90
ENDBRANCH  57  82
ENDBRANCH  31  32
ENDBRANCH  24  26
ENDBRANCH  23  24
ENDBRANCH   1  23
TORSDOF 15
ENDMDL
