MODEL 1
REMARK VINA RESULT:     -11.7      0.000      0.000
REMARK SMILES CC[C@@H](C(=O)OCCOC(=O)c1ccc(-c2c3nc(c(-c4c(F)cc(S(=O)(=O)[O-])cc4F)c4ccc([nH]4)c(-c4c(F)cc(S(=O)(=O)[O-])cc4F)c4nc(c(-c5c(F)cc(S(=O)(=O)[O-])cc5F)c5ccc2[nH]5)C=C4)C=C3)cc1)N1CCN(Cc2cccc(C)c2)C(=O)C1=O
REMARK SMILES IDX 7 1 6 2 4 3 5 4 3 5 2 6 1 7 78 8 79 9 92 10 80 11 90 12
REMARK SMILES IDX 93 13 81 14 91 15 82 16 83 17 84 18 89 19 85 20 87 21 86 22
REMARK SMILES IDX 88 23 8 24 9 25 10 26 11 27 12 28 13 29 77 30 14 31 76 32
REMARK SMILES IDX 15 33 16 34 17 35 70 36 18 37 75 38 69 39 71 40 19 41 74 42
REMARK SMILES IDX 68 43 67 44 20 46 54 47 33 48 53 49 34 50 37 51 52 52 72 53
REMARK SMILES IDX 35 54 36 55 51 57 73 58 38 59 21 60 22 61 31 62 23 63 24 64
REMARK SMILES IDX 30 65 32 66 25 67 26 68 27 69 28 70 29 71 55 72 56 73 65 74
REMARK SMILES IDX 57 75 58 76 64 77 66 78 59 79 60 80 61 81 62 82 63 83 39 84
REMARK SMILES IDX 40 85 49 86 41 87 42 88 48 89 50 90 43 91 44 92 45 93 46 94
REMARK SMILES IDX 47 95
REMARK H PARENT 71 45 37 56
REMARK Flexibility Score: inf
ROOT
ATOM      1  C   UNL A   1      34.304  31.527  27.757  1.00  0.00     0.274 C 
ENDROOT
BRANCH   1   2
ATOM      2  O   UNL A   1      33.342  30.468  27.572  1.00  0.00    -0.461 OA
BRANCH   2   3
ATOM      3  C   UNL A   1      33.788  29.329  26.977  1.00  0.00     0.328 C 
ATOM      4  O   UNL A   1      34.769  28.715  27.385  1.00  0.00    -0.250 OA
BRANCH   3   5
ATOM      5  C   UNL A   1      32.997  28.981  25.672  1.00  0.00     0.195 C 
BRANCH   5   6
ATOM      6  C   UNL A   1      31.698  29.808  25.551  1.00  0.00     0.034 C 
ATOM      7  C   UNL A   1      30.865  29.598  24.295  1.00  0.00     0.007 C 
ENDBRANCH   5   6
BRANCH   5   8
ATOM      8  N   UNL A   1      32.779  27.492  25.593  1.00  0.00    -0.319 N 
ATOM      9  C   UNL A   1      33.329  26.766  24.466  1.00  0.00     0.142 C 
ATOM     10  C   UNL A   1      31.922  26.737  26.408  1.00  0.00     0.312 C 
ATOM     11  C   UNL A   1      34.078  25.545  24.953  1.00  0.00     0.142 C 
ATOM     12  C   UNL A   1      32.164  25.188  26.473  1.00  0.00     0.312 C 
ATOM     13  O   UNL A   1      31.025  27.206  27.095  1.00  0.00    -0.263 OA
ATOM     14  N   UNL A   1      33.239  24.656  25.752  1.00  0.00    -0.328 N 
ATOM     15  O   UNL A   1      31.440  24.510  27.195  1.00  0.00    -0.263 OA
BRANCH  14  16
ATOM     16  C   UNL A   1      33.671  23.276  26.070  1.00  0.00     0.155 C 
BRANCH  16  17
ATOM     17  C   UNL A   1      33.084  22.208  25.185  1.00  0.00    -0.028 A 
ATOM     18  C   UNL A   1      32.684  22.499  23.883  1.00  0.00     0.005 A 
ATOM     19  C   UNL A   1      32.985  20.884  25.635  1.00  0.00     0.009 A 
ATOM     20  C   UNL A   1      32.331  21.463  23.021  1.00  0.00     0.001 A 
ATOM     21  C   UNL A   1      32.730  19.829  24.760  1.00  0.00    -0.051 A 
ATOM     22  C   UNL A   1      32.396  20.132  23.444  1.00  0.00     0.003 A 
ATOM     23  C   UNL A   1      32.825  18.410  25.232  1.00  0.00     0.044 C 
ENDBRANCH  16  17
ENDBRANCH  14  16
ENDBRANCH   5   8
ENDBRANCH   3   5
ENDBRANCH   2   3
ENDBRANCH   1   2
BRANCH   1  24
ATOM     24  C   UNL A   1      34.623  31.798  29.234  1.00  0.00     0.275 C 
BRANCH  24  25
ATOM     25  O   UNL A   1      36.039  31.740  29.514  1.00  0.00    -0.458 OA
BRANCH  25  26
ATOM     26  C   UNL A   1      36.475  30.580  30.063  1.00  0.00     0.338 C 
ATOM     27  O   UNL A   1      35.844  29.892  30.860  1.00  0.00    -0.246 OA
BRANCH  26  28
ATOM     28  C   UNL A   1      37.762  30.138  29.466  1.00  0.00     0.060 A 
ATOM     29  C   UNL A   1      38.847  29.983  30.331  1.00  0.00     0.016 A 
ATOM     30  C   UNL A   1      37.944  29.896  28.099  1.00  0.00     0.016 A 
ATOM     31  C   UNL A   1      40.084  29.550  29.839  1.00  0.00     0.010 A 
ATOM     32  C   UNL A   1      39.203  29.482  27.607  1.00  0.00     0.010 A 
ATOM     33  C   UNL A   1      40.289  29.277  28.472  1.00  0.00    -0.014 A 
BRANCH  33  34
ATOM     34  C   UNL A   1      41.666  28.863  28.015  1.00  0.00     0.031 A 
ATOM     35  C   UNL A   1      42.827  29.787  28.278  1.00  0.00     0.074 A 
ATOM     36  C   UNL A   1      41.936  27.684  27.407  1.00  0.00     0.049 A 
ATOM     37  N   UNL A   1      44.111  29.561  28.163  1.00  0.00    -0.248 NA
ATOM     38  C   UNL A   1      42.490  31.165  28.670  1.00  0.00     0.031 C 
ATOM     39  C   UNL A   1      40.938  26.742  26.919  1.00  0.00     0.029 A 
ATOM     40  N   UNL A   1      43.137  27.039  27.148  1.00  0.00    -0.354 N 
ATOM     41  C   UNL A   1      44.729  30.786  28.381  1.00  0.00     0.074 A 
ATOM     42  C   UNL A   1      43.687  31.727  28.735  1.00  0.00     0.031 C 
ATOM     43  C   UNL A   1      41.552  25.602  26.556  1.00  0.00     0.029 A 
ATOM     44  C   UNL A   1      42.985  25.706  26.791  1.00  0.00     0.049 A 
ATOM     45  H   UNL A   1      44.013  27.484  27.212  1.00  0.00     0.167 HD
ATOM     46  C   UNL A   1      46.028  31.123  28.206  1.00  0.00     0.037 A 
ATOM     47  C   UNL A   1      43.882  24.687  26.720  1.00  0.00     0.037 A 
ATOM     48  C   UNL A   1      47.065  30.216  27.789  1.00  0.00     0.049 A 
ATOM     49  C   UNL A   1      45.351  25.034  26.795  1.00  0.00     0.074 A 
ATOM     50  C   UNL A   1      48.394  30.498  27.517  1.00  0.00     0.029 A 
ATOM     51  N   UNL A   1      46.894  28.860  27.564  1.00  0.00    -0.354 N 
ATOM     52  N   UNL A   1      45.918  26.184  27.068  1.00  0.00    -0.248 NA
ATOM     53  C   UNL A   1      46.309  23.961  26.472  1.00  0.00     0.031 C 
ATOM     54  C   UNL A   1      49.015  29.323  27.081  1.00  0.00     0.029 A 
ATOM     55  C   UNL A   1      48.091  28.296  27.148  1.00  0.00     0.049 A 
ATOM     56  H   UNL A   1      46.050  28.370  27.684  1.00  0.00     0.167 HD
ATOM     57  C   UNL A   1      47.283  25.981  26.890  1.00  0.00     0.074 A 
ATOM     58  C   UNL A   1      47.472  24.575  26.619  1.00  0.00     0.031 C 
ATOM     59  C   UNL A   1      48.280  26.897  26.872  1.00  0.00     0.037 A 
BRANCH  46  60
ATOM     60  C   UNL A   1      46.370  32.579  28.321  1.00  0.00     0.058 A 
ATOM     61  C   UNL A   1      46.842  33.151  29.510  1.00  0.00     0.135 A 
ATOM     62  C   UNL A   1      46.207  33.416  27.204  1.00  0.00     0.135 A 
ATOM     63  F   UNL A   1      46.979  32.399  30.614  1.00  0.00    -0.206 F 
ATOM     64  C   UNL A   1      47.126  34.510  29.593  1.00  0.00     0.059 A 
ATOM     65  C   UNL A   1      46.512  34.769  27.255  1.00  0.00     0.059 A 
ATOM     66  F   UNL A   1      45.742  32.918  26.047  1.00  0.00    -0.206 F 
ATOM     67  C   UNL A   1      46.958  35.310  28.459  1.00  0.00     0.060 A 
BRANCH  67  68
ATOM     68  S   UNL A   1      47.335  37.070  28.579  1.00  0.00     0.124 S 
ATOM     69  O   UNL A   1      48.023  37.307  27.313  1.00  0.00    -0.237 OA
ATOM     70  O   UNL A   1      46.008  37.665  28.701  1.00  0.00    -0.237 OA
ATOM     71  O   UNL A   1      48.170  37.158  29.772  1.00  0.00    -0.744 OA
ENDBRANCH  67  68
ENDBRANCH  46  60
BRANCH  47  72
ATOM     72  C   UNL A   1      43.489  23.233  26.621  1.00  0.00     0.058 A 
ATOM     73  C   UNL A   1      43.609  22.554  25.387  1.00  0.00     0.135 A 
ATOM     74  C   UNL A   1      42.959  22.484  27.682  1.00  0.00     0.135 A 
ATOM     75  F   UNL A   1      44.074  23.200  24.304  1.00  0.00    -0.206 F 
ATOM     76  C   UNL A   1      43.248  21.217  25.217  1.00  0.00     0.059 A 
ATOM     77  C   UNL A   1      42.638  21.129  27.552  1.00  0.00     0.059 A 
ATOM     78  F   UNL A   1      42.737  23.061  28.873  1.00  0.00    -0.206 F 
ATOM     79  C   UNL A   1      42.782  20.504  26.315  1.00  0.00     0.060 A 
BRANCH  79  80
ATOM     80  S   UNL A   1      42.433  18.741  26.125  1.00  0.00     0.124 S 
ATOM     81  O   UNL A   1      41.026  18.755  25.742  1.00  0.00    -0.237 OA
ATOM     82  O   UNL A   1      43.376  18.351  25.081  1.00  0.00    -0.237 OA
ATOM     83  O   UNL A   1      42.724  18.202  27.450  1.00  0.00    -0.744 OA
ENDBRANCH  79  80
ENDBRANCH  47  72
BRANCH  59  84
ATOM     84  C   UNL A   1      49.655  26.415  26.495  1.00  0.00     0.058 A 
ATOM     85  C   UNL A   1      50.528  25.872  27.456  1.00  0.00     0.135 A 
ATOM     86  C   UNL A   1      50.099  26.463  25.165  1.00  0.00     0.135 A 
ATOM     87  F   UNL A   1      50.156  25.800  28.744  1.00  0.00    -0.206 F 
ATOM     88  C   UNL A   1      51.803  25.432  27.118  1.00  0.00     0.059 A 
ATOM     89  C   UNL A   1      51.360  25.999  24.799  1.00  0.00     0.059 A 
ATOM     90  F   UNL A   1      49.304  26.959  24.205  1.00  0.00    -0.206 F 
ATOM     91  C   UNL A   1      52.211  25.501  25.786  1.00  0.00     0.060 A 
BRANCH  91  92
ATOM     92  S   UNL A   1      53.865  24.917  25.360  1.00  0.00     0.124 S 
ATOM     93  O   UNL A   1      54.136  25.663  24.136  1.00  0.00    -0.237 OA
ATOM     94  O   UNL A   1      54.647  25.312  26.528  1.00  0.00    -0.237 OA
ATOM     95  O   UNL A   1      53.684  23.478  25.191  1.00  0.00    -0.744 OA
ENDBRANCH  91  92
ENDBRANCH  59  84
ENDBRANCH  33  34
ENDBRANCH  26  28
ENDBRANCH  25  26
ENDBRANCH  24  25
ENDBRANCH   1  24
TORSDOF 18
ENDMDL
MODEL 2
REMARK VINA RESULT:     -11.6      2.124      8.525
REMARK SMILES CC[C@@H](C(=O)OCCOC(=O)c1ccc(-c2c3nc(c(-c4c(F)cc(S(=O)(=O)[O-])cc4F)c4ccc([nH]4)c(-c4c(F)cc(S(=O)(=O)[O-])cc4F)c4nc(c(-c5c(F)cc(S(=O)(=O)[O-])cc5F)c5ccc2[nH]5)C=C4)C=C3)cc1)N1CCN(Cc2cccc(C)c2)C(=O)C1=O
REMARK SMILES IDX 7 1 6 2 4 3 5 4 3 5 2 6 1 7 78 8 79 9 92 10 80 11 90 12
REMARK SMILES IDX 93 13 81 14 91 15 82 16 83 17 84 18 89 19 85 20 87 21 86 22
REMARK SMILES IDX 88 23 8 24 9 25 10 26 11 27 12 28 13 29 77 30 14 31 76 32
REMARK SMILES IDX 15 33 16 34 17 35 70 36 18 37 75 38 69 39 71 40 19 41 74 42
REMARK SMILES IDX 68 43 67 44 20 46 54 47 33 48 53 49 34 50 37 51 52 52 72 53
REMARK SMILES IDX 35 54 36 55 51 57 73 58 38 59 21 60 22 61 31 62 23 63 24 64
REMARK SMILES IDX 30 65 32 66 25 67 26 68 27 69 28 70 29 71 55 72 56 73 65 74
REMARK SMILES IDX 57 75 58 76 64 77 66 78 59 79 60 80 61 81 62 82 63 83 39 84
REMARK SMILES IDX 40 85 49 86 41 87 42 88 48 89 50 90 43 91 44 92 45 93 46 94
REMARK SMILES IDX 47 95
REMARK H PARENT 71 45 37 56
REMARK Flexibility Score: inf
ROOT
ATOM      1  C   UNL A   1      32.329  29.742  25.746  1.00  0.00     0.274 C 
ENDROOT
BRANCH   1   2
ATOM      2  O   UNL A   1      31.512  28.880  24.928  1.00  0.00    -0.461 OA
BRANCH   2   3
ATOM      3  C   UNL A   1      32.014  28.528  23.714  1.00  0.00     0.328 C 
ATOM      4  O   UNL A   1      33.020  29.049  23.243  1.00  0.00    -0.250 OA
BRANCH   3   5
ATOM      5  C   UNL A   1      31.105  27.501  22.959  1.00  0.00     0.195 C 
BRANCH   5   6
ATOM      6  C   UNL A   1      29.648  27.543  23.471  1.00  0.00     0.034 C 
ATOM      7  C   UNL A   1      28.720  28.555  22.814  1.00  0.00     0.007 C 
ENDBRANCH   5   6
BRANCH   5   8
ATOM      8  N   UNL A   1      31.731  26.132  23.017  1.00  0.00    -0.319 N 
ATOM      9  C   UNL A   1      31.526  25.322  24.202  1.00  0.00     0.142 C 
ATOM     10  C   UNL A   1      32.669  25.612  22.113  1.00  0.00     0.312 C 
ATOM     11  C   UNL A   1      31.093  23.927  23.805  1.00  0.00     0.142 C 
ATOM     12  C   UNL A   1      32.856  24.055  22.080  1.00  0.00     0.312 C 
ATOM     13  O   UNL A   1      33.323  26.285  21.328  1.00  0.00    -0.263 OA
ATOM     14  N   UNL A   1      32.054  23.274  22.920  1.00  0.00    -0.328 N 
ATOM     15  O   UNL A   1      33.657  23.576  21.284  1.00  0.00    -0.263 OA
BRANCH  14  16
ATOM     16  C   UNL A   1      31.986  21.818  22.656  1.00  0.00     0.155 C 
BRANCH  16  17
ATOM     17  C   UNL A   1      32.809  20.968  23.586  1.00  0.00    -0.028 A 
ATOM     18  C   UNL A   1      32.523  19.615  23.759  1.00  0.00     0.005 A 
ATOM     19  C   UNL A   1      33.921  21.507  24.250  1.00  0.00     0.009 A 
ATOM     20  C   UNL A   1      33.411  18.807  24.465  1.00  0.00     0.001 A 
ATOM     21  C   UNL A   1      34.868  20.695  24.873  1.00  0.00    -0.051 A 
ATOM     22  C   UNL A   1      34.599  19.334  24.982  1.00  0.00     0.003 A 
ATOM     23  C   UNL A   1      36.142  21.281  25.402  1.00  0.00     0.044 C 
ENDBRANCH  16  17
ENDBRANCH  14  16
ENDBRANCH   5   8
ENDBRANCH   3   5
ENDBRANCH   2   3
ENDBRANCH   1   2
BRANCH   1  24
ATOM     24  C   UNL A   1      32.681  29.124  27.107  1.00  0.00     0.275 C 
BRANCH  24  25
ATOM     25  O   UNL A   1      34.106  29.018  27.314  1.00  0.00    -0.458 OA
BRANCH  25  26
ATOM     26  C   UNL A   1      34.667  30.029  28.021  1.00  0.00     0.338 C 
ATOM     27  O   UNL A   1      34.058  30.975  28.510  1.00  0.00    -0.246 OA
BRANCH  26  28
ATOM     28  C   UNL A   1      36.110  29.784  28.281  1.00  0.00     0.060 A 
ATOM     29  C   UNL A   1      36.990  29.959  27.212  1.00  0.00     0.016 A 
ATOM     30  C   UNL A   1      36.619  29.372  29.519  1.00  0.00     0.016 A 
ATOM     31  C   UNL A   1      38.365  29.765  27.392  1.00  0.00     0.010 A 
ATOM     32  C   UNL A   1      38.006  29.155  29.686  1.00  0.00     0.010 A 
ATOM     33  C   UNL A   1      38.907  29.373  28.632  1.00  0.00    -0.014 A 
BRANCH  33  34
ATOM     34  C   UNL A   1      40.394  29.136  28.730  1.00  0.00     0.031 A 
ATOM     35  C   UNL A   1      40.969  27.874  28.139  1.00  0.00     0.074 A 
ATOM     36  C   UNL A   1      41.261  30.012  29.290  1.00  0.00     0.049 A 
ATOM     37  N   UNL A   1      42.219  27.553  27.925  1.00  0.00    -0.248 NA
ATOM     38  C   UNL A   1      40.006  26.815  27.797  1.00  0.00     0.031 C 
ATOM     39  C   UNL A   1      40.887  31.192  30.056  1.00  0.00     0.029 A 
ATOM     40  N   UNL A   1      42.646  30.082  29.251  1.00  0.00    -0.354 N 
ATOM     41  C   UNL A   1      42.200  26.228  27.508  1.00  0.00     0.074 A 
ATOM     42  C   UNL A   1      40.809  25.839  27.401  1.00  0.00     0.031 C 
ATOM     43  C   UNL A   1      41.987  31.930  30.290  1.00  0.00     0.029 A 
ATOM     44  C   UNL A   1      43.152  31.300  29.685  1.00  0.00     0.049 A 
ATOM     45  H   UNL A   1      43.216  29.340  28.945  1.00  0.00     0.167 HD
ATOM     46  C   UNL A   1      43.241  25.382  27.325  1.00  0.00     0.037 A 
ATOM     47  C   UNL A   1      44.385  31.857  29.559  1.00  0.00     0.037 A 
ATOM     48  C   UNL A   1      44.627  25.733  27.491  1.00  0.00     0.049 A 
ATOM     49  C   UNL A   1      45.516  30.970  29.091  1.00  0.00     0.074 A 
ATOM     50  C   UNL A   1      45.738  24.910  27.396  1.00  0.00     0.029 A 
ATOM     51  N   UNL A   1      45.095  26.998  27.803  1.00  0.00    -0.354 N 
ATOM     52  N   UNL A   1      45.471  29.741  28.636  1.00  0.00    -0.248 NA
ATOM     53  C   UNL A   1      46.882  31.517  29.193  1.00  0.00     0.031 C 
ATOM     54  C   UNL A   1      46.874  25.667  27.700  1.00  0.00     0.029 A 
ATOM     55  C   UNL A   1      46.478  26.975  27.914  1.00  0.00     0.049 A 
ATOM     56  H   UNL A   1      44.532  27.795  27.926  1.00  0.00     0.167 HD
ATOM     57  C   UNL A   1      46.796  29.358  28.460  1.00  0.00     0.074 A 
ATOM     58  C   UNL A   1      47.615  30.519  28.725  1.00  0.00     0.031 C 
ATOM     59  C   UNL A   1      47.293  28.129  28.184  1.00  0.00     0.037 A 
BRANCH  46  60
ATOM     60  C   UNL A   1      42.904  23.942  27.071  1.00  0.00     0.058 A 
ATOM     61  C   UNL A   1      42.539  23.061  28.099  1.00  0.00     0.135 A 
ATOM     62  C   UNL A   1      42.959  23.442  25.760  1.00  0.00     0.135 A 
ATOM     63  F   UNL A   1      42.508  23.484  29.372  1.00  0.00    -0.206 F 
ATOM     64  C   UNL A   1      42.257  21.725  27.836  1.00  0.00     0.059 A 
ATOM     65  C   UNL A   1      42.653  22.119  25.470  1.00  0.00     0.059 A 
ATOM     66  F   UNL A   1      43.318  24.243  24.743  1.00  0.00    -0.206 F 
ATOM     67  C   UNL A   1      42.316  21.264  26.517  1.00  0.00     0.060 A 
BRANCH  67  68
ATOM     68  S   UNL A   1      41.944  19.530  26.189  1.00  0.00     0.124 S 
ATOM     69  O   UNL A   1      42.829  19.250  25.062  1.00  0.00    -0.237 OA
ATOM     70  O   UNL A   1      42.300  18.890  27.451  1.00  0.00    -0.237 OA
ATOM     71  O   UNL A   1      40.518  19.543  25.876  1.00  0.00    -0.744 OA
ENDBRANCH  67  68
ENDBRANCH  46  60
BRANCH  47  72
ATOM     72  C   UNL A   1      44.672  33.318  29.810  1.00  0.00     0.058 A 
ATOM     73  C   UNL A   1      44.436  34.268  28.790  1.00  0.00     0.135 A 
ATOM     74  C   UNL A   1      45.211  33.822  31.003  1.00  0.00     0.135 A 
ATOM     75  F   UNL A   1      43.953  33.873  27.600  1.00  0.00    -0.206 F 
ATOM     76  C   UNL A   1      44.696  35.630  28.945  1.00  0.00     0.059 A 
ATOM     77  C   UNL A   1      45.433  35.189  31.202  1.00  0.00     0.059 A 
ATOM     78  F   UNL A   1      45.540  32.990  32.003  1.00  0.00    -0.206 F 
ATOM     79  C   UNL A   1      45.176  36.086  30.167  1.00  0.00     0.060 A 
BRANCH  79  80
ATOM     80  S   UNL A   1      45.395  37.863  30.409  1.00  0.00     0.124 S 
ATOM     81  O   UNL A   1      44.940  38.397  29.130  1.00  0.00    -0.237 OA
ATOM     82  O   UNL A   1      44.530  38.127  31.555  1.00  0.00    -0.237 OA
ATOM     83  O   UNL A   1      46.825  37.987  30.675  1.00  0.00    -0.744 OA
ENDBRANCH  79  80
ENDBRANCH  47  72
BRANCH  59  84
ATOM     84  C   UNL A   1      48.789  27.965  28.207  1.00  0.00     0.058 A 
ATOM     85  C   UNL A   1      49.459  27.525  29.363  1.00  0.00     0.135 A 
ATOM     86  C   UNL A   1      49.561  28.216  27.063  1.00  0.00     0.135 A 
ATOM     87  F   UNL A   1      48.771  27.268  30.487  1.00  0.00    -0.206 F 
ATOM     88  C   UNL A   1      50.842  27.380  29.395  1.00  0.00     0.059 A 
ATOM     89  C   UNL A   1      50.943  28.047  27.063  1.00  0.00     0.059 A 
ATOM     90  F   UNL A   1      48.975  28.626  25.927  1.00  0.00    -0.206 F 
ATOM     91  C   UNL A   1      51.576  27.645  28.239  1.00  0.00     0.060 A 
BRANCH  91  92
ATOM     92  S   UNL A   1      53.369  27.442  28.292  1.00  0.00     0.124 S 
ATOM     93  O   UNL A   1      53.736  28.341  29.381  1.00  0.00    -0.237 OA
ATOM     94  O   UNL A   1      53.514  26.016  28.571  1.00  0.00    -0.237 OA
ATOM     95  O   UNL A   1      53.798  27.860  26.960  1.00  0.00    -0.744 OA
ENDBRANCH  91  92
ENDBRANCH  59  84
ENDBRANCH  33  34
ENDBRANCH  26  28
ENDBRANCH  25  26
ENDBRANCH  24  25
ENDBRANCH   1  24
TORSDOF 18
ENDMDL
MODEL 3
REMARK VINA RESULT:     -11.4      1.033      8.220
REMARK SMILES CC[C@@H](C(=O)OCCOC(=O)c1ccc(-c2c3nc(c(-c4c(F)cc(S(=O)(=O)[O-])cc4F)c4ccc([nH]4)c(-c4c(F)cc(S(=O)(=O)[O-])cc4F)c4nc(c(-c5c(F)cc(S(=O)(=O)[O-])cc5F)c5ccc2[nH]5)C=C4)C=C3)cc1)N1CCN(Cc2cccc(C)c2)C(=O)C1=O
REMARK SMILES IDX 7 1 6 2 4 3 5 4 3 5 2 6 1 7 78 8 79 9 92 10 80 11 90 12
REMARK SMILES IDX 93 13 81 14 91 15 82 16 83 17 84 18 89 19 85 20 87 21 86 22
REMARK SMILES IDX 88 23 8 24 9 25 10 26 11 27 12 28 13 29 77 30 14 31 76 32
REMARK SMILES IDX 15 33 16 34 17 35 70 36 18 37 75 38 69 39 71 40 19 41 74 42
REMARK SMILES IDX 68 43 67 44 20 46 54 47 33 48 53 49 34 50 37 51 52 52 72 53
REMARK SMILES IDX 35 54 36 55 51 57 73 58 38 59 21 60 22 61 31 62 23 63 24 64
REMARK SMILES IDX 30 65 32 66 25 67 26 68 27 69 28 70 29 71 55 72 56 73 65 74
REMARK SMILES IDX 57 75 58 76 64 77 66 78 59 79 60 80 61 81 62 82 63 83 39 84
REMARK SMILES IDX 40 85 49 86 41 87 42 88 48 89 50 90 43 91 44 92 45 93 46 94
REMARK SMILES IDX 47 95
REMARK H PARENT 71 45 37 56
REMARK Flexibility Score: inf
ROOT
ATOM      1  C   UNL A   1      33.192  30.781  27.259  1.00  0.00     0.274 C 
ENDROOT
BRANCH   1   2
ATOM      2  O   UNL A   1      33.150  29.729  26.273  1.00  0.00    -0.461 OA
BRANCH   2   3
ATOM      3  C   UNL A   1      32.121  28.843  26.362  1.00  0.00     0.328 C 
ATOM      4  O   UNL A   1      31.491  28.671  27.402  1.00  0.00    -0.250 OA
BRANCH   3   5
ATOM      5  C   UNL A   1      31.928  28.007  25.053  1.00  0.00     0.195 C 
BRANCH   5   6
ATOM      6  C   UNL A   1      30.586  28.329  24.361  1.00  0.00     0.034 C 
ATOM      7  C   UNL A   1      30.662  28.970  22.983  1.00  0.00     0.007 C 
ENDBRANCH   5   6
BRANCH   5   8
ATOM      8  N   UNL A   1      32.123  26.544  25.353  1.00  0.00    -0.319 N 
ATOM      9  C   UNL A   1      33.201  25.835  24.693  1.00  0.00     0.142 C 
ATOM     10  C   UNL A   1      31.242  25.722  26.073  1.00  0.00     0.312 C 
ATOM     11  C   UNL A   1      33.998  25.044  25.708  1.00  0.00     0.142 C 
ATOM     12  C   UNL A   1      31.814  24.381  26.652  1.00  0.00     0.312 C 
ATOM     13  O   UNL A   1      30.072  25.995  26.307  1.00  0.00    -0.263 OA
ATOM     14  N   UNL A   1      33.171  24.101  26.456  1.00  0.00    -0.328 N 
ATOM     15  O   UNL A   1      31.068  23.656  27.302  1.00  0.00    -0.263 OA
BRANCH  14  16
ATOM     16  C   UNL A   1      33.782  23.027  27.273  1.00  0.00     0.155 C 
BRANCH  16  17
ATOM     17  C   UNL A   1      34.210  21.809  26.498  1.00  0.00    -0.028 A 
ATOM     18  C   UNL A   1      33.273  20.878  26.056  1.00  0.00     0.005 A 
ATOM     19  C   UNL A   1      35.556  21.620  26.152  1.00  0.00     0.009 A 
ATOM     20  C   UNL A   1      33.663  19.869  25.178  1.00  0.00     0.001 A 
ATOM     21  C   UNL A   1      35.943  20.679  25.198  1.00  0.00    -0.051 A 
ATOM     22  C   UNL A   1      34.982  19.796  24.717  1.00  0.00     0.003 A 
ATOM     23  C   UNL A   1      37.358  20.634  24.706  1.00  0.00     0.044 C 
ENDBRANCH  16  17
ENDBRANCH  14  16
ENDBRANCH   5   8
ENDBRANCH   3   5
ENDBRANCH   2   3
ENDBRANCH   1   2
BRANCH   1  24
ATOM     24  C   UNL A   1      34.620  31.145  27.689  1.00  0.00     0.275 C 
BRANCH  24  25
ATOM     25  O   UNL A   1      35.351  30.008  28.197  1.00  0.00    -0.458 OA
BRANCH  25  26
ATOM     26  C   UNL A   1      36.185  30.270  29.233  1.00  0.00     0.338 C 
ATOM     27  O   UNL A   1      35.835  30.641  30.348  1.00  0.00    -0.246 OA
BRANCH  26  28
ATOM     28  C   UNL A   1      37.589  29.900  28.915  1.00  0.00     0.060 A 
ATOM     29  C   UNL A   1      38.459  29.713  29.991  1.00  0.00     0.016 A 
ATOM     30  C   UNL A   1      38.081  29.754  27.612  1.00  0.00     0.016 A 
ATOM     31  C   UNL A   1      39.791  29.344  29.765  1.00  0.00     0.010 A 
ATOM     32  C   UNL A   1      39.433  29.405  27.392  1.00  0.00     0.010 A 
ATOM     33  C   UNL A   1      40.306  29.168  28.465  1.00  0.00    -0.014 A 
BRANCH  33  34
ATOM     34  C   UNL A   1      41.765  28.820  28.305  1.00  0.00     0.031 A 
ATOM     35  C   UNL A   1      42.133  27.480  27.721  1.00  0.00     0.074 A 
ATOM     36  C   UNL A   1      42.779  29.658  28.625  1.00  0.00     0.049 A 
ATOM     37  N   UNL A   1      43.296  27.046  27.307  1.00  0.00    -0.248 NA
ATOM     38  C   UNL A   1      41.055  26.481  27.648  1.00  0.00     0.031 C 
ATOM     39  C   UNL A   1      42.636  30.913  29.350  1.00  0.00     0.029 A 
ATOM     40  N   UNL A   1      44.133  29.615  28.327  1.00  0.00    -0.354 N 
ATOM     41  C   UNL A   1      43.110  25.703  27.007  1.00  0.00     0.074 A 
ATOM     42  C   UNL A   1      41.702  25.420  27.190  1.00  0.00     0.031 C 
ATOM     43  C   UNL A   1      43.806  31.574  29.318  1.00  0.00     0.029 A 
ATOM     44  C   UNL A   1      44.792  30.815  28.562  1.00  0.00     0.049 A 
ATOM     45  H   UNL A   1      44.584  28.811  27.981  1.00  0.00     0.167 HD
ATOM     46  C   UNL A   1      44.039  24.766  26.704  1.00  0.00     0.037 A 
ATOM     47  C   UNL A   1      46.012  31.262  28.166  1.00  0.00     0.037 A 
ATOM     48  C   UNL A   1      45.452  25.014  26.584  1.00  0.00     0.049 A 
ATOM     49  C   UNL A   1      46.973  30.258  27.570  1.00  0.00     0.074 A 
ATOM     50  C   UNL A   1      46.468  24.101  26.353  1.00  0.00     0.029 A 
ATOM     51  N   UNL A   1      46.054  26.256  26.703  1.00  0.00    -0.354 N 
ATOM     52  N   UNL A   1      46.761  29.009  27.232  1.00  0.00    -0.248 NA
ATOM     53  C   UNL A   1      48.366  30.699  27.376  1.00  0.00     0.031 C 
ATOM     54  C   UNL A   1      47.689  24.783  26.380  1.00  0.00     0.029 A 
ATOM     55  C   UNL A   1      47.428  26.129  26.560  1.00  0.00     0.049 A 
ATOM     56  H   UNL A   1      45.578  27.102  26.864  1.00  0.00     0.167 HD
ATOM     57  C   UNL A   1      48.001  28.510  26.846  1.00  0.00     0.074 A 
ATOM     58  C   UNL A   1      48.930  29.617  26.863  1.00  0.00     0.031 C 
ATOM     59  C   UNL A   1      48.354  27.230  26.582  1.00  0.00     0.037 A 
BRANCH  46  60
ATOM     60  C   UNL A   1      43.565  23.344  26.632  1.00  0.00     0.058 A 
ATOM     61  C   UNL A   1      43.194  22.615  27.771  1.00  0.00     0.135 A 
ATOM     62  C   UNL A   1      43.494  22.703  25.385  1.00  0.00     0.135 A 
ATOM     63  F   UNL A   1      43.279  23.173  28.989  1.00  0.00    -0.206 F 
ATOM     64  C   UNL A   1      42.783  21.290  27.675  1.00  0.00     0.059 A 
ATOM     65  C   UNL A   1      43.059  21.390  25.262  1.00  0.00     0.059 A 
ATOM     66  F   UNL A   1      43.855  23.354  24.267  1.00  0.00    -0.206 F 
ATOM     67  C   UNL A   1      42.718  20.687  26.415  1.00  0.00     0.060 A 
BRANCH  67  68
ATOM     68  S   UNL A   1      42.179  18.969  26.304  1.00  0.00     0.124 S 
ATOM     69  O   UNL A   1      42.359  18.518  27.681  1.00  0.00    -0.237 OA
ATOM     70  O   UNL A   1      40.797  19.105  25.856  1.00  0.00    -0.237 OA
ATOM     71  O   UNL A   1      43.097  18.388  25.330  1.00  0.00    -0.744 OA
ENDBRANCH  67  68
ENDBRANCH  46  60
BRANCH  47  72
ATOM     72  C   UNL A   1      46.439  32.708  28.244  1.00  0.00     0.058 A 
ATOM     73  C   UNL A   1      47.151  33.172  29.374  1.00  0.00     0.135 A 
ATOM     74  C   UNL A   1      46.142  33.672  27.270  1.00  0.00     0.135 A 
ATOM     75  F   UNL A   1      47.450  32.327  30.375  1.00  0.00    -0.206 F 
ATOM     76  C   UNL A   1      47.560  34.497  29.523  1.00  0.00     0.059 A 
ATOM     77  C   UNL A   1      46.584  34.995  27.370  1.00  0.00     0.059 A 
ATOM     78  F   UNL A   1      45.406  33.346  26.196  1.00  0.00    -0.206 F 
ATOM     79  C   UNL A   1      47.290  35.401  28.501  1.00  0.00     0.060 A 
BRANCH  79  80
ATOM     80  S   UNL A   1      47.928  37.086  28.637  1.00  0.00     0.124 S 
ATOM     81  O   UNL A   1      47.415  37.495  29.940  1.00  0.00    -0.237 OA
ATOM     82  O   UNL A   1      49.370  36.877  28.554  1.00  0.00    -0.237 OA
ATOM     83  O   UNL A   1      47.336  37.757  27.483  1.00  0.00    -0.744 OA
ENDBRANCH  79  80
ENDBRANCH  47  72
BRANCH  59  84
ATOM     84  C   UNL A   1      49.813  26.949  26.342  1.00  0.00     0.058 A 
ATOM     85  C   UNL A   1      50.701  26.733  27.412  1.00  0.00     0.135 A 
ATOM     86  C   UNL A   1      50.328  26.862  25.040  1.00  0.00     0.135 A 
ATOM     87  F   UNL A   1      50.264  26.802  28.679  1.00  0.00    -0.206 F 
ATOM     88  C   UNL A   1      52.052  26.481  27.198  1.00  0.00     0.059 A 
ATOM     89  C   UNL A   1      51.671  26.580  24.803  1.00  0.00     0.059 A 
ATOM     90  F   UNL A   1      49.524  27.046  23.981  1.00  0.00    -0.206 F 
ATOM     91  C   UNL A   1      52.528  26.408  25.889  1.00  0.00     0.060 A 
BRANCH  91  92
ATOM     92  S   UNL A   1      54.283  26.070  25.628  1.00  0.00     0.124 S 
ATOM     93  O   UNL A   1      54.758  27.353  25.123  1.00  0.00    -0.237 OA
ATOM     94  O   UNL A   1      54.735  25.710  26.969  1.00  0.00    -0.237 OA
ATOM     95  O   UNL A   1      54.278  24.977  24.660  1.00  0.00    -0.744 OA
ENDBRANCH  91  92
ENDBRANCH  59  84
ENDBRANCH  33  34
ENDBRANCH  26  28
ENDBRANCH  25  26
ENDBRANCH  24  25
ENDBRANCH   1  24
TORSDOF 18
ENDMDL
