MODEL 1
REMARK VINA RESULT:     -11.1      0.000      0.000
REMARK SMILES C[C@@H]1CN(C(=O)NC[C@@H]2CC[C@H](C(=O)OCCOC(=O)c3ccc(-c4c5nc(c(-c6c(F)cc(S(=O)(=O)[O-])cc6F)c6ccc([nH]6)c(-c6c(F)cc(S(=O)(=O)[O-])cc6F)c6nc(c(-c7c(F)cc(S(=O)(=O)[O-])cc7F)c7ccc4[nH]7)C=C6)C=C5)cc3)O2)CC(C)(C)O1
REMARK SMILES IDX 16 1 15 2 13 3 14 4 12 5 9 6 10 7 87 8 11 9 8 10 7 11 5 12
REMARK SMILES IDX 6 13 4 15 1 16 2 17 3 18 92 19 89 20 88 21 90 22 91 23 17 24
REMARK SMILES IDX 18 25 19 26 20 27 21 28 22 29 86 30 23 31 85 32 24 33 25 34
REMARK SMILES IDX 26 35 79 36 27 37 84 38 78 39 80 40 28 41 83 42 77 43 76 44
REMARK SMILES IDX 29 46 63 47 42 48 62 49 43 50 46 51 61 52 81 53 44 54 45 55
REMARK SMILES IDX 60 57 82 58 47 59 30 60 31 61 40 62 32 63 33 64 39 65 41 66
REMARK SMILES IDX 34 67 35 68 36 69 37 70 38 71 64 72 65 73 74 74 66 75 67 76
REMARK SMILES IDX 73 77 75 78 68 79 69 80 70 81 71 82 72 83 48 84 49 85 58 86
REMARK SMILES IDX 50 87 51 88 57 89 59 90 52 91 53 92 54 93 55 94 56 95
REMARK H PARENT 7 14 80 45 46 56
REMARK Flexibility Score: inf
ROOT
ATOM      1  C   UNL A   1      43.881  22.981  24.974  1.00  0.00     0.274 C 
ENDROOT
BRANCH   1   2
ATOM      2  O   UNL A   1      42.558  22.434  25.146  1.00  0.00    -0.460 OA
BRANCH   2   3
ATOM      3  C   UNL A   1      42.484  21.216  25.751  1.00  0.00     0.335 C 
ATOM      4  O   UNL A   1      43.059  20.213  25.343  1.00  0.00    -0.249 OA
BRANCH   3   5
ATOM      5  C   UNL A   1      41.597  21.216  27.008  1.00  0.00     0.228 C 
ATOM      6  C   UNL A   1      39.321  21.575  26.653  1.00  0.00     0.138 C 
ATOM      7  C   UNL A   1      39.975  22.923  26.924  1.00  0.00     0.037 C 
ATOM      8  O   UNL A   1      40.350  20.576  26.716  1.00  0.00    -0.361 OA
ATOM      9  C   UNL A   1      41.255  22.554  27.629  1.00  0.00     0.047 C 
BRANCH   6  10
ATOM     10  C   UNL A   1      38.603  21.429  25.310  1.00  0.00     0.149 C 
BRANCH  10  11
ATOM     11  N   UNL A   1      37.732  22.540  25.000  1.00  0.00    -0.335 N 
ATOM     12  C   UNL A   1      36.442  22.857  25.147  1.00  0.00     0.317 C 
ATOM     13  O   UNL A   1      36.142  23.963  24.683  1.00  0.00    -0.249 OA
ATOM     14  H   UNL A   1      38.228  23.265  24.555  1.00  0.00     0.165 HD
BRANCH  12  15
ATOM     15  N   UNL A   1      35.517  22.071  25.759  1.00  0.00    -0.319 N 
ATOM     16  C   UNL A   1      32.874  23.796  26.401  1.00  0.00     0.040 C 
ATOM     17  C   UNL A   1      33.271  22.370  26.769  1.00  0.00     0.135 C 
ATOM     18  C   UNL A   1      34.783  22.215  27.015  1.00  0.00     0.153 C 
ATOM     19  O   UNL A   1      32.739  21.401  25.850  1.00  0.00    -0.369 OA
ATOM     20  C   UNL A   1      33.517  21.121  24.665  1.00  0.00     0.081 C 
ATOM     21  C   UNL A   1      35.012  20.923  25.001  1.00  0.00     0.156 C 
ATOM     22  C   UNL A   1      33.310  22.204  23.598  1.00  0.00     0.044 C 
ATOM     23  C   UNL A   1      32.960  19.801  24.115  1.00  0.00     0.044 C 
ENDBRANCH  12  15
ENDBRANCH  10  11
ENDBRANCH   6  10
ENDBRANCH   3   5
ENDBRANCH   2   3
ENDBRANCH   1   2
BRANCH   1  24
ATOM     24  C   UNL A   1      43.850  24.509  25.045  1.00  0.00     0.275 C 
BRANCH  24  25
ATOM     25  O   UNL A   1      43.162  24.964  26.225  1.00  0.00    -0.458 OA
BRANCH  25  26
ATOM     26  C   UNL A   1      42.194  25.883  26.005  1.00  0.00     0.338 C 
ATOM     27  O   UNL A   1      41.509  26.017  25.004  1.00  0.00    -0.246 OA
BRANCH  26  28
ATOM     28  C   UNL A   1      41.971  26.658  27.233  1.00  0.00     0.060 A 
ATOM     29  C   UNL A   1      41.035  26.179  28.148  1.00  0.00     0.016 A 
ATOM     30  C   UNL A   1      42.605  27.881  27.441  1.00  0.00     0.016 A 
ATOM     31  C   UNL A   1      40.697  26.932  29.264  1.00  0.00     0.010 A 
ATOM     32  C   UNL A   1      42.302  28.616  28.593  1.00  0.00     0.010 A 
ATOM     33  C   UNL A   1      41.341  28.150  29.509  1.00  0.00    -0.014 A 
BRANCH  33  34
ATOM     34  C   UNL A   1      41.019  28.913  30.739  1.00  0.00     0.031 A 
ATOM     35  C   UNL A   1      39.872  29.882  30.752  1.00  0.00     0.074 A 
ATOM     36  C   UNL A   1      41.763  28.719  31.845  1.00  0.00     0.049 A 
ATOM     37  N   UNL A   1      39.519  30.724  31.687  1.00  0.00    -0.248 NA
ATOM     38  C   UNL A   1      39.011  29.912  29.558  1.00  0.00     0.031 C 
ATOM     39  C   UNL A   1      42.880  27.776  31.960  1.00  0.00     0.029 A 
ATOM     40  N   UNL A   1      41.701  29.310  33.083  1.00  0.00    -0.354 N 
ATOM     41  C   UNL A   1      38.422  31.413  31.185  1.00  0.00     0.074 A 
ATOM     42  C   UNL A   1      38.161  30.886  29.862  1.00  0.00     0.031 C 
ATOM     43  C   UNL A   1      43.392  27.849  33.198  1.00  0.00     0.029 A 
ATOM     44  C   UNL A   1      42.685  28.885  33.943  1.00  0.00     0.049 A 
ATOM     45  H   UNL A   1      41.016  29.972  33.330  1.00  0.00     0.167 HD
ATOM     46  C   UNL A   1      37.704  32.394  31.777  1.00  0.00     0.037 A 
ATOM     47  C   UNL A   1      43.013  29.314  35.176  1.00  0.00     0.037 A 
ATOM     48  C   UNL A   1      37.945  32.879  33.112  1.00  0.00     0.049 A 
ATOM     49  C   UNL A   1      42.229  30.439  35.789  1.00  0.00     0.074 A 
ATOM     50  C   UNL A   1      37.234  33.831  33.823  1.00  0.00     0.029 A 
ATOM     51  N   UNL A   1      38.974  32.450  33.937  1.00  0.00    -0.354 N 
ATOM     52  N   UNL A   1      41.193  31.080  35.301  1.00  0.00    -0.248 NA
ATOM     53  C   UNL A   1      42.668  30.916  37.107  1.00  0.00     0.031 C 
ATOM     54  C   UNL A   1      37.857  34.004  35.064  1.00  0.00     0.029 A 
ATOM     55  C   UNL A   1      38.937  33.139  35.137  1.00  0.00     0.049 A 
ATOM     56  H   UNL A   1      39.634  31.758  33.702  1.00  0.00     0.167 HD
ATOM     57  C   UNL A   1      40.857  32.035  36.253  1.00  0.00     0.074 A 
ATOM     58  C   UNL A   1      41.785  31.873  37.354  1.00  0.00     0.031 C 
ATOM     59  C   UNL A   1      39.874  32.966  36.215  1.00  0.00     0.037 A 
BRANCH  46  60
ATOM     60  C   UNL A   1      36.602  33.039  30.988  1.00  0.00     0.058 A 
ATOM     61  C   UNL A   1      35.251  32.826  31.294  1.00  0.00     0.135 A 
ATOM     62  C   UNL A   1      36.909  33.948  29.963  1.00  0.00     0.135 A 
ATOM     63  F   UNL A   1      34.904  31.954  32.254  1.00  0.00    -0.206 F 
ATOM     64  C   UNL A   1      34.239  33.490  30.607  1.00  0.00     0.059 A 
ATOM     65  C   UNL A   1      35.916  34.636  29.274  1.00  0.00     0.059 A 
ATOM     66  F   UNL A   1      38.189  34.182  29.630  1.00  0.00    -0.206 F 
ATOM     67  C   UNL A   1      34.581  34.395  29.601  1.00  0.00     0.060 A 
BRANCH  67  68
ATOM     68  S   UNL A   1      33.261  35.281  28.745  1.00  0.00     0.124 S 
ATOM     69  O   UNL A   1      32.633  34.203  27.987  1.00  0.00    -0.237 OA
ATOM     70  O   UNL A   1      32.475  35.819  29.850  1.00  0.00    -0.237 OA
ATOM     71  O   UNL A   1      33.977  36.273  27.949  1.00  0.00    -0.744 OA
ENDBRANCH  67  68
ENDBRANCH  46  60
BRANCH  47  72
ATOM     72  C   UNL A   1      44.180  28.728  35.884  1.00  0.00     0.058 A 
ATOM     73  C   UNL A   1      45.468  29.256  35.720  1.00  0.00     0.135 A 
ATOM     74  C   UNL A   1      44.029  27.618  36.730  1.00  0.00     0.135 A 
ATOM     75  F   UNL A   1      45.663  30.310  34.914  1.00  0.00    -0.206 F 
ATOM     76  C   UNL A   1      46.570  28.694  36.357  1.00  0.00     0.059 A 
ATOM     77  C   UNL A   1      45.111  27.054  37.396  1.00  0.00     0.059 A 
ATOM     78  F   UNL A   1      42.813  27.084  36.928  1.00  0.00    -0.206 F 
ATOM     79  C   UNL A   1      46.382  27.590  37.190  1.00  0.00     0.060 A 
BRANCH  79  80
ATOM     80  S   UNL A   1      47.807  26.877  38.039  1.00  0.00     0.124 S 
ATOM     81  O   UNL A   1      47.257  25.616  38.521  1.00  0.00    -0.237 OA
ATOM     82  O   UNL A   1      48.793  26.777  36.967  1.00  0.00    -0.237 OA
ATOM     83  O   UNL A   1      48.111  27.870  39.066  1.00  0.00    -0.744 OA
ENDBRANCH  79  80
ENDBRANCH  47  72
BRANCH  59  84
ATOM     84  C   UNL A   1      39.756  33.880  37.399  1.00  0.00     0.058 A 
ATOM     85  C   UNL A   1      40.383  35.136  37.413  1.00  0.00     0.135 A 
ATOM     86  C   UNL A   1      38.979  33.516  38.510  1.00  0.00     0.135 A 
ATOM     87  F   UNL A   1      41.144  35.521  36.378  1.00  0.00    -0.206 F 
ATOM     88  C   UNL A   1      40.254  35.997  38.496  1.00  0.00     0.059 A 
ATOM     89  C   UNL A   1      38.820  34.370  39.595  1.00  0.00     0.059 A 
ATOM     90  F   UNL A   1      38.355  32.327  38.538  1.00  0.00    -0.206 F 
ATOM     91  C   UNL A   1      39.470  35.604  39.584  1.00  0.00     0.060 A 
BRANCH  91  92
ATOM     92  S   UNL A   1      39.278  36.743  40.971  1.00  0.00     0.124 S 
ATOM     93  O   UNL A   1      40.667  37.020  41.317  1.00  0.00    -0.237 OA
ATOM     94  O   UNL A   1      38.541  37.851  40.372  1.00  0.00    -0.237 OA
ATOM     95  O   UNL A   1      38.529  35.959  41.949  1.00  0.00    -0.744 OA
ENDBRANCH  91  92
ENDBRANCH  59  84
ENDBRANCH  33  34
ENDBRANCH  26  28
ENDBRANCH  25  26
ENDBRANCH  24  25
ENDBRANCH   1  24
TORSDOF 17
ENDMDL
MODEL 2
REMARK VINA RESULT:     -11.1      5.500     12.678
REMARK SMILES C[C@@H]1CN(C(=O)NC[C@@H]2CC[C@H](C(=O)OCCOC(=O)c3ccc(-c4c5nc(c(-c6c(F)cc(S(=O)(=O)[O-])cc6F)c6ccc([nH]6)c(-c6c(F)cc(S(=O)(=O)[O-])cc6F)c6nc(c(-c7c(F)cc(S(=O)(=O)[O-])cc7F)c7ccc4[nH]7)C=C6)C=C5)cc3)O2)CC(C)(C)O1
REMARK SMILES IDX 16 1 15 2 13 3 14 4 12 5 9 6 10 7 87 8 11 9 8 10 7 11 5 12
REMARK SMILES IDX 6 13 4 15 1 16 2 17 3 18 92 19 89 20 88 21 90 22 91 23 17 24
REMARK SMILES IDX 18 25 19 26 20 27 21 28 22 29 86 30 23 31 85 32 24 33 25 34
REMARK SMILES IDX 26 35 79 36 27 37 84 38 78 39 80 40 28 41 83 42 77 43 76 44
REMARK SMILES IDX 29 46 63 47 42 48 62 49 43 50 46 51 61 52 81 53 44 54 45 55
REMARK SMILES IDX 60 57 82 58 47 59 30 60 31 61 40 62 32 63 33 64 39 65 41 66
REMARK SMILES IDX 34 67 35 68 36 69 37 70 38 71 64 72 65 73 74 74 66 75 67 76
REMARK SMILES IDX 73 77 75 78 68 79 69 80 70 81 71 82 72 83 48 84 49 85 58 86
REMARK SMILES IDX 50 87 51 88 57 89 59 90 52 91 53 92 54 93 55 94 56 95
REMARK H PARENT 7 14 80 45 46 56
REMARK Flexibility Score: inf
ROOT
ATOM      1  C   UNL A   1      35.059  33.754  28.468  1.00  0.00     0.274 C 
ENDROOT
BRANCH   1   2
ATOM      2  O   UNL A   1      34.391  34.055  29.710  1.00  0.00    -0.460 OA
BRANCH   2   3
ATOM      3  C   UNL A   1      33.444  35.032  29.662  1.00  0.00     0.335 C 
ATOM      4  O   UNL A   1      32.631  35.154  28.752  1.00  0.00    -0.249 OA
BRANCH   3   5
ATOM      5  C   UNL A   1      33.492  35.984  30.870  1.00  0.00     0.228 C 
ATOM      6  C   UNL A   1      33.623  34.971  32.965  1.00  0.00     0.138 C 
ATOM      7  C   UNL A   1      32.152  35.202  32.643  1.00  0.00     0.037 C 
ATOM      8  O   UNL A   1      34.389  35.464  31.857  1.00  0.00    -0.361 OA
ATOM      9  C   UNL A   1      32.191  36.277  31.588  1.00  0.00     0.047 C 
BRANCH   6  10
ATOM     10  C   UNL A   1      34.040  33.521  33.221  1.00  0.00     0.149 C 
BRANCH  10  11
ATOM     11  N   UNL A   1      35.067  33.051  32.319  1.00  0.00    -0.335 N 
ATOM     12  C   UNL A   1      36.347  32.672  32.391  1.00  0.00     0.317 C 
ATOM     13  O   UNL A   1      36.837  32.359  31.299  1.00  0.00    -0.249 OA
ATOM     14  H   UNL A   1      34.730  32.996  31.396  1.00  0.00     0.165 HD
BRANCH  12  15
ATOM     15  N   UNL A   1      37.073  32.607  33.538  1.00  0.00    -0.319 N 
ATOM     16  C   UNL A   1      39.759  30.904  33.033  1.00  0.00     0.040 C 
ATOM     17  C   UNL A   1      39.154  31.495  34.302  1.00  0.00     0.135 C 
ATOM     18  C   UNL A   1      37.614  31.479  34.294  1.00  0.00     0.153 C 
ATOM     19  O   UNL A   1      39.711  32.780  34.625  1.00  0.00    -0.369 OA
ATOM     20  C   UNL A   1      39.100  33.935  34.010  1.00  0.00     0.081 C 
ATOM     21  C   UNL A   1      37.559  33.873  34.092  1.00  0.00     0.156 C 
ATOM     22  C   UNL A   1      39.589  34.119  32.567  1.00  0.00     0.044 C 
ATOM     23  C   UNL A   1      39.586  35.138  34.831  1.00  0.00     0.044 C 
ENDBRANCH  12  15
ENDBRANCH  10  11
ENDBRANCH   6  10
ENDBRANCH   3   5
ENDBRANCH   2   3
ENDBRANCH   1   2
BRANCH   1  24
ATOM     24  C   UNL A   1      34.553  32.433  27.887  1.00  0.00     0.275 C 
BRANCH  24  25
ATOM     25  O   UNL A   1      34.618  31.373  28.859  1.00  0.00    -0.458 OA
BRANCH  25  26
ATOM     26  C   UNL A   1      34.907  30.151  28.356  1.00  0.00     0.338 C 
ATOM     27  O   UNL A   1      34.162  29.406  27.740  1.00  0.00    -0.246 OA
BRANCH  26  28
ATOM     28  C   UNL A   1      36.337  29.873  28.542  1.00  0.00     0.060 A 
ATOM     29  C   UNL A   1      37.188  30.064  27.454  1.00  0.00     0.016 A 
ATOM     30  C   UNL A   1      36.822  29.350  29.739  1.00  0.00     0.016 A 
ATOM     31  C   UNL A   1      38.525  29.701  27.539  1.00  0.00     0.010 A 
ATOM     32  C   UNL A   1      38.182  29.033  29.841  1.00  0.00     0.010 A 
ATOM     33  C   UNL A   1      39.041  29.199  28.739  1.00  0.00    -0.014 A 
BRANCH  33  34
ATOM     34  C   UNL A   1      40.485  28.878  28.836  1.00  0.00     0.031 A 
ATOM     35  C   UNL A   1      41.472  29.938  29.234  1.00  0.00     0.074 A 
ATOM     36  C   UNL A   1      40.899  27.624  28.570  1.00  0.00     0.049 A 
ATOM     37  N   UNL A   1      42.778  29.879  29.250  1.00  0.00    -0.248 NA
ATOM     38  C   UNL A   1      40.922  31.233  29.666  1.00  0.00     0.031 C 
ATOM     39  C   UNL A   1      40.025  26.503  28.209  1.00  0.00     0.029 A 
ATOM     40  N   UNL A   1      42.158  27.080  28.553  1.00  0.00    -0.354 N 
ATOM     41  C   UNL A   1      43.210  31.136  29.655  1.00  0.00     0.074 A 
ATOM     42  C   UNL A   1      42.026  31.938  29.881  1.00  0.00     0.031 C 
ATOM     43  C   UNL A   1      40.774  25.407  28.011  1.00  0.00     0.029 A 
ATOM     44  C   UNL A   1      42.180  25.760  28.168  1.00  0.00     0.049 A 
ATOM     45  H   UNL A   1      42.968  27.585  28.794  1.00  0.00     0.167 HD
ATOM     46  C   UNL A   1      44.479  31.574  29.819  1.00  0.00     0.037 A 
ATOM     47  C   UNL A   1      43.217  24.938  27.923  1.00  0.00     0.037 A 
ATOM     48  C   UNL A   1      45.648  30.753  29.635  1.00  0.00     0.049 A 
ATOM     49  C   UNL A   1      44.616  25.467  28.066  1.00  0.00     0.074 A 
ATOM     50  C   UNL A   1      46.976  31.090  29.834  1.00  0.00     0.029 A 
ATOM     51  N   UNL A   1      45.630  29.433  29.209  1.00  0.00    -0.354 N 
ATOM     52  N   UNL A   1      45.009  26.659  28.450  1.00  0.00    -0.248 NA
ATOM     53  C   UNL A   1      45.712  24.552  27.722  1.00  0.00     0.031 C 
ATOM     54  C   UNL A   1      47.763  29.985  29.493  1.00  0.00     0.029 A 
ATOM     55  C   UNL A   1      46.924  28.951  29.109  1.00  0.00     0.049 A 
ATOM     56  H   UNL A   1      44.817  28.917  29.007  1.00  0.00     0.167 HD
ATOM     57  C   UNL A   1      46.397  26.635  28.395  1.00  0.00     0.074 A 
ATOM     58  C   UNL A   1      46.777  25.306  27.962  1.00  0.00     0.031 C 
ATOM     59  C   UNL A   1      47.278  27.627  28.670  1.00  0.00     0.037 A 
BRANCH  46  60
ATOM     60  C   UNL A   1      44.688  33.013  30.192  1.00  0.00     0.058 A 
ATOM     61  C   UNL A   1      44.709  34.032  29.230  1.00  0.00     0.135 A 
ATOM     62  C   UNL A   1      44.786  33.382  31.544  1.00  0.00     0.135 A 
ATOM     63  F   UNL A   1      44.635  33.730  27.923  1.00  0.00    -0.206 F 
ATOM     64  C   UNL A   1      44.823  35.370  29.594  1.00  0.00     0.059 A 
ATOM     65  C   UNL A   1      44.885  34.714  31.932  1.00  0.00     0.059 A 
ATOM     66  F   UNL A   1      44.777  32.442  32.502  1.00  0.00    -0.206 F 
ATOM     67  C   UNL A   1      44.908  35.702  30.947  1.00  0.00     0.060 A 
BRANCH  67  68
ATOM     68  S   UNL A   1      45.016  37.445  31.408  1.00  0.00     0.124 S 
ATOM     69  O   UNL A   1      46.176  37.439  32.293  1.00  0.00    -0.237 OA
ATOM     70  O   UNL A   1      45.205  38.100  30.118  1.00  0.00    -0.237 OA
ATOM     71  O   UNL A   1      43.734  37.704  32.056  1.00  0.00    -0.744 OA
ENDBRANCH  67  68
ENDBRANCH  46  60
BRANCH  47  72
ATOM     72  C   UNL A   1      42.975  23.552  27.448  1.00  0.00     0.058 A 
ATOM     73  C   UNL A   1      42.862  22.485  28.351  1.00  0.00     0.135 A 
ATOM     74  C   UNL A   1      42.864  23.266  26.078  1.00  0.00     0.135 A 
ATOM     75  F   UNL A   1      42.970  22.709  29.669  1.00  0.00    -0.206 F 
ATOM     76  C   UNL A   1      42.664  21.180  27.912  1.00  0.00     0.059 A 
ATOM     77  C   UNL A   1      42.642  21.973  25.617  1.00  0.00     0.059 A 
ATOM     78  F   UNL A   1      42.954  24.255  25.175  1.00  0.00    -0.206 F 
ATOM     79  C   UNL A   1      42.560  20.933  26.542  1.00  0.00     0.060 A 
BRANCH  79  80
ATOM     80  S   UNL A   1      42.276  19.244  25.973  1.00  0.00     0.124 S 
ATOM     81  O   UNL A   1      42.689  18.471  27.138  1.00  0.00    -0.237 OA
ATOM     82  O   UNL A   1      40.845  19.247  25.683  1.00  0.00    -0.237 OA
ATOM     83  O   UNL A   1      43.142  19.139  24.802  1.00  0.00    -0.744 OA
ENDBRANCH  79  80
ENDBRANCH  47  72
BRANCH  59  84
ATOM     84  C   UNL A   1      48.734  27.309  28.509  1.00  0.00     0.058 A 
ATOM     85  C   UNL A   1      49.396  27.529  27.290  1.00  0.00     0.135 A 
ATOM     86  C   UNL A   1      49.484  26.818  29.589  1.00  0.00     0.135 A 
ATOM     87  F   UNL A   1      48.717  27.987  26.227  1.00  0.00    -0.206 F 
ATOM     88  C   UNL A   1      50.752  27.260  27.145  1.00  0.00     0.059 A 
ATOM     89  C   UNL A   1      50.845  26.562  29.472  1.00  0.00     0.059 A 
ATOM     90  F   UNL A   1      48.895  26.598  30.776  1.00  0.00    -0.206 F 
ATOM     91  C   UNL A   1      51.469  26.776  28.242  1.00  0.00     0.060 A 
BRANCH  91  92
ATOM     92  S   UNL A   1      53.236  26.465  28.055  1.00  0.00     0.124 S 
ATOM     93  O   UNL A   1      53.241  25.381  27.080  1.00  0.00    -0.237 OA
ATOM     94  O   UNL A   1      53.736  27.750  27.576  1.00  0.00    -0.237 OA
ATOM     95  O   UNL A   1      53.659  26.101  29.404  1.00  0.00    -0.744 OA
ENDBRANCH  91  92
ENDBRANCH  59  84
ENDBRANCH  33  34
ENDBRANCH  26  28
ENDBRANCH  25  26
ENDBRANCH  24  25
ENDBRANCH   1  24
TORSDOF 17
ENDMDL
MODEL 3
REMARK VINA RESULT:     -11.1      2.031      9.016
REMARK SMILES C[C@@H]1CN(C(=O)NC[C@@H]2CC[C@H](C(=O)OCCOC(=O)c3ccc(-c4c5nc(c(-c6c(F)cc(S(=O)(=O)[O-])cc6F)c6ccc([nH]6)c(-c6c(F)cc(S(=O)(=O)[O-])cc6F)c6nc(c(-c7c(F)cc(S(=O)(=O)[O-])cc7F)c7ccc4[nH]7)C=C6)C=C5)cc3)O2)CC(C)(C)O1
REMARK SMILES IDX 16 1 15 2 13 3 14 4 12 5 9 6 10 7 87 8 11 9 8 10 7 11 5 12
REMARK SMILES IDX 6 13 4 15 1 16 2 17 3 18 92 19 89 20 88 21 90 22 91 23 17 24
REMARK SMILES IDX 18 25 19 26 20 27 21 28 22 29 86 30 23 31 85 32 24 33 25 34
REMARK SMILES IDX 26 35 79 36 27 37 84 38 78 39 80 40 28 41 83 42 77 43 76 44
REMARK SMILES IDX 29 46 63 47 42 48 62 49 43 50 46 51 61 52 81 53 44 54 45 55
REMARK SMILES IDX 60 57 82 58 47 59 30 60 31 61 40 62 32 63 33 64 39 65 41 66
REMARK SMILES IDX 34 67 35 68 36 69 37 70 38 71 64 72 65 73 74 74 66 75 67 76
REMARK SMILES IDX 73 77 75 78 68 79 69 80 70 81 71 82 72 83 48 84 49 85 58 86
REMARK SMILES IDX 50 87 51 88 57 89 59 90 52 91 53 92 54 93 55 94 56 95
REMARK H PARENT 7 14 80 45 46 56
REMARK Flexibility Score: inf
ROOT
ATOM      1  C   UNL A   1      37.792  22.515  25.323  1.00  0.00     0.274 C 
ENDROOT
BRANCH   1   2
ATOM      2  O   UNL A   1      36.906  21.461  25.750  1.00  0.00    -0.460 OA
BRANCH   2   3
ATOM      3  C   UNL A   1      35.611  21.816  25.973  1.00  0.00     0.335 C 
ATOM      4  O   UNL A   1      34.973  21.487  26.967  1.00  0.00    -0.249 OA
BRANCH   3   5
ATOM      5  C   UNL A   1      35.015  22.676  24.846  1.00  0.00     0.228 C 
ATOM      6  C   UNL A   1      32.875  23.521  25.227  1.00  0.00     0.138 C 
ATOM      7  C   UNL A   1      32.736  22.190  24.499  1.00  0.00     0.037 C 
ATOM      8  O   UNL A   1      34.278  23.766  25.411  1.00  0.00    -0.361 OA
ATOM      9  C   UNL A   1      34.086  21.999  23.859  1.00  0.00     0.047 C 
BRANCH   6  10
ATOM     10  C   UNL A   1      32.195  23.620  26.594  1.00  0.00     0.149 C 
BRANCH  10  11
ATOM     11  N   UNL A   1      31.298  24.747  26.710  1.00  0.00    -0.335 N 
ATOM     12  C   UNL A   1      31.281  26.036  26.356  1.00  0.00     0.317 C 
ATOM     13  O   UNL A   1      30.259  26.637  26.709  1.00  0.00    -0.249 OA
ATOM     14  H   UNL A   1      30.472  24.496  27.182  1.00  0.00     0.165 HD
BRANCH  12  15
ATOM     15  N   UNL A   1      32.266  26.662  25.660  1.00  0.00    -0.319 N 
ATOM     16  C   UNL A   1      31.071  29.257  24.174  1.00  0.00     0.040 C 
ATOM     17  C   UNL A   1      32.443  28.595  24.115  1.00  0.00     0.135 C 
ATOM     18  C   UNL A   1      32.374  27.063  24.258  1.00  0.00     0.153 C 
ATOM     19  O   UNL A   1      33.385  29.211  25.009  1.00  0.00    -0.369 OA
ATOM     20  C   UNL A   1      33.410  28.731  26.372  1.00  0.00     0.081 C 
ATOM     21  C   UNL A   1      33.396  27.188  26.430  1.00  0.00     0.156 C 
ATOM     22  C   UNL A   1      32.271  29.345  27.196  1.00  0.00     0.044 C 
ATOM     23  C   UNL A   1      34.739  29.231  26.955  1.00  0.00     0.044 C 
ENDBRANCH  12  15
ENDBRANCH  10  11
ENDBRANCH   6  10
ENDBRANCH   3   5
ENDBRANCH   2   3
ENDBRANCH   1   2
BRANCH   1  24
ATOM     24  C   UNL A   1      38.843  22.808  26.395  1.00  0.00     0.275 C 
BRANCH  24  25
ATOM     25  O   UNL A   1      39.090  24.221  26.515  1.00  0.00    -0.458 OA
BRANCH  25  26
ATOM     26  C   UNL A   1      40.384  24.564  26.705  1.00  0.00     0.338 C 
ATOM     27  O   UNL A   1      41.353  24.196  26.061  1.00  0.00    -0.246 OA
BRANCH  26  28
ATOM     28  C   UNL A   1      40.468  25.585  27.757  1.00  0.00     0.060 A 
ATOM     29  C   UNL A   1      39.429  25.657  28.684  1.00  0.00     0.016 A 
ATOM     30  C   UNL A   1      41.505  26.515  27.781  1.00  0.00     0.016 A 
ATOM     31  C   UNL A   1      39.397  26.678  29.623  1.00  0.00     0.010 A 
ATOM     32  C   UNL A   1      41.500  27.515  28.761  1.00  0.00     0.010 A 
ATOM     33  C   UNL A   1      40.442  27.608  29.684  1.00  0.00    -0.014 A 
BRANCH  33  34
ATOM     34  C   UNL A   1      40.429  28.654  30.735  1.00  0.00     0.031 A 
ATOM     35  C   UNL A   1      41.363  28.562  31.907  1.00  0.00     0.074 A 
ATOM     36  C   UNL A   1      39.575  29.689  30.619  1.00  0.00     0.049 A 
ATOM     37  N   UNL A   1      41.408  29.308  32.980  1.00  0.00    -0.248 NA
ATOM     38  C   UNL A   1      42.373  27.493  31.873  1.00  0.00     0.031 C 
ATOM     39  C   UNL A   1      38.647  29.902  29.504  1.00  0.00     0.029 A 
ATOM     40  N   UNL A   1      39.340  30.755  31.452  1.00  0.00    -0.354 N 
ATOM     41  C   UNL A   1      42.424  28.779  33.767  1.00  0.00     0.074 A 
ATOM     42  C   UNL A   1      42.973  27.650  33.047  1.00  0.00     0.031 C 
ATOM     43  C   UNL A   1      37.949  31.027  29.720  1.00  0.00     0.029 A 
ATOM     44  C   UNL A   1      38.332  31.581  31.014  1.00  0.00     0.049 A 
ATOM     45  H   UNL A   1      39.845  30.913  32.281  1.00  0.00     0.167 HD
ATOM     46  C   UNL A   1      42.850  29.199  34.980  1.00  0.00     0.037 A 
ATOM     47  C   UNL A   1      37.748  32.638  31.608  1.00  0.00     0.037 A 
ATOM     48  C   UNL A   1      42.326  30.352  35.667  1.00  0.00     0.049 A 
ATOM     49  C   UNL A   1      38.211  33.053  32.976  1.00  0.00     0.074 A 
ATOM     50  C   UNL A   1      42.733  30.893  36.874  1.00  0.00     0.029 A 
ATOM     51  N   UNL A   1      41.280  31.139  35.208  1.00  0.00    -0.354 N 
ATOM     52  N   UNL A   1      39.172  32.542  33.708  1.00  0.00    -0.248 NA
ATOM     53  C   UNL A   1      37.498  34.169  33.610  1.00  0.00     0.031 C 
ATOM     54  C   UNL A   1      41.909  31.986  37.163  1.00  0.00     0.029 A 
ATOM     55  C   UNL A   1      41.009  32.143  36.122  1.00  0.00     0.049 A 
ATOM     56  H   UNL A   1      40.803  31.004  34.358  1.00  0.00     0.167 HD
ATOM     57  C   UNL A   1      39.179  33.275  34.888  1.00  0.00     0.074 A 
ATOM     58  C   UNL A   1      38.142  34.279  34.764  1.00  0.00     0.031 C 
ATOM     59  C   UNL A   1      39.967  33.127  35.980  1.00  0.00     0.037 A 
BRANCH  46  60
ATOM     60  C   UNL A   1      43.921  28.403  35.668  1.00  0.00     0.058 A 
ATOM     61  C   UNL A   1      43.614  27.350  36.540  1.00  0.00     0.135 A 
ATOM     62  C   UNL A   1      45.274  28.650  35.384  1.00  0.00     0.135 A 
ATOM     63  F   UNL A   1      42.337  27.083  36.858  1.00  0.00    -0.206 F 
ATOM     64  C   UNL A   1      44.614  26.568  37.111  1.00  0.00     0.059 A 
ATOM     65  C   UNL A   1      46.289  27.872  35.929  1.00  0.00     0.059 A 
ATOM     66  F   UNL A   1      45.617  29.652  34.559  1.00  0.00    -0.206 F 
ATOM     67  C   UNL A   1      45.948  26.834  36.797  1.00  0.00     0.060 A 
BRANCH  67  68
ATOM     68  S   UNL A   1      47.234  25.786  37.512  1.00  0.00     0.124 S 
ATOM     69  O   UNL A   1      46.481  24.575  37.822  1.00  0.00    -0.237 OA
ATOM     70  O   UNL A   1      48.193  25.674  36.419  1.00  0.00    -0.237 OA
ATOM     71  O   UNL A   1      47.693  26.553  38.667  1.00  0.00    -0.744 OA
ENDBRANCH  67  68
ENDBRANCH  46  60
BRANCH  47  72
ATOM     72  C   UNL A   1      36.616  33.336  30.946  1.00  0.00     0.058 A 
ATOM     73  C   UNL A   1      35.295  33.143  31.373  1.00  0.00     0.135 A 
ATOM     74  C   UNL A   1      36.835  34.201  29.862  1.00  0.00     0.135 A 
ATOM     75  F   UNL A   1      35.037  32.318  32.400  1.00  0.00    -0.206 F 
ATOM     76  C   UNL A   1      34.227  33.770  30.739  1.00  0.00     0.059 A 
ATOM     77  C   UNL A   1      35.787  34.857  29.227  1.00  0.00     0.059 A 
ATOM     78  F   UNL A   1      38.084  34.427  29.423  1.00  0.00    -0.206 F 
ATOM     79  C   UNL A   1      34.483  34.622  29.664  1.00  0.00     0.060 A 
BRANCH  79  80
ATOM     80  S   UNL A   1      33.101  35.457  28.858  1.00  0.00     0.124 S 
ATOM     81  O   UNL A   1      32.470  34.354  28.143  1.00  0.00    -0.237 OA
ATOM     82  O   UNL A   1      32.355  35.994  29.992  1.00  0.00    -0.237 OA
ATOM     83  O   UNL A   1      33.760  36.458  28.023  1.00  0.00    -0.744 OA
ENDBRANCH  79  80
ENDBRANCH  47  72
BRANCH  59  84
ATOM     84  C   UNL A   1      39.735  34.071  37.121  1.00  0.00     0.058 A 
ATOM     85  C   UNL A   1      38.933  33.706  38.214  1.00  0.00     0.135 A 
ATOM     86  C   UNL A   1      40.350  35.332  37.144  1.00  0.00     0.135 A 
ATOM     87  F   UNL A   1      38.317  32.515  38.231  1.00  0.00    -0.206 F 
ATOM     88  C   UNL A   1      38.737  34.568  39.287  1.00  0.00     0.059 A 
ATOM     89  C   UNL A   1      40.184  36.202  38.216  1.00  0.00     0.059 A 
ATOM     90  F   UNL A   1      41.131  35.722  36.124  1.00  0.00    -0.206 F 
ATOM     91  C   UNL A   1      39.367  35.815  39.279  1.00  0.00     0.060 A 
BRANCH  91  92
ATOM     92  S   UNL A   1      39.137  36.913  40.692  1.00  0.00     0.124 S 
ATOM     93  O   UNL A   1      38.453  36.036  41.636  1.00  0.00    -0.237 OA
ATOM     94  O   UNL A   1      40.508  37.273  41.041  1.00  0.00    -0.237 OA
ATOM     95  O   UNL A   1      38.332  38.001  40.147  1.00  0.00    -0.744 OA
ENDBRANCH  91  92
ENDBRANCH  59  84
ENDBRANCH  33  34
ENDBRANCH  26  28
ENDBRANCH  25  26
ENDBRANCH  24  25
ENDBRANCH   1  24
TORSDOF 17
ENDMDL
