MODEL 1
REMARK VINA RESULT:     -11.1      0.000      0.000
REMARK SMILES CCCc1cc(OC(F)(F)F)cc2c1O[C@@H](C(F)(F)F)C(C(=O)OCCOC(=O)c1ccc(-c3c4nc(c(-c5c(F)cc(S(=O)(=O)[O-])cc5F)c5ccc([nH]5)c(-c5c(F)cc(S(=O)(=O)[O-])cc5F)c5nc(c(-c6c(F)cc(S(=O)(=O)[O-])cc6F)c6ccc3[nH]6)C=C5)C=C4)cc1)=C2
REMARK SMILES IDX 26 1 25 2 24 3 22 4 23 5 21 6 4 7 5 8 14 9 6 10 13 11 15 12
REMARK SMILES IDX 12 13 96 14 16 15 3 16 2 17 1 18 7 19 8 20 9 21 10 22 11 23
REMARK SMILES IDX 17 24 18 25 19 26 20 27 27 28 28 29 29 30 30 31 31 32 95 33
REMARK SMILES IDX 32 34 94 35 33 36 34 37 35 38 88 39 36 40 93 41 87 42 89 43
REMARK SMILES IDX 37 44 92 45 86 46 85 47 38 49 72 50 51 51 71 52 52 53 55 54
REMARK SMILES IDX 70 55 90 56 53 57 54 58 69 60 91 61 56 62 39 63 40 64 49 65
REMARK SMILES IDX 41 66 42 67 48 68 50 69 43 70 44 71 45 72 46 73 47 74 73 75
REMARK SMILES IDX 74 76 83 77 75 78 76 79 82 80 84 81 77 82 78 83 79 84 80 85
REMARK SMILES IDX 81 86 57 87 58 88 67 89 59 90 60 91 66 92 68 93 61 94 62 95
REMARK SMILES IDX 63 96 64 97 65 98
REMARK H PARENT 89 48 55 59
REMARK Flexibility Score: inf
ROOT
ATOM      1  C   UNL A   1      38.617  23.332  25.855  1.00  0.00     0.275 C 
ENDROOT
BRANCH   1   2
ATOM      2  C   UNL A   1      37.179  23.183  26.356  1.00  0.00     0.275 C 
BRANCH   2   3
ATOM      3  O   UNL A   1      36.237  23.118  25.264  1.00  0.00    -0.459 OA
BRANCH   3   4
ATOM      4  C   UNL A   1      34.930  23.044  25.619  1.00  0.00     0.338 C 
ATOM      5  O   UNL A   1      34.416  22.131  26.243  1.00  0.00    -0.246 OA
BRANCH   4   6
ATOM      6  C   UNL A   1      34.181  24.245  25.193  1.00  0.00     0.087 C 
ATOM      7  C   UNL A   1      31.915  27.481  23.833  1.00  0.00    -0.002 A 
ATOM      8  C   UNL A   1      32.092  28.740  24.439  1.00  0.00     0.054 A 
ATOM      9  C   UNL A   1      32.783  26.447  24.206  1.00  0.00     0.131 A 
ATOM     10  C   UNL A   1      33.077  28.945  25.409  1.00  0.00     0.130 A 
ATOM     11  C   UNL A   1      33.708  26.606  25.248  1.00  0.00     0.021 A 
ATOM     12  O   UNL A   1      32.785  25.299  23.464  1.00  0.00    -0.475 OA
ATOM     13  C   UNL A   1      33.851  27.863  25.843  1.00  0.00     0.058 A 
ATOM     14  C   UNL A   1      34.512  25.458  25.674  1.00  0.00     0.027 C 
ATOM     15  C   UNL A   1      33.036  24.082  24.214  1.00  0.00     0.316 C 
BRANCH   7  16
ATOM     16  C   UNL A   1      30.826  27.346  22.784  1.00  0.00     0.039 C 
BRANCH  16  17
ATOM     17  C   UNL A   1      29.372  27.651  23.173  1.00  0.00     0.001 C 
ATOM     18  C   UNL A   1      28.860  28.996  22.678  1.00  0.00     0.004 C 
ENDBRANCH  16  17
ENDBRANCH   7  16
BRANCH  10  19
ATOM     19  O   UNL A   1      33.364  30.138  26.014  1.00  0.00    -0.406 OA
BRANCH  19  20
ATOM     20  C   UNL A   1      32.488  30.567  27.047  1.00  0.00     0.573 C 
ATOM     21  F   UNL A   1      31.831  29.529  27.607  1.00  0.00    -0.132 F 
ATOM     22  F   UNL A   1      33.159  31.246  28.001  1.00  0.00    -0.132 F 
ATOM     23  F   UNL A   1      31.566  31.401  26.513  1.00  0.00    -0.132 F 
ENDBRANCH  19  20
ENDBRANCH  10  19
BRANCH  15  24
ATOM     24  C   UNL A   1      33.085  22.918  23.206  1.00  0.00     0.430 C 
ATOM     25  F   UNL A   1      32.305  23.163  22.128  1.00  0.00    -0.167 F 
ATOM     26  F   UNL A   1      34.345  22.767  22.721  1.00  0.00    -0.167 F 
ATOM     27  F   UNL A   1      32.727  21.738  23.754  1.00  0.00    -0.167 F 
ENDBRANCH  15  24
ENDBRANCH   4   6
ENDBRANCH   3   4
ENDBRANCH   2   3
ENDBRANCH   1   2
BRANCH   1  28
ATOM     28  O   UNL A   1      39.149  24.637  26.152  1.00  0.00    -0.458 OA
BRANCH  28  29
ATOM     29  C   UNL A   1      40.338  24.628  26.803  1.00  0.00     0.338 C 
ATOM     30  O   UNL A   1      41.325  23.974  26.507  1.00  0.00    -0.246 OA
BRANCH  29  31
ATOM     31  C   UNL A   1      40.359  25.675  27.846  1.00  0.00     0.060 A 
ATOM     32  C   UNL A   1      39.286  25.689  28.741  1.00  0.00     0.016 A 
ATOM     33  C   UNL A   1      41.373  26.631  27.955  1.00  0.00     0.016 A 
ATOM     34  C   UNL A   1      39.254  26.607  29.788  1.00  0.00     0.010 A 
ATOM     35  C   UNL A   1      41.316  27.587  28.982  1.00  0.00     0.010 A 
ATOM     36  C   UNL A   1      40.262  27.571  29.911  1.00  0.00    -0.014 A 
BRANCH  36  37
ATOM     37  C   UNL A   1      40.143  28.585  30.986  1.00  0.00     0.031 A 
ATOM     38  C   UNL A   1      41.041  28.503  32.187  1.00  0.00     0.074 A 
ATOM     39  C   UNL A   1      39.301  29.625  30.848  1.00  0.00     0.049 A 
ATOM     40  N   UNL A   1      41.152  29.328  33.197  1.00  0.00    -0.248 NA
ATOM     41  C   UNL A   1      41.948  27.346  32.249  1.00  0.00     0.031 C 
ATOM     42  C   UNL A   1      38.424  29.855  29.700  1.00  0.00     0.029 A 
ATOM     43  N   UNL A   1      39.055  30.692  31.678  1.00  0.00    -0.354 N 
ATOM     44  C   UNL A   1      42.150  28.804  34.007  1.00  0.00     0.074 A 
ATOM     45  C   UNL A   1      42.596  27.574  33.384  1.00  0.00     0.031 C 
ATOM     46  C   UNL A   1      37.727  30.987  29.905  1.00  0.00     0.029 A 
ATOM     47  C   UNL A   1      38.093  31.551  31.202  1.00  0.00     0.049 A 
ATOM     48  H   UNL A   1      39.524  30.828  32.532  1.00  0.00     0.167 HD
ATOM     49  C   UNL A   1      42.653  29.303  35.162  1.00  0.00     0.037 A 
ATOM     50  C   UNL A   1      37.560  32.658  31.757  1.00  0.00     0.037 A 
ATOM     51  C   UNL A   1      42.186  30.507  35.802  1.00  0.00     0.049 A 
ATOM     52  C   UNL A   1      38.068  33.138  33.094  1.00  0.00     0.074 A 
ATOM     53  C   UNL A   1      42.628  31.081  36.982  1.00  0.00     0.029 A 
ATOM     54  N   UNL A   1      41.161  31.313  35.328  1.00  0.00    -0.354 N 
ATOM     55  N   UNL A   1      39.027  32.643  33.841  1.00  0.00    -0.248 NA
ATOM     56  C   UNL A   1      37.425  34.333  33.659  1.00  0.00     0.031 C 
ATOM     57  C   UNL A   1      41.837  32.204  37.248  1.00  0.00     0.029 A 
ATOM     58  C   UNL A   1      40.937  32.363  36.206  1.00  0.00     0.049 A 
ATOM     59  H   UNL A   1      40.666  31.163  34.491  1.00  0.00     0.167 HD
ATOM     60  C   UNL A   1      39.118  33.480  34.950  1.00  0.00     0.074 A 
ATOM     61  C   UNL A   1      38.128  34.521  34.767  1.00  0.00     0.031 C 
ATOM     62  C   UNL A   1      39.946  33.394  36.022  1.00  0.00     0.037 A 
BRANCH  49  63
ATOM     63  C   UNL A   1      43.747  28.519  35.831  1.00  0.00     0.058 A 
ATOM     64  C   UNL A   1      45.103  28.807  35.611  1.00  0.00     0.135 A 
ATOM     65  C   UNL A   1      43.434  27.480  36.722  1.00  0.00     0.135 A 
ATOM     66  F   UNL A   1      45.457  29.778  34.754  1.00  0.00    -0.206 F 
ATOM     67  C   UNL A   1      46.111  28.077  36.232  1.00  0.00     0.059 A 
ATOM     68  C   UNL A   1      44.426  26.752  37.373  1.00  0.00     0.059 A 
ATOM     69  F   UNL A   1      42.153  27.160  36.965  1.00  0.00    -0.206 F 
ATOM     70  C   UNL A   1      45.762  27.049  37.109  1.00  0.00     0.060 A 
BRANCH  70  71
ATOM     71  S   UNL A   1      47.081  26.105  37.901  1.00  0.00     0.124 S 
ATOM     72  O   UNL A   1      46.884  26.454  39.305  1.00  0.00    -0.237 OA
ATOM     73  O   UNL A   1      46.746  24.732  37.538  1.00  0.00    -0.237 OA
ATOM     74  O   UNL A   1      48.296  26.634  37.288  1.00  0.00    -0.744 OA
ENDBRANCH  70  71
ENDBRANCH  49  63
BRANCH  50  75
ATOM     75  C   UNL A   1      36.463  33.387  31.065  1.00  0.00     0.058 A 
ATOM     76  C   UNL A   1      35.140  33.330  31.528  1.00  0.00     0.135 A 
ATOM     77  C   UNL A   1      36.716  34.134  29.903  1.00  0.00     0.135 A 
ATOM     78  F   UNL A   1      34.843  32.616  32.624  1.00  0.00    -0.206 F 
ATOM     79  C   UNL A   1      34.104  33.969  30.854  1.00  0.00     0.059 A 
ATOM     80  C   UNL A   1      35.702  34.804  29.227  1.00  0.00     0.059 A 
ATOM     81  F   UNL A   1      37.965  34.222  29.419  1.00  0.00    -0.206 F 
ATOM     82  C   UNL A   1      34.395  34.704  29.703  1.00  0.00     0.060 A 
BRANCH  82  83
ATOM     83  S   UNL A   1      33.048  35.553  28.849  1.00  0.00     0.124 S 
ATOM     84  O   UNL A   1      33.774  36.563  28.087  1.00  0.00    -0.237 OA
ATOM     85  O   UNL A   1      32.450  34.474  28.070  1.00  0.00    -0.237 OA
ATOM     86  O   UNL A   1      32.224  36.059  29.943  1.00  0.00    -0.744 OA
ENDBRANCH  82  83
ENDBRANCH  50  75
BRANCH  62  87
ATOM     87  C   UNL A   1      39.835  34.472  37.068  1.00  0.00     0.058 A 
ATOM     88  C   UNL A   1      39.016  34.327  38.199  1.00  0.00     0.135 A 
ATOM     89  C   UNL A   1      40.570  35.663  36.946  1.00  0.00     0.135 A 
ATOM     90  F   UNL A   1      38.289  33.211  38.368  1.00  0.00    -0.206 F 
ATOM     91  C   UNL A   1      38.895  35.339  39.148  1.00  0.00     0.059 A 
ATOM     92  C   UNL A   1      40.489  36.676  37.898  1.00  0.00     0.059 A 
ATOM     93  F   UNL A   1      41.383  35.852  35.894  1.00  0.00    -0.206 F 
ATOM     94  C   UNL A   1      39.632  36.514  38.985  1.00  0.00     0.060 A 
BRANCH  94  95
ATOM     95  S   UNL A   1      39.466  37.822  40.219  1.00  0.00     0.124 S 
ATOM     96  O   UNL A   1      40.764  38.483  40.121  1.00  0.00    -0.237 OA
ATOM     97  O   UNL A   1      38.327  38.585  39.720  1.00  0.00    -0.237 OA
ATOM     98  O   UNL A   1      39.227  37.091  41.459  1.00  0.00    -0.744 OA
ENDBRANCH  94  95
ENDBRANCH  62  87
ENDBRANCH  36  37
ENDBRANCH  29  31
ENDBRANCH  28  29
ENDBRANCH   1  28
TORSDOF 19
ENDMDL
MODEL 2
REMARK VINA RESULT:     -10.9      5.286     10.234
REMARK SMILES CCCc1cc(OC(F)(F)F)cc2c1O[C@@H](C(F)(F)F)C(C(=O)OCCOC(=O)c1ccc(-c3c4nc(c(-c5c(F)cc(S(=O)(=O)[O-])cc5F)c5ccc([nH]5)c(-c5c(F)cc(S(=O)(=O)[O-])cc5F)c5nc(c(-c6c(F)cc(S(=O)(=O)[O-])cc6F)c6ccc3[nH]6)C=C5)C=C4)cc1)=C2
REMARK SMILES IDX 26 1 25 2 24 3 22 4 23 5 21 6 4 7 5 8 14 9 6 10 13 11 15 12
REMARK SMILES IDX 12 13 96 14 16 15 3 16 2 17 1 18 7 19 8 20 9 21 10 22 11 23
REMARK SMILES IDX 17 24 18 25 19 26 20 27 27 28 28 29 29 30 30 31 31 32 95 33
REMARK SMILES IDX 32 34 94 35 33 36 34 37 35 38 88 39 36 40 93 41 87 42 89 43
REMARK SMILES IDX 37 44 92 45 86 46 85 47 38 49 72 50 51 51 71 52 52 53 55 54
REMARK SMILES IDX 70 55 90 56 53 57 54 58 69 60 91 61 56 62 39 63 40 64 49 65
REMARK SMILES IDX 41 66 42 67 48 68 50 69 43 70 44 71 45 72 46 73 47 74 73 75
REMARK SMILES IDX 74 76 83 77 75 78 76 79 82 80 84 81 77 82 78 83 79 84 80 85
REMARK SMILES IDX 81 86 57 87 58 88 67 89 59 90 60 91 66 92 68 93 61 94 62 95
REMARK SMILES IDX 63 96 64 97 65 98
REMARK H PARENT 89 48 55 59
REMARK Flexibility Score: inf
ROOT
ATOM      1  C   UNL A   1      33.819  28.928  26.264  1.00  0.00     0.275 C 
ENDROOT
BRANCH   1   2
ATOM      2  C   UNL A   1      32.292  29.025  26.227  1.00  0.00     0.275 C 
BRANCH   2   3
ATOM      3  O   UNL A   1      31.705  27.916  25.514  1.00  0.00    -0.459 OA
BRANCH   3   4
ATOM      4  C   UNL A   1      32.363  27.524  24.394  1.00  0.00     0.338 C 
ATOM      5  O   UNL A   1      32.702  28.254  23.480  1.00  0.00    -0.246 OA
BRANCH   4   6
ATOM      6  C   UNL A   1      32.671  26.078  24.422  1.00  0.00     0.087 C 
ATOM      7  C   UNL A   1      33.315  21.951  24.365  1.00  0.00    -0.002 A 
ATOM      8  C   UNL A   1      34.547  21.446  24.825  1.00  0.00     0.054 A 
ATOM      9  C   UNL A   1      33.067  23.319  24.526  1.00  0.00     0.131 A 
ATOM     10  C   UNL A   1      35.509  22.288  25.391  1.00  0.00     0.130 A 
ATOM     11  C   UNL A   1      34.057  24.193  24.996  1.00  0.00     0.021 A 
ATOM     12  O   UNL A   1      31.799  23.781  24.309  1.00  0.00    -0.475 OA
ATOM     13  C   UNL A   1      35.277  23.668  25.431  1.00  0.00     0.058 A 
ATOM     14  C   UNL A   1      33.783  25.632  25.037  1.00  0.00     0.027 C 
ATOM     15  C   UNL A   1      31.718  25.115  23.743  1.00  0.00     0.316 C 
BRANCH   7  16
ATOM     16  C   UNL A   1      32.324  20.966  23.769  1.00  0.00     0.039 C 
BRANCH  16  17
ATOM     17  C   UNL A   1      32.463  19.474  24.101  1.00  0.00     0.001 C 
ATOM     18  C   UNL A   1      32.467  18.559  22.885  1.00  0.00     0.004 C 
ENDBRANCH  16  17
ENDBRANCH   7  16
BRANCH  10  19
ATOM     19  O   UNL A   1      36.707  21.889  25.916  1.00  0.00    -0.406 OA
BRANCH  19  20
ATOM     20  C   UNL A   1      37.692  21.426  25.003  1.00  0.00     0.573 C 
ATOM     21  F   UNL A   1      38.931  21.826  25.361  1.00  0.00    -0.132 F 
ATOM     22  F   UNL A   1      37.662  20.081  24.898  1.00  0.00    -0.132 F 
ATOM     23  F   UNL A   1      37.426  21.945  23.782  1.00  0.00    -0.132 F 
ENDBRANCH  19  20
ENDBRANCH  10  19
BRANCH  15  24
ATOM     24  C   UNL A   1      30.226  25.491  23.654  1.00  0.00     0.430 C 
ATOM     25  F   UNL A   1      30.037  26.588  22.885  1.00  0.00    -0.167 F 
ATOM     26  F   UNL A   1      29.524  24.495  23.053  1.00  0.00    -0.167 F 
ATOM     27  F   UNL A   1      29.667  25.696  24.865  1.00  0.00    -0.167 F 
ENDBRANCH  15  24
ENDBRANCH   4   6
ENDBRANCH   3   4
ENDBRANCH   2   3
ENDBRANCH   1   2
BRANCH   1  28
ATOM     28  O   UNL A   1      34.313  28.857  27.615  1.00  0.00    -0.458 OA
BRANCH  28  29
ATOM     29  C   UNL A   1      34.917  29.988  28.056  1.00  0.00     0.338 C 
ATOM     30  O   UNL A   1      34.379  31.059  28.284  1.00  0.00    -0.246 OA
BRANCH  29  31
ATOM     31  C   UNL A   1      36.324  29.711  28.415  1.00  0.00     0.060 A 
ATOM     32  C   UNL A   1      37.272  29.877  27.402  1.00  0.00     0.016 A 
ATOM     33  C   UNL A   1      36.725  29.288  29.686  1.00  0.00     0.016 A 
ATOM     34  C   UNL A   1      38.627  29.691  27.669  1.00  0.00     0.010 A 
ATOM     35  C   UNL A   1      38.085  29.055  29.941  1.00  0.00     0.010 A 
ATOM     36  C   UNL A   1      39.044  29.268  28.936  1.00  0.00    -0.014 A 
BRANCH  36  37
ATOM     37  C   UNL A   1      40.486  28.995  29.152  1.00  0.00     0.031 A 
ATOM     38  C   UNL A   1      41.048  27.648  28.800  1.00  0.00     0.074 A 
ATOM     39  C   UNL A   1      41.306  29.975  29.575  1.00  0.00     0.049 A 
ATOM     40  N   UNL A   1      42.287  27.231  28.839  1.00  0.00    -0.248 NA
ATOM     41  C   UNL A   1      40.086  26.641  28.325  1.00  0.00     0.031 C 
ATOM     42  C   UNL A   1      40.897  31.344  29.887  1.00  0.00     0.029 A 
ATOM     43  N   UNL A   1      42.661  29.969  29.802  1.00  0.00    -0.354 N 
ATOM     44  C   UNL A   1      42.262  25.922  28.377  1.00  0.00     0.074 A 
ATOM     45  C   UNL A   1      40.878  25.604  28.089  1.00  0.00     0.031 C 
ATOM     46  C   UNL A   1      41.977  32.043  30.276  1.00  0.00     0.029 A 
ATOM     47  C   UNL A   1      43.149  31.170  30.259  1.00  0.00     0.049 A 
ATOM     48  H   UNL A   1      43.228  29.180  29.651  1.00  0.00     0.167 HD
ATOM     49  C   UNL A   1      43.296  25.064  28.205  1.00  0.00     0.037 A 
ATOM     50  C   UNL A   1      44.396  31.520  30.634  1.00  0.00     0.037 A 
ATOM     51  C   UNL A   1      44.668  25.366  28.524  1.00  0.00     0.049 A 
ATOM     52  C   UNL A   1      45.514  30.513  30.527  1.00  0.00     0.074 A 
ATOM     53  C   UNL A   1      45.781  24.552  28.395  1.00  0.00     0.029 A 
ATOM     54  N   UNL A   1      45.116  26.569  29.054  1.00  0.00    -0.354 N 
ATOM     55  N   UNL A   1      45.479  29.283  30.070  1.00  0.00    -0.248 NA
ATOM     56  C   UNL A   1      46.844  30.946  30.981  1.00  0.00     0.031 C 
ATOM     57  C   UNL A   1      46.892  25.244  28.894  1.00  0.00     0.029 A 
ATOM     58  C   UNL A   1      46.482  26.509  29.283  1.00  0.00     0.049 A 
ATOM     59  H   UNL A   1      44.546  27.350  29.238  1.00  0.00     0.167 HD
ATOM     60  C   UNL A   1      46.784  28.806  30.159  1.00  0.00     0.074 A 
ATOM     61  C   UNL A   1      47.586  29.885  30.697  1.00  0.00     0.031 C 
ATOM     62  C   UNL A   1      47.274  27.585  29.825  1.00  0.00     0.037 A 
BRANCH  49  63
ATOM     63  C   UNL A   1      42.973  23.694  27.678  1.00  0.00     0.058 A 
ATOM     64  C   UNL A   1      43.006  23.404  26.305  1.00  0.00     0.135 A 
ATOM     65  C   UNL A   1      42.648  22.651  28.560  1.00  0.00     0.135 A 
ATOM     66  F   UNL A   1      43.292  24.370  25.417  1.00  0.00    -0.206 F 
ATOM     67  C   UNL A   1      42.704  22.135  25.823  1.00  0.00     0.059 A 
ATOM     68  C   UNL A   1      42.366  21.368  28.102  1.00  0.00     0.059 A 
ATOM     69  F   UNL A   1      42.599  22.875  29.883  1.00  0.00    -0.206 F 
ATOM     70  C   UNL A   1      42.382  21.124  26.730  1.00  0.00     0.060 A 
BRANCH  70  71
ATOM     71  S   UNL A   1      41.985  19.483  26.089  1.00  0.00     0.124 S 
ATOM     72  O   UNL A   1      42.792  19.444  24.873  1.00  0.00    -0.237 OA
ATOM     73  O   UNL A   1      42.427  18.609  27.171  1.00  0.00    -0.237 OA
ATOM     74  O   UNL A   1      40.541  19.538  25.882  1.00  0.00    -0.744 OA
ENDBRANCH  70  71
ENDBRANCH  49  63
BRANCH  50  75
ATOM     75  C   UNL A   1      44.660  32.882  31.171  1.00  0.00     0.058 A 
ATOM     76  C   UNL A   1      45.063  33.933  30.333  1.00  0.00     0.135 A 
ATOM     77  C   UNL A   1      44.541  33.151  32.544  1.00  0.00     0.135 A 
ATOM     78  F   UNL A   1      45.209  33.723  29.016  1.00  0.00    -0.206 F 
ATOM     79  C   UNL A   1      45.360  35.195  30.838  1.00  0.00     0.059 A 
ATOM     80  C   UNL A   1      44.806  34.412  33.069  1.00  0.00     0.059 A 
ATOM     81  F   UNL A   1      44.156  32.181  33.388  1.00  0.00    -0.206 F 
ATOM     82  C   UNL A   1      45.228  35.425  32.210  1.00  0.00     0.060 A 
BRANCH  82  83
ATOM     83  S   UNL A   1      45.589  37.073  32.854  1.00  0.00     0.124 S 
ATOM     84  O   UNL A   1      46.309  36.757  34.082  1.00  0.00    -0.237 OA
ATOM     85  O   UNL A   1      46.385  37.656  31.779  1.00  0.00    -0.237 OA
ATOM     86  O   UNL A   1      44.265  37.661  33.033  1.00  0.00    -0.744 OA
ENDBRANCH  82  83
ENDBRANCH  50  75
BRANCH  62  87
ATOM     87  C   UNL A   1      48.753  27.361  30.005  1.00  0.00     0.058 A 
ATOM     88  C   UNL A   1      49.670  27.584  28.965  1.00  0.00     0.135 A 
ATOM     89  C   UNL A   1      49.264  26.931  31.241  1.00  0.00     0.135 A 
ATOM     90  F   UNL A   1      49.239  27.994  27.762  1.00  0.00    -0.206 F 
ATOM     91  C   UNL A   1      51.032  27.346  29.130  1.00  0.00     0.059 A 
ATOM     92  C   UNL A   1      50.625  26.716  31.438  1.00  0.00     0.059 A 
ATOM     93  F   UNL A   1      48.437  26.717  32.278  1.00  0.00    -0.206 F 
ATOM     94  C   UNL A   1      51.500  26.906  30.369  1.00  0.00     0.060 A 
BRANCH  94  95
ATOM     95  S   UNL A   1      53.268  26.598  30.572  1.00  0.00     0.124 S 
ATOM     96  O   UNL A   1      53.265  25.478  31.507  1.00  0.00    -0.237 OA
ATOM     97  O   UNL A   1      53.692  26.286  29.211  1.00  0.00    -0.237 OA
ATOM     98  O   UNL A   1      53.773  27.859  31.105  1.00  0.00    -0.744 OA
ENDBRANCH  94  95
ENDBRANCH  62  87
ENDBRANCH  36  37
ENDBRANCH  29  31
ENDBRANCH  28  29
ENDBRANCH   1  28
TORSDOF 19
ENDMDL
MODEL 3
REMARK VINA RESULT:     -10.9      6.361      9.990
REMARK SMILES CCCc1cc(OC(F)(F)F)cc2c1O[C@@H](C(F)(F)F)C(C(=O)OCCOC(=O)c1ccc(-c3c4nc(c(-c5c(F)cc(S(=O)(=O)[O-])cc5F)c5ccc([nH]5)c(-c5c(F)cc(S(=O)(=O)[O-])cc5F)c5nc(c(-c6c(F)cc(S(=O)(=O)[O-])cc6F)c6ccc3[nH]6)C=C5)C=C4)cc1)=C2
REMARK SMILES IDX 26 1 25 2 24 3 22 4 23 5 21 6 4 7 5 8 14 9 6 10 13 11 15 12
REMARK SMILES IDX 12 13 96 14 16 15 3 16 2 17 1 18 7 19 8 20 9 21 10 22 11 23
REMARK SMILES IDX 17 24 18 25 19 26 20 27 27 28 28 29 29 30 30 31 31 32 95 33
REMARK SMILES IDX 32 34 94 35 33 36 34 37 35 38 88 39 36 40 93 41 87 42 89 43
REMARK SMILES IDX 37 44 92 45 86 46 85 47 38 49 72 50 51 51 71 52 52 53 55 54
REMARK SMILES IDX 70 55 90 56 53 57 54 58 69 60 91 61 56 62 39 63 40 64 49 65
REMARK SMILES IDX 41 66 42 67 48 68 50 69 43 70 44 71 45 72 46 73 47 74 73 75
REMARK SMILES IDX 74 76 83 77 75 78 76 79 82 80 84 81 77 82 78 83 79 84 80 85
REMARK SMILES IDX 81 86 57 87 58 88 67 89 59 90 60 91 66 92 68 93 61 94 62 95
REMARK SMILES IDX 63 96 64 97 65 98
REMARK H PARENT 89 48 55 59
REMARK Flexibility Score: inf
ROOT
ATOM      1  C   UNL A   1      40.301  20.187  26.143  1.00  0.00     0.275 C 
ENDROOT
BRANCH   1   2
ATOM      2  C   UNL A   1      41.770  19.757  26.183  1.00  0.00     0.275 C 
BRANCH   2   3
ATOM      3  O   UNL A   1      42.601  20.759  26.808  1.00  0.00    -0.459 OA
BRANCH   3   4
ATOM      4  C   UNL A   1      42.981  21.788  26.009  1.00  0.00     0.338 C 
ATOM      5  O   UNL A   1      42.490  22.064  24.928  1.00  0.00    -0.246 OA
BRANCH   4   6
ATOM      6  C   UNL A   1      44.059  22.588  26.627  1.00  0.00     0.087 C 
ATOM      7  C   UNL A   1      47.240  24.832  28.144  1.00  0.00    -0.002 A 
ATOM      8  C   UNL A   1      47.102  25.446  29.404  1.00  0.00     0.054 A 
ATOM      9  C   UNL A   1      46.221  23.970  27.720  1.00  0.00     0.131 A 
ATOM     10  C   UNL A   1      45.968  25.235  30.193  1.00  0.00     0.130 A 
ATOM     11  C   UNL A   1      45.032  23.826  28.450  1.00  0.00     0.021 A 
ATOM     12  O   UNL A   1      46.445  23.187  26.622  1.00  0.00    -0.475 OA
ATOM     13  C   UNL A   1      44.915  24.460  29.690  1.00  0.00     0.058 A 
ATOM     14  C   UNL A   1      43.952  23.001  27.904  1.00  0.00     0.027 C 
ATOM     15  C   UNL A   1      45.278  22.936  25.797  1.00  0.00     0.316 C 
BRANCH   7  16
ATOM     16  C   UNL A   1      48.507  25.111  27.354  1.00  0.00     0.039 C 
BRANCH  16  17
ATOM     17  C   UNL A   1      49.863  24.715  27.955  1.00  0.00     0.001 C 
ATOM     18  C   UNL A   1      50.491  25.781  28.842  1.00  0.00     0.004 C 
ENDBRANCH  16  17
ENDBRANCH   7  16
BRANCH  10  19
ATOM     19  O   UNL A   1      45.765  25.738  31.448  1.00  0.00    -0.406 OA
BRANCH  19  20
ATOM     20  C   UNL A   1      45.029  26.949  31.548  1.00  0.00     0.573 C 
ATOM     21  F   UNL A   1      45.553  27.775  32.479  1.00  0.00    -0.132 F 
ATOM     22  F   UNL A   1      44.975  27.584  30.359  1.00  0.00    -0.132 F 
ATOM     23  F   UNL A   1      43.762  26.656  31.922  1.00  0.00    -0.132 F 
ENDBRANCH  19  20
ENDBRANCH  10  19
BRANCH  15  24
ATOM     24  C   UNL A   1      45.705  21.975  24.671  1.00  0.00     0.430 C 
ATOM     25  F   UNL A   1      45.459  20.686  25.000  1.00  0.00    -0.167 F 
ATOM     26  F   UNL A   1      44.980  22.213  23.547  1.00  0.00    -0.167 F 
ATOM     27  F   UNL A   1      47.006  22.107  24.338  1.00  0.00    -0.167 F 
ENDBRANCH  15  24
ENDBRANCH   4   6
ENDBRANCH   3   4
ENDBRANCH   2   3
ENDBRANCH   1   2
BRANCH   1  28
ATOM     28  O   UNL A   1      40.029  21.235  27.093  1.00  0.00    -0.458 OA
BRANCH  28  29
ATOM     29  C   UNL A   1      39.342  22.289  26.589  1.00  0.00     0.338 C 
ATOM     30  O   UNL A   1      38.289  22.245  25.974  1.00  0.00    -0.246 OA
BRANCH  29  31
ATOM     31  C   UNL A   1      39.946  23.560  27.044  1.00  0.00     0.060 A 
ATOM     32  C   UNL A   1      39.889  24.634  26.151  1.00  0.00     0.016 A 
ATOM     33  C   UNL A   1      40.565  23.715  28.287  1.00  0.00     0.016 A 
ATOM     34  C   UNL A   1      40.385  25.882  26.520  1.00  0.00     0.010 A 
ATOM     35  C   UNL A   1      41.107  24.961  28.639  1.00  0.00     0.010 A 
ATOM     36  C   UNL A   1      41.008  26.054  27.762  1.00  0.00    -0.014 A 
BRANCH  36  37
ATOM     37  C   UNL A   1      41.601  27.376  28.079  1.00  0.00     0.031 A 
ATOM     38  C   UNL A   1      43.011  27.677  27.659  1.00  0.00     0.074 A 
ATOM     39  C   UNL A   1      40.854  28.334  28.658  1.00  0.00     0.049 A 
ATOM     40  N   UNL A   1      43.689  28.790  27.769  1.00  0.00    -0.248 NA
ATOM     41  C   UNL A   1      43.750  26.580  27.012  1.00  0.00     0.031 C 
ATOM     42  C   UNL A   1      39.454  28.190  29.054  1.00  0.00     0.029 A 
ATOM     43  N   UNL A   1      41.171  29.626  29.002  1.00  0.00    -0.354 N 
ATOM     44  C   UNL A   1      44.927  28.539  27.192  1.00  0.00     0.074 A 
ATOM     45  C   UNL A   1      44.916  27.158  26.756  1.00  0.00     0.031 C 
ATOM     46  C   UNL A   1      39.035  29.346  29.598  1.00  0.00     0.029 A 
ATOM     47  C   UNL A   1      40.138  30.304  29.606  1.00  0.00     0.049 A 
ATOM     48  H   UNL A   1      42.052  30.028  28.832  1.00  0.00     0.167 HD
ATOM     49  C   UNL A   1      45.976  29.383  27.035  1.00  0.00     0.037 A 
ATOM     50  C   UNL A   1      40.094  31.550  30.120  1.00  0.00     0.037 A 
ATOM     51  C   UNL A   1      46.001  30.747  27.501  1.00  0.00     0.049 A 
ATOM     52  C   UNL A   1      41.310  32.437  30.022  1.00  0.00     0.074 A 
ATOM     53  C   UNL A   1      47.027  31.672  27.398  1.00  0.00     0.029 A 
ATOM     54  N   UNL A   1      44.964  31.378  28.173  1.00  0.00    -0.354 N 
ATOM     55  N   UNL A   1      42.469  32.193  29.456  1.00  0.00    -0.248 NA
ATOM     56  C   UNL A   1      41.209  33.773  30.628  1.00  0.00     0.031 C 
ATOM     57  C   UNL A   1      46.629  32.844  28.052  1.00  0.00     0.029 A 
ATOM     58  C   UNL A   1      45.335  32.669  28.515  1.00  0.00     0.049 A 
ATOM     59  H   UNL A   1      44.091  30.969  28.375  1.00  0.00     0.167 HD
ATOM     60  C   UNL A   1      43.224  33.353  29.616  1.00  0.00     0.074 A 
ATOM     61  C   UNL A   1      42.384  34.302  30.317  1.00  0.00     0.031 C 
ATOM     62  C   UNL A   1      44.496  33.608  29.219  1.00  0.00     0.037 A 
BRANCH  49  63
ATOM     63  C   UNL A   1      47.203  28.837  26.362  1.00  0.00     0.058 A 
ATOM     64  C   UNL A   1      47.196  28.455  25.012  1.00  0.00     0.135 A 
ATOM     65  C   UNL A   1      48.409  28.715  27.071  1.00  0.00     0.135 A 
ATOM     66  F   UNL A   1      46.064  28.533  24.293  1.00  0.00    -0.206 F 
ATOM     67  C   UNL A   1      48.335  27.949  24.394  1.00  0.00     0.059 A 
ATOM     68  C   UNL A   1      49.566  28.234  26.467  1.00  0.00     0.059 A 
ATOM     69  F   UNL A   1      48.469  29.064  28.367  1.00  0.00    -0.206 F 
ATOM     70  C   UNL A   1      49.515  27.839  25.131  1.00  0.00     0.060 A 
BRANCH  70  71
ATOM     71  S   UNL A   1      50.982  27.173  24.319  1.00  0.00     0.124 S 
ATOM     72  O   UNL A   1      50.501  26.993  22.952  1.00  0.00    -0.237 OA
ATOM     73  O   UNL A   1      51.958  28.241  24.510  1.00  0.00    -0.237 OA
ATOM     74  O   UNL A   1      51.252  25.941  25.055  1.00  0.00    -0.744 OA
ENDBRANCH  70  71
ENDBRANCH  49  63
BRANCH  50  75
ATOM     75  C   UNL A   1      38.862  32.036  30.797  1.00  0.00     0.058 A 
ATOM     76  C   UNL A   1      38.635  31.801  32.161  1.00  0.00     0.135 A 
ATOM     77  C   UNL A   1      37.870  32.724  30.080  1.00  0.00     0.135 A 
ATOM     78  F   UNL A   1      39.544  31.132  32.887  1.00  0.00    -0.206 F 
ATOM     79  C   UNL A   1      37.461  32.209  32.786  1.00  0.00     0.059 A 
ATOM     80  C   UNL A   1      36.700  33.167  30.687  1.00  0.00     0.059 A 
ATOM     81  F   UNL A   1      38.039  32.977  28.772  1.00  0.00    -0.206 F 
ATOM     82  C   UNL A   1      36.498  32.892  32.040  1.00  0.00     0.060 A 
BRANCH  82  83
ATOM     83  S   UNL A   1      34.988  33.444  32.864  1.00  0.00     0.124 S 
ATOM     84  O   UNL A   1      35.008  34.875  32.585  1.00  0.00    -0.237 OA
ATOM     85  O   UNL A   1      33.961  32.672  32.172  1.00  0.00    -0.237 OA
ATOM     86  O   UNL A   1      35.211  33.069  34.258  1.00  0.00    -0.744 OA
ENDBRANCH  82  83
ENDBRANCH  50  75
BRANCH  62  87
ATOM     87  C   UNL A   1      45.048  34.980  29.508  1.00  0.00     0.058 A 
ATOM     88  C   UNL A   1      44.888  36.048  28.612  1.00  0.00     0.135 A 
ATOM     89  C   UNL A   1      45.735  35.234  30.707  1.00  0.00     0.135 A 
ATOM     90  F   UNL A   1      44.242  35.864  27.450  1.00  0.00    -0.206 F 
ATOM     91  C   UNL A   1      45.426  37.306  28.871  1.00  0.00     0.059 A 
ATOM     92  C   UNL A   1      46.255  36.491  31.002  1.00  0.00     0.059 A 
ATOM     93  F   UNL A   1      45.905  34.255  31.611  1.00  0.00    -0.206 F 
ATOM     94  C   UNL A   1      46.114  37.516  30.068  1.00  0.00     0.060 A 
BRANCH  94  95
ATOM     95  S   UNL A   1      46.812  39.150  30.395  1.00  0.00     0.124 S 
ATOM     96  O   UNL A   1      45.675  40.017  30.100  1.00  0.00    -0.237 OA
ATOM     97  O   UNL A   1      47.190  39.056  31.800  1.00  0.00    -0.237 OA
ATOM     98  O   UNL A   1      47.926  39.237  29.457  1.00  0.00    -0.744 OA
ENDBRANCH  94  95
ENDBRANCH  62  87
ENDBRANCH  36  37
ENDBRANCH  29  31
ENDBRANCH  28  29
ENDBRANCH   1  28
TORSDOF 19
ENDMDL
