MODEL 1
REMARK VINA RESULT:     -12.7      0.000      0.000
REMARK SMILES O=C(OCCOC(=O)[C@@H]1CCCC[C@H]1C(=O)Nc1ccccc1C(=O)N1CCOCC1)c1ccc(-c2c3nc(c(-c4c(F)cc(S(=O)(=O)[O-])cc4F)c4ccc([nH]4)c(-c4c(F)cc(S(=O)(=O)[O-])cc4F)c4nc(c(-c5c(F)cc(S(=O)(=O)[O-])cc5F)c5ccc2[nH]5)C=C4)C=C3)cc1
REMARK SMILES IDX 4 1 3 2 2 3 1 4 32 5 33 6 97 7 34 8 96 9 35 10 36 11 37 12
REMARK SMILES IDX 90 13 38 14 95 15 89 16 91 17 39 18 94 19 88 20 87 21 40 23
REMARK SMILES IDX 74 24 53 25 73 26 54 27 57 28 72 29 92 30 55 31 56 32 71 34
REMARK SMILES IDX 93 35 58 36 41 37 42 38 51 39 43 40 44 41 50 42 52 43 45 44
REMARK SMILES IDX 46 45 47 46 48 47 49 48 75 49 76 50 85 51 77 52 78 53 84 54
REMARK SMILES IDX 86 55 79 56 80 57 81 58 82 59 83 60 59 61 60 62 69 63 61 64
REMARK SMILES IDX 62 65 68 66 70 67 63 68 64 69 65 70 66 71 67 72 5 73 6 74
REMARK SMILES IDX 7 75 8 76 9 77 10 78 14 79 11 80 13 81 12 82 15 83 16 84
REMARK SMILES IDX 17 85 18 87 19 88 23 89 20 90 22 91 21 92 24 93 25 94 26 95
REMARK SMILES IDX 27 96 31 97 28 98 30 99 29 100
REMARK H PARENT 91 22 57 33 17 86
REMARK Flexibility Score: inf
ROOT
ATOM      1  C   UNL A   1      33.183  29.834  26.209  1.00  0.00     0.275 C 
ENDROOT
BRANCH   1   2
ATOM      2  O   UNL A   1      33.364  30.161  27.591  1.00  0.00    -0.458 OA
BRANCH   2   3
ATOM      3  C   UNL A   1      34.388  30.882  28.108  1.00  0.00     0.338 C 
ATOM      4  O   UNL A   1      34.282  32.092  28.282  1.00  0.00    -0.246 OA
BRANCH   3   5
ATOM      5  C   UNL A   1      35.713  30.235  28.263  1.00  0.00     0.060 A 
ATOM      6  C   UNL A   1      36.665  30.089  27.243  1.00  0.00     0.016 A 
ATOM      7  C   UNL A   1      36.015  29.772  29.539  1.00  0.00     0.016 A 
ATOM      8  C   UNL A   1      37.982  29.706  27.529  1.00  0.00     0.010 A 
ATOM      9  C   UNL A   1      37.305  29.329  29.811  1.00  0.00     0.010 A 
ATOM     10  C   UNL A   1      38.325  29.363  28.829  1.00  0.00    -0.014 A 
BRANCH  10  11
ATOM     11  C   UNL A   1      39.662  28.833  29.204  1.00  0.00     0.031 A 
ATOM     12  C   UNL A   1      40.616  29.875  29.704  1.00  0.00     0.074 A 
ATOM     13  C   UNL A   1      40.084  27.568  28.975  1.00  0.00     0.049 A 
ATOM     14  N   UNL A   1      41.910  29.824  29.842  1.00  0.00    -0.248 NA
ATOM     15  C   UNL A   1      40.018  31.193  30.000  1.00  0.00     0.031 C 
ATOM     16  C   UNL A   1      39.284  26.449  28.470  1.00  0.00     0.029 A 
ATOM     17  N   UNL A   1      41.351  27.031  29.067  1.00  0.00    -0.354 N 
ATOM     18  C   UNL A   1      42.255  31.099  30.259  1.00  0.00     0.074 A 
ATOM     19  C   UNL A   1      41.096  31.943  30.102  1.00  0.00     0.031 C 
ATOM     20  C   UNL A   1      40.093  25.406  28.192  1.00  0.00     0.029 A 
ATOM     21  C   UNL A   1      41.465  25.759  28.544  1.00  0.00     0.049 A 
ATOM     22  H   UNL A   1      42.109  27.514  29.471  1.00  0.00     0.167 HD
ATOM     23  C   UNL A   1      43.386  31.507  30.872  1.00  0.00     0.037 A 
ATOM     24  C   UNL A   1      42.557  24.982  28.374  1.00  0.00     0.037 A 
ATOM     25  C   UNL A   1      44.509  30.652  31.075  1.00  0.00     0.049 A 
ATOM     26  C   UNL A   1      43.877  25.474  28.921  1.00  0.00     0.074 A 
ATOM     27  C   UNL A   1      45.689  30.911  31.734  1.00  0.00     0.029 A 
ATOM     28  N   UNL A   1      44.574  29.349  30.601  1.00  0.00    -0.354 N 
ATOM     29  N   UNL A   1      44.162  26.641  29.452  1.00  0.00    -0.248 NA
ATOM     30  C   UNL A   1      45.008  24.533  28.904  1.00  0.00     0.031 C 
ATOM     31  C   UNL A   1      46.489  29.767  31.632  1.00  0.00     0.029 A 
ATOM     32  C   UNL A   1      45.784  28.787  30.945  1.00  0.00     0.049 A 
ATOM     33  H   UNL A   1      43.863  28.894  30.095  1.00  0.00     0.167 HD
ATOM     34  C   UNL A   1      45.468  26.539  29.919  1.00  0.00     0.074 A 
ATOM     35  C   UNL A   1      45.940  25.219  29.555  1.00  0.00     0.031 C 
ATOM     36  C   UNL A   1      46.196  27.444  30.619  1.00  0.00     0.037 A 
BRANCH  23  37
ATOM     37  C   UNL A   1      43.347  32.906  31.407  1.00  0.00     0.058 A 
ATOM     38  C   UNL A   1      43.875  33.973  30.648  1.00  0.00     0.135 A 
ATOM     39  C   UNL A   1      42.993  33.154  32.738  1.00  0.00     0.135 A 
ATOM     40  F   UNL A   1      44.269  33.771  29.380  1.00  0.00    -0.206 F 
ATOM     41  C   UNL A   1      44.152  35.203  31.227  1.00  0.00     0.059 A 
ATOM     42  C   UNL A   1      43.225  34.393  33.326  1.00  0.00     0.059 A 
ATOM     43  F   UNL A   1      42.496  32.168  33.501  1.00  0.00    -0.206 F 
ATOM     44  C   UNL A   1      43.846  35.394  32.574  1.00  0.00     0.060 A 
BRANCH  44  45
ATOM     45  S   UNL A   1      44.324  36.950  33.350  1.00  0.00     0.124 S 
ATOM     46  O   UNL A   1      45.004  36.476  34.552  1.00  0.00    -0.237 OA
ATOM     47  O   UNL A   1      45.182  37.556  32.336  1.00  0.00    -0.237 OA
ATOM     48  O   UNL A   1      43.048  37.623  33.571  1.00  0.00    -0.744 OA
ENDBRANCH  44  45
ENDBRANCH  23  37
BRANCH  24  49
ATOM     49  C   UNL A   1      42.471  23.640  27.728  1.00  0.00     0.058 A 
ATOM     50  C   UNL A   1      42.358  22.468  28.491  1.00  0.00     0.135 A 
ATOM     51  C   UNL A   1      42.560  23.496  26.334  1.00  0.00     0.135 A 
ATOM     52  F   UNL A   1      42.292  22.546  29.828  1.00  0.00    -0.206 F 
ATOM     53  C   UNL A   1      42.346  21.203  27.903  1.00  0.00     0.059 A 
ATOM     54  C   UNL A   1      42.547  22.242  25.721  1.00  0.00     0.059 A 
ATOM     55  F   UNL A   1      42.669  24.580  25.550  1.00  0.00    -0.206 F 
ATOM     56  C   UNL A   1      42.442  21.101  26.515  1.00  0.00     0.060 A 
BRANCH  56  57
ATOM     57  S   UNL A   1      42.372  19.459  25.757  1.00  0.00     0.124 S 
ATOM     58  O   UNL A   1      43.314  19.599  24.654  1.00  0.00    -0.237 OA
ATOM     59  O   UNL A   1      42.797  18.601  26.858  1.00  0.00    -0.237 OA
ATOM     60  O   UNL A   1      40.967  19.328  25.380  1.00  0.00    -0.744 OA
ENDBRANCH  56  57
ENDBRANCH  24  49
BRANCH  36  61
ATOM     61  C   UNL A   1      47.529  27.021  31.156  1.00  0.00     0.058 A 
ATOM     62  C   UNL A   1      47.658  26.358  32.382  1.00  0.00     0.135 A 
ATOM     63  C   UNL A   1      48.660  27.120  30.328  1.00  0.00     0.135 A 
ATOM     64  F   UNL A   1      46.606  26.251  33.208  1.00  0.00    -0.206 F 
ATOM     65  C   UNL A   1      48.862  25.775  32.759  1.00  0.00     0.059 A 
ATOM     66  C   UNL A   1      49.866  26.524  30.674  1.00  0.00     0.059 A 
ATOM     67  F   UNL A   1      48.578  27.741  29.141  1.00  0.00    -0.206 F 
ATOM     68  C   UNL A   1      49.953  25.844  31.888  1.00  0.00     0.060 A 
BRANCH  68  69
ATOM     69  S   UNL A   1      51.464  24.957  32.319  1.00  0.00     0.124 S 
ATOM     70  O   UNL A   1      52.424  25.544  31.391  1.00  0.00    -0.237 OA
ATOM     71  O   UNL A   1      51.642  25.310  33.724  1.00  0.00    -0.237 OA
ATOM     72  O   UNL A   1      51.121  23.561  32.070  1.00  0.00    -0.744 OA
ENDBRANCH  68  69
ENDBRANCH  36  61
ENDBRANCH  10  11
ENDBRANCH   3   5
ENDBRANCH   2   3
ENDBRANCH   1   2
BRANCH   1  73
ATOM     73  C   UNL A   1      31.813  29.296  25.778  1.00  0.00     0.274 C 
BRANCH  73  74
ATOM     74  O   UNL A   1      31.650  27.963  25.239  1.00  0.00    -0.462 OA
BRANCH  74  75
ATOM     75  C   UNL A   1      31.757  26.906  26.110  1.00  0.00     0.309 C 
ATOM     76  O   UNL A   1      31.397  26.959  27.267  1.00  0.00    -0.252 OA
BRANCH  75  77
ATOM     77  C   UNL A   1      32.337  25.632  25.416  1.00  0.00     0.111 C 
ATOM     78  C   UNL A   1      32.528  26.106  23.991  1.00  0.00     0.016 C 
ATOM     79  C   UNL A   1      31.436  24.365  25.423  1.00  0.00     0.093 C 
ATOM     80  C   UNL A   1      32.916  25.089  22.947  1.00  0.00     0.001 C 
ATOM     81  C   UNL A   1      31.727  23.391  24.244  1.00  0.00     0.014 C 
ATOM     82  C   UNL A   1      31.819  24.056  22.888  1.00  0.00     0.001 C 
BRANCH  79  83
ATOM     83  C   UNL A   1      31.345  23.382  26.608  1.00  0.00     0.228 C 
ATOM     84  O   UNL A   1      30.319  23.391  27.304  1.00  0.00    -0.274 OA
ATOM     85  N   UNL A   1      32.177  22.317  26.789  1.00  0.00    -0.325 N 
ATOM     86  H   UNL A   1      31.821  21.598  27.359  1.00  0.00     0.169 HD
BRANCH  85  87
ATOM     87  C   UNL A   1      33.458  22.100  26.286  1.00  0.00     0.054 A 
ATOM     88  C   UNL A   1      34.393  23.118  26.530  1.00  0.00     0.027 A 
ATOM     89  C   UNL A   1      33.834  20.942  25.586  1.00  0.00     0.063 A 
ATOM     90  C   UNL A   1      35.742  22.917  26.247  1.00  0.00     0.002 A 
ATOM     91  C   UNL A   1      35.208  20.743  25.340  1.00  0.00     0.016 A 
ATOM     92  C   UNL A   1      36.155  21.712  25.691  1.00  0.00     0.001 A 
BRANCH  89  93
ATOM     93  C   UNL A   1      32.881  19.884  25.089  1.00  0.00     0.256 C 
ATOM     94  O   UNL A   1      31.680  20.135  25.015  1.00  0.00    -0.269 OA
ATOM     95  N   UNL A   1      33.378  18.613  24.780  1.00  0.00    -0.334 N 
ATOM     96  C   UNL A   1      33.162  17.586  25.783  1.00  0.00     0.148 C 
ATOM     97  C   UNL A   1      33.174  18.085  23.428  1.00  0.00     0.148 C 
ATOM     98  C   UNL A   1      33.975  16.334  25.451  1.00  0.00     0.181 C 
ATOM     99  C   UNL A   1      33.851  16.743  23.149  1.00  0.00     0.181 C 
ATOM    100  O   UNL A   1      33.569  15.794  24.182  1.00  0.00    -0.378 OA
ENDBRANCH  89  93
ENDBRANCH  85  87
ENDBRANCH  79  83
ENDBRANCH  75  77
ENDBRANCH  74  75
ENDBRANCH  73  74
ENDBRANCH   1  73
TORSDOF 17
ENDMDL
MODEL 2
REMARK VINA RESULT:     -12.6      2.707      8.543
REMARK SMILES O=C(OCCOC(=O)[C@@H]1CCCC[C@H]1C(=O)Nc1ccccc1C(=O)N1CCOCC1)c1ccc(-c2c3nc(c(-c4c(F)cc(S(=O)(=O)[O-])cc4F)c4ccc([nH]4)c(-c4c(F)cc(S(=O)(=O)[O-])cc4F)c4nc(c(-c5c(F)cc(S(=O)(=O)[O-])cc5F)c5ccc2[nH]5)C=C4)C=C3)cc1
REMARK SMILES IDX 4 1 3 2 2 3 1 4 32 5 33 6 97 7 34 8 96 9 35 10 36 11 37 12
REMARK SMILES IDX 90 13 38 14 95 15 89 16 91 17 39 18 94 19 88 20 87 21 40 23
REMARK SMILES IDX 74 24 53 25 73 26 54 27 57 28 72 29 92 30 55 31 56 32 71 34
REMARK SMILES IDX 93 35 58 36 41 37 42 38 51 39 43 40 44 41 50 42 52 43 45 44
REMARK SMILES IDX 46 45 47 46 48 47 49 48 75 49 76 50 85 51 77 52 78 53 84 54
REMARK SMILES IDX 86 55 79 56 80 57 81 58 82 59 83 60 59 61 60 62 69 63 61 64
REMARK SMILES IDX 62 65 68 66 70 67 63 68 64 69 65 70 66 71 67 72 5 73 6 74
REMARK SMILES IDX 7 75 8 76 9 77 10 78 14 79 11 80 13 81 12 82 15 83 16 84
REMARK SMILES IDX 17 85 18 87 19 88 23 89 20 90 22 91 21 92 24 93 25 94 26 95
REMARK SMILES IDX 27 96 31 97 28 98 30 99 29 100
REMARK H PARENT 91 22 57 33 17 86
REMARK Flexibility Score: inf
ROOT
ATOM      1  C   UNL A   1      34.437  29.888  27.500  1.00  0.00     0.275 C 
ENDROOT
BRANCH   1   2
ATOM      2  O   UNL A   1      35.476  29.267  28.265  1.00  0.00    -0.458 OA
BRANCH   2   3
ATOM      3  C   UNL A   1      36.239  29.875  29.206  1.00  0.00     0.338 C 
ATOM      4  O   UNL A   1      35.731  30.592  30.063  1.00  0.00    -0.246 OA
BRANCH   3   5
ATOM      5  C   UNL A   1      37.715  29.838  29.064  1.00  0.00     0.060 A 
ATOM      6  C   UNL A   1      38.629  29.904  30.126  1.00  0.00     0.016 A 
ATOM      7  C   UNL A   1      38.195  29.696  27.767  1.00  0.00     0.016 A 
ATOM      8  C   UNL A   1      39.984  29.601  29.936  1.00  0.00     0.010 A 
ATOM      9  C   UNL A   1      39.551  29.461  27.570  1.00  0.00     0.010 A 
ATOM     10  C   UNL A   1      40.450  29.333  28.657  1.00  0.00    -0.014 A 
BRANCH  10  11
ATOM     11  C   UNL A   1      41.888  29.119  28.343  1.00  0.00     0.031 A 
ATOM     12  C   UNL A   1      42.250  27.690  28.079  1.00  0.00     0.074 A 
ATOM     13  C   UNL A   1      42.849  30.065  28.442  1.00  0.00     0.049 A 
ATOM     14  N   UNL A   1      43.418  27.116  28.058  1.00  0.00    -0.248 NA
ATOM     15  C   UNL A   1      41.109  26.768  27.904  1.00  0.00     0.031 C 
ATOM     16  C   UNL A   1      42.658  31.492  28.718  1.00  0.00     0.029 A 
ATOM     17  N   UNL A   1      44.221  29.935  28.400  1.00  0.00    -0.354 N 
ATOM     18  C   UNL A   1      43.133  25.776  27.848  1.00  0.00     0.074 A 
ATOM     19  C   UNL A   1      41.710  25.600  28.004  1.00  0.00     0.031 C 
ATOM     20  C   UNL A   1      43.856  32.074  28.930  1.00  0.00     0.029 A 
ATOM     21  C   UNL A   1      44.908  31.077  28.759  1.00  0.00     0.049 A 
ATOM     22  H   UNL A   1      44.672  29.099  28.138  1.00  0.00     0.167 HD
ATOM     23  C   UNL A   1      43.952  24.800  27.404  1.00  0.00     0.037 A 
ATOM     24  C   UNL A   1      46.234  31.279  28.928  1.00  0.00     0.037 A 
ATOM     25  C   UNL A   1      45.349  24.996  27.197  1.00  0.00     0.049 A 
ATOM     26  C   UNL A   1      47.179  30.154  28.578  1.00  0.00     0.074 A 
ATOM     27  C   UNL A   1      46.284  24.120  26.693  1.00  0.00     0.029 A 
ATOM     28  N   UNL A   1      46.009  26.180  27.498  1.00  0.00    -0.354 N 
ATOM     29  N   UNL A   1      46.893  28.918  28.235  1.00  0.00    -0.248 NA
ATOM     30  C   UNL A   1      48.619  30.457  28.577  1.00  0.00     0.031 C 
ATOM     31  C   UNL A   1      47.525  24.766  26.718  1.00  0.00     0.029 A 
ATOM     32  C   UNL A   1      47.348  26.057  27.200  1.00  0.00     0.049 A 
ATOM     33  H   UNL A   1      45.584  26.986  27.871  1.00  0.00     0.167 HD
ATOM     34  C   UNL A   1      48.104  28.330  27.885  1.00  0.00     0.074 A 
ATOM     35  C   UNL A   1      49.133  29.324  28.114  1.00  0.00     0.031 C 
ATOM     36  C   UNL A   1      48.336  27.092  27.382  1.00  0.00     0.037 A 
BRANCH  23  37
ATOM     37  C   UNL A   1      43.272  23.511  27.057  1.00  0.00     0.058 A 
ATOM     38  C   UNL A   1      43.024  22.546  28.057  1.00  0.00     0.135 A 
ATOM     39  C   UNL A   1      43.068  23.146  25.722  1.00  0.00     0.135 A 
ATOM     40  F   UNL A   1      43.247  22.838  29.350  1.00  0.00    -0.206 F 
ATOM     41  C   UNL A   1      42.703  21.236  27.733  1.00  0.00     0.059 A 
ATOM     42  C   UNL A   1      42.706  21.848  25.378  1.00  0.00     0.059 A 
ATOM     43  F   UNL A   1      43.300  24.027  24.737  1.00  0.00    -0.206 F 
ATOM     44  C   UNL A   1      42.572  20.891  26.389  1.00  0.00     0.060 A 
BRANCH  44  45
ATOM     45  S   UNL A   1      42.280  19.161  25.971  1.00  0.00     0.124 S 
ATOM     46  O   UNL A   1      40.837  19.158  25.748  1.00  0.00    -0.237 OA
ATOM     47  O   UNL A   1      43.104  18.983  24.780  1.00  0.00    -0.237 OA
ATOM     48  O   UNL A   1      42.736  18.447  27.159  1.00  0.00    -0.744 OA
ENDBRANCH  44  45
ENDBRANCH  23  37
BRANCH  24  49
ATOM     49  C   UNL A   1      46.775  32.594  29.380  1.00  0.00     0.058 A 
ATOM     50  C   UNL A   1      47.138  33.589  28.460  1.00  0.00     0.135 A 
ATOM     51  C   UNL A   1      46.995  32.862  30.740  1.00  0.00     0.135 A 
ATOM     52  F   UNL A   1      46.970  33.378  27.146  1.00  0.00    -0.206 F 
ATOM     53  C   UNL A   1      47.709  34.796  28.865  1.00  0.00     0.059 A 
ATOM     54  C   UNL A   1      47.561  34.062  31.172  1.00  0.00     0.059 A 
ATOM     55  F   UNL A   1      46.667  31.950  31.668  1.00  0.00    -0.206 F 
ATOM     56  C   UNL A   1      47.917  35.023  30.226  1.00  0.00     0.060 A 
BRANCH  56  57
ATOM     57  S   UNL A   1      48.609  36.612  30.747  1.00  0.00     0.124 S 
ATOM     58  O   UNL A   1      50.020  36.285  30.908  1.00  0.00    -0.237 OA
ATOM     59  O   UNL A   1      48.275  37.471  29.615  1.00  0.00    -0.237 OA
ATOM     60  O   UNL A   1      47.880  36.902  31.978  1.00  0.00    -0.744 OA
ENDBRANCH  56  57
ENDBRANCH  24  49
BRANCH  36  61
ATOM     61  C   UNL A   1      49.723  26.760  26.923  1.00  0.00     0.058 A 
ATOM     62  C   UNL A   1      50.578  25.948  27.676  1.00  0.00     0.135 A 
ATOM     63  C   UNL A   1      50.113  27.114  25.620  1.00  0.00     0.135 A 
ATOM     64  F   UNL A   1      50.249  25.596  28.928  1.00  0.00    -0.206 F 
ATOM     65  C   UNL A   1      51.766  25.466  27.139  1.00  0.00     0.059 A 
ATOM     66  C   UNL A   1      51.283  26.624  25.056  1.00  0.00     0.059 A 
ATOM     67  F   UNL A   1      49.318  27.886  24.861  1.00  0.00    -0.206 F 
ATOM     68  C   UNL A   1      52.098  25.791  25.821  1.00  0.00     0.060 A 
BRANCH  68  69
ATOM     69  S   UNL A   1      53.565  25.040  25.085  1.00  0.00     0.124 S 
ATOM     70  O   UNL A   1      53.300  23.620  25.288  1.00  0.00    -0.237 OA
ATOM     71  O   UNL A   1      53.495  25.508  23.704  1.00  0.00    -0.237 OA
ATOM     72  O   UNL A   1      54.661  25.595  25.872  1.00  0.00    -0.744 OA
ENDBRANCH  68  69
ENDBRANCH  36  61
ENDBRANCH  10  11
ENDBRANCH   3   5
ENDBRANCH   2   3
ENDBRANCH   1   2
BRANCH   1  73
ATOM     73  C   UNL A   1      33.226  29.029  27.116  1.00  0.00     0.274 C 
BRANCH  73  74
ATOM     74  O   UNL A   1      33.368  27.800  26.367  1.00  0.00    -0.462 OA
BRANCH  74  75
ATOM     75  C   UNL A   1      32.407  26.833  26.542  1.00  0.00     0.309 C 
ATOM     76  O   UNL A   1      31.449  26.972  27.271  1.00  0.00    -0.252 OA
BRANCH  75  77
ATOM     77  C   UNL A   1      32.672  25.576  25.652  1.00  0.00     0.111 C 
ATOM     78  C   UNL A   1      32.755  26.181  24.266  1.00  0.00     0.016 C 
ATOM     79  C   UNL A   1      31.582  24.469  25.669  1.00  0.00     0.093 C 
ATOM     80  C   UNL A   1      32.831  25.247  23.085  1.00  0.00     0.001 C 
ATOM     81  C   UNL A   1      31.553  23.607  24.372  1.00  0.00     0.014 C 
ATOM     82  C   UNL A   1      31.579  24.406  23.088  1.00  0.00     0.001 C 
BRANCH  79  83
ATOM     83  C   UNL A   1      31.482  23.378  26.755  1.00  0.00     0.228 C 
ATOM     84  O   UNL A   1      30.467  23.346  27.466  1.00  0.00    -0.274 OA
ATOM     85  N   UNL A   1      32.288  22.280  26.818  1.00  0.00    -0.325 N 
ATOM     86  H   UNL A   1      31.921  21.518  27.322  1.00  0.00     0.169 HD
BRANCH  85  87
ATOM     87  C   UNL A   1      33.555  22.080  26.274  1.00  0.00     0.054 A 
ATOM     88  C   UNL A   1      34.510  23.066  26.567  1.00  0.00     0.027 A 
ATOM     89  C   UNL A   1      33.899  20.967  25.491  1.00  0.00     0.063 A 
ATOM     90  C   UNL A   1      35.850  22.867  26.243  1.00  0.00     0.002 A 
ATOM     91  C   UNL A   1      35.265  20.767  25.203  1.00  0.00     0.016 A 
ATOM     92  C   UNL A   1      36.233  21.696  25.599  1.00  0.00     0.001 A 
BRANCH  89  93
ATOM     93  C   UNL A   1      32.921  19.958  24.943  1.00  0.00     0.256 C 
ATOM     94  O   UNL A   1      31.758  20.294  24.730  1.00  0.00    -0.269 OA
ATOM     95  N   UNL A   1      33.344  18.639  24.747  1.00  0.00    -0.334 N 
ATOM     96  C   UNL A   1      32.944  17.686  25.767  1.00  0.00     0.148 C 
ATOM     97  C   UNL A   1      33.238  18.056  23.407  1.00  0.00     0.148 C 
ATOM     98  C   UNL A   1      33.684  16.361  25.581  1.00  0.00     0.181 C 
ATOM     99  C   UNL A   1      33.830  16.654  23.262  1.00  0.00     0.181 C 
ATOM    100  O   UNL A   1      33.369  15.785  24.302  1.00  0.00    -0.378 OA
ENDBRANCH  89  93
ENDBRANCH  85  87
ENDBRANCH  79  83
ENDBRANCH  75  77
ENDBRANCH  74  75
ENDBRANCH  73  74
ENDBRANCH   1  73
TORSDOF 17
ENDMDL
MODEL 3
REMARK VINA RESULT:     -12.4      2.339      3.002
REMARK SMILES O=C(OCCOC(=O)[C@@H]1CCCC[C@H]1C(=O)Nc1ccccc1C(=O)N1CCOCC1)c1ccc(-c2c3nc(c(-c4c(F)cc(S(=O)(=O)[O-])cc4F)c4ccc([nH]4)c(-c4c(F)cc(S(=O)(=O)[O-])cc4F)c4nc(c(-c5c(F)cc(S(=O)(=O)[O-])cc5F)c5ccc2[nH]5)C=C4)C=C3)cc1
REMARK SMILES IDX 4 1 3 2 2 3 1 4 32 5 33 6 97 7 34 8 96 9 35 10 36 11 37 12
REMARK SMILES IDX 90 13 38 14 95 15 89 16 91 17 39 18 94 19 88 20 87 21 40 23
REMARK SMILES IDX 74 24 53 25 73 26 54 27 57 28 72 29 92 30 55 31 56 32 71 34
REMARK SMILES IDX 93 35 58 36 41 37 42 38 51 39 43 40 44 41 50 42 52 43 45 44
REMARK SMILES IDX 46 45 47 46 48 47 49 48 75 49 76 50 85 51 77 52 78 53 84 54
REMARK SMILES IDX 86 55 79 56 80 57 81 58 82 59 83 60 59 61 60 62 69 63 61 64
REMARK SMILES IDX 62 65 68 66 70 67 63 68 64 69 65 70 66 71 67 72 5 73 6 74
REMARK SMILES IDX 7 75 8 76 9 77 10 78 14 79 11 80 13 81 12 82 15 83 16 84
REMARK SMILES IDX 17 85 18 87 19 88 23 89 20 90 22 91 21 92 24 93 25 94 26 95
REMARK SMILES IDX 27 96 31 97 28 98 30 99 29 100
REMARK H PARENT 91 22 57 33 17 86
REMARK Flexibility Score: inf
ROOT
ATOM      1  C   UNL A   1      33.053  29.776  27.056  1.00  0.00     0.275 C 
ENDROOT
BRANCH   1   2
ATOM      2  O   UNL A   1      33.994  30.855  27.048  1.00  0.00    -0.458 OA
BRANCH   2   3
ATOM      3  C   UNL A   1      34.700  31.299  28.116  1.00  0.00     0.338 C 
ATOM      4  O   UNL A   1      34.404  32.351  28.674  1.00  0.00    -0.246 OA
BRANCH   3   5
ATOM      5  C   UNL A   1      35.964  30.612  28.474  1.00  0.00     0.060 A 
ATOM      6  C   UNL A   1      37.173  30.726  27.770  1.00  0.00     0.016 A 
ATOM      7  C   UNL A   1      35.922  29.823  29.618  1.00  0.00     0.016 A 
ATOM      8  C   UNL A   1      38.376  30.260  28.315  1.00  0.00     0.010 A 
ATOM      9  C   UNL A   1      37.107  29.303  30.126  1.00  0.00     0.010 A 
ATOM     10  C   UNL A   1      38.358  29.579  29.524  1.00  0.00    -0.014 A 
BRANCH  10  11
ATOM     11  C   UNL A   1      39.566  28.947  30.119  1.00  0.00     0.031 A 
ATOM     12  C   UNL A   1      40.164  29.719  31.255  1.00  0.00     0.074 A 
ATOM     13  C   UNL A   1      40.203  27.868  29.610  1.00  0.00     0.049 A 
ATOM     14  N   UNL A   1      41.342  29.620  31.802  1.00  0.00    -0.248 NA
ATOM     15  C   UNL A   1      39.334  30.821  31.781  1.00  0.00     0.031 C 
ATOM     16  C   UNL A   1      39.761  27.028  28.493  1.00  0.00     0.029 A 
ATOM     17  N   UNL A   1      41.435  27.338  29.932  1.00  0.00    -0.354 N 
ATOM     18  C   UNL A   1      41.364  30.638  32.741  1.00  0.00     0.074 A 
ATOM     19  C   UNL A   1      40.213  31.476  32.510  1.00  0.00     0.031 C 
ATOM     20  C   UNL A   1      40.747  26.171  28.156  1.00  0.00     0.029 A 
ATOM     21  C   UNL A   1      41.877  26.364  29.060  1.00  0.00     0.049 A 
ATOM     22  H   UNL A   1      41.954  27.630  30.717  1.00  0.00     0.167 HD
ATOM     23  C   UNL A   1      42.177  30.781  33.809  1.00  0.00     0.037 A 
ATOM     24  C   UNL A   1      43.060  25.713  29.009  1.00  0.00     0.037 A 
ATOM     25  C   UNL A   1      43.281  29.914  34.063  1.00  0.00     0.049 A 
ATOM     26  C   UNL A   1      44.060  25.958  30.114  1.00  0.00     0.074 A 
ATOM     27  C   UNL A   1      44.146  29.901  35.134  1.00  0.00     0.029 A 
ATOM     28  N   UNL A   1      43.666  28.892  33.206  1.00  0.00    -0.354 N 
ATOM     29  N   UNL A   1      44.003  26.832  31.093  1.00  0.00    -0.248 NA
ATOM     30  C   UNL A   1      45.252  25.097  30.150  1.00  0.00     0.031 C 
ATOM     31  C   UNL A   1      45.082  28.885  34.909  1.00  0.00     0.029 A 
ATOM     32  C   UNL A   1      44.768  28.243  33.718  1.00  0.00     0.049 A 
ATOM     33  H   UNL A   1      43.219  28.666  32.358  1.00  0.00     0.167 HD
ATOM     34  C   UNL A   1      45.095  26.561  31.910  1.00  0.00     0.074 A 
ATOM     35  C   UNL A   1      45.829  25.481  31.282  1.00  0.00     0.031 C 
ATOM     36  C   UNL A   1      45.436  27.128  33.094  1.00  0.00     0.037 A 
BRANCH  23  37
ATOM     37  C   UNL A   1      41.785  31.867  34.763  1.00  0.00     0.058 A 
ATOM     38  C   UNL A   1      40.695  31.684  35.641  1.00  0.00     0.135 A 
ATOM     39  C   UNL A   1      42.343  33.146  34.659  1.00  0.00     0.135 A 
ATOM     40  F   UNL A   1      40.101  30.483  35.741  1.00  0.00    -0.206 F 
ATOM     41  C   UNL A   1      40.106  32.757  36.294  1.00  0.00     0.059 A 
ATOM     42  C   UNL A   1      41.791  34.228  35.339  1.00  0.00     0.059 A 
ATOM     43  F   UNL A   1      43.375  33.370  33.831  1.00  0.00    -0.206 F 
ATOM     44  C   UNL A   1      40.647  34.029  36.116  1.00  0.00     0.060 A 
BRANCH  44  45
ATOM     45  S   UNL A   1      39.802  35.434  36.866  1.00  0.00     0.124 S 
ATOM     46  O   UNL A   1      38.701  34.771  37.559  1.00  0.00    -0.237 OA
ATOM     47  O   UNL A   1      40.837  36.002  37.724  1.00  0.00    -0.237 OA
ATOM     48  O   UNL A   1      39.423  36.252  35.719  1.00  0.00    -0.744 OA
ENDBRANCH  44  45
ENDBRANCH  23  37
BRANCH  24  49
ATOM     49  C   UNL A   1      43.362  24.722  27.935  1.00  0.00     0.058 A 
ATOM     50  C   UNL A   1      42.948  23.385  28.038  1.00  0.00     0.135 A 
ATOM     51  C   UNL A   1      44.123  25.076  26.810  1.00  0.00     0.135 A 
ATOM     52  F   UNL A   1      42.237  22.986  29.104  1.00  0.00    -0.206 F 
ATOM     53  C   UNL A   1      43.284  22.432  27.076  1.00  0.00     0.059 A 
ATOM     54  C   UNL A   1      44.469  24.143  25.832  1.00  0.00     0.059 A 
ATOM     55  F   UNL A   1      44.548  26.339  26.655  1.00  0.00    -0.206 F 
ATOM     56  C   UNL A   1      44.046  22.822  25.975  1.00  0.00     0.060 A 
BRANCH  56  57
ATOM     57  S   UNL A   1      44.432  21.592  24.705  1.00  0.00     0.124 S 
ATOM     58  O   UNL A   1      43.539  20.499  25.067  1.00  0.00    -0.237 OA
ATOM     59  O   UNL A   1      44.100  22.311  23.479  1.00  0.00    -0.237 OA
ATOM     60  O   UNL A   1      45.856  21.343  24.907  1.00  0.00    -0.744 OA
ENDBRANCH  56  57
ENDBRANCH  24  49
BRANCH  36  61
ATOM     61  C   UNL A   1      46.574  26.533  33.866  1.00  0.00     0.058 A 
ATOM     62  C   UNL A   1      47.869  27.059  33.800  1.00  0.00     0.135 A 
ATOM     63  C   UNL A   1      46.303  25.542  34.825  1.00  0.00     0.135 A 
ATOM     64  F   UNL A   1      48.173  27.998  32.892  1.00  0.00    -0.206 F 
ATOM     65  C   UNL A   1      48.857  26.644  34.686  1.00  0.00     0.059 A 
ATOM     66  C   UNL A   1      47.268  25.130  35.735  1.00  0.00     0.059 A 
ATOM     67  F   UNL A   1      45.072  25.016  34.926  1.00  0.00    -0.206 F 
ATOM     68  C   UNL A   1      48.540  25.696  35.663  1.00  0.00     0.060 A 
BRANCH  68  69
ATOM     69  S   UNL A   1      49.785  25.277  36.900  1.00  0.00     0.124 S 
ATOM     70  O   UNL A   1      49.081  25.583  38.140  1.00  0.00    -0.237 OA
ATOM     71  O   UNL A   1      50.020  23.860  36.637  1.00  0.00    -0.237 OA
ATOM     72  O   UNL A   1      50.899  26.160  36.573  1.00  0.00    -0.744 OA
ENDBRANCH  68  69
ENDBRANCH  36  61
ENDBRANCH  10  11
ENDBRANCH   3   5
ENDBRANCH   2   3
ENDBRANCH   1   2
BRANCH   1  73
ATOM     73  C   UNL A   1      33.591  28.360  26.812  1.00  0.00     0.274 C 
BRANCH  73  74
ATOM     74  O   UNL A   1      33.006  27.480  25.824  1.00  0.00    -0.462 OA
BRANCH  74  75
ATOM     75  C   UNL A   1      32.168  26.487  26.271  1.00  0.00     0.309 C 
ATOM     76  O   UNL A   1      31.374  26.644  27.174  1.00  0.00    -0.252 OA
BRANCH  75  77
ATOM     77  C   UNL A   1      32.326  25.171  25.445  1.00  0.00     0.111 C 
ATOM     78  C   UNL A   1      32.195  25.672  24.022  1.00  0.00     0.016 C 
ATOM     79  C   UNL A   1      31.272  24.058  25.700  1.00  0.00     0.093 C 
ATOM     80  C   UNL A   1      32.118  24.655  22.912  1.00  0.00     0.001 C 
ATOM     81  C   UNL A   1      31.072  23.103  24.486  1.00  0.00     0.014 C 
ATOM     82  C   UNL A   1      30.896  23.805  23.158  1.00  0.00     0.001 C 
BRANCH  79  83
ATOM     83  C   UNL A   1      31.352  23.049  26.864  1.00  0.00     0.228 C 
ATOM     84  O   UNL A   1      30.392  22.975  27.646  1.00  0.00    -0.274 OA
ATOM     85  N   UNL A   1      32.266  22.042  26.947  1.00  0.00    -0.325 N 
ATOM     86  H   UNL A   1      32.011  21.289  27.528  1.00  0.00     0.169 HD
BRANCH  85  87
ATOM     87  C   UNL A   1      33.510  21.922  26.330  1.00  0.00     0.054 A 
ATOM     88  C   UNL A   1      34.410  22.974  26.560  1.00  0.00     0.027 A 
ATOM     89  C   UNL A   1      33.882  20.828  25.534  1.00  0.00     0.063 A 
ATOM     90  C   UNL A   1      35.740  22.863  26.158  1.00  0.00     0.002 A 
ATOM     91  C   UNL A   1      35.239  20.718  25.166  1.00  0.00     0.016 A 
ATOM     92  C   UNL A   1      36.164  21.714  25.499  1.00  0.00     0.001 A 
BRANCH  89  93
ATOM     93  C   UNL A   1      32.945  19.750  25.051  1.00  0.00     0.256 C 
ATOM     94  O   UNL A   1      31.739  19.981  24.981  1.00  0.00    -0.269 OA
ATOM     95  N   UNL A   1      33.461  18.485  24.750  1.00  0.00    -0.334 N 
ATOM     96  C   UNL A   1      33.266  17.463  25.764  1.00  0.00     0.148 C 
ATOM     97  C   UNL A   1      33.258  17.942  23.404  1.00  0.00     0.148 C 
ATOM     98  C   UNL A   1      34.099  16.222  25.438  1.00  0.00     0.181 C 
ATOM     99  C   UNL A   1      33.955  16.609  23.133  1.00  0.00     0.181 C 
ATOM    100  O   UNL A   1      33.695  15.664  24.176  1.00  0.00    -0.378 OA
ENDBRANCH  89  93
ENDBRANCH  85  87
ENDBRANCH  79  83
ENDBRANCH  75  77
ENDBRANCH  74  75
ENDBRANCH  73  74
ENDBRANCH   1  73
TORSDOF 17
ENDMDL
