MODEL 1
REMARK VINA RESULT:      -9.9      0.000      0.000
REMARK SMILES CC[NH2+]C[C@@H](C)C(=O)N1CCO[C@@H](CC(=O)OCCOC(=O)c2ccc(-c3c4nc(c(-c5c(F)cc(S(=O)(=O)[O-])cc5F)c5ccc([nH]5)c(-c5c(F)cc(S(=O)(=O)[O-])cc5F)c5nc(c(-c6c(F)cc(S(=O)(=O)[O-])cc6F)c6ccc3[nH]6)C=C5)C=C4)cc2)C1
REMARK SMILES IDX 17 1 15 2 16 3 14 4 13 5 9 6 10 7 89 8 11 9 12 10 7 11 8 12
REMARK SMILES IDX 5 13 6 14 4 15 3 16 2 19 1 20 18 21 19 22 20 23 21 24 22 25
REMARK SMILES IDX 23 26 24 27 88 28 25 29 87 30 26 31 27 32 28 33 81 34 29 35
REMARK SMILES IDX 86 36 80 37 82 38 30 39 85 40 79 41 78 42 31 44 65 45 44 46
REMARK SMILES IDX 64 47 45 48 48 49 63 50 83 51 46 52 47 53 62 55 84 56 49 57
REMARK SMILES IDX 32 58 33 59 42 60 34 61 35 62 41 63 43 64 36 65 37 66 38 67
REMARK SMILES IDX 39 68 40 69 66 70 67 71 76 72 68 73 69 74 75 75 77 76 70 77
REMARK SMILES IDX 71 78 72 79 73 80 74 81 50 82 51 83 60 84 52 85 53 86 59 87
REMARK SMILES IDX 61 88 54 89 55 90 56 91 57 92 58 93
REMARK H PARENT 3 17 3 18 82 43 48 54
REMARK Flexibility Score: inf
ROOT
ATOM      1  O   UNL A   1      37.601  21.735  26.122  1.00  0.00    -0.462 OA
ENDROOT
BRANCH   1   2
ATOM      2  C   UNL A   1      36.887  22.597  25.357  1.00  0.00     0.308 C 
ATOM      3  O   UNL A   1      37.194  22.944  24.224  1.00  0.00    -0.252 OA
BRANCH   2   4
ATOM      4  C   UNL A   1      35.697  23.156  26.093  1.00  0.00     0.156 C 
BRANCH   4   5
ATOM      5  C   UNL A   1      34.354  22.889  25.422  1.00  0.00     0.148 C 
ATOM      6  N   UNL A   1      32.690  21.204  24.715  1.00  0.00    -0.337 N 
ATOM      7  C   UNL A   1      31.684  21.893  25.517  1.00  0.00     0.148 C 
ATOM      8  C   UNL A   1      34.051  21.383  25.234  1.00  0.00     0.152 C 
ATOM      9  C   UNL A   1      32.038  23.367  25.687  1.00  0.00     0.182 C 
ATOM     10  O   UNL A   1      33.343  23.496  26.269  1.00  0.00    -0.374 OA
BRANCH   6  11
ATOM     11  C   UNL A   1      32.487  20.321  23.673  1.00  0.00     0.231 C 
ATOM     12  O   UNL A   1      31.890  20.684  22.652  1.00  0.00    -0.274 OA
BRANCH  11  13
ATOM     13  C   UNL A   1      32.827  18.831  23.828  1.00  0.00     0.130 C 
ATOM     14  C   UNL A   1      32.492  18.086  22.535  1.00  0.00     0.024 C 
BRANCH  13  15
ATOM     15  C   UNL A   1      32.301  18.145  25.094  1.00  0.00     0.273 C 
BRANCH  15  16
ATOM     16  N   UNL A   1      33.302  17.483  25.942  1.00  0.00    -0.346 N 
ATOM     17  H   UNL A   1      34.200  17.945  25.800  1.00  0.00     0.346 HD
ATOM     18  H   UNL A   1      32.970  17.557  26.904  1.00  0.00     0.346 HD
BRANCH  16  19
ATOM     19  C   UNL A   1      33.468  16.063  25.661  1.00  0.00     0.257 C 
ATOM     20  C   UNL A   1      34.889  15.821  25.174  1.00  0.00     0.071 C 
ENDBRANCH  16  19
ENDBRANCH  15  16
ENDBRANCH  13  15
ENDBRANCH  11  13
ENDBRANCH   6  11
ENDBRANCH   4   5
ENDBRANCH   2   4
ENDBRANCH   1   2
BRANCH   1  21
ATOM     21  C   UNL A   1      39.003  21.604  25.821  1.00  0.00     0.274 C 
BRANCH  21  22
ATOM     22  C   UNL A   1      39.421  20.136  25.716  1.00  0.00     0.275 C 
BRANCH  22  23
ATOM     23  O   UNL A   1      40.391  19.793  26.722  1.00  0.00    -0.458 OA
BRANCH  23  24
ATOM     24  C   UNL A   1      41.671  19.709  26.288  1.00  0.00     0.338 C 
ATOM     25  O   UNL A   1      42.190  18.773  25.707  1.00  0.00    -0.246 OA
BRANCH  24  26
ATOM     26  C   UNL A   1      42.345  20.999  26.502  1.00  0.00     0.060 A 
ATOM     27  C   UNL A   1      42.543  21.435  27.816  1.00  0.00     0.016 A 
ATOM     28  C   UNL A   1      42.724  21.800  25.423  1.00  0.00     0.016 A 
ATOM     29  C   UNL A   1      43.122  22.679  28.057  1.00  0.00     0.010 A 
ATOM     30  C   UNL A   1      43.305  23.048  25.667  1.00  0.00     0.010 A 
ATOM     31  C   UNL A   1      43.499  23.499  26.984  1.00  0.00    -0.014 A 
BRANCH  31  32
ATOM     32  C   UNL A   1      44.065  24.845  27.243  1.00  0.00     0.031 A 
ATOM     33  C   UNL A   1      43.167  25.957  27.707  1.00  0.00     0.074 A 
ATOM     34  C   UNL A   1      45.382  25.064  27.071  1.00  0.00     0.049 A 
ATOM     35  N   UNL A   1      43.453  27.215  27.925  1.00  0.00    -0.248 NA
ATOM     36  C   UNL A   1      41.761  25.606  27.960  1.00  0.00     0.031 C 
ATOM     37  C   UNL A   1      46.357  24.053  26.657  1.00  0.00     0.029 A 
ATOM     38  N   UNL A   1      46.126  26.207  27.221  1.00  0.00    -0.354 N 
ATOM     39  C   UNL A   1      42.265  27.809  28.330  1.00  0.00     0.074 A 
ATOM     40  C   UNL A   1      41.249  26.779  28.306  1.00  0.00     0.031 C 
ATOM     41  C   UNL A   1      47.572  24.622  26.586  1.00  0.00     0.029 A 
ATOM     42  C   UNL A   1      47.455  26.042  26.911  1.00  0.00     0.049 A 
ATOM     43  H   UNL A   1      45.744  27.063  27.521  1.00  0.00     0.167 HD
ATOM     44  C   UNL A   1      42.045  29.095  28.696  1.00  0.00     0.037 A 
ATOM     45  C   UNL A   1      48.459  26.939  26.872  1.00  0.00     0.037 A 
ATOM     46  C   UNL A   1      43.062  30.115  28.719  1.00  0.00     0.049 A 
ATOM     47  C   UNL A   1      48.178  28.374  27.227  1.00  0.00     0.074 A 
ATOM     48  C   UNL A   1      42.939  31.447  29.074  1.00  0.00     0.029 A 
ATOM     49  N   UNL A   1      44.392  29.916  28.374  1.00  0.00    -0.354 N 
ATOM     50  N   UNL A   1      47.048  28.924  27.602  1.00  0.00    -0.248 NA
ATOM     51  C   UNL A   1      49.307  29.312  27.149  1.00  0.00     0.031 C 
ATOM     52  C   UNL A   1      44.185  32.062  28.909  1.00  0.00     0.029 A 
ATOM     53  C   UNL A   1      45.095  31.104  28.493  1.00  0.00     0.049 A 
ATOM     54  H   UNL A   1      44.778  29.057  28.087  1.00  0.00     0.167 HD
ATOM     55  C   UNL A   1      47.334  30.267  27.825  1.00  0.00     0.074 A 
ATOM     56  C   UNL A   1      48.746  30.443  27.553  1.00  0.00     0.031 C 
ATOM     57  C   UNL A   1      46.502  31.262  28.221  1.00  0.00     0.037 A 
BRANCH  44  58
ATOM     58  C   UNL A   1      40.643  29.477  29.078  1.00  0.00     0.058 A 
ATOM     59  C   UNL A   1      40.285  29.722  30.414  1.00  0.00     0.135 A 
ATOM     60  C   UNL A   1      39.650  29.624  28.096  1.00  0.00     0.135 A 
ATOM     61  F   UNL A   1      41.190  29.578  31.394  1.00  0.00    -0.206 F 
ATOM     62  C   UNL A   1      38.985  30.074  30.764  1.00  0.00     0.059 A 
ATOM     63  C   UNL A   1      38.349  29.998  28.422  1.00  0.00     0.059 A 
ATOM     64  F   UNL A   1      39.939  29.400  26.805  1.00  0.00    -0.206 F 
ATOM     65  C   UNL A   1      38.023  30.206  29.761  1.00  0.00     0.060 A 
BRANCH  65  66
ATOM     66  S   UNL A   1      36.339  30.656  30.231  1.00  0.00     0.124 S 
ATOM     67  O   UNL A   1      36.144  29.841  31.427  1.00  0.00    -0.237 OA
ATOM     68  O   UNL A   1      36.450  32.093  30.457  1.00  0.00    -0.237 OA
ATOM     69  O   UNL A   1      35.546  30.267  29.070  1.00  0.00    -0.744 OA
ENDBRANCH  65  66
ENDBRANCH  44  58
BRANCH  45  70
ATOM     70  C   UNL A   1      49.823  26.505  26.472  1.00  0.00     0.058 A 
ATOM     71  C   UNL A   1      50.708  25.948  27.407  1.00  0.00     0.135 A 
ATOM     72  C   UNL A   1      50.264  26.625  25.145  1.00  0.00     0.135 A 
ATOM     73  F   UNL A   1      50.336  25.824  28.689  1.00  0.00    -0.206 F 
ATOM     74  C   UNL A   1      51.985  25.533  27.042  1.00  0.00     0.059 A 
ATOM     75  C   UNL A   1      51.526  26.195  24.751  1.00  0.00     0.059 A 
ATOM     76  F   UNL A   1      49.451  27.143  24.210  1.00  0.00    -0.206 F 
ATOM     77  C   UNL A   1      52.384  25.657  25.710  1.00  0.00     0.060 A 
BRANCH  77  78
ATOM     78  S   UNL A   1      54.023  25.065  25.235  1.00  0.00     0.124 S 
ATOM     79  O   UNL A   1      54.774  25.260  26.470  1.00  0.00    -0.237 OA
ATOM     80  O   UNL A   1      53.753  23.679  24.862  1.00  0.00    -0.237 OA
ATOM     81  O   UNL A   1      54.388  25.943  24.127  1.00  0.00    -0.744 OA
ENDBRANCH  77  78
ENDBRANCH  45  70
BRANCH  57  82
ATOM     82  C   UNL A   1      47.103  32.627  28.414  1.00  0.00     0.058 A 
ATOM     83  C   UNL A   1      47.701  33.003  29.626  1.00  0.00     0.135 A 
ATOM     84  C   UNL A   1      47.122  33.551  27.357  1.00  0.00     0.135 A 
ATOM     85  F   UNL A   1      47.704  32.158  30.669  1.00  0.00    -0.206 F 
ATOM     86  C   UNL A   1      48.280  34.258  29.791  1.00  0.00     0.059 A 
ATOM     87  C   UNL A   1      47.715  34.802  27.492  1.00  0.00     0.059 A 
ATOM     88  F   UNL A   1      46.570  33.235  26.173  1.00  0.00    -0.206 F 
ATOM     89  C   UNL A   1      48.282  35.150  28.717  1.00  0.00     0.060 A 
BRANCH  89  90
ATOM     90  S   UNL A   1      49.065  36.763  28.931  1.00  0.00     0.124 S 
ATOM     91  O   UNL A   1      49.762  36.586  30.200  1.00  0.00    -0.237 OA
ATOM     92  O   UNL A   1      49.915  36.860  27.748  1.00  0.00    -0.237 OA
ATOM     93  O   UNL A   1      47.934  37.688  28.958  1.00  0.00    -0.744 OA
ENDBRANCH  89  90
ENDBRANCH  57  82
ENDBRANCH  31  32
ENDBRANCH  24  26
ENDBRANCH  23  24
ENDBRANCH  22  23
ENDBRANCH  21  22
ENDBRANCH   1  21
TORSDOF 20
ENDMDL
MODEL 2
REMARK VINA RESULT:      -9.9      6.566     11.322
REMARK SMILES CC[NH2+]C[C@@H](C)C(=O)N1CCO[C@@H](CC(=O)OCCOC(=O)c2ccc(-c3c4nc(c(-c5c(F)cc(S(=O)(=O)[O-])cc5F)c5ccc([nH]5)c(-c5c(F)cc(S(=O)(=O)[O-])cc5F)c5nc(c(-c6c(F)cc(S(=O)(=O)[O-])cc6F)c6ccc3[nH]6)C=C5)C=C4)cc2)C1
REMARK SMILES IDX 17 1 15 2 16 3 14 4 13 5 9 6 10 7 89 8 11 9 12 10 7 11 8 12
REMARK SMILES IDX 5 13 6 14 4 15 3 16 2 19 1 20 18 21 19 22 20 23 21 24 22 25
REMARK SMILES IDX 23 26 24 27 88 28 25 29 87 30 26 31 27 32 28 33 81 34 29 35
REMARK SMILES IDX 86 36 80 37 82 38 30 39 85 40 79 41 78 42 31 44 65 45 44 46
REMARK SMILES IDX 64 47 45 48 48 49 63 50 83 51 46 52 47 53 62 55 84 56 49 57
REMARK SMILES IDX 32 58 33 59 42 60 34 61 35 62 41 63 43 64 36 65 37 66 38 67
REMARK SMILES IDX 39 68 40 69 66 70 67 71 76 72 68 73 69 74 75 75 77 76 70 77
REMARK SMILES IDX 71 78 72 79 73 80 74 81 50 82 51 83 60 84 52 85 53 86 59 87
REMARK SMILES IDX 61 88 54 89 55 90 56 91 57 92 58 93
REMARK H PARENT 3 17 3 18 82 43 48 54
REMARK Flexibility Score: inf
ROOT
ATOM      1  O   UNL A   1      38.215  22.529  25.416  1.00  0.00    -0.462 OA
ENDROOT
BRANCH   1   2
ATOM      2  C   UNL A   1      36.890  22.402  25.672  1.00  0.00     0.308 C 
ATOM      3  O   UNL A   1      36.247  23.138  26.409  1.00  0.00    -0.252 OA
BRANCH   2   4
ATOM      4  C   UNL A   1      36.298  21.187  25.005  1.00  0.00     0.156 C 
BRANCH   4   5
ATOM      5  C   UNL A   1      34.783  21.067  25.134  1.00  0.00     0.148 C 
ATOM      6  N   UNL A   1      32.571  21.709  24.241  1.00  0.00    -0.337 N 
ATOM      7  C   UNL A   1      32.253  20.294  24.071  1.00  0.00     0.148 C 
ATOM      8  C   UNL A   1      34.010  21.983  24.155  1.00  0.00     0.152 C 
ATOM      9  C   UNL A   1      33.053  19.436  25.046  1.00  0.00     0.182 C 
ATOM     10  O   UNL A   1      34.457  19.676  24.876  1.00  0.00    -0.374 OA
BRANCH   6  11
ATOM     11  C   UNL A   1      31.695  22.774  24.307  1.00  0.00     0.231 C 
ATOM     12  O   UNL A   1      31.128  23.183  23.287  1.00  0.00    -0.274 OA
BRANCH  11  13
ATOM     13  C   UNL A   1      31.545  23.590  25.601  1.00  0.00     0.130 C 
ATOM     14  C   UNL A   1      30.891  22.729  26.683  1.00  0.00     0.024 C 
BRANCH  13  15
ATOM     15  C   UNL A   1      30.923  24.983  25.454  1.00  0.00     0.273 C 
BRANCH  15  16
ATOM     16  N   UNL A   1      31.636  25.928  24.584  1.00  0.00    -0.346 N 
ATOM     17  H   UNL A   1      32.414  25.437  24.146  1.00  0.00     0.346 HD
ATOM     18  H   UNL A   1      30.958  26.275  23.905  1.00  0.00     0.346 HD
BRANCH  16  19
ATOM     19  C   UNL A   1      32.165  27.091  25.285  1.00  0.00     0.257 C 
ATOM     20  C   UNL A   1      31.399  27.271  26.588  1.00  0.00     0.071 C 
ENDBRANCH  16  19
ENDBRANCH  15  16
ENDBRANCH  13  15
ENDBRANCH  11  13
ENDBRANCH   6  11
ENDBRANCH   4   5
ENDBRANCH   2   4
ENDBRANCH   1   2
BRANCH   1  21
ATOM     21  C   UNL A   1      39.083  21.510  25.947  1.00  0.00     0.274 C 
BRANCH  21  22
ATOM     22  C   UNL A   1      40.279  22.119  26.683  1.00  0.00     0.275 C 
BRANCH  22  23
ATOM     23  O   UNL A   1      39.951  23.403  27.243  1.00  0.00    -0.458 OA
BRANCH  23  24
ATOM     24  C   UNL A   1      40.788  24.413  26.905  1.00  0.00     0.338 C 
ATOM     25  O   UNL A   1      41.493  24.482  25.914  1.00  0.00    -0.246 OA
BRANCH  24  26
ATOM     26  C   UNL A   1      40.635  25.518  27.864  1.00  0.00     0.060 A 
ATOM     27  C   UNL A   1      41.714  26.386  28.055  1.00  0.00     0.016 A 
ATOM     28  C   UNL A   1      39.465  25.663  28.613  1.00  0.00     0.016 A 
ATOM     29  C   UNL A   1      41.628  27.407  29.000  1.00  0.00     0.010 A 
ATOM     30  C   UNL A   1      39.381  26.688  29.559  1.00  0.00     0.010 A 
ATOM     31  C   UNL A   1      40.464  27.559  29.766  1.00  0.00    -0.014 A 
BRANCH  31  32
ATOM     32  C   UNL A   1      40.395  28.612  30.808  1.00  0.00     0.031 A 
ATOM     33  C   UNL A   1      41.316  28.551  31.994  1.00  0.00     0.074 A 
ATOM     34  C   UNL A   1      39.516  29.624  30.684  1.00  0.00     0.049 A 
ATOM     35  N   UNL A   1      41.369  29.333  33.041  1.00  0.00    -0.248 NA
ATOM     36  C   UNL A   1      42.309  27.465  32.002  1.00  0.00     0.031 C 
ATOM     37  C   UNL A   1      38.596  29.807  29.559  1.00  0.00     0.029 A 
ATOM     38  N   UNL A   1      39.251  30.685  31.511  1.00  0.00    -0.354 N 
ATOM     39  C   UNL A   1      42.391  28.832  33.838  1.00  0.00     0.074 A 
ATOM     40  C   UNL A   1      42.916  27.663  33.164  1.00  0.00     0.031 C 
ATOM     41  C   UNL A   1      37.868  30.916  29.768  1.00  0.00     0.029 A 
ATOM     42  C   UNL A   1      38.240  31.499  31.055  1.00  0.00     0.049 A 
ATOM     43  H   UNL A   1      39.738  30.849  32.351  1.00  0.00     0.167 HD
ATOM     44  C   UNL A   1      42.852  29.308  35.019  1.00  0.00     0.037 A 
ATOM     45  C   UNL A   1      37.667  32.577  31.622  1.00  0.00     0.037 A 
ATOM     46  C   UNL A   1      42.325  30.472  35.684  1.00  0.00     0.049 A 
ATOM     47  C   UNL A   1      38.158  33.053  32.963  1.00  0.00     0.074 A 
ATOM     48  C   UNL A   1      42.725  31.034  36.884  1.00  0.00     0.029 A 
ATOM     49  N   UNL A   1      41.285  31.256  35.204  1.00  0.00    -0.354 N 
ATOM     50  N   UNL A   1      39.120  32.566  33.708  1.00  0.00    -0.248 NA
ATOM     51  C   UNL A   1      37.482  34.223  33.542  1.00  0.00     0.031 C 
ATOM     52  C   UNL A   1      41.902  32.135  37.148  1.00  0.00     0.029 A 
ATOM     53  C   UNL A   1      41.019  32.286  36.091  1.00  0.00     0.049 A 
ATOM     54  H   UNL A   1      40.806  31.101  34.358  1.00  0.00     0.167 HD
ATOM     55  C   UNL A   1      39.180  33.381  34.833  1.00  0.00     0.074 A 
ATOM     56  C   UNL A   1      38.164  34.399  34.665  1.00  0.00     0.031 C 
ATOM     57  C   UNL A   1      40.005  33.294  35.907  1.00  0.00     0.037 A 
BRANCH  44  58
ATOM     58  C   UNL A   1      43.970  28.553  35.682  1.00  0.00     0.058 A 
ATOM     59  C   UNL A   1      45.316  28.858  35.427  1.00  0.00     0.135 A 
ATOM     60  C   UNL A   1      43.692  27.528  36.601  1.00  0.00     0.135 A 
ATOM     61  F   UNL A   1      45.638  29.816  34.543  1.00  0.00    -0.206 F 
ATOM     62  C   UNL A   1      46.349  28.156  36.041  1.00  0.00     0.059 A 
ATOM     63  C   UNL A   1      44.709  26.829  37.245  1.00  0.00     0.059 A 
ATOM     64  F   UNL A   1      42.422  27.195  36.880  1.00  0.00    -0.206 F 
ATOM     65  C   UNL A   1      46.035  27.140  36.946  1.00  0.00     0.060 A 
BRANCH  65  66
ATOM     66  S   UNL A   1      47.385  26.233  37.731  1.00  0.00     0.124 S 
ATOM     67  O   UNL A   1      47.965  27.262  38.589  1.00  0.00    -0.237 OA
ATOM     68  O   UNL A   1      46.681  25.157  38.421  1.00  0.00    -0.237 OA
ATOM     69  O   UNL A   1      48.213  25.814  36.605  1.00  0.00    -0.744 OA
ENDBRANCH  65  66
ENDBRANCH  44  58
BRANCH  45  70
ATOM     70  C   UNL A   1      36.555  33.275  30.925  1.00  0.00     0.058 A 
ATOM     71  C   UNL A   1      35.229  33.137  31.360  1.00  0.00     0.135 A 
ATOM     72  C   UNL A   1      36.798  34.105  29.819  1.00  0.00     0.135 A 
ATOM     73  F   UNL A   1      34.946  32.345  32.404  1.00  0.00    -0.206 F 
ATOM     74  C   UNL A   1      34.181  33.790  30.718  1.00  0.00     0.059 A 
ATOM     75  C   UNL A   1      35.771  34.787  29.177  1.00  0.00     0.059 A 
ATOM     76  F   UNL A   1      38.052  34.278  29.370  1.00  0.00    -0.206 F 
ATOM     77  C   UNL A   1      34.463  34.616  29.628  1.00  0.00     0.060 A 
BRANCH  77  78
ATOM     78  S   UNL A   1      33.104  35.504  28.837  1.00  0.00     0.124 S 
ATOM     79  O   UNL A   1      32.370  36.006  29.993  1.00  0.00    -0.237 OA
ATOM     80  O   UNL A   1      33.810  36.505  28.043  1.00  0.00    -0.237 OA
ATOM     81  O   UNL A   1      32.431  34.463  28.064  1.00  0.00    -0.744 OA
ENDBRANCH  77  78
ENDBRANCH  45  70
BRANCH  57  82
ATOM     82  C   UNL A   1      39.862  34.345  36.972  1.00  0.00     0.058 A 
ATOM     83  C   UNL A   1      40.548  35.567  36.896  1.00  0.00     0.135 A 
ATOM     84  C   UNL A   1      38.992  34.147  38.056  1.00  0.00     0.135 A 
ATOM     85  F   UNL A   1      41.396  35.804  35.883  1.00  0.00    -0.206 F 
ATOM     86  C   UNL A   1      40.392  36.549  37.871  1.00  0.00     0.059 A 
ATOM     87  C   UNL A   1      38.804  35.123  39.029  1.00  0.00     0.059 A 
ATOM     88  F   UNL A   1      38.305  32.998  38.170  1.00  0.00    -0.206 F 
ATOM     89  C   UNL A   1      39.517  36.317  38.933  1.00  0.00     0.060 A 
BRANCH  89  90
ATOM     90  S   UNL A   1      39.296  37.609  40.174  1.00  0.00     0.124 S 
ATOM     91  O   UNL A   1      38.952  36.827  41.356  1.00  0.00    -0.237 OA
ATOM     92  O   UNL A   1      40.608  38.251  40.198  1.00  0.00    -0.237 OA
ATOM     93  O   UNL A   1      38.218  38.426  39.625  1.00  0.00    -0.744 OA
ENDBRANCH  89  90
ENDBRANCH  57  82
ENDBRANCH  31  32
ENDBRANCH  24  26
ENDBRANCH  23  24
ENDBRANCH  22  23
ENDBRANCH  21  22
ENDBRANCH   1  21
TORSDOF 20
ENDMDL
MODEL 3
REMARK VINA RESULT:      -9.8      6.055     11.011
REMARK SMILES CC[NH2+]C[C@@H](C)C(=O)N1CCO[C@@H](CC(=O)OCCOC(=O)c2ccc(-c3c4nc(c(-c5c(F)cc(S(=O)(=O)[O-])cc5F)c5ccc([nH]5)c(-c5c(F)cc(S(=O)(=O)[O-])cc5F)c5nc(c(-c6c(F)cc(S(=O)(=O)[O-])cc6F)c6ccc3[nH]6)C=C5)C=C4)cc2)C1
REMARK SMILES IDX 17 1 15 2 16 3 14 4 13 5 9 6 10 7 89 8 11 9 12 10 7 11 8 12
REMARK SMILES IDX 5 13 6 14 4 15 3 16 2 19 1 20 18 21 19 22 20 23 21 24 22 25
REMARK SMILES IDX 23 26 24 27 88 28 25 29 87 30 26 31 27 32 28 33 81 34 29 35
REMARK SMILES IDX 86 36 80 37 82 38 30 39 85 40 79 41 78 42 31 44 65 45 44 46
REMARK SMILES IDX 64 47 45 48 48 49 63 50 83 51 46 52 47 53 62 55 84 56 49 57
REMARK SMILES IDX 32 58 33 59 42 60 34 61 35 62 41 63 43 64 36 65 37 66 38 67
REMARK SMILES IDX 39 68 40 69 66 70 67 71 76 72 68 73 69 74 75 75 77 76 70 77
REMARK SMILES IDX 71 78 72 79 73 80 74 81 50 82 51 83 60 84 52 85 53 86 59 87
REMARK SMILES IDX 61 88 54 89 55 90 56 91 57 92 58 93
REMARK H PARENT 3 17 3 18 82 43 48 54
REMARK Flexibility Score: inf
ROOT
ATOM      1  O   UNL A   1      40.516  21.428  26.781  1.00  0.00    -0.462 OA
ENDROOT
BRANCH   1   2
ATOM      2  C   UNL A   1      39.418  21.064  26.073  1.00  0.00     0.308 C 
ATOM      3  O   UNL A   1      39.263  19.976  25.536  1.00  0.00    -0.252 OA
BRANCH   2   4
ATOM      4  C   UNL A   1      38.427  22.192  25.946  1.00  0.00     0.156 C 
BRANCH   4   5
ATOM      5  C   UNL A   1      37.243  21.896  25.032  1.00  0.00     0.148 C 
ATOM      6  N   UNL A   1      34.815  21.470  24.860  1.00  0.00    -0.337 N 
ATOM      7  C   UNL A   1      34.703  22.605  23.948  1.00  0.00     0.148 C 
ATOM      8  C   UNL A   1      35.932  21.606  25.802  1.00  0.00     0.152 C 
ATOM      9  C   UNL A   1      36.024  22.859  23.229  1.00  0.00     0.182 C 
ATOM     10  O   UNL A   1      37.074  23.063  24.186  1.00  0.00    -0.374 OA
BRANCH   6  11
ATOM     11  C   UNL A   1      33.932  20.422  25.023  1.00  0.00     0.231 C 
ATOM     12  O   UNL A   1      33.578  20.072  26.155  1.00  0.00    -0.274 OA
BRANCH  11  13
ATOM     13  C   UNL A   1      33.515  19.552  23.827  1.00  0.00     0.130 C 
ATOM     14  C   UNL A   1      32.146  20.000  23.312  1.00  0.00     0.024 C 
BRANCH  13  15
ATOM     15  C   UNL A   1      33.642  18.036  24.017  1.00  0.00     0.273 C 
BRANCH  15  16
ATOM     16  N   UNL A   1      34.496  17.585  25.124  1.00  0.00    -0.346 N 
ATOM     17  H   UNL A   1      35.461  17.832  24.905  1.00  0.00     0.346 HD
ATOM     18  H   UNL A   1      34.155  18.047  25.967  1.00  0.00     0.346 HD
BRANCH  16  19
ATOM     19  C   UNL A   1      34.434  16.151  25.372  1.00  0.00     0.257 C 
ATOM     20  C   UNL A   1      32.997  15.683  25.193  1.00  0.00     0.071 C 
ENDBRANCH  16  19
ENDBRANCH  15  16
ENDBRANCH  13  15
ENDBRANCH  11  13
ENDBRANCH   6  11
ENDBRANCH   4   5
ENDBRANCH   2   4
ENDBRANCH   1   2
BRANCH   1  21
ATOM     21  C   UNL A   1      41.788  21.321  26.114  1.00  0.00     0.274 C 
BRANCH  21  22
ATOM     22  C   UNL A   1      42.406  22.698  25.862  1.00  0.00     0.275 C 
BRANCH  22  23
ATOM     23  O   UNL A   1      41.618  23.745  26.457  1.00  0.00    -0.458 OA
BRANCH  23  24
ATOM     24  C   UNL A   1      41.951  25.003  26.086  1.00  0.00     0.338 C 
ATOM     25  O   UNL A   1      42.195  25.397  24.958  1.00  0.00    -0.246 OA
BRANCH  24  26
ATOM     26  C   UNL A   1      41.851  25.900  27.248  1.00  0.00     0.060 A 
ATOM     27  C   UNL A   1      40.851  25.652  28.193  1.00  0.00     0.016 A 
ATOM     28  C   UNL A   1      42.692  27.007  27.375  1.00  0.00     0.016 A 
ATOM     29  C   UNL A   1      40.686  26.516  29.274  1.00  0.00     0.010 A 
ATOM     30  C   UNL A   1      42.525  27.872  28.461  1.00  0.00     0.010 A 
ATOM     31  C   UNL A   1      41.516  27.638  29.411  1.00  0.00    -0.014 A 
BRANCH  31  32
ATOM     32  C   UNL A   1      41.304  28.585  30.532  1.00  0.00     0.031 A 
ATOM     33  C   UNL A   1      42.183  28.514  31.749  1.00  0.00     0.074 A 
ATOM     34  C   UNL A   1      40.331  29.512  30.453  1.00  0.00     0.049 A 
ATOM     35  N   UNL A   1      42.119  29.204  32.858  1.00  0.00    -0.248 NA
ATOM     36  C   UNL A   1      43.281  27.535  31.711  1.00  0.00     0.031 C 
ATOM     37  C   UNL A   1      39.437  29.699  29.308  1.00  0.00     0.029 A 
ATOM     38  N   UNL A   1      39.929  30.467  31.352  1.00  0.00    -0.354 N 
ATOM     39  C   UNL A   1      43.157  28.741  33.654  1.00  0.00     0.074 A 
ATOM     40  C   UNL A   1      43.823  27.692  32.911  1.00  0.00     0.031 C 
ATOM     41  C   UNL A   1      38.592  30.708  29.575  1.00  0.00     0.029 A 
ATOM     42  C   UNL A   1      38.857  31.212  30.920  1.00  0.00     0.049 A 
ATOM     43  H   UNL A   1      40.367  30.605  32.222  1.00  0.00     0.167 HD
ATOM     44  C   UNL A   1      43.525  29.157  34.890  1.00  0.00     0.037 A 
ATOM     45  C   UNL A   1      38.156  32.176  31.548  1.00  0.00     0.037 A 
ATOM     46  C   UNL A   1      42.859  30.202  35.624  1.00  0.00     0.049 A 
ATOM     47  C   UNL A   1      38.548  32.581  32.943  1.00  0.00     0.074 A 
ATOM     48  C   UNL A   1      43.156  30.695  36.883  1.00  0.00     0.029 A 
ATOM     49  N   UNL A   1      41.761  30.916  35.165  1.00  0.00    -0.354 N 
ATOM     50  N   UNL A   1      39.529  32.129  33.687  1.00  0.00    -0.248 NA
ATOM     51  C   UNL A   1      37.737  33.624  33.586  1.00  0.00     0.031 C 
ATOM     52  C   UNL A   1      42.217  31.683  37.199  1.00  0.00     0.029 A 
ATOM     53  C   UNL A   1      41.360  31.835  36.121  1.00  0.00     0.049 A 
ATOM     54  H   UNL A   1      41.332  30.789  34.288  1.00  0.00     0.167 HD
ATOM     55  C   UNL A   1      39.465  32.847  34.877  1.00  0.00     0.074 A 
ATOM     56  C   UNL A   1      38.356  33.770  34.749  1.00  0.00     0.031 C 
ATOM     57  C   UNL A   1      40.255  32.750  35.975  1.00  0.00     0.037 A 
BRANCH  44  58
ATOM     58  C   UNL A   1      44.691  28.462  35.537  1.00  0.00     0.058 A 
ATOM     59  C   UNL A   1      46.005  28.932  35.386  1.00  0.00     0.135 A 
ATOM     60  C   UNL A   1      44.489  27.326  36.338  1.00  0.00     0.135 A 
ATOM     61  F   UNL A   1      46.255  30.003  34.617  1.00  0.00    -0.206 F 
ATOM     62  C   UNL A   1      47.081  28.286  35.986  1.00  0.00     0.059 A 
ATOM     63  C   UNL A   1      45.549  26.678  36.966  1.00  0.00     0.059 A 
ATOM     64  F   UNL A   1      43.253  26.834  36.514  1.00  0.00    -0.206 F 
ATOM     65  C   UNL A   1      46.843  27.157  36.771  1.00  0.00     0.060 A 
BRANCH  65  66
ATOM     66  S   UNL A   1      48.250  26.324  37.537  1.00  0.00     0.124 S 
ATOM     67  O   UNL A   1      48.713  25.472  36.445  1.00  0.00    -0.237 OA
ATOM     68  O   UNL A   1      49.126  27.439  37.882  1.00  0.00    -0.237 OA
ATOM     69  O   UNL A   1      47.656  25.623  38.671  1.00  0.00    -0.744 OA
ENDBRANCH  65  66
ENDBRANCH  44  58
BRANCH  45  70
ATOM     70  C   UNL A   1      37.004  32.817  30.862  1.00  0.00     0.058 A 
ATOM     71  C   UNL A   1      35.688  32.418  31.133  1.00  0.00     0.135 A 
ATOM     72  C   UNL A   1      37.196  33.851  29.932  1.00  0.00     0.135 A 
ATOM     73  F   UNL A   1      35.455  31.426  32.005  1.00  0.00    -0.206 F 
ATOM     74  C   UNL A   1      34.601  33.016  30.502  1.00  0.00     0.059 A 
ATOM     75  C   UNL A   1      36.126  34.480  29.306  1.00  0.00     0.059 A 
ATOM     76  F   UNL A   1      38.437  34.276  29.645  1.00  0.00    -0.206 F 
ATOM     77  C   UNL A   1      34.831  34.049  29.591  1.00  0.00     0.060 A 
BRANCH  77  78
ATOM     78  S   UNL A   1      33.412  34.857  28.818  1.00  0.00     0.124 S 
ATOM     79  O   UNL A   1      32.518  35.031  29.956  1.00  0.00    -0.237 OA
ATOM     80  O   UNL A   1      34.007  36.076  28.279  1.00  0.00    -0.237 OA
ATOM     81  O   UNL A   1      32.980  33.885  27.817  1.00  0.00    -0.744 OA
ENDBRANCH  77  78
ENDBRANCH  45  70
BRANCH  57  82
ATOM     82  C   UNL A   1      39.968  33.687  37.116  1.00  0.00     0.058 A 
ATOM     83  C   UNL A   1      40.616  34.926  37.231  1.00  0.00     0.135 A 
ATOM     84  C   UNL A   1      38.999  33.360  38.078  1.00  0.00     0.135 A 
ATOM     85  F   UNL A   1      41.554  35.283  36.340  1.00  0.00    -0.206 F 
ATOM     86  C   UNL A   1      40.327  35.802  38.273  1.00  0.00     0.059 A 
ATOM     87  C   UNL A   1      38.678  34.230  39.115  1.00  0.00     0.059 A 
ATOM     88  F   UNL A   1      38.344  32.189  38.007  1.00  0.00    -0.206 F 
ATOM     89  C   UNL A   1      39.356  35.445  39.210  1.00  0.00     0.060 A 
BRANCH  89  90
ATOM     90  S   UNL A   1      38.965  36.602  40.540  1.00  0.00     0.124 S 
ATOM     91  O   UNL A   1      40.286  36.864  41.099  1.00  0.00    -0.237 OA
ATOM     92  O   UNL A   1      38.349  37.713  39.819  1.00  0.00    -0.237 OA
ATOM     93  O   UNL A   1      38.059  35.841  41.396  1.00  0.00    -0.744 OA
ENDBRANCH  89  90
ENDBRANCH  57  82
ENDBRANCH  31  32
ENDBRANCH  24  26
ENDBRANCH  23  24
ENDBRANCH  22  23
ENDBRANCH  21  22
ENDBRANCH   1  21
TORSDOF 20
ENDMDL
