MODEL 1
REMARK VINA RESULT:     -12.4      0.000      0.000
REMARK SMILES O=C(OCCOC(=O)C1CC[NH+]([C@H]2CC(=O)N(c3ccc4c(c3)OCCO4)C2=O)CC1)c1ccc(-c2c3nc(c(-c4c(F)cc(S(=O)(=O)[O-])cc4F)c4ccc([nH]4)c(-c4c(F)cc(S(=O)(=O)[O-])cc4F)c4nc(c(-c5c(F)cc(S(=O)(=O)[O-])cc5F)c5ccc2[nH]5)C=C4)C=C3)cc1
REMARK SMILES IDX 4 1 3 2 2 3 1 4 32 5 33 6 97 7 34 8 96 9 35 10 36 11 37 12
REMARK SMILES IDX 90 13 38 14 95 15 89 16 91 17 39 18 94 19 88 20 87 21 40 23
REMARK SMILES IDX 74 24 53 25 73 26 54 27 57 28 72 29 92 30 55 31 56 32 71 34
REMARK SMILES IDX 93 35 58 36 41 37 42 38 51 39 43 40 44 41 50 42 52 43 45 44
REMARK SMILES IDX 46 45 47 46 48 47 49 48 75 49 76 50 85 51 77 52 78 53 84 54
REMARK SMILES IDX 86 55 79 56 80 57 81 58 82 59 83 60 59 61 60 62 69 63 61 64
REMARK SMILES IDX 62 65 68 66 70 67 63 68 64 69 65 70 66 71 67 72 5 73 6 74
REMARK SMILES IDX 7 75 8 76 9 77 10 78 31 79 11 80 30 81 12 82 13 84 14 85
REMARK SMILES IDX 28 86 15 87 17 88 29 89 16 90 18 91 19 92 23 93 20 94 22 95
REMARK SMILES IDX 21 96 24 97 27 98 25 99 26 100
REMARK H PARENT 91 22 57 33 12 83
REMARK Flexibility Score: inf
ROOT
ATOM      1  C   UNL A   1      32.123  30.544  26.595  1.00  0.00     0.275 C 
ENDROOT
BRANCH   1   2
ATOM      2  O   UNL A   1      33.201  30.482  27.531  1.00  0.00    -0.458 OA
BRANCH   2   3
ATOM      3  C   UNL A   1      34.163  31.394  27.780  1.00  0.00     0.338 C 
ATOM      4  O   UNL A   1      33.869  32.582  27.642  1.00  0.00    -0.246 OA
BRANCH   3   5
ATOM      5  C   UNL A   1      35.589  31.071  28.141  1.00  0.00     0.060 A 
ATOM      6  C   UNL A   1      36.685  31.935  28.228  1.00  0.00     0.016 A 
ATOM      7  C   UNL A   1      35.799  29.746  28.546  1.00  0.00     0.016 A 
ATOM      8  C   UNL A   1      37.897  31.525  28.805  1.00  0.00     0.010 A 
ATOM      9  C   UNL A   1      36.960  29.374  29.224  1.00  0.00     0.010 A 
ATOM     10  C   UNL A   1      38.032  30.257  29.372  1.00  0.00    -0.014 A 
BRANCH  10  11
ATOM     11  C   UNL A   1      39.291  29.851  30.056  1.00  0.00     0.031 A 
ATOM     12  C   UNL A   1      39.568  30.364  31.448  1.00  0.00     0.074 A 
ATOM     13  C   UNL A   1      40.182  29.031  29.449  1.00  0.00     0.049 A 
ATOM     14  N   UNL A   1      40.530  30.030  32.269  1.00  0.00    -0.248 NA
ATOM     15  C   UNL A   1      38.685  31.419  31.977  1.00  0.00     0.031 C 
ATOM     16  C   UNL A   1      40.116  28.566  28.058  1.00  0.00     0.029 A 
ATOM     17  N   UNL A   1      41.319  28.424  29.929  1.00  0.00    -0.354 N 
ATOM     18  C   UNL A   1      40.325  30.803  33.404  1.00  0.00     0.074 A 
ATOM     19  C   UNL A   1      39.291  31.757  33.099  1.00  0.00     0.031 C 
ATOM     20  C   UNL A   1      41.137  27.727  27.813  1.00  0.00     0.029 A 
ATOM     21  C   UNL A   1      41.924  27.570  29.029  1.00  0.00     0.049 A 
ATOM     22  H   UNL A   1      41.670  28.584  30.835  1.00  0.00     0.167 HD
ATOM     23  C   UNL A   1      40.846  30.654  34.641  1.00  0.00     0.037 A 
ATOM     24  C   UNL A   1      42.964  26.724  29.187  1.00  0.00     0.037 A 
ATOM     25  C   UNL A   1      41.849  29.686  34.957  1.00  0.00     0.049 A 
ATOM     26  C   UNL A   1      43.565  26.590  30.566  1.00  0.00     0.074 A 
ATOM     27  C   UNL A   1      42.446  29.424  36.174  1.00  0.00     0.029 A 
ATOM     28  N   UNL A   1      42.403  28.814  34.032  1.00  0.00    -0.354 N 
ATOM     29  N   UNL A   1      43.241  27.220  31.672  1.00  0.00    -0.248 NA
ATOM     30  C   UNL A   1      44.641  25.604  30.732  1.00  0.00     0.031 C 
ATOM     31  C   UNL A   1      43.396  28.417  35.975  1.00  0.00     0.029 A 
ATOM     32  C   UNL A   1      43.351  28.021  34.645  1.00  0.00     0.049 A 
ATOM     33  H   UNL A   1      42.157  28.768  33.080  1.00  0.00     0.167 HD
ATOM     34  C   UNL A   1      44.046  26.679  32.669  1.00  0.00     0.074 A 
ATOM     35  C   UNL A   1      44.855  25.656  32.039  1.00  0.00     0.031 C 
ATOM     36  C   UNL A   1      44.119  26.996  33.986  1.00  0.00     0.037 A 
BRANCH  23  37
ATOM     37  C   UNL A   1      40.257  31.512  35.723  1.00  0.00     0.058 A 
ATOM     38  C   UNL A   1      40.989  32.587  36.265  1.00  0.00     0.135 A 
ATOM     39  C   UNL A   1      38.997  31.235  36.268  1.00  0.00     0.135 A 
ATOM     40  F   UNL A   1      42.219  32.869  35.805  1.00  0.00    -0.206 F 
ATOM     41  C   UNL A   1      40.509  33.329  37.336  1.00  0.00     0.059 A 
ATOM     42  C   UNL A   1      38.483  31.987  37.321  1.00  0.00     0.059 A 
ATOM     43  F   UNL A   1      38.267  30.212  35.799  1.00  0.00    -0.206 F 
ATOM     44  C   UNL A   1      39.253  33.019  37.858  1.00  0.00     0.060 A 
BRANCH  44  45
ATOM     45  S   UNL A   1      38.649  33.991  39.253  1.00  0.00     0.124 S 
ATOM     46  O   UNL A   1      38.801  35.352  38.748  1.00  0.00    -0.237 OA
ATOM     47  O   UNL A   1      37.276  33.516  39.388  1.00  0.00    -0.237 OA
ATOM     48  O   UNL A   1      39.550  33.620  40.339  1.00  0.00    -0.744 OA
ENDBRANCH  44  45
ENDBRANCH  23  37
BRANCH  24  49
ATOM     49  C   UNL A   1      43.465  25.884  28.056  1.00  0.00     0.058 A 
ATOM     50  C   UNL A   1      42.975  24.585  27.835  1.00  0.00     0.135 A 
ATOM     51  C   UNL A   1      44.490  26.335  27.210  1.00  0.00     0.135 A 
ATOM     52  F   UNL A   1      41.993  24.099  28.609  1.00  0.00    -0.206 F 
ATOM     53  C   UNL A   1      43.515  23.750  26.857  1.00  0.00     0.059 A 
ATOM     54  C   UNL A   1      45.029  25.530  26.208  1.00  0.00     0.059 A 
ATOM     55  F   UNL A   1      44.983  27.575  27.358  1.00  0.00    -0.206 F 
ATOM     56  C   UNL A   1      44.550  24.229  26.053  1.00  0.00     0.060 A 
BRANCH  56  57
ATOM     57  S   UNL A   1      45.251  23.134  24.797  1.00  0.00     0.124 S 
ATOM     58  O   UNL A   1      44.049  22.589  24.177  1.00  0.00    -0.237 OA
ATOM     59  O   UNL A   1      46.026  24.063  23.980  1.00  0.00    -0.237 OA
ATOM     60  O   UNL A   1      46.042  22.188  25.579  1.00  0.00    -0.744 OA
ENDBRANCH  56  57
ENDBRANCH  24  49
BRANCH  36  61
ATOM     61  C   UNL A   1      45.071  26.209  34.837  1.00  0.00     0.058 A 
ATOM     62  C   UNL A   1      46.386  26.643  35.062  1.00  0.00     0.135 A 
ATOM     63  C   UNL A   1      44.636  25.046  35.495  1.00  0.00     0.135 A 
ATOM     64  F   UNL A   1      46.846  27.748  34.456  1.00  0.00    -0.206 F 
ATOM     65  C   UNL A   1      47.247  25.936  35.891  1.00  0.00     0.059 A 
ATOM     66  C   UNL A   1      45.469  24.344  36.355  1.00  0.00     0.059 A 
ATOM     67  F   UNL A   1      43.380  24.602  35.324  1.00  0.00    -0.206 F 
ATOM     68  C   UNL A   1      46.778  24.789  36.535  1.00  0.00     0.060 A 
BRANCH  68  69
ATOM     69  S   UNL A   1      47.895  23.901  37.638  1.00  0.00     0.124 S 
ATOM     70  O   UNL A   1      48.450  22.893  36.740  1.00  0.00    -0.237 OA
ATOM     71  O   UNL A   1      48.816  24.951  38.060  1.00  0.00    -0.237 OA
ATOM     72  O   UNL A   1      47.011  23.394  38.682  1.00  0.00    -0.744 OA
ENDBRANCH  68  69
ENDBRANCH  36  61
ENDBRANCH  10  11
ENDBRANCH   3   5
ENDBRANCH   2   3
ENDBRANCH   1   2
BRANCH   1  73
ATOM     73  C   UNL A   1      32.404  29.862  25.251  1.00  0.00     0.274 C 
BRANCH  73  74
ATOM     74  O   UNL A   1      31.290  29.173  24.649  1.00  0.00    -0.462 OA
BRANCH  74  75
ATOM     75  C   UNL A   1      31.363  27.806  24.652  1.00  0.00     0.309 C 
ATOM     76  O   UNL A   1      30.397  27.076  24.829  1.00  0.00    -0.252 OA
BRANCH  75  77
ATOM     77  C   UNL A   1      32.810  27.312  24.604  1.00  0.00     0.110 C 
ATOM     78  C   UNL A   1      33.210  26.581  23.325  1.00  0.00     0.077 C 
ATOM     79  C   UNL A   1      33.165  26.478  25.848  1.00  0.00     0.077 C 
ATOM     80  C   UNL A   1      32.947  25.082  23.361  1.00  0.00     0.263 C 
ATOM     81  C   UNL A   1      32.784  24.993  25.723  1.00  0.00     0.263 C 
ATOM     82  N   UNL A   1      33.506  24.473  24.563  1.00  0.00    -0.324 N 
ATOM     83  H   UNL A   1      34.476  24.733  24.746  1.00  0.00     0.348 HD
BRANCH  82  84
ATOM     84  C   UNL A   1      33.612  23.005  24.384  1.00  0.00     0.284 C 
ATOM     85  C   UNL A   1      34.227  22.792  23.001  1.00  0.00     0.176 C 
ATOM     86  C   UNL A   1      34.664  22.351  25.263  1.00  0.00     0.292 C 
ATOM     87  C   UNL A   1      35.695  22.874  23.302  1.00  0.00     0.240 C 
ATOM     88  N   UNL A   1      35.869  22.488  24.609  1.00  0.00    -0.245 N 
ATOM     89  O   UNL A   1      34.447  21.888  26.369  1.00  0.00    -0.267 OA
ATOM     90  O   UNL A   1      36.555  23.119  22.462  1.00  0.00    -0.274 OA
BRANCH  88  91
ATOM     91  C   UNL A   1      37.118  22.304  25.226  1.00  0.00     0.056 A 
ATOM     92  C   UNL A   1      37.724  23.344  25.942  1.00  0.00     0.031 A 
ATOM     93  C   UNL A   1      37.776  21.076  25.100  1.00  0.00     0.077 A 
ATOM     94  C   UNL A   1      38.959  23.144  26.561  1.00  0.00     0.052 A 
ATOM     95  C   UNL A   1      39.033  20.899  25.670  1.00  0.00     0.163 A 
ATOM     96  C   UNL A   1      39.623  21.930  26.406  1.00  0.00     0.161 A 
ATOM     97  O   UNL A   1      39.643  19.694  25.437  1.00  0.00    -0.486 OA
ATOM     98  O   UNL A   1      40.850  21.817  27.006  1.00  0.00    -0.486 OA
ATOM     99  C   UNL A   1      40.734  19.478  26.333  1.00  0.00     0.271 C 
ATOM    100  C   UNL A   1      41.595  20.725  26.457  1.00  0.00     0.271 C 
ENDBRANCH  88  91
ENDBRANCH  82  84
ENDBRANCH  75  77
ENDBRANCH  74  75
ENDBRANCH  73  74
ENDBRANCH   1  73
TORSDOF 16
ENDMDL
MODEL 2
REMARK VINA RESULT:     -12.3      1.544      2.676
REMARK SMILES O=C(OCCOC(=O)C1CC[NH+]([C@H]2CC(=O)N(c3ccc4c(c3)OCCO4)C2=O)CC1)c1ccc(-c2c3nc(c(-c4c(F)cc(S(=O)(=O)[O-])cc4F)c4ccc([nH]4)c(-c4c(F)cc(S(=O)(=O)[O-])cc4F)c4nc(c(-c5c(F)cc(S(=O)(=O)[O-])cc5F)c5ccc2[nH]5)C=C4)C=C3)cc1
REMARK SMILES IDX 4 1 3 2 2 3 1 4 32 5 33 6 97 7 34 8 96 9 35 10 36 11 37 12
REMARK SMILES IDX 90 13 38 14 95 15 89 16 91 17 39 18 94 19 88 20 87 21 40 23
REMARK SMILES IDX 74 24 53 25 73 26 54 27 57 28 72 29 92 30 55 31 56 32 71 34
REMARK SMILES IDX 93 35 58 36 41 37 42 38 51 39 43 40 44 41 50 42 52 43 45 44
REMARK SMILES IDX 46 45 47 46 48 47 49 48 75 49 76 50 85 51 77 52 78 53 84 54
REMARK SMILES IDX 86 55 79 56 80 57 81 58 82 59 83 60 59 61 60 62 69 63 61 64
REMARK SMILES IDX 62 65 68 66 70 67 63 68 64 69 65 70 66 71 67 72 5 73 6 74
REMARK SMILES IDX 7 75 8 76 9 77 10 78 31 79 11 80 30 81 12 82 13 84 14 85
REMARK SMILES IDX 28 86 15 87 17 88 29 89 16 90 18 91 19 92 23 93 20 94 22 95
REMARK SMILES IDX 21 96 24 97 27 98 25 99 26 100
REMARK H PARENT 91 22 57 33 12 83
REMARK Flexibility Score: inf
ROOT
ATOM      1  C   UNL A   1      31.914  30.522  26.460  1.00  0.00     0.275 C 
ENDROOT
BRANCH   1   2
ATOM      2  O   UNL A   1      33.198  30.298  27.045  1.00  0.00    -0.458 OA
BRANCH   2   3
ATOM      3  C   UNL A   1      34.061  31.192  27.570  1.00  0.00     0.338 C 
ATOM      4  O   UNL A   1      33.661  32.349  27.716  1.00  0.00    -0.246 OA
BRANCH   3   5
ATOM      5  C   UNL A   1      35.496  30.905  27.925  1.00  0.00     0.060 A 
ATOM      6  C   UNL A   1      36.535  31.811  28.161  1.00  0.00     0.016 A 
ATOM      7  C   UNL A   1      35.778  29.551  28.149  1.00  0.00     0.016 A 
ATOM      8  C   UNL A   1      37.758  31.395  28.712  1.00  0.00     0.010 A 
ATOM      9  C   UNL A   1      36.946  29.156  28.803  1.00  0.00     0.010 A 
ATOM     10  C   UNL A   1      37.958  30.070  29.102  1.00  0.00    -0.014 A 
BRANCH  10  11
ATOM     11  C   UNL A   1      39.225  29.646  29.759  1.00  0.00     0.031 A 
ATOM     12  C   UNL A   1      39.548  30.171  31.138  1.00  0.00     0.074 A 
ATOM     13  C   UNL A   1      40.084  28.800  29.141  1.00  0.00     0.049 A 
ATOM     14  N   UNL A   1      40.523  29.827  31.938  1.00  0.00    -0.248 NA
ATOM     15  C   UNL A   1      38.701  31.251  31.674  1.00  0.00     0.031 C 
ATOM     16  C   UNL A   1      39.974  28.320  27.758  1.00  0.00     0.029 A 
ATOM     17  N   UNL A   1      41.220  28.176  29.600  1.00  0.00    -0.354 N 
ATOM     18  C   UNL A   1      40.363  30.618  33.068  1.00  0.00     0.074 A 
ATOM     19  C   UNL A   1      39.342  31.590  32.777  1.00  0.00     0.031 C 
ATOM     20  C   UNL A   1      40.971  27.457  27.499  1.00  0.00     0.029 A 
ATOM     21  C   UNL A   1      41.785  27.299  28.697  1.00  0.00     0.049 A 
ATOM     22  H   UNL A   1      41.597  28.340  30.495  1.00  0.00     0.167 HD
ATOM     23  C   UNL A   1      40.912  30.474  34.294  1.00  0.00     0.037 A 
ATOM     24  C   UNL A   1      42.811  26.434  28.840  1.00  0.00     0.037 A 
ATOM     25  C   UNL A   1      41.903  29.488  34.597  1.00  0.00     0.049 A 
ATOM     26  C   UNL A   1      43.443  26.304  30.205  1.00  0.00     0.074 A 
ATOM     27  C   UNL A   1      42.524  29.229  35.803  1.00  0.00     0.029 A 
ATOM     28  N   UNL A   1      42.415  28.594  33.670  1.00  0.00    -0.354 N 
ATOM     29  N   UNL A   1      43.160  26.953  31.311  1.00  0.00    -0.248 NA
ATOM     30  C   UNL A   1      44.503  25.297  30.357  1.00  0.00     0.031 C 
ATOM     31  C   UNL A   1      43.448  28.201  35.592  1.00  0.00     0.029 A 
ATOM     32  C   UNL A   1      43.361  27.789  34.270  1.00  0.00     0.049 A 
ATOM     33  H   UNL A   1      42.144  28.542  32.725  1.00  0.00     0.167 HD
ATOM     34  C   UNL A   1      43.979  26.408  32.294  1.00  0.00     0.074 A 
ATOM     35  C   UNL A   1      44.750  25.361  31.658  1.00  0.00     0.031 C 
ATOM     36  C   UNL A   1      44.091  26.740  33.605  1.00  0.00     0.037 A 
BRANCH  23  37
ATOM     37  C   UNL A   1      40.368  31.357  35.379  1.00  0.00     0.058 A 
ATOM     38  C   UNL A   1      41.133  32.426  35.885  1.00  0.00     0.135 A 
ATOM     39  C   UNL A   1      39.119  31.111  35.963  1.00  0.00     0.135 A 
ATOM     40  F   UNL A   1      42.355  32.681  35.387  1.00  0.00    -0.206 F 
ATOM     41  C   UNL A   1      40.696  33.191  36.958  1.00  0.00     0.059 A 
ATOM     42  C   UNL A   1      38.647  31.886  37.018  1.00  0.00     0.059 A 
ATOM     43  F   UNL A   1      38.359  30.094  35.528  1.00  0.00    -0.206 F 
ATOM     44  C   UNL A   1      39.450  32.912  37.519  1.00  0.00     0.060 A 
BRANCH  44  45
ATOM     45  S   UNL A   1      38.901  33.913  38.916  1.00  0.00     0.124 S 
ATOM     46  O   UNL A   1      37.628  33.281  39.246  1.00  0.00    -0.237 OA
ATOM     47  O   UNL A   1      39.977  33.712  39.880  1.00  0.00    -0.237 OA
ATOM     48  O   UNL A   1      38.808  35.256  38.353  1.00  0.00    -0.744 OA
ENDBRANCH  44  45
ENDBRANCH  23  37
BRANCH  24  49
ATOM     49  C   UNL A   1      43.265  25.569  27.708  1.00  0.00     0.058 A 
ATOM     50  C   UNL A   1      42.795  24.253  27.555  1.00  0.00     0.135 A 
ATOM     51  C   UNL A   1      44.229  26.016  26.791  1.00  0.00     0.135 A 
ATOM     52  F   UNL A   1      41.871  23.770  28.400  1.00  0.00    -0.206 F 
ATOM     53  C   UNL A   1      43.297  23.400  26.573  1.00  0.00     0.059 A 
ATOM     54  C   UNL A   1      44.728  25.191  25.783  1.00  0.00     0.059 A 
ATOM     55  F   UNL A   1      44.701  27.270  26.871  1.00  0.00    -0.206 F 
ATOM     56  C   UNL A   1      44.273  23.876  25.696  1.00  0.00     0.060 A 
BRANCH  56  57
ATOM     57  S   UNL A   1      44.926  22.757  24.436  1.00  0.00     0.124 S 
ATOM     58  O   UNL A   1      43.766  22.578  23.570  1.00  0.00    -0.237 OA
ATOM     59  O   UNL A   1      46.026  23.536  23.875  1.00  0.00    -0.237 OA
ATOM     60  O   UNL A   1      45.327  21.582  25.204  1.00  0.00    -0.744 OA
ENDBRANCH  56  57
ENDBRANCH  24  49
BRANCH  36  61
ATOM     61  C   UNL A   1      45.048  25.944  34.441  1.00  0.00     0.058 A 
ATOM     62  C   UNL A   1      46.368  26.368  34.652  1.00  0.00     0.135 A 
ATOM     63  C   UNL A   1      44.613  24.782  35.101  1.00  0.00     0.135 A 
ATOM     64  F   UNL A   1      46.829  27.472  34.044  1.00  0.00    -0.206 F 
ATOM     65  C   UNL A   1      47.235  25.652  35.468  1.00  0.00     0.059 A 
ATOM     66  C   UNL A   1      45.451  24.072  35.950  1.00  0.00     0.059 A 
ATOM     67  F   UNL A   1      43.352  24.347  34.945  1.00  0.00    -0.206 F 
ATOM     68  C   UNL A   1      46.765  24.507  36.115  1.00  0.00     0.060 A 
BRANCH  68  69
ATOM     69  S   UNL A   1      47.890  23.608  37.201  1.00  0.00     0.124 S 
ATOM     70  O   UNL A   1      47.011  23.273  38.317  1.00  0.00    -0.237 OA
ATOM     71  O   UNL A   1      48.306  22.489  36.363  1.00  0.00    -0.237 OA
ATOM     72  O   UNL A   1      48.933  24.586  37.494  1.00  0.00    -0.744 OA
ENDBRANCH  68  69
ENDBRANCH  36  61
ENDBRANCH  10  11
ENDBRANCH   3   5
ENDBRANCH   2   3
ENDBRANCH   1   2
BRANCH   1  73
ATOM     73  C   UNL A   1      31.793  30.079  24.998  1.00  0.00     0.274 C 
BRANCH  73  74
ATOM     74  O   UNL A   1      30.635  29.283  24.674  1.00  0.00    -0.462 OA
BRANCH  74  75
ATOM     75  C   UNL A   1      30.643  28.696  23.438  1.00  0.00     0.309 C 
ATOM     76  O   UNL A   1      30.551  29.321  22.390  1.00  0.00    -0.252 OA
BRANCH  75  77
ATOM     77  C   UNL A   1      30.582  27.170  23.530  1.00  0.00     0.110 C 
ATOM     78  C   UNL A   1      30.926  26.584  24.897  1.00  0.00     0.077 C 
ATOM     79  C   UNL A   1      31.412  26.502  22.420  1.00  0.00     0.077 C 
ATOM     80  C   UNL A   1      32.410  26.302  25.093  1.00  0.00     0.263 C 
ATOM     81  C   UNL A   1      32.900  26.341  22.775  1.00  0.00     0.263 C 
ATOM     82  N   UNL A   1      32.954  25.523  23.986  1.00  0.00    -0.324 N 
ATOM     83  H   UNL A   1      32.399  24.701  23.747  1.00  0.00     0.348 HD
BRANCH  82  84
ATOM     84  C   UNL A   1      34.247  24.915  24.383  1.00  0.00     0.284 C 
ATOM     85  C   UNL A   1      34.114  24.572  25.866  1.00  0.00     0.176 C 
ATOM     86  C   UNL A   1      34.484  23.533  23.796  1.00  0.00     0.292 C 
ATOM     87  C   UNL A   1      33.476  23.214  25.812  1.00  0.00     0.240 C 
ATOM     88  N   UNL A   1      33.841  22.636  24.621  1.00  0.00    -0.245 N 
ATOM     89  O   UNL A   1      35.062  23.321  22.745  1.00  0.00    -0.267 OA
ATOM     90  O   UNL A   1      32.861  22.709  26.745  1.00  0.00    -0.274 OA
BRANCH  88  91
ATOM     91  C   UNL A   1      33.554  21.310  24.258  1.00  0.00     0.056 A 
ATOM     92  C   UNL A   1      32.425  21.006  23.488  1.00  0.00     0.031 A 
ATOM     93  C   UNL A   1      34.391  20.277  24.696  1.00  0.00     0.077 A 
ATOM     94  C   UNL A   1      32.157  19.685  23.124  1.00  0.00     0.052 A 
ATOM     95  C   UNL A   1      34.090  18.956  24.379  1.00  0.00     0.163 A 
ATOM     96  C   UNL A   1      32.977  18.659  23.588  1.00  0.00     0.161 A 
ATOM     97  O   UNL A   1      34.917  18.000  24.909  1.00  0.00    -0.486 OA
ATOM     98  O   UNL A   1      32.632  17.382  23.226  1.00  0.00    -0.486 OA
ATOM     99  C   UNL A   1      34.747  16.742  24.253  1.00  0.00     0.271 C 
ATOM    100  C   UNL A   1      33.274  16.417  24.067  1.00  0.00     0.271 C 
ENDBRANCH  88  91
ENDBRANCH  82  84
ENDBRANCH  75  77
ENDBRANCH  74  75
ENDBRANCH  73  74
ENDBRANCH   1  73
TORSDOF 16
ENDMDL
MODEL 3
REMARK VINA RESULT:     -12.3      5.116     11.497
REMARK SMILES O=C(OCCOC(=O)C1CC[NH+]([C@H]2CC(=O)N(c3ccc4c(c3)OCCO4)C2=O)CC1)c1ccc(-c2c3nc(c(-c4c(F)cc(S(=O)(=O)[O-])cc4F)c4ccc([nH]4)c(-c4c(F)cc(S(=O)(=O)[O-])cc4F)c4nc(c(-c5c(F)cc(S(=O)(=O)[O-])cc5F)c5ccc2[nH]5)C=C4)C=C3)cc1
REMARK SMILES IDX 4 1 3 2 2 3 1 4 32 5 33 6 97 7 34 8 96 9 35 10 36 11 37 12
REMARK SMILES IDX 90 13 38 14 95 15 89 16 91 17 39 18 94 19 88 20 87 21 40 23
REMARK SMILES IDX 74 24 53 25 73 26 54 27 57 28 72 29 92 30 55 31 56 32 71 34
REMARK SMILES IDX 93 35 58 36 41 37 42 38 51 39 43 40 44 41 50 42 52 43 45 44
REMARK SMILES IDX 46 45 47 46 48 47 49 48 75 49 76 50 85 51 77 52 78 53 84 54
REMARK SMILES IDX 86 55 79 56 80 57 81 58 82 59 83 60 59 61 60 62 69 63 61 64
REMARK SMILES IDX 62 65 68 66 70 67 63 68 64 69 65 70 66 71 67 72 5 73 6 74
REMARK SMILES IDX 7 75 8 76 9 77 10 78 31 79 11 80 30 81 12 82 13 84 14 85
REMARK SMILES IDX 28 86 15 87 17 88 29 89 16 90 18 91 19 92 23 93 20 94 22 95
REMARK SMILES IDX 21 96 24 97 27 98 25 99 26 100
REMARK H PARENT 91 22 57 33 12 83
REMARK Flexibility Score: inf
ROOT
ATOM      1  C   UNL A   1      39.096  19.603  25.450  1.00  0.00     0.275 C 
ENDROOT
BRANCH   1   2
ATOM      2  O   UNL A   1      40.207  19.610  26.348  1.00  0.00    -0.458 OA
BRANCH   2   3
ATOM      3  C   UNL A   1      41.517  19.778  26.078  1.00  0.00     0.338 C 
ATOM      4  O   UNL A   1      42.143  18.798  25.669  1.00  0.00    -0.246 OA
BRANCH   3   5
ATOM      5  C   UNL A   1      42.292  21.049  26.306  1.00  0.00     0.060 A 
ATOM      6  C   UNL A   1      42.652  22.030  25.377  1.00  0.00     0.016 A 
ATOM      7  C   UNL A   1      42.585  21.315  27.649  1.00  0.00     0.016 A 
ATOM      8  C   UNL A   1      43.168  23.271  25.786  1.00  0.00     0.010 A 
ATOM      9  C   UNL A   1      42.988  22.586  28.061  1.00  0.00     0.010 A 
ATOM     10  C   UNL A   1      43.284  23.592  27.139  1.00  0.00    -0.014 A 
BRANCH  10  11
ATOM     11  C   UNL A   1      43.756  24.936  27.571  1.00  0.00     0.031 A 
ATOM     12  C   UNL A   1      45.217  25.284  27.422  1.00  0.00     0.074 A 
ATOM     13  C   UNL A   1      42.896  25.845  28.090  1.00  0.00     0.049 A 
ATOM     14  N   UNL A   1      45.809  26.435  27.610  1.00  0.00    -0.248 NA
ATOM     15  C   UNL A   1      46.146  24.198  27.062  1.00  0.00     0.031 C 
ATOM     16  C   UNL A   1      41.485  25.605  28.421  1.00  0.00     0.029 A 
ATOM     17  N   UNL A   1      43.074  27.167  28.421  1.00  0.00    -0.354 N 
ATOM     18  C   UNL A   1      47.152  26.201  27.345  1.00  0.00     0.074 A 
ATOM     19  C   UNL A   1      47.323  24.780  27.188  1.00  0.00     0.031 C 
ATOM     20  C   UNL A   1      40.926  26.742  28.868  1.00  0.00     0.029 A 
ATOM     21  C   UNL A   1      41.923  27.804  28.840  1.00  0.00     0.049 A 
ATOM     22  H   UNL A   1      43.947  27.621  28.365  1.00  0.00     0.167 HD
ATOM     23  C   UNL A   1      48.142  27.090  27.114  1.00  0.00     0.037 A 
ATOM     24  C   UNL A   1      41.693  29.104  29.120  1.00  0.00     0.037 A 
ATOM     25  C   UNL A   1      47.970  28.504  27.236  1.00  0.00     0.049 A 
ATOM     26  C   UNL A   1      42.817  30.087  28.893  1.00  0.00     0.074 A 
ATOM     27  C   UNL A   1      48.888  29.510  27.012  1.00  0.00     0.029 A 
ATOM     28  N   UNL A   1      46.782  29.109  27.618  1.00  0.00    -0.354 N 
ATOM     29  N   UNL A   1      44.042  29.859  28.481  1.00  0.00    -0.248 NA
ATOM     30  C   UNL A   1      42.518  31.507  29.127  1.00  0.00     0.031 C 
ATOM     31  C   UNL A   1      48.265  30.728  27.303  1.00  0.00     0.029 A 
ATOM     32  C   UNL A   1      46.946  30.478  27.656  1.00  0.00     0.049 A 
ATOM     33  H   UNL A   1      45.947  28.632  27.831  1.00  0.00     0.167 HD
ATOM     34  C   UNL A   1      44.647  31.107  28.370  1.00  0.00     0.074 A 
ATOM     35  C   UNL A   1      43.645  32.086  28.736  1.00  0.00     0.031 C 
ATOM     36  C   UNL A   1      45.914  31.422  28.003  1.00  0.00     0.037 A 
BRANCH  23  37
ATOM     37  C   UNL A   1      49.447  26.528  26.629  1.00  0.00     0.058 A 
ATOM     38  C   UNL A   1      50.407  26.051  27.543  1.00  0.00     0.135 A 
ATOM     39  C   UNL A   1      49.776  26.517  25.268  1.00  0.00     0.135 A 
ATOM     40  F   UNL A   1      50.157  26.077  28.863  1.00  0.00    -0.206 F 
ATOM     41  C   UNL A   1      51.661  25.624  27.127  1.00  0.00     0.059 A 
ATOM     42  C   UNL A   1      51.016  26.062  24.826  1.00  0.00     0.059 A 
ATOM     43  F   UNL A   1      48.903  26.976  24.358  1.00  0.00    -0.206 F 
ATOM     44  C   UNL A   1      51.955  25.634  25.764  1.00  0.00     0.060 A 
BRANCH  44  45
ATOM     45  S   UNL A   1      53.592  25.080  25.243  1.00  0.00     0.124 S 
ATOM     46  O   UNL A   1      54.449  25.744  26.221  1.00  0.00    -0.237 OA
ATOM     47  O   UNL A   1      53.483  23.632  25.375  1.00  0.00    -0.237 OA
ATOM     48  O   UNL A   1      53.698  25.579  23.876  1.00  0.00    -0.744 OA
ENDBRANCH  44  45
ENDBRANCH  23  37
BRANCH  24  49
ATOM     49  C   UNL A   1      40.348  29.579  29.569  1.00  0.00     0.058 A 
ATOM     50  C   UNL A   1      39.321  29.851  28.649  1.00  0.00     0.135 A 
ATOM     51  C   UNL A   1      40.079  29.834  30.923  1.00  0.00     0.135 A 
ATOM     52  F   UNL A   1      39.518  29.625  27.340  1.00  0.00    -0.206 F 
ATOM     53  C   UNL A   1      38.104  30.403  29.044  1.00  0.00     0.059 A 
ATOM     54  C   UNL A   1      38.860  30.360  31.347  1.00  0.00     0.059 A 
ATOM     55  F   UNL A   1      41.012  29.573  31.852  1.00  0.00    -0.206 F 
ATOM     56  C   UNL A   1      37.886  30.664  30.397  1.00  0.00     0.060 A 
BRANCH  56  57
ATOM     57  S   UNL A   1      36.308  31.392  30.897  1.00  0.00     0.124 S 
ATOM     58  O   UNL A   1      35.528  31.276  29.671  1.00  0.00    -0.237 OA
ATOM     59  O   UNL A   1      35.903  30.519  31.996  1.00  0.00    -0.237 OA
ATOM     60  O   UNL A   1      36.673  32.750  31.288  1.00  0.00    -0.744 OA
ENDBRANCH  56  57
ENDBRANCH  24  49
BRANCH  36  61
ATOM     61  C   UNL A   1      46.276  32.876  27.943  1.00  0.00     0.058 A 
ATOM     62  C   UNL A   1      45.977  33.663  26.822  1.00  0.00     0.135 A 
ATOM     63  C   UNL A   1      46.862  33.504  29.055  1.00  0.00     0.135 A 
ATOM     64  F   UNL A   1      45.416  33.108  25.736  1.00  0.00    -0.206 F 
ATOM     65  C   UNL A   1      46.270  35.021  26.793  1.00  0.00     0.059 A 
ATOM     66  C   UNL A   1      47.131  34.867  29.061  1.00  0.00     0.059 A 
ATOM     67  F   UNL A   1      47.150  32.796  30.159  1.00  0.00    -0.206 F 
ATOM     68  C   UNL A   1      46.845  35.613  27.920  1.00  0.00     0.060 A 
BRANCH  68  69
ATOM     69  S   UNL A   1      47.186  37.384  27.883  1.00  0.00     0.124 S 
ATOM     70  O   UNL A   1      47.838  37.528  26.585  1.00  0.00    -0.237 OA
ATOM     71  O   UNL A   1      45.850  37.961  27.990  1.00  0.00    -0.237 OA
ATOM     72  O   UNL A   1      48.046  37.588  29.044  1.00  0.00    -0.744 OA
ENDBRANCH  68  69
ENDBRANCH  36  61
ENDBRANCH  10  11
ENDBRANCH   3   5
ENDBRANCH   2   3
ENDBRANCH   1   2
BRANCH   1  73
ATOM     73  C   UNL A   1      38.325  20.926  25.377  1.00  0.00     0.274 C 
BRANCH  73  74
ATOM     74  O   UNL A   1      37.077  20.889  24.657  1.00  0.00    -0.462 OA
BRANCH  74  75
ATOM     75  C   UNL A   1      36.571  22.105  24.280  1.00  0.00     0.309 C 
ATOM     76  O   UNL A   1      36.798  22.627  23.196  1.00  0.00    -0.252 OA
BRANCH  75  77
ATOM     77  C   UNL A   1      35.859  22.809  25.436  1.00  0.00     0.110 C 
ATOM     78  C   UNL A   1      34.918  21.932  26.257  1.00  0.00     0.077 C 
ATOM     79  C   UNL A   1      35.147  24.090  24.966  1.00  0.00     0.077 C 
ATOM     80  C   UNL A   1      33.494  21.882  25.721  1.00  0.00     0.263 C 
ATOM     81  C   UNL A   1      33.735  23.842  24.411  1.00  0.00     0.263 C 
ATOM     82  N   UNL A   1      32.966  23.222  25.489  1.00  0.00    -0.324 N 
ATOM     83  H   UNL A   1      33.096  23.859  26.275  1.00  0.00     0.348 HD
BRANCH  82  84
ATOM     84  C   UNL A   1      31.488  23.171  25.377  1.00  0.00     0.284 C 
ATOM     85  C   UNL A   1      30.946  23.909  26.601  1.00  0.00     0.176 C 
ATOM     86  C   UNL A   1      30.925  24.031  24.258  1.00  0.00     0.292 C 
ATOM     87  C   UNL A   1      30.947  25.333  26.126  1.00  0.00     0.240 C 
ATOM     88  N   UNL A   1      30.814  25.310  24.758  1.00  0.00    -0.245 N 
ATOM     89  O   UNL A   1      30.714  23.636  23.125  1.00  0.00    -0.267 OA
ATOM     90  O   UNL A   1      30.937  26.305  26.873  1.00  0.00    -0.274 OA
BRANCH  88  91
ATOM     91  C   UNL A   1      30.638  26.449  23.956  1.00  0.00     0.056 A 
ATOM     92  C   UNL A   1      31.719  27.018  23.271  1.00  0.00     0.031 A 
ATOM     93  C   UNL A   1      29.373  27.040  23.862  1.00  0.00     0.077 A 
ATOM     94  C   UNL A   1      31.529  28.143  22.467  1.00  0.00     0.052 A 
ATOM     95  C   UNL A   1      29.199  28.195  23.106  1.00  0.00     0.163 A 
ATOM     96  C   UNL A   1      30.274  28.743  22.402  1.00  0.00     0.161 A 
ATOM     97  O   UNL A   1      27.947  28.753  23.126  1.00  0.00    -0.486 OA
ATOM     98  O   UNL A   1      30.168  29.869  21.626  1.00  0.00    -0.486 OA
ATOM     99  C   UNL A   1      27.778  29.696  22.067  1.00  0.00     0.271 C 
ATOM    100  C   UNL A   1      28.987  30.610  21.951  1.00  0.00     0.271 C 
ENDBRANCH  88  91
ENDBRANCH  82  84
ENDBRANCH  75  77
ENDBRANCH  74  75
ENDBRANCH  73  74
ENDBRANCH   1  73
TORSDOF 16
ENDMDL
