MODEL 1
REMARK VINA RESULT:     -13.2      0.000      0.000
REMARK SMILES Cc1c(CC(=O)OCCOC(=O)c2ccc(-c3c4nc(c(-c5c(F)cc(S(=O)(=O)[O-])cc5F)c5ccc([nH]5)c(-c5c(F)cc(S(=O)(=O)[O-])cc5F)c5nc(c(-c6c(F)cc(S(=O)(=O)[O-])cc6F)c6ccc3[nH]6)C=C5)C=C4)cc2)cccc1-c1ccn(C(F)F)c(=O)c1
REMARK SMILES IDX 8 1 7 2 5 3 6 4 4 5 3 6 1 7 2 8 82 9 79 10 81 11 80 12 83 13
REMARK SMILES IDX 84 14 92 15 85 16 90 17 86 18 91 19 87 20 88 21 89 22 9 23
REMARK SMILES IDX 10 24 11 25 12 26 13 27 14 28 78 29 15 30 77 31 16 32 17 33
REMARK SMILES IDX 18 34 71 35 19 36 76 37 70 38 72 39 20 40 75 41 69 42 68 43
REMARK SMILES IDX 21 45 55 46 34 47 54 48 35 49 38 50 53 51 73 52 36 53 37 54
REMARK SMILES IDX 52 56 74 57 39 58 22 59 23 60 32 61 24 62 25 63 31 64 33 65
REMARK SMILES IDX 26 66 27 67 28 68 29 69 30 70 56 71 57 72 66 73 58 74 59 75
REMARK SMILES IDX 65 76 67 77 60 78 61 79 62 80 63 81 64 82 40 83 41 84 50 85
REMARK SMILES IDX 42 86 43 87 49 88 51 89 44 90 45 91 46 92 47 93 48 94
REMARK H PARENT 72 44 38 55
REMARK Flexibility Score: inf
ROOT
ATOM      1  C   UNL A   1      41.298  20.614  26.939  1.00  0.00     0.274 C 
ENDROOT
BRANCH   1   2
ATOM      2  O   UNL A   1      40.250  20.136  26.073  1.00  0.00    -0.462 OA
BRANCH   2   3
ATOM      3  C   UNL A   1      39.090  20.994  25.938  1.00  0.00     0.310 C 
ATOM      4  O   UNL A   1      39.438  22.090  26.474  1.00  0.00    -0.252 OA
BRANCH   3   5
ATOM      5  C   UNL A   1      37.223  20.426  24.982  1.00  0.00     0.158 C 
BRANCH   5   6
ATOM      6  C   UNL A   1      35.677  21.159  24.802  1.00  0.00    -0.033 A 
ATOM      7  C   UNL A   1      36.701  23.259  23.755  1.00  0.00     0.045 C 
ATOM      8  C   UNL A   1      35.540  22.504  24.359  1.00  0.00    -0.039 A 
ATOM      9  C   UNL A   1      34.255  23.096  24.419  1.00  0.00    -0.015 A 
ATOM     10  C   UNL A   1      34.502  20.386  24.942  1.00  0.00     0.004 A 
ATOM     11  C   UNL A   1      33.139  22.350  24.823  1.00  0.00     0.009 A 
ATOM     12  C   UNL A   1      33.256  20.986  25.033  1.00  0.00     0.001 A 
BRANCH   9  13
ATOM     13  C   UNL A   1      34.030  24.487  23.998  1.00  0.00    -0.011 A 
ATOM     14  C   UNL A   1      33.894  25.558  24.963  1.00  0.00     0.027 A 
ATOM     15  C   UNL A   1      33.855  24.737  22.691  1.00  0.00     0.080 A 
ATOM     16  C   UNL A   1      33.470  26.763  24.570  1.00  0.00     0.095 A 
ATOM     17  C   UNL A   1      33.471  26.099  22.233  1.00  0.00     0.255 A 
ATOM     18  N   UNL A   1      33.227  27.026  23.235  1.00  0.00    -0.258 N 
ATOM     19  O   UNL A   1      33.373  26.309  21.027  1.00  0.00    -0.269 OA
BRANCH  18  20
ATOM     20  C   UNL A   1      32.702  28.301  22.831  1.00  0.00     0.451 C 
ATOM     21  F   UNL A   1      31.854  28.799  23.763  1.00  0.00    -0.185 F 
ATOM     22  F   UNL A   1      33.696  29.201  22.641  1.00  0.00    -0.185 F 
ENDBRANCH  18  20
ENDBRANCH   9  13
ENDBRANCH   5   6
ENDBRANCH   3   5
ENDBRANCH   2   3
ENDBRANCH   1   2
BRANCH   1  23
ATOM     23  C   UNL A   1      42.584  20.746  26.113  1.00  0.00     0.275 C 
BRANCH  23  24
ATOM     24  O   UNL A   1      42.743  22.036  25.472  1.00  0.00    -0.458 OA
BRANCH  24  25
ATOM     25  C   UNL A   1      43.262  23.060  26.200  1.00  0.00     0.338 C 
ATOM     26  O   UNL A   1      44.398  23.125  26.635  1.00  0.00    -0.246 OA
BRANCH  25  27
ATOM     27  C   UNL A   1      42.269  24.143  26.344  1.00  0.00     0.060 A 
ATOM     28  C   UNL A   1      42.308  25.552  25.214  1.00  0.00     0.016 A 
ATOM     29  C   UNL A   1      41.618  24.332  28.014  1.00  0.00     0.016 A 
ATOM     30  C   UNL A   1      41.887  27.220  25.841  1.00  0.00     0.010 A 
ATOM     31  C   UNL A   1      41.226  25.977  28.629  1.00  0.00     0.010 A 
ATOM     32  C   UNL A   1      41.447  27.423  27.569  1.00  0.00    -0.014 A 
BRANCH  32  33
ATOM     33  C   UNL A   1      41.766  28.609  28.354  1.00  0.00     0.031 A 
ATOM     34  C   UNL A   1      40.717  29.603  28.638  1.00  0.00     0.074 A 
ATOM     35  C   UNL A   1      42.912  28.589  29.079  1.00  0.00     0.049 A 
ATOM     36  N   UNL A   1      40.944  30.713  29.245  1.00  0.00    -0.248 NA
ATOM     37  C   UNL A   1      39.321  29.465  28.230  1.00  0.00     0.031 C 
ATOM     38  C   UNL A   1      43.251  29.374  30.262  1.00  0.00     0.029 A 
ATOM     39  N   UNL A   1      44.100  27.913  28.832  1.00  0.00    -0.354 N 
ATOM     40  C   UNL A   1      39.731  31.231  29.627  1.00  0.00     0.074 A 
ATOM     41  C   UNL A   1      38.763  30.519  28.834  1.00  0.00     0.031 C 
ATOM     42  C   UNL A   1      44.587  29.373  30.415  1.00  0.00     0.029 A 
ATOM     43  C   UNL A   1      45.157  28.710  29.253  1.00  0.00     0.049 A 
ATOM     44  H   UNL A   1      44.179  27.018  28.426  1.00  0.00     0.167 HD
ATOM     45  C   UNL A   1      39.709  32.100  30.675  1.00  0.00     0.037 A 
ATOM     46  C   UNL A   1      46.017  29.269  28.348  1.00  0.00     0.037 A 
ATOM     47  C   UNL A   1      41.069  32.561  30.983  1.00  0.00     0.049 A 
ATOM     48  C   UNL A   1      45.800  30.780  28.232  1.00  0.00     0.074 A 
ATOM     49  C   UNL A   1      41.995  32.350  31.989  1.00  0.00     0.029 A 
ATOM     50  N   UNL A   1      41.776  33.167  29.957  1.00  0.00    -0.354 N 
ATOM     51  N   UNL A   1      45.001  31.469  29.008  1.00  0.00    -0.248 NA
ATOM     52  C   UNL A   1      46.407  31.630  27.208  1.00  0.00     0.031 C 
ATOM     53  C   UNL A   1      43.288  32.717  31.475  1.00  0.00     0.029 A 
ATOM     54  C   UNL A   1      43.135  33.205  30.186  1.00  0.00     0.049 A 
ATOM     55  H   UNL A   1      41.351  33.531  29.148  1.00  0.00     0.167 HD
ATOM     56  C   UNL A   1      44.884  32.756  28.559  1.00  0.00     0.074 A 
ATOM     57  C   UNL A   1      45.811  32.815  27.438  1.00  0.00     0.031 C 
ATOM     58  C   UNL A   1      44.008  33.661  29.098  1.00  0.00     0.037 A 
BRANCH  45  59
ATOM     59  C   UNL A   1      38.481  32.452  31.486  1.00  0.00     0.058 A 
ATOM     60  C   UNL A   1      37.564  33.407  31.000  1.00  0.00     0.135 A 
ATOM     61  C   UNL A   1      38.200  31.977  32.789  1.00  0.00     0.135 A 
ATOM     62  F   UNL A   1      37.724  33.964  29.790  1.00  0.00    -0.206 F 
ATOM     63  C   UNL A   1      36.461  33.850  31.740  1.00  0.00     0.059 A 
ATOM     64  C   UNL A   1      37.077  32.365  33.525  1.00  0.00     0.059 A 
ATOM     65  F   UNL A   1      39.032  31.163  33.450  1.00  0.00    -0.206 F 
ATOM     66  C   UNL A   1      36.221  33.318  33.001  1.00  0.00     0.060 A 
BRANCH  66  67
ATOM     67  S   UNL A   1      34.812  33.904  33.959  1.00  0.00     0.124 S 
ATOM     68  O   UNL A   1      35.214  33.565  35.320  1.00  0.00    -0.237 OA
ATOM     69  O   UNL A   1      34.788  35.327  33.637  1.00  0.00    -0.237 OA
ATOM     70  O   UNL A   1      33.693  33.130  33.428  1.00  0.00    -0.744 OA
ENDBRANCH  66  67
ENDBRANCH  45  59
BRANCH  46  71
ATOM     71  C   UNL A   1      46.433  28.307  27.274  1.00  0.00     0.058 A 
ATOM     72  C   UNL A   1      45.723  28.356  26.052  1.00  0.00     0.135 A 
ATOM     73  C   UNL A   1      47.679  27.666  27.246  1.00  0.00     0.135 A 
ATOM     74  F   UNL A   1      44.503  28.917  26.013  1.00  0.00    -0.206 F 
ATOM     75  C   UNL A   1      46.282  27.942  24.842  1.00  0.00     0.059 A 
ATOM     76  C   UNL A   1      48.249  27.216  26.043  1.00  0.00     0.059 A 
ATOM     77  F   UNL A   1      48.426  27.594  28.357  1.00  0.00    -0.206 F 
ATOM     78  C   UNL A   1      47.570  27.415  24.840  1.00  0.00     0.060 A 
BRANCH  78  79
ATOM     79  S   UNL A   1      48.381  27.129  23.243  1.00  0.00     0.124 S 
ATOM     80  O   UNL A   1      48.421  25.673  23.175  1.00  0.00    -0.237 OA
ATOM     81  O   UNL A   1      47.474  27.781  22.306  1.00  0.00    -0.237 OA
ATOM     82  O   UNL A   1      49.676  27.786  23.401  1.00  0.00    -0.744 OA
ENDBRANCH  78  79
ENDBRANCH  46  71
BRANCH  58  83
ATOM     83  C   UNL A   1      43.887  35.080  28.592  1.00  0.00     0.058 A 
ATOM     84  C   UNL A   1      44.197  36.186  29.399  1.00  0.00     0.135 A 
ATOM     85  C   UNL A   1      43.343  35.385  27.321  1.00  0.00     0.135 A 
ATOM     86  F   UNL A   1      44.663  36.014  30.647  1.00  0.00    -0.206 F 
ATOM     87  C   UNL A   1      44.028  37.500  28.960  1.00  0.00     0.059 A 
ATOM     88  C   UNL A   1      43.097  36.685  26.891  1.00  0.00     0.059 A 
ATOM     89  F   UNL A   1      43.069  34.432  26.420  1.00  0.00    -0.206 F 
ATOM     90  C   UNL A   1      43.474  37.739  27.705  1.00  0.00     0.060 A 
BRANCH  90  91
ATOM     91  S   UNL A   1      43.248  39.432  27.135  1.00  0.00     0.124 S 
ATOM     92  O   UNL A   1      44.382  39.617  26.234  1.00  0.00    -0.237 OA
ATOM     93  O   UNL A   1      41.939  39.347  26.495  1.00  0.00    -0.237 OA
ATOM     94  O   UNL A   1      43.296  40.216  28.365  1.00  0.00    -0.744 OA
ENDBRANCH  90  91
ENDBRANCH  58  83
ENDBRANCH  32  33
ENDBRANCH  25  27
ENDBRANCH  24  25
ENDBRANCH  23  24
ENDBRANCH   1  23
TORSDOF 17
ENDMDL
MODEL 2
REMARK VINA RESULT:     -13.0      1.720      2.560
REMARK SMILES Cc1c(CC(=O)OCCOC(=O)c2ccc(-c3c4nc(c(-c5c(F)cc(S(=O)(=O)[O-])cc5F)c5ccc([nH]5)c(-c5c(F)cc(S(=O)(=O)[O-])cc5F)c5nc(c(-c6c(F)cc(S(=O)(=O)[O-])cc6F)c6ccc3[nH]6)C=C5)C=C4)cc2)cccc1-c1ccn(C(F)F)c(=O)c1
REMARK SMILES IDX 8 1 7 2 5 3 6 4 4 5 3 6 1 7 2 8 82 9 79 10 81 11 80 12 83 13
REMARK SMILES IDX 84 14 92 15 85 16 90 17 86 18 91 19 87 20 88 21 89 22 9 23
REMARK SMILES IDX 10 24 11 25 12 26 13 27 14 28 78 29 15 30 77 31 16 32 17 33
REMARK SMILES IDX 18 34 71 35 19 36 76 37 70 38 72 39 20 40 75 41 69 42 68 43
REMARK SMILES IDX 21 45 55 46 34 47 54 48 35 49 38 50 53 51 73 52 36 53 37 54
REMARK SMILES IDX 52 56 74 57 39 58 22 59 23 60 32 61 24 62 25 63 31 64 33 65
REMARK SMILES IDX 26 66 27 67 28 68 29 69 30 70 56 71 57 72 66 73 58 74 59 75
REMARK SMILES IDX 65 76 67 77 60 78 61 79 62 80 63 81 64 82 40 83 41 84 50 85
REMARK SMILES IDX 42 86 43 87 49 88 51 89 44 90 45 91 46 92 47 93 48 94
REMARK H PARENT 72 44 38 55
REMARK Flexibility Score: inf
ROOT
ATOM      1  C   UNL A   1      38.873  20.725  25.436  1.00  0.00     0.274 C 
ENDROOT
BRANCH   1   2
ATOM      2  O   UNL A   1      38.187  21.991  25.379  1.00  0.00    -0.462 OA
BRANCH   2   3
ATOM      3  C   UNL A   1      36.749  21.947  25.554  1.00  0.00     0.310 C 
ATOM      4  O   UNL A   1      36.436  20.736  25.338  1.00  0.00    -0.252 OA
BRANCH   3   5
ATOM      5  C   UNL A   1      35.506  23.645  26.096  1.00  0.00     0.158 C 
BRANCH   5   6
ATOM      6  C   UNL A   1      33.812  23.945  26.146  1.00  0.00    -0.033 A 
ATOM      7  C   UNL A   1      34.019  25.869  24.469  1.00  0.00     0.045 C 
ATOM      8  C   UNL A   1      33.237  25.062  25.479  1.00  0.00    -0.039 A 
ATOM      9  C   UNL A   1      31.872  25.351  25.722  1.00  0.00    -0.015 A 
ATOM     10  C   UNL A   1      32.938  22.997  26.723  1.00  0.00     0.004 A 
ATOM     11  C   UNL A   1      31.093  24.510  26.530  1.00  0.00     0.009 A 
ATOM     12  C   UNL A   1      31.613  23.310  26.985  1.00  0.00     0.001 A 
BRANCH   9  13
ATOM     13  C   UNL A   1      31.204  26.498  25.088  1.00  0.00    -0.011 A 
ATOM     14  C   UNL A   1      30.247  26.320  24.016  1.00  0.00     0.027 A 
ATOM     15  C   UNL A   1      31.574  27.734  25.457  1.00  0.00     0.080 A 
ATOM     16  C   UNL A   1      29.828  27.374  23.311  1.00  0.00     0.095 A 
ATOM     17  C   UNL A   1      31.043  28.922  24.736  1.00  0.00     0.255 A 
ATOM     18  N   UNL A   1      30.242  28.652  23.636  1.00  0.00    -0.258 N 
ATOM     19  O   UNL A   1      31.357  30.040  25.133  1.00  0.00    -0.269 OA
BRANCH  18  20
ATOM     20  C   UNL A   1      29.845  29.772  22.828  1.00  0.00     0.451 C 
ATOM     21  F   UNL A   1      30.537  29.804  21.663  1.00  0.00    -0.185 F 
ATOM     22  F   UNL A   1      28.525  29.719  22.533  1.00  0.00    -0.185 F 
ENDBRANCH  18  20
ENDBRANCH   9  13
ENDBRANCH   5   6
ENDBRANCH   3   5
ENDBRANCH   2   3
ENDBRANCH   1   2
BRANCH   1  23
ATOM     23  C   UNL A   1      40.035  20.852  26.430  1.00  0.00     0.275 C 
BRANCH  23  24
ATOM     24  O   UNL A   1      41.230  21.449  25.866  1.00  0.00    -0.458 OA
BRANCH  24  25
ATOM     25  C   UNL A   1      41.890  22.386  26.596  1.00  0.00     0.338 C 
ATOM     26  O   UNL A   1      42.936  22.218  27.199  1.00  0.00    -0.246 OA
BRANCH  25  27
ATOM     27  C   UNL A   1      41.198  23.686  26.511  1.00  0.00     0.060 A 
ATOM     28  C   UNL A   1      41.808  24.955  25.377  1.00  0.00     0.016 A 
ATOM     29  C   UNL A   1      40.311  24.154  28.009  1.00  0.00     0.016 A 
ATOM     30  C   UNL A   1      41.715  26.717  25.865  1.00  0.00     0.010 A 
ATOM     31  C   UNL A   1      40.242  25.886  28.491  1.00  0.00     0.010 A 
ATOM     32  C   UNL A   1      41.022  27.151  27.463  1.00  0.00    -0.014 A 
BRANCH  32  33
ATOM     33  C   UNL A   1      41.478  28.278  28.268  1.00  0.00     0.031 A 
ATOM     34  C   UNL A   1      40.544  29.370  28.593  1.00  0.00     0.074 A 
ATOM     35  C   UNL A   1      42.627  28.120  28.970  1.00  0.00     0.049 A 
ATOM     36  N   UNL A   1      40.898  30.434  29.220  1.00  0.00    -0.248 NA
ATOM     37  C   UNL A   1      39.135  29.389  28.208  1.00  0.00     0.031 C 
ATOM     38  C   UNL A   1      43.066  28.836  30.163  1.00  0.00     0.029 A 
ATOM     39  N   UNL A   1      43.732  27.327  28.686  1.00  0.00    -0.354 N 
ATOM     40  C   UNL A   1      39.753  31.068  29.635  1.00  0.00     0.074 A 
ATOM     41  C   UNL A   1      38.702  30.482  28.846  1.00  0.00     0.031 C 
ATOM     42  C   UNL A   1      44.397  28.690  30.291  1.00  0.00     0.029 A 
ATOM     43  C   UNL A   1      44.875  27.999  29.105  1.00  0.00     0.049 A 
ATOM     44  H   UNL A   1      43.710  26.440  28.260  1.00  0.00     0.167 HD
ATOM     45  C   UNL A   1      39.840  31.910  30.702  1.00  0.00     0.037 A 
ATOM     46  C   UNL A   1      45.774  28.486  28.196  1.00  0.00     0.037 A 
ATOM     47  C   UNL A   1      41.246  32.218  30.995  1.00  0.00     0.049 A 
ATOM     48  C   UNL A   1      45.716  30.013  28.117  1.00  0.00     0.074 A 
ATOM     49  C   UNL A   1      42.161  31.887  31.978  1.00  0.00     0.029 A 
ATOM     50  N   UNL A   1      41.996  32.770  29.969  1.00  0.00    -0.354 N 
ATOM     51  N   UNL A   1      45.008  30.764  28.923  1.00  0.00    -0.248 NA
ATOM     52  C   UNL A   1      46.393  30.818  27.100  1.00  0.00     0.031 C 
ATOM     53  C   UNL A   1      43.477  32.127  31.447  1.00  0.00     0.029 A 
ATOM     54  C   UNL A   1      43.356  32.658  30.173  1.00  0.00     0.049 A 
ATOM     55  H   UNL A   1      41.599  33.196  29.176  1.00  0.00     0.167 HD
ATOM     56  C   UNL A   1      45.020  32.066  28.504  1.00  0.00     0.074 A 
ATOM     57  C   UNL A   1      45.929  32.054  27.367  1.00  0.00     0.031 C 
ATOM     58  C   UNL A   1      44.253  33.045  29.079  1.00  0.00     0.037 A 
BRANCH  45  59
ATOM     59  C   UNL A   1      38.670  32.371  31.544  1.00  0.00     0.058 A 
ATOM     60  C   UNL A   1      38.043  33.603  31.266  1.00  0.00     0.135 A 
ATOM     61  C   UNL A   1      38.185  31.711  32.698  1.00  0.00     0.135 A 
ATOM     62  F   UNL A   1      38.423  34.350  30.218  1.00  0.00    -0.206 F 
ATOM     63  C   UNL A   1      37.021  34.134  32.062  1.00  0.00     0.059 A 
ATOM     64  C   UNL A   1      37.130  32.195  33.477  1.00  0.00     0.059 A 
ATOM     65  F   UNL A   1      38.750  30.595  33.175  1.00  0.00    -0.206 F 
ATOM     66  C   UNL A   1      36.566  33.420  33.163  1.00  0.00     0.060 A 
BRANCH  66  67
ATOM     67  S   UNL A   1      35.263  34.114  34.197  1.00  0.00     0.124 S 
ATOM     68  O   UNL A   1      35.322  35.528  33.842  1.00  0.00    -0.237 OA
ATOM     69  O   UNL A   1      34.083  33.390  33.736  1.00  0.00    -0.237 OA
ATOM     70  O   UNL A   1      35.697  33.794  35.554  1.00  0.00    -0.744 OA
ENDBRANCH  66  67
ENDBRANCH  45  59
BRANCH  46  71
ATOM     71  C   UNL A   1      46.068  27.510  27.094  1.00  0.00     0.058 A 
ATOM     72  C   UNL A   1      46.932  26.433  27.398  1.00  0.00     0.135 A 
ATOM     73  C   UNL A   1      45.270  27.366  25.951  1.00  0.00     0.135 A 
ATOM     74  F   UNL A   1      47.757  26.519  28.454  1.00  0.00    -0.206 F 
ATOM     75  C   UNL A   1      46.890  25.220  26.709  1.00  0.00     0.059 A 
ATOM     76  C   UNL A   1      45.232  26.163  25.226  1.00  0.00     0.059 A 
ATOM     77  F   UNL A   1      44.407  28.332  25.603  1.00  0.00    -0.206 F 
ATOM     78  C   UNL A   1      45.999  25.076  25.650  1.00  0.00     0.060 A 
BRANCH  78  79
ATOM     79  S   UNL A   1      45.765  23.425  24.937  1.00  0.00     0.124 S 
ATOM     80  O   UNL A   1      44.373  23.470  24.507  1.00  0.00    -0.237 OA
ATOM     81  O   UNL A   1      46.756  23.400  23.867  1.00  0.00    -0.237 OA
ATOM     82  O   UNL A   1      46.049  22.531  26.056  1.00  0.00    -0.744 OA
ENDBRANCH  78  79
ENDBRANCH  46  71
BRANCH  58  83
ATOM     83  C   UNL A   1      44.275  34.481  28.606  1.00  0.00     0.058 A 
ATOM     84  C   UNL A   1      44.866  35.504  29.364  1.00  0.00     0.135 A 
ATOM     85  C   UNL A   1      43.601  34.901  27.434  1.00  0.00     0.135 A 
ATOM     86  F   UNL A   1      45.482  35.228  30.525  1.00  0.00    -0.206 F 
ATOM     87  C   UNL A   1      44.836  36.841  28.964  1.00  0.00     0.059 A 
ATOM     88  C   UNL A   1      43.493  36.235  27.055  1.00  0.00     0.059 A 
ATOM     89  F   UNL A   1      43.054  34.026  26.580  1.00  0.00    -0.206 F 
ATOM     90  C   UNL A   1      44.144  37.197  27.809  1.00  0.00     0.060 A 
BRANCH  90  91
ATOM     91  S   UNL A   1      44.094  38.921  27.290  1.00  0.00     0.124 S 
ATOM     92  O   UNL A   1      44.129  39.635  28.563  1.00  0.00    -0.237 OA
ATOM     93  O   UNL A   1      45.304  39.012  26.479  1.00  0.00    -0.237 OA
ATOM     94  O   UNL A   1      42.836  39.020  26.556  1.00  0.00    -0.744 OA
ENDBRANCH  90  91
ENDBRANCH  58  83
ENDBRANCH  32  33
ENDBRANCH  25  27
ENDBRANCH  24  25
ENDBRANCH  23  24
ENDBRANCH   1  23
TORSDOF 17
ENDMDL
MODEL 3
REMARK VINA RESULT:     -12.9      4.764     11.625
REMARK SMILES Cc1c(CC(=O)OCCOC(=O)c2ccc(-c3c4nc(c(-c5c(F)cc(S(=O)(=O)[O-])cc5F)c5ccc([nH]5)c(-c5c(F)cc(S(=O)(=O)[O-])cc5F)c5nc(c(-c6c(F)cc(S(=O)(=O)[O-])cc6F)c6ccc3[nH]6)C=C5)C=C4)cc2)cccc1-c1ccn(C(F)F)c(=O)c1
REMARK SMILES IDX 8 1 7 2 5 3 6 4 4 5 3 6 1 7 2 8 82 9 79 10 81 11 80 12 83 13
REMARK SMILES IDX 84 14 92 15 85 16 90 17 86 18 91 19 87 20 88 21 89 22 9 23
REMARK SMILES IDX 10 24 11 25 12 26 13 27 14 28 78 29 15 30 77 31 16 32 17 33
REMARK SMILES IDX 18 34 71 35 19 36 76 37 70 38 72 39 20 40 75 41 69 42 68 43
REMARK SMILES IDX 21 45 55 46 34 47 54 48 35 49 38 50 53 51 73 52 36 53 37 54
REMARK SMILES IDX 52 56 74 57 39 58 22 59 23 60 32 61 24 62 25 63 31 64 33 65
REMARK SMILES IDX 26 66 27 67 28 68 29 69 30 70 56 71 57 72 66 73 58 74 59 75
REMARK SMILES IDX 65 76 67 77 60 78 61 79 62 80 63 81 64 82 40 83 41 84 50 85
REMARK SMILES IDX 42 86 43 87 49 88 51 89 44 90 45 91 46 92 47 93 48 94
REMARK H PARENT 72 44 38 55
REMARK Flexibility Score: inf
ROOT
ATOM      1  C   UNL A   1      33.842  32.824  27.766  1.00  0.00     0.274 C 
ENDROOT
BRANCH   1   2
ATOM      2  O   UNL A   1      33.278  31.519  28.003  1.00  0.00    -0.462 OA
BRANCH   2   3
ATOM      3  C   UNL A   1      33.347  30.582  26.900  1.00  0.00     0.310 C 
ATOM      4  O   UNL A   1      34.551  30.182  26.895  1.00  0.00    -0.252 OA
BRANCH   3   5
ATOM      5  C   UNL A   1      31.679  30.037  25.619  1.00  0.00     0.158 C 
BRANCH   5   6
ATOM      6  C   UNL A   1      31.225  28.624  24.748  1.00  0.00    -0.033 A 
ATOM      7  C   UNL A   1      32.357  27.100  26.466  1.00  0.00     0.045 C 
ATOM      8  C   UNL A   1      31.689  27.335  25.131  1.00  0.00    -0.039 A 
ATOM      9  C   UNL A   1      31.431  26.249  24.258  1.00  0.00    -0.015 A 
ATOM     10  C   UNL A   1      30.252  28.700  23.726  1.00  0.00     0.004 A 
ATOM     11  C   UNL A   1      30.669  26.429  23.096  1.00  0.00     0.009 A 
ATOM     12  C   UNL A   1      30.039  27.639  22.860  1.00  0.00     0.001 A 
BRANCH   9  13
ATOM     13  C   UNL A   1      31.893  24.888  24.569  1.00  0.00    -0.011 A 
ATOM     14  C   UNL A   1      33.231  24.447  24.234  1.00  0.00     0.027 A 
ATOM     15  C   UNL A   1      31.011  24.020  25.089  1.00  0.00     0.080 A 
ATOM     16  C   UNL A   1      33.549  23.152  24.321  1.00  0.00     0.095 A 
ATOM     17  C   UNL A   1      31.386  22.592  25.274  1.00  0.00     0.255 A 
ATOM     18  N   UNL A   1      32.637  22.230  24.798  1.00  0.00    -0.258 N 
ATOM     19  O   UNL A   1      30.577  21.835  25.803  1.00  0.00    -0.269 OA
BRANCH  18  20
ATOM     20  C   UNL A   1      32.963  20.830  24.819  1.00  0.00     0.451 C 
ATOM     21  F   UNL A   1      32.948  20.343  26.083  1.00  0.00    -0.185 F 
ATOM     22  F   UNL A   1      32.085  20.112  24.080  1.00  0.00    -0.185 F 
ENDBRANCH  18  20
ENDBRANCH   9  13
ENDBRANCH   5   6
ENDBRANCH   3   5
ENDBRANCH   2   3
ENDBRANCH   1   2
BRANCH   1  23
ATOM     23  C   UNL A   1      34.800  33.151  28.918  1.00  0.00     0.275 C 
BRANCH  23  24
ATOM     24  O   UNL A   1      35.523  32.002  29.427  1.00  0.00    -0.458 OA
BRANCH  24  25
ATOM     25  C   UNL A   1      36.820  31.838  29.055  1.00  0.00     0.338 C 
ATOM     26  O   UNL A   1      37.653  32.720  28.954  1.00  0.00    -0.246 OA
BRANCH  25  27
ATOM     27  C   UNL A   1      37.117  30.407  28.846  1.00  0.00     0.060 A 
ATOM     28  C   UNL A   1      37.026  29.259  30.239  1.00  0.00     0.016 A 
ATOM     29  C   UNL A   1      38.223  30.074  27.463  1.00  0.00     0.016 A 
ATOM     30  C   UNL A   1      38.219  27.874  30.343  1.00  0.00     0.010 A 
ATOM     31  C   UNL A   1      39.406  28.723  27.582  1.00  0.00     0.010 A 
ATOM     32  C   UNL A   1      39.459  27.685  29.059  1.00  0.00    -0.014 A 
BRANCH  32  33
ATOM     33  C   UNL A   1      40.804  27.174  29.297  1.00  0.00     0.031 A 
ATOM     34  C   UNL A   1      41.140  25.792  28.915  1.00  0.00     0.074 A 
ATOM     35  C   UNL A   1      41.782  28.081  29.541  1.00  0.00     0.049 A 
ATOM     36  N   UNL A   1      42.273  25.246  29.174  1.00  0.00    -0.248 NA
ATOM     37  C   UNL A   1      40.219  24.878  28.242  1.00  0.00     0.031 C 
ATOM     38  C   UNL A   1      43.222  27.931  29.356  1.00  0.00     0.029 A 
ATOM     39  N   UNL A   1      41.696  29.335  30.131  1.00  0.00    -0.354 N 
ATOM     40  C   UNL A   1      42.368  24.109  28.411  1.00  0.00     0.074 A 
ATOM     41  C   UNL A   1      41.019  23.836  27.989  1.00  0.00     0.031 C 
ATOM     42  C   UNL A   1      43.852  28.865  30.091  1.00  0.00     0.029 A 
ATOM     43  C   UNL A   1      42.844  29.548  30.884  1.00  0.00     0.049 A 
ATOM     44  H   UNL A   1      40.946  29.967  30.032  1.00  0.00     0.167 HD
ATOM     45  C   UNL A   1      43.612  23.633  28.126  1.00  0.00     0.037 A 
ATOM     46  C   UNL A   1      42.788  29.593  32.250  1.00  0.00     0.037 A 
ATOM     47  C   UNL A   1      44.614  24.276  28.986  1.00  0.00     0.049 A 
ATOM     48  C   UNL A   1      43.416  28.345  32.875  1.00  0.00     0.074 A 
ATOM     49  C   UNL A   1      45.619  25.213  28.827  1.00  0.00     0.029 A 
ATOM     50  N   UNL A   1      44.432  24.164  30.355  1.00  0.00    -0.354 N 
ATOM     51  N   UNL A   1      44.060  27.428  32.197  1.00  0.00    -0.248 NA
ATOM     52  C   UNL A   1      43.326  27.992  34.292  1.00  0.00     0.031 C 
ATOM     53  C   UNL A   1      45.923  25.750  30.127  1.00  0.00     0.029 A 
ATOM     54  C   UNL A   1      45.149  25.098  31.074  1.00  0.00     0.049 A 
ATOM     55  H   UNL A   1      43.849  23.489  30.771  1.00  0.00     0.167 HD
ATOM     56  C   UNL A   1      44.356  26.357  32.995  1.00  0.00     0.074 A 
ATOM     57  C   UNL A   1      43.898  26.772  34.312  1.00  0.00     0.031 C 
ATOM     58  C   UNL A   1      44.905  25.196  32.517  1.00  0.00     0.037 A 
BRANCH  45  59
ATOM     59  C   UNL A   1      43.938  22.670  27.004  1.00  0.00     0.058 A 
ATOM     60  C   UNL A   1      43.327  21.400  26.964  1.00  0.00     0.135 A 
ATOM     61  C   UNL A   1      44.916  22.884  26.003  1.00  0.00     0.135 A 
ATOM     62  F   UNL A   1      42.402  21.051  27.871  1.00  0.00    -0.206 F 
ATOM     63  C   UNL A   1      43.654  20.427  26.013  1.00  0.00     0.059 A 
ATOM     64  C   UNL A   1      45.221  21.948  25.011  1.00  0.00     0.059 A 
ATOM     65  F   UNL A   1      45.678  23.983  25.971  1.00  0.00    -0.206 F 
ATOM     66  C   UNL A   1      44.599  20.711  25.035  1.00  0.00     0.060 A 
BRANCH  66  67
ATOM     67  S   UNL A   1      45.031  19.450  23.823  1.00  0.00     0.124 S 
ATOM     68  O   UNL A   1      44.323  18.284  24.339  1.00  0.00    -0.237 OA
ATOM     69  O   UNL A   1      44.508  20.017  22.584  1.00  0.00    -0.237 OA
ATOM     70  O   UNL A   1      46.488  19.382  23.907  1.00  0.00    -0.744 OA
ENDBRANCH  66  67
ENDBRANCH  45  59
BRANCH  46  71
ATOM     71  C   UNL A   1      41.627  30.399  32.755  1.00  0.00     0.058 A 
ATOM     72  C   UNL A   1      40.470  29.689  33.151  1.00  0.00     0.135 A 
ATOM     73  C   UNL A   1      41.741  31.716  33.223  1.00  0.00     0.135 A 
ATOM     74  F   UNL A   1      40.273  28.437  32.706  1.00  0.00    -0.206 F 
ATOM     75  C   UNL A   1      39.563  30.193  34.085  1.00  0.00     0.059 A 
ATOM     76  C   UNL A   1      40.824  32.253  34.143  1.00  0.00     0.059 A 
ATOM     77  F   UNL A   1      42.817  32.452  32.912  1.00  0.00    -0.206 F 
ATOM     78  C   UNL A   1      39.775  31.461  34.614  1.00  0.00     0.060 A 
BRANCH  78  79
ATOM     79  S   UNL A   1      38.749  31.996  36.011  1.00  0.00     0.124 S 
ATOM     80  O   UNL A   1      39.445  33.194  36.463  1.00  0.00    -0.237 OA
ATOM     81  O   UNL A   1      37.451  32.218  35.383  1.00  0.00    -0.237 OA
ATOM     82  O   UNL A   1      38.801  30.856  36.922  1.00  0.00    -0.744 OA
ENDBRANCH  78  79
ENDBRANCH  46  71
BRANCH  58  83
ATOM     83  C   UNL A   1      45.227  24.019  33.409  1.00  0.00     0.058 A 
ATOM     84  C   UNL A   1      44.276  23.029  33.705  1.00  0.00     0.135 A 
ATOM     85  C   UNL A   1      46.461  23.905  34.093  1.00  0.00     0.135 A 
ATOM     86  F   UNL A   1      43.051  23.071  33.159  1.00  0.00    -0.206 F 
ATOM     87  C   UNL A   1      44.547  21.973  34.577  1.00  0.00     0.059 A 
ATOM     88  C   UNL A   1      46.726  22.905  35.023  1.00  0.00     0.059 A 
ATOM     89  F   UNL A   1      47.483  24.738  33.853  1.00  0.00    -0.206 F 
ATOM     90  C   UNL A   1      45.774  21.922  35.234  1.00  0.00     0.060 A 
BRANCH  90  91
ATOM     91  S   UNL A   1      46.128  20.566  36.366  1.00  0.00     0.124 S 
ATOM     92  O   UNL A   1      45.664  21.094  37.646  1.00  0.00    -0.237 OA
ATOM     93  O   UNL A   1      45.320  19.495  35.793  1.00  0.00    -0.237 OA
ATOM     94  O   UNL A   1      47.572  20.394  36.251  1.00  0.00    -0.744 OA
ENDBRANCH  90  91
ENDBRANCH  58  83
ENDBRANCH  32  33
ENDBRANCH  25  27
ENDBRANCH  24  25
ENDBRANCH  23  24
ENDBRANCH   1  23
TORSDOF 17
ENDMDL
