MODEL 1
REMARK VINA RESULT:     -13.2      0.000      0.000
REMARK SMILES CCC(=O)Nc1ccc2nc(N3CC[NH+](CC(=O)N4CCCC4)CC3)cc(C(=O)OCCOC(=O)c3ccc(-c4c5nc(c(-c6c(F)cc(S(=O)(=O)[O-])cc6F)c6ccc([nH]6)c(-c6c(F)cc(S(=O)(=O)[O-])cc6F)c6nc(c(-c7c(F)cc(S(=O)(=O)[O-])cc7F)c7ccc4[nH]7)C=C6)C=C5)cc3)c2c1
REMARK SMILES IDX 31 1 30 2 28 3 29 4 27 5 6 6 7 7 103 8 8 9 102 10 9 11 10 12
REMARK SMILES IDX 26 13 11 14 5 15 3 16 4 17 2 19 1 20 12 21 13 22 25 23 14 24
REMARK SMILES IDX 24 25 15 26 16 28 17 29 18 30 19 31 20 32 23 33 21 34 22 35
REMARK SMILES IDX 32 36 33 37 34 38 35 39 36 40 37 41 101 42 38 43 100 44
REMARK SMILES IDX 39 45 40 46 41 47 94 48 42 49 99 50 93 51 95 52 43 53 98 54
REMARK SMILES IDX 92 55 91 56 44 58 78 59 57 60 77 61 58 62 61 63 76 64 96 65
REMARK SMILES IDX 59 66 60 67 75 69 97 70 62 71 45 72 46 73 55 74 47 75 48 76
REMARK SMILES IDX 54 77 56 78 49 79 50 80 51 81 52 82 53 83 79 84 80 85 89 86
REMARK SMILES IDX 81 87 82 88 88 89 90 90 83 91 84 92 85 93 86 94 87 95 63 96
REMARK SMILES IDX 64 97 73 98 65 99 66 100 72 101 74 102 67 103 68 104 69 105
REMARK SMILES IDX 70 106 71 107
REMARK H PARENT 5 18 15 27 95 57 61 68
REMARK Flexibility Score: inf
ROOT
ATOM      1  C   UNL A   1      32.799  30.595  27.211  1.00  0.00     0.275 C 
ENDROOT
BRANCH   1   2
ATOM      2  O   UNL A   1      33.047  29.239  26.785  1.00  0.00    -0.458 OA
BRANCH   2   3
ATOM      3  C   UNL A   1      32.012  28.383  26.937  1.00  0.00     0.339 C 
ATOM      4  O   UNL A   1      31.412  28.140  27.975  1.00  0.00    -0.246 OA
BRANCH   3   5
ATOM      5  C   UNL A   1      31.649  27.721  25.671  1.00  0.00     0.073 A 
ATOM      6  C   UNL A   1      29.984  30.284  23.493  1.00  0.00     0.041 A 
ATOM      7  C   UNL A   1      30.132  29.647  22.270  1.00  0.00     0.028 A 
ATOM      8  C   UNL A   1      30.581  29.747  24.627  1.00  0.00     0.037 A 
ATOM      9  C   UNL A   1      30.709  28.386  22.214  1.00  0.00     0.031 A 
ATOM     10  C   UNL A   1      31.126  28.438  24.582  1.00  0.00     0.017 A 
ATOM     11  C   UNL A   1      31.142  27.748  23.359  1.00  0.00     0.074 A 
ATOM     12  N   UNL A   1      31.559  26.490  23.221  1.00  0.00    -0.231 NA
ATOM     13  C   UNL A   1      32.023  26.380  25.528  1.00  0.00     0.063 A 
ATOM     14  C   UNL A   1      31.955  25.770  24.289  1.00  0.00     0.130 A 
BRANCH   6  15
ATOM     15  N   UNL A   1      29.199  31.433  23.613  1.00  0.00    -0.326 N 
ATOM     16  C   UNL A   1      28.564  32.098  22.592  1.00  0.00     0.224 C 
ATOM     17  O   UNL A   1      28.032  33.187  22.819  1.00  0.00    -0.275 OA
ATOM     18  H   UNL A   1      29.089  31.802  24.518  1.00  0.00     0.169 HD
BRANCH  16  19
ATOM     19  C   UNL A   1      28.409  31.422  21.232  1.00  0.00     0.097 C 
ATOM     20  C   UNL A   1      27.875  32.328  20.140  1.00  0.00     0.014 C 
ENDBRANCH  16  19
ENDBRANCH   6  15
BRANCH  14  21
ATOM     21  N   UNL A   1      32.327  24.452  24.066  1.00  0.00    -0.345 N 
ATOM     22  C   UNL A   1      31.607  23.339  24.704  1.00  0.00     0.179 C 
ATOM     23  C   UNL A   1      33.750  24.292  23.747  1.00  0.00     0.179 C 
ATOM     24  C   UNL A   1      32.125  21.943  24.285  1.00  0.00     0.284 C 
ATOM     25  C   UNL A   1      34.170  22.856  23.414  1.00  0.00     0.284 C 
ATOM     26  N   UNL A   1      33.583  21.794  24.222  1.00  0.00    -0.324 N 
ATOM     27  H   UNL A   1      33.761  20.920  23.726  1.00  0.00     0.348 HD
BRANCH  26  28
ATOM     28  C   UNL A   1      34.272  21.465  25.480  1.00  0.00     0.363 C 
BRANCH  28  29
ATOM     29  C   UNL A   1      35.719  20.968  25.384  1.00  0.00     0.277 C 
ATOM     30  O   UNL A   1      35.962  19.832  24.963  1.00  0.00    -0.268 OA
ATOM     31  N   UNL A   1      36.752  21.815  25.723  1.00  0.00    -0.338 N 
ATOM     32  C   UNL A   1      36.701  23.116  26.365  1.00  0.00     0.119 C 
ATOM     33  C   UNL A   1      38.121  21.452  25.387  1.00  0.00     0.119 C 
ATOM     34  C   UNL A   1      38.083  23.713  26.136  1.00  0.00     0.023 C 
ATOM     35  C   UNL A   1      38.985  22.488  26.087  1.00  0.00     0.023 C 
ENDBRANCH  28  29
ENDBRANCH  26  28
ENDBRANCH  14  21
ENDBRANCH   3   5
ENDBRANCH   2   3
ENDBRANCH   1   2
BRANCH   1  36
ATOM     36  C   UNL A   1      34.070  31.248  27.744  1.00  0.00     0.275 C 
BRANCH  36  37
ATOM     37  O   UNL A   1      34.937  30.245  28.296  1.00  0.00    -0.458 OA
BRANCH  37  38
ATOM     38  C   UNL A   1      35.929  30.712  29.082  1.00  0.00     0.338 C 
ATOM     39  O   UNL A   1      35.863  31.617  29.904  1.00  0.00    -0.246 OA
BRANCH  38  40
ATOM     40  C   UNL A   1      37.156  29.941  28.849  1.00  0.00     0.060 A 
ATOM     41  C   UNL A   1      37.841  29.403  29.936  1.00  0.00     0.016 A 
ATOM     42  C   UNL A   1      37.713  29.894  27.573  1.00  0.00     0.016 A 
ATOM     43  C   UNL A   1      39.145  28.943  29.774  1.00  0.00     0.010 A 
ATOM     44  C   UNL A   1      38.978  29.327  27.396  1.00  0.00     0.010 A 
ATOM     45  C   UNL A   1      39.735  28.900  28.503  1.00  0.00    -0.014 A 
BRANCH  45  46
ATOM     46  C   UNL A   1      41.158  28.485  28.336  1.00  0.00     0.031 A 
ATOM     47  C   UNL A   1      42.262  29.489  28.566  1.00  0.00     0.074 A 
ATOM     48  C   UNL A   1      41.478  27.220  27.999  1.00  0.00     0.049 A 
ATOM     49  N   UNL A   1      43.531  29.411  28.258  1.00  0.00    -0.248 NA
ATOM     50  C   UNL A   1      41.880  30.761  29.201  1.00  0.00     0.031 C 
ATOM     51  C   UNL A   1      40.528  26.124  27.800  1.00  0.00     0.029 A 
ATOM     52  N   UNL A   1      42.702  26.637  27.781  1.00  0.00    -0.354 N 
ATOM     53  C   UNL A   1      44.077  30.650  28.578  1.00  0.00     0.074 A 
ATOM     54  C   UNL A   1      43.007  31.455  29.123  1.00  0.00     0.031 C 
ATOM     55  C   UNL A   1      41.204  24.992  27.556  1.00  0.00     0.029 A 
ATOM     56  C   UNL A   1      42.629  25.296  27.489  1.00  0.00     0.049 A 
ATOM     57  H   UNL A   1      43.552  27.132  27.829  1.00  0.00     0.167 HD
ATOM     58  C   UNL A   1      45.353  31.077  28.416  1.00  0.00     0.037 A 
ATOM     59  C   UNL A   1      43.596  24.412  27.174  1.00  0.00     0.037 A 
ATOM     60  C   UNL A   1      46.431  30.238  27.960  1.00  0.00     0.049 A 
ATOM     61  C   UNL A   1      45.016  24.887  27.067  1.00  0.00     0.074 A 
ATOM     62  C   UNL A   1      47.757  30.574  27.743  1.00  0.00     0.029 A 
ATOM     63  N   UNL A   1      46.316  28.881  27.694  1.00  0.00    -0.354 N 
ATOM     64  N   UNL A   1      45.497  26.094  27.251  1.00  0.00    -0.248 NA
ATOM     65  C   UNL A   1      46.023  23.889  26.685  1.00  0.00     0.031 C 
ATOM     66  C   UNL A   1      48.441  29.421  27.340  1.00  0.00     0.029 A 
ATOM     67  C   UNL A   1      47.547  28.362  27.331  1.00  0.00     0.049 A 
ATOM     68  H   UNL A   1      45.479  28.364  27.754  1.00  0.00     0.167 HD
ATOM     69  C   UNL A   1      46.860  26.000  27.004  1.00  0.00     0.074 A 
ATOM     70  C   UNL A   1      47.134  24.614  26.683  1.00  0.00     0.031 C 
ATOM     71  C   UNL A   1      47.799  26.979  27.025  1.00  0.00     0.037 A 
BRANCH  58  72
ATOM     72  C   UNL A   1      45.642  32.526  28.689  1.00  0.00     0.058 A 
ATOM     73  C   UNL A   1      46.083  32.980  29.940  1.00  0.00     0.135 A 
ATOM     74  C   UNL A   1      45.486  33.476  27.665  1.00  0.00     0.135 A 
ATOM     75  F   UNL A   1      46.228  32.119  30.959  1.00  0.00    -0.206 F 
ATOM     76  C   UNL A   1      46.337  34.329  30.176  1.00  0.00     0.059 A 
ATOM     77  C   UNL A   1      45.755  34.826  27.871  1.00  0.00     0.059 A 
ATOM     78  F   UNL A   1      45.064  33.095  26.448  1.00  0.00    -0.206 F 
ATOM     79  C   UNL A   1      46.165  35.245  29.135  1.00  0.00     0.060 A 
BRANCH  79  80
ATOM     80  S   UNL A   1      46.492  36.993  29.447  1.00  0.00     0.124 S 
ATOM     81  O   UNL A   1      46.748  36.989  30.883  1.00  0.00    -0.237 OA
ATOM     82  O   UNL A   1      47.650  37.257  28.599  1.00  0.00    -0.237 OA
ATOM     83  O   UNL A   1      45.255  37.648  29.030  1.00  0.00    -0.744 OA
ENDBRANCH  79  80
ENDBRANCH  58  72
BRANCH  59  84
ATOM     84  C   UNL A   1      43.240  22.994  26.914  1.00  0.00     0.058 A 
ATOM     85  C   UNL A   1      43.370  22.444  25.631  1.00  0.00     0.135 A 
ATOM     86  C   UNL A   1      42.802  22.150  27.947  1.00  0.00     0.135 A 
ATOM     87  F   UNL A   1      43.776  23.212  24.609  1.00  0.00    -0.206 F 
ATOM     88  C   UNL A   1      43.080  21.107  25.380  1.00  0.00     0.059 A 
ATOM     89  C   UNL A   1      42.529  20.805  27.725  1.00  0.00     0.059 A 
ATOM     90  F   UNL A   1      42.672  22.627  29.195  1.00  0.00    -0.206 F 
ATOM     91  C   UNL A   1      42.666  20.293  26.435  1.00  0.00     0.060 A 
BRANCH  91  92
ATOM     92  S   UNL A   1      42.375  18.537  26.127  1.00  0.00     0.124 S 
ATOM     93  O   UNL A   1      42.697  17.954  27.425  1.00  0.00    -0.237 OA
ATOM     94  O   UNL A   1      40.965  18.515  25.750  1.00  0.00    -0.237 OA
ATOM     95  O   UNL A   1      43.307  18.232  25.046  1.00  0.00    -0.744 OA
ENDBRANCH  91  92
ENDBRANCH  59  84
BRANCH  71  96
ATOM     96  C   UNL A   1      49.210  26.574  26.716  1.00  0.00     0.058 A 
ATOM     97  C   UNL A   1      49.732  26.682  25.419  1.00  0.00     0.135 A 
ATOM     98  C   UNL A   1      50.054  26.101  27.732  1.00  0.00     0.135 A 
ATOM     99  F   UNL A   1      48.961  27.123  24.413  1.00  0.00    -0.206 F 
ATOM    100  C   UNL A   1      51.042  26.311  25.134  1.00  0.00     0.059 A 
ATOM    101  C   UNL A   1      51.372  25.741  27.473  1.00  0.00     0.059 A 
ATOM    102  F   UNL A   1      49.599  25.988  28.991  1.00  0.00    -0.206 F 
ATOM    103  C   UNL A   1      51.853  25.837  26.167  1.00  0.00     0.060 A 
BRANCH 103 104
ATOM    104  S   UNL A   1      53.557  25.371  25.795  1.00  0.00     0.124 S 
ATOM    105  O   UNL A   1      53.397  23.983  25.376  1.00  0.00    -0.237 OA
ATOM    106  O   UNL A   1      53.921  26.313  24.740  1.00  0.00    -0.237 OA
ATOM    107  O   UNL A   1      54.246  25.570  27.066  1.00  0.00    -0.744 OA
ENDBRANCH 103 104
ENDBRANCH  71  96
ENDBRANCH  45  46
ENDBRANCH  38  40
ENDBRANCH  37  38
ENDBRANCH  36  37
ENDBRANCH   1  36
TORSDOF 19
ENDMDL
MODEL 2
REMARK VINA RESULT:     -13.2      1.277      2.066
REMARK SMILES CCC(=O)Nc1ccc2nc(N3CC[NH+](CC(=O)N4CCCC4)CC3)cc(C(=O)OCCOC(=O)c3ccc(-c4c5nc(c(-c6c(F)cc(S(=O)(=O)[O-])cc6F)c6ccc([nH]6)c(-c6c(F)cc(S(=O)(=O)[O-])cc6F)c6nc(c(-c7c(F)cc(S(=O)(=O)[O-])cc7F)c7ccc4[nH]7)C=C6)C=C5)cc3)c2c1
REMARK SMILES IDX 31 1 30 2 28 3 29 4 27 5 6 6 7 7 103 8 8 9 102 10 9 11 10 12
REMARK SMILES IDX 26 13 11 14 5 15 3 16 4 17 2 19 1 20 12 21 13 22 25 23 14 24
REMARK SMILES IDX 24 25 15 26 16 28 17 29 18 30 19 31 20 32 23 33 21 34 22 35
REMARK SMILES IDX 32 36 33 37 34 38 35 39 36 40 37 41 101 42 38 43 100 44
REMARK SMILES IDX 39 45 40 46 41 47 94 48 42 49 99 50 93 51 95 52 43 53 98 54
REMARK SMILES IDX 92 55 91 56 44 58 78 59 57 60 77 61 58 62 61 63 76 64 96 65
REMARK SMILES IDX 59 66 60 67 75 69 97 70 62 71 45 72 46 73 55 74 47 75 48 76
REMARK SMILES IDX 54 77 56 78 49 79 50 80 51 81 52 82 53 83 79 84 80 85 89 86
REMARK SMILES IDX 81 87 82 88 88 89 90 90 83 91 84 92 85 93 86 94 87 95 63 96
REMARK SMILES IDX 64 97 73 98 65 99 66 100 72 101 74 102 67 103 68 104 69 105
REMARK SMILES IDX 70 106 71 107
REMARK H PARENT 5 18 15 27 95 57 61 68
REMARK Flexibility Score: inf
ROOT
ATOM      1  C   UNL A   1      33.216  30.517  27.265  1.00  0.00     0.275 C 
ENDROOT
BRANCH   1   2
ATOM      2  O   UNL A   1      33.446  29.093  27.281  1.00  0.00    -0.458 OA
BRANCH   2   3
ATOM      3  C   UNL A   1      32.336  28.324  27.203  1.00  0.00     0.339 C 
ATOM      4  O   UNL A   1      31.486  28.180  28.069  1.00  0.00    -0.246 OA
BRANCH   3   5
ATOM      5  C   UNL A   1      32.235  27.627  25.908  1.00  0.00     0.073 A 
ATOM      6  C   UNL A   1      30.283  29.835  23.585  1.00  0.00     0.041 A 
ATOM      7  C   UNL A   1      30.670  29.266  22.381  1.00  0.00     0.028 A 
ATOM      8  C   UNL A   1      30.872  29.410  24.770  1.00  0.00     0.037 A 
ATOM      9  C   UNL A   1      31.498  28.151  22.378  1.00  0.00     0.031 A 
ATOM     10  C   UNL A   1      31.678  28.242  24.775  1.00  0.00     0.017 A 
ATOM     11  C   UNL A   1      31.947  27.595  23.559  1.00  0.00     0.074 A 
ATOM     12  N   UNL A   1      32.625  26.451  23.460  1.00  0.00    -0.231 NA
ATOM     13  C   UNL A   1      32.889  26.394  25.801  1.00  0.00     0.063 A 
ATOM     14  C   UNL A   1      33.063  25.808  24.560  1.00  0.00     0.130 A 
BRANCH   6  15
ATOM     15  N   UNL A   1      29.270  30.795  23.631  1.00  0.00    -0.326 N 
ATOM     16  C   UNL A   1      28.032  30.704  23.042  1.00  0.00     0.224 C 
ATOM     17  O   UNL A   1      27.293  31.692  23.033  1.00  0.00    -0.275 OA
ATOM     18  H   UNL A   1      29.461  31.618  24.135  1.00  0.00     0.169 HD
BRANCH  16  19
ATOM     19  C   UNL A   1      27.536  29.354  22.531  1.00  0.00     0.097 C 
ATOM     20  C   UNL A   1      26.799  28.525  23.565  1.00  0.00     0.014 C 
ENDBRANCH  16  19
ENDBRANCH   6  15
BRANCH  14  21
ATOM     21  N   UNL A   1      33.717  24.599  24.372  1.00  0.00    -0.345 N 
ATOM     22  C   UNL A   1      33.067  23.482  23.671  1.00  0.00     0.179 C 
ATOM     23  C   UNL A   1      34.714  24.307  25.408  1.00  0.00     0.179 C 
ATOM     24  C   UNL A   1      33.975  22.241  23.503  1.00  0.00     0.284 C 
ATOM     25  C   UNL A   1      35.511  23.017  25.180  1.00  0.00     0.284 C 
ATOM     26  N   UNL A   1      34.771  21.867  24.677  1.00  0.00    -0.324 N 
ATOM     27  H   UNL A   1      35.466  21.194  24.350  1.00  0.00     0.348 HD
BRANCH  26  28
ATOM     28  C   UNL A   1      34.113  21.017  25.682  1.00  0.00     0.363 C 
BRANCH  28  29
ATOM     29  C   UNL A   1      33.030  20.050  25.188  1.00  0.00     0.277 C 
ATOM     30  O   UNL A   1      31.836  20.361  25.258  1.00  0.00    -0.268 OA
ATOM     31  N   UNL A   1      33.398  18.850  24.619  1.00  0.00    -0.338 N 
ATOM     32  C   UNL A   1      34.707  18.222  24.565  1.00  0.00     0.119 C 
ATOM     33  C   UNL A   1      32.407  18.052  23.914  1.00  0.00     0.119 C 
ATOM     34  C   UNL A   1      34.568  17.133  23.510  1.00  0.00     0.023 C 
ATOM     35  C   UNL A   1      33.103  16.733  23.617  1.00  0.00     0.023 C 
ENDBRANCH  28  29
ENDBRANCH  26  28
ENDBRANCH  14  21
ENDBRANCH   3   5
ENDBRANCH   2   3
ENDBRANCH   1   2
BRANCH   1  36
ATOM     36  C   UNL A   1      34.325  31.263  28.000  1.00  0.00     0.275 C 
BRANCH  36  37
ATOM     37  O   UNL A   1      35.190  30.324  28.657  1.00  0.00    -0.458 OA
BRANCH  37  38
ATOM     38  C   UNL A   1      36.215  30.869  29.346  1.00  0.00     0.338 C 
ATOM     39  O   UNL A   1      36.173  31.830  30.103  1.00  0.00    -0.246 OA
BRANCH  38  40
ATOM     40  C   UNL A   1      37.446  30.110  29.095  1.00  0.00     0.060 A 
ATOM     41  C   UNL A   1      38.225  29.698  30.173  1.00  0.00     0.016 A 
ATOM     42  C   UNL A   1      37.909  29.954  27.791  1.00  0.00     0.016 A 
ATOM     43  C   UNL A   1      39.528  29.257  29.957  1.00  0.00     0.010 A 
ATOM     44  C   UNL A   1      39.176  29.404  27.573  1.00  0.00     0.010 A 
ATOM     45  C   UNL A   1      40.025  29.105  28.655  1.00  0.00    -0.014 A 
BRANCH  45  46
ATOM     46  C   UNL A   1      41.444  28.713  28.421  1.00  0.00     0.031 A 
ATOM     47  C   UNL A   1      42.542  29.735  28.594  1.00  0.00     0.074 A 
ATOM     48  C   UNL A   1      41.768  27.451  28.073  1.00  0.00     0.049 A 
ATOM     49  N   UNL A   1      43.796  29.675  28.226  1.00  0.00    -0.248 NA
ATOM     50  C   UNL A   1      42.171  31.003  29.243  1.00  0.00     0.031 C 
ATOM     51  C   UNL A   1      40.827  26.340  27.924  1.00  0.00     0.029 A 
ATOM     52  N   UNL A   1      42.989  26.886  27.798  1.00  0.00    -0.354 N 
ATOM     53  C   UNL A   1      44.337  30.924  28.515  1.00  0.00     0.074 A 
ATOM     54  C   UNL A   1      43.282  31.714  29.108  1.00  0.00     0.031 C 
ATOM     55  C   UNL A   1      41.508  25.217  27.651  1.00  0.00     0.029 A 
ATOM     56  C   UNL A   1      42.923  25.544  27.514  1.00  0.00     0.049 A 
ATOM     57  H   UNL A   1      43.832  27.395  27.804  1.00  0.00     0.167 HD
ATOM     58  C   UNL A   1      45.597  31.370  28.290  1.00  0.00     0.037 A 
ATOM     59  C   UNL A   1      43.887  24.674  27.156  1.00  0.00     0.037 A 
ATOM     60  C   UNL A   1      46.665  30.546  27.786  1.00  0.00     0.049 A 
ATOM     61  C   UNL A   1      45.294  25.170  26.979  1.00  0.00     0.074 A 
ATOM     62  C   UNL A   1      47.973  30.902  27.504  1.00  0.00     0.029 A 
ATOM     63  N   UNL A   1      46.558  29.187  27.530  1.00  0.00    -0.354 N 
ATOM     64  N   UNL A   1      45.763  26.385  27.136  1.00  0.00    -0.248 NA
ATOM     65  C   UNL A   1      46.296  24.186  26.551  1.00  0.00     0.031 C 
ATOM     66  C   UNL A   1      48.655  29.758  27.073  1.00  0.00     0.029 A 
ATOM     67  C   UNL A   1      47.778  28.685  27.110  1.00  0.00     0.049 A 
ATOM     68  H   UNL A   1      45.734  28.657  27.632  1.00  0.00     0.167 HD
ATOM     69  C   UNL A   1      47.114  26.312  26.823  1.00  0.00     0.074 A 
ATOM     70  C   UNL A   1      47.394  24.929  26.494  1.00  0.00     0.031 C 
ATOM     71  C   UNL A   1      48.037  27.305  26.796  1.00  0.00     0.037 A 
BRANCH  58  72
ATOM     72  C   UNL A   1      45.876  32.824  28.545  1.00  0.00     0.058 A 
ATOM     73  C   UNL A   1      46.361  33.291  29.775  1.00  0.00     0.135 A 
ATOM     74  C   UNL A   1      45.665  33.766  27.524  1.00  0.00     0.135 A 
ATOM     75  F   UNL A   1      46.559  32.437  30.792  1.00  0.00    -0.206 F 
ATOM     76  C   UNL A   1      46.605  34.645  29.994  1.00  0.00     0.059 A 
ATOM     77  C   UNL A   1      45.922  35.121  27.712  1.00  0.00     0.059 A 
ATOM     78  F   UNL A   1      45.200  33.373  26.327  1.00  0.00    -0.206 F 
ATOM     79  C   UNL A   1      46.377  35.553  28.957  1.00  0.00     0.060 A 
BRANCH  79  80
ATOM     80  S   UNL A   1      46.692  37.307  29.246  1.00  0.00     0.124 S 
ATOM     81  O   UNL A   1      46.729  37.824  27.882  1.00  0.00    -0.237 OA
ATOM     82  O   UNL A   1      45.539  37.711  30.045  1.00  0.00    -0.237 OA
ATOM     83  O   UNL A   1      47.969  37.308  29.954  1.00  0.00    -0.744 OA
ENDBRANCH  79  80
ENDBRANCH  58  72
BRANCH  59  84
ATOM     84  C   UNL A   1      43.542  23.249  26.917  1.00  0.00     0.058 A 
ATOM     85  C   UNL A   1      43.261  22.388  27.988  1.00  0.00     0.135 A 
ATOM     86  C   UNL A   1      43.446  22.729  25.617  1.00  0.00     0.135 A 
ATOM     87  F   UNL A   1      43.349  22.836  29.250  1.00  0.00    -0.206 F 
ATOM     88  C   UNL A   1      42.895  21.063  27.780  1.00  0.00     0.059 A 
ATOM     89  C   UNL A   1      43.059  21.415  25.383  1.00  0.00     0.059 A 
ATOM     90  F   UNL A   1      43.694  23.516  24.558  1.00  0.00    -0.206 F 
ATOM     91  C   UNL A   1      42.791  20.587  26.472  1.00  0.00     0.060 A 
BRANCH  91  92
ATOM     92  S   UNL A   1      42.231  18.891  26.199  1.00  0.00     0.124 S 
ATOM     93  O   UNL A   1      42.397  18.310  27.527  1.00  0.00    -0.237 OA
ATOM     94  O   UNL A   1      40.854  19.083  25.755  1.00  0.00    -0.237 OA
ATOM     95  O   UNL A   1      43.146  18.401  25.173  1.00  0.00    -0.744 OA
ENDBRANCH  91  92
ENDBRANCH  59  84
BRANCH  71  96
ATOM     96  C   UNL A   1      49.438  26.921  26.420  1.00  0.00     0.058 A 
ATOM     97  C   UNL A   1      49.869  26.948  25.086  1.00  0.00     0.135 A 
ATOM     98  C   UNL A   1      50.364  26.551  27.408  1.00  0.00     0.135 A 
ATOM     99  F   UNL A   1      49.018  27.289  24.107  1.00  0.00    -0.206 F 
ATOM    100  C   UNL A   1      51.169  26.596  24.739  1.00  0.00     0.059 A 
ATOM    101  C   UNL A   1      51.673  26.213  27.085  1.00  0.00     0.059 A 
ATOM    102  F   UNL A   1      49.998  26.519  28.700  1.00  0.00    -0.206 F 
ATOM    103  C   UNL A   1      52.063  26.226  25.746  1.00  0.00     0.060 A 
BRANCH 103 104
ATOM    104  S   UNL A   1      53.754  25.785  25.291  1.00  0.00     0.124 S 
ATOM    105  O   UNL A   1      53.981  24.604  26.117  1.00  0.00    -0.237 OA
ATOM    106  O   UNL A   1      53.645  25.543  23.856  1.00  0.00    -0.237 OA
ATOM    107  O   UNL A   1      54.522  26.970  25.663  1.00  0.00    -0.744 OA
ENDBRANCH 103 104
ENDBRANCH  71  96
ENDBRANCH  45  46
ENDBRANCH  38  40
ENDBRANCH  37  38
ENDBRANCH  36  37
ENDBRANCH   1  36
TORSDOF 19
ENDMDL
MODEL 3
REMARK VINA RESULT:     -12.1      6.161     10.232
REMARK SMILES CCC(=O)Nc1ccc2nc(N3CC[NH+](CC(=O)N4CCCC4)CC3)cc(C(=O)OCCOC(=O)c3ccc(-c4c5nc(c(-c6c(F)cc(S(=O)(=O)[O-])cc6F)c6ccc([nH]6)c(-c6c(F)cc(S(=O)(=O)[O-])cc6F)c6nc(c(-c7c(F)cc(S(=O)(=O)[O-])cc7F)c7ccc4[nH]7)C=C6)C=C5)cc3)c2c1
REMARK SMILES IDX 31 1 30 2 28 3 29 4 27 5 6 6 7 7 103 8 8 9 102 10 9 11 10 12
REMARK SMILES IDX 26 13 11 14 5 15 3 16 4 17 2 19 1 20 12 21 13 22 25 23 14 24
REMARK SMILES IDX 24 25 15 26 16 28 17 29 18 30 19 31 20 32 23 33 21 34 22 35
REMARK SMILES IDX 32 36 33 37 34 38 35 39 36 40 37 41 101 42 38 43 100 44
REMARK SMILES IDX 39 45 40 46 41 47 94 48 42 49 99 50 93 51 95 52 43 53 98 54
REMARK SMILES IDX 92 55 91 56 44 58 78 59 57 60 77 61 58 62 61 63 76 64 96 65
REMARK SMILES IDX 59 66 60 67 75 69 97 70 62 71 45 72 46 73 55 74 47 75 48 76
REMARK SMILES IDX 54 77 56 78 49 79 50 80 51 81 52 82 53 83 79 84 80 85 89 86
REMARK SMILES IDX 81 87 82 88 88 89 90 90 83 91 84 92 85 93 86 94 87 95 63 96
REMARK SMILES IDX 64 97 73 98 65 99 66 100 72 101 74 102 67 103 68 104 69 105
REMARK SMILES IDX 70 106 71 107
REMARK H PARENT 5 18 15 27 95 57 61 68
REMARK Flexibility Score: inf
ROOT
ATOM      1  C   UNL A   1      33.223  30.456  26.978  1.00  0.00     0.275 C 
ENDROOT
BRANCH   1   2
ATOM      2  O   UNL A   1      33.409  29.103  27.446  1.00  0.00    -0.458 OA
BRANCH   2   3
ATOM      3  C   UNL A   1      32.361  28.271  27.248  1.00  0.00     0.339 C 
ATOM      4  O   UNL A   1      31.418  28.093  28.006  1.00  0.00    -0.246 OA
BRANCH   3   5
ATOM      5  C   UNL A   1      32.463  27.547  25.968  1.00  0.00     0.073 A 
ATOM      6  C   UNL A   1      30.514  29.488  23.415  1.00  0.00     0.041 A 
ATOM      7  C   UNL A   1      31.075  28.946  22.268  1.00  0.00     0.028 A 
ATOM      8  C   UNL A   1      31.029  29.149  24.661  1.00  0.00     0.037 A 
ATOM      9  C   UNL A   1      32.015  27.931  22.372  1.00  0.00     0.031 A 
ATOM     10  C   UNL A   1      31.953  28.079  24.772  1.00  0.00     0.017 A 
ATOM     11  C   UNL A   1      32.407  27.446  23.604  1.00  0.00     0.074 A 
ATOM     12  N   UNL A   1      33.212  26.384  23.600  1.00  0.00    -0.231 NA
ATOM     13  C   UNL A   1      33.254  26.393  25.955  1.00  0.00     0.063 A 
ATOM     14  C   UNL A   1      33.609  25.810  24.752  1.00  0.00     0.130 A 
BRANCH   6  15
ATOM     15  N   UNL A   1      29.402  30.330  23.341  1.00  0.00    -0.326 N 
ATOM     16  C   UNL A   1      28.111  29.955  23.058  1.00  0.00     0.224 C 
ATOM     17  O   UNL A   1      27.257  30.824  22.871  1.00  0.00    -0.275 OA
ATOM     18  H   UNL A   1      29.559  31.287  23.508  1.00  0.00     0.169 HD
BRANCH  16  19
ATOM     19  C   UNL A   1      27.725  28.479  23.110  1.00  0.00     0.097 C 
ATOM     20  C   UNL A   1      26.308  28.219  23.586  1.00  0.00     0.014 C 
ENDBRANCH  16  19
ENDBRANCH   6  15
BRANCH  14  21
ATOM     21  N   UNL A   1      34.407  24.679  24.658  1.00  0.00    -0.345 N 
ATOM     22  C   UNL A   1      34.034  23.554  23.786  1.00  0.00     0.179 C 
ATOM     23  C   UNL A   1      35.189  24.413  25.870  1.00  0.00     0.179 C 
ATOM     24  C   UNL A   1      35.077  22.412  23.765  1.00  0.00     0.284 C 
ATOM     25  C   UNL A   1      36.142  23.216  25.764  1.00  0.00     0.284 C 
ATOM     26  N   UNL A   1      35.643  22.038  25.066  1.00  0.00    -0.324 N 
ATOM     27  H   UNL A   1      36.455  21.452  24.868  1.00  0.00     0.348 HD
BRANCH  26  28
ATOM     28  C   UNL A   1      34.877  21.071  25.869  1.00  0.00     0.363 C 
BRANCH  28  29
ATOM     29  C   UNL A   1      33.611  20.477  25.240  1.00  0.00     0.277 C 
ATOM     30  O   UNL A   1      32.553  21.116  25.244  1.00  0.00    -0.268 OA
ATOM     31  N   UNL A   1      33.671  19.245  24.626  1.00  0.00    -0.338 N 
ATOM     32  C   UNL A   1      34.747  18.269  24.626  1.00  0.00     0.119 C 
ATOM     33  C   UNL A   1      32.558  18.794  23.804  1.00  0.00     0.119 C 
ATOM     34  C   UNL A   1      34.395  17.309  23.499  1.00  0.00     0.023 C 
ATOM     35  C   UNL A   1      32.873  17.344  23.477  1.00  0.00     0.023 C 
ENDBRANCH  28  29
ENDBRANCH  26  28
ENDBRANCH  14  21
ENDBRANCH   3   5
ENDBRANCH   2   3
ENDBRANCH   1   2
BRANCH   1  36
ATOM     36  C   UNL A   1      33.855  31.462  27.934  1.00  0.00     0.275 C 
BRANCH  36  37
ATOM     37  O   UNL A   1      33.618  32.797  27.461  1.00  0.00    -0.458 OA
BRANCH  37  38
ATOM     38  C   UNL A   1      33.503  33.737  28.423  1.00  0.00     0.338 C 
ATOM     39  O   UNL A   1      32.630  34.589  28.529  1.00  0.00    -0.246 OA
BRANCH  38  40
ATOM     40  C   UNL A   1      34.587  33.586  29.401  1.00  0.00     0.060 A 
ATOM     41  C   UNL A   1      35.851  34.090  29.102  1.00  0.00     0.016 A 
ATOM     42  C   UNL A   1      34.392  32.803  30.536  1.00  0.00     0.016 A 
ATOM     43  C   UNL A   1      36.950  33.697  29.860  1.00  0.00     0.010 A 
ATOM     44  C   UNL A   1      35.481  32.504  31.360  1.00  0.00     0.010 A 
ATOM     45  C   UNL A   1      36.784  32.896  30.999  1.00  0.00    -0.014 A 
BRANCH  45  46
ATOM     46  C   UNL A   1      37.964  32.405  31.766  1.00  0.00     0.031 A 
ATOM     47  C   UNL A   1      38.875  31.367  31.155  1.00  0.00     0.074 A 
ATOM     48  C   UNL A   1      38.245  32.886  32.993  1.00  0.00     0.049 A 
ATOM     49  N   UNL A   1      39.806  30.644  31.722  1.00  0.00    -0.248 NA
ATOM     50  C   UNL A   1      38.693  31.087  29.721  1.00  0.00     0.031 C 
ATOM     51  C   UNL A   1      37.494  33.931  33.691  1.00  0.00     0.029 A 
ATOM     52  N   UNL A   1      39.256  32.569  33.867  1.00  0.00    -0.354 N 
ATOM     53  C   UNL A   1      40.255  29.765  30.741  1.00  0.00     0.074 A 
ATOM     54  C   UNL A   1      39.510  30.059  29.537  1.00  0.00     0.031 C 
ATOM     55  C   UNL A   1      38.105  34.214  34.851  1.00  0.00     0.029 A 
ATOM     56  C   UNL A   1      39.237  33.310  35.024  1.00  0.00     0.049 A 
ATOM     57  H   UNL A   1      39.931  31.876  33.683  1.00  0.00     0.167 HD
ATOM     58  C   UNL A   1      41.195  28.794  30.845  1.00  0.00     0.037 A 
ATOM     59  C   UNL A   1      40.022  33.253  36.117  1.00  0.00     0.037 A 
ATOM     60  C   UNL A   1      41.997  28.571  32.020  1.00  0.00     0.049 A 
ATOM     61  C   UNL A   1      41.105  32.215  36.187  1.00  0.00     0.074 A 
ATOM     62  C   UNL A   1      42.963  27.603  32.238  1.00  0.00     0.029 A 
ATOM     63  N   UNL A   1      41.957  29.358  33.162  1.00  0.00    -0.354 N 
ATOM     64  N   UNL A   1      41.434  31.307  35.298  1.00  0.00    -0.248 NA
ATOM     65  C   UNL A   1      41.907  32.173  37.417  1.00  0.00     0.031 C 
ATOM     66  C   UNL A   1      43.503  27.803  33.514  1.00  0.00     0.029 A 
ATOM     67  C   UNL A   1      42.890  28.909  34.081  1.00  0.00     0.049 A 
ATOM     68  H   UNL A   1      41.352  30.123  33.299  1.00  0.00     0.167 HD
ATOM     69  C   UNL A   1      42.478  30.586  35.863  1.00  0.00     0.074 A 
ATOM     70  C   UNL A   1      42.745  31.178  37.158  1.00  0.00     0.031 C 
ATOM     71  C   UNL A   1      43.146  29.518  35.359  1.00  0.00     0.037 A 
BRANCH  58  72
ATOM     72  C   UNL A   1      41.372  27.870  29.674  1.00  0.00     0.058 A 
ATOM     73  C   UNL A   1      42.456  27.977  28.791  1.00  0.00     0.135 A 
ATOM     74  C   UNL A   1      40.439  26.844  29.444  1.00  0.00     0.135 A 
ATOM     75  F   UNL A   1      43.364  28.953  28.951  1.00  0.00    -0.206 F 
ATOM     76  C   UNL A   1      42.598  27.116  27.705  1.00  0.00     0.059 A 
ATOM     77  C   UNL A   1      40.572  25.958  28.378  1.00  0.00     0.059 A 
ATOM     78  F   UNL A   1      39.382  26.697  30.258  1.00  0.00    -0.206 F 
ATOM     79  C   UNL A   1      41.647  26.112  27.505  1.00  0.00     0.060 A 
BRANCH  79  80
ATOM     80  S   UNL A   1      41.834  25.000  26.094  1.00  0.00     0.124 S 
ATOM     81  O   UNL A   1      42.023  25.948  25.001  1.00  0.00    -0.237 OA
ATOM     82  O   UNL A   1      43.007  24.215  26.461  1.00  0.00    -0.237 OA
ATOM     83  O   UNL A   1      40.573  24.263  26.076  1.00  0.00    -0.744 OA
ENDBRANCH  79  80
ENDBRANCH  58  72
BRANCH  59  84
ATOM     84  C   UNL A   1      39.790  34.195  37.240  1.00  0.00     0.058 A 
ATOM     85  C   UNL A   1      39.094  33.789  38.388  1.00  0.00     0.135 A 
ATOM     86  C   UNL A   1      40.292  35.506  37.209  1.00  0.00     0.135 A 
ATOM     87  F   UNL A   1      38.587  32.549  38.462  1.00  0.00    -0.206 F 
ATOM     88  C   UNL A   1      38.905  34.647  39.466  1.00  0.00     0.059 A 
ATOM     89  C   UNL A   1      40.135  36.374  38.283  1.00  0.00     0.059 A 
ATOM     90  F   UNL A   1      40.975  35.939  36.137  1.00  0.00    -0.206 F 
ATOM     91  C   UNL A   1      39.435  35.937  39.407  1.00  0.00     0.060 A 
BRANCH  91  92
ATOM     92  S   UNL A   1      39.265  37.021  40.842  1.00  0.00     0.124 S 
ATOM     93  O   UNL A   1      38.528  36.168  41.768  1.00  0.00    -0.237 OA
ATOM     94  O   UNL A   1      40.654  37.294  41.195  1.00  0.00    -0.237 OA
ATOM     95  O   UNL A   1      38.529  38.163  40.309  1.00  0.00    -0.744 OA
ENDBRANCH  91  92
ENDBRANCH  59  84
BRANCH  71  96
ATOM     96  C   UNL A   1      44.243  28.942  36.205  1.00  0.00     0.058 A 
ATOM     97  C   UNL A   1      44.031  27.807  37.001  1.00  0.00     0.135 A 
ATOM     98  C   UNL A   1      45.524  29.515  36.195  1.00  0.00     0.135 A 
ATOM     99  F   UNL A   1      42.821  27.229  37.047  1.00  0.00    -0.206 F 
ATOM    100  C   UNL A   1      45.050  27.271  37.781  1.00  0.00     0.059 A 
ATOM    101  C   UNL A   1      46.562  28.985  36.954  1.00  0.00     0.059 A 
ATOM    102  F   UNL A   1      45.775  30.598  35.442  1.00  0.00    -0.206 F 
ATOM    103  C   UNL A   1      46.312  27.870  37.754  1.00  0.00     0.060 A 
BRANCH 103 104
ATOM    104  S   UNL A   1      47.635  27.161  38.757  1.00  0.00     0.124 S 
ATOM    105  O   UNL A   1      47.193  25.777  38.890  1.00  0.00    -0.237 OA
ATOM    106  O   UNL A   1      48.814  27.372  37.921  1.00  0.00    -0.237 OA
ATOM    107  O   UNL A   1      47.594  27.955  39.980  1.00  0.00    -0.744 OA
ENDBRANCH 103 104
ENDBRANCH  71  96
ENDBRANCH  45  46
ENDBRANCH  38  40
ENDBRANCH  37  38
ENDBRANCH  36  37
ENDBRANCH   1  36
TORSDOF 19
ENDMDL
