MODEL 1
REMARK VINA RESULT:     -10.3      0.000      0.000
REMARK SMILES CCCC[C@@H](C(=O)OCCOC(=O)c1ccc(-c2c3nc(c(-c4c(F)cc(S(=O)(=O)[O-])cc4F)c4ccc([nH]4)c(-c4c(F)cc(S(=O)(=O)[O-])cc4F)c4nc(c(-c5c(F)cc(S(=O)(=O)[O-])cc5F)c5ccc2[nH]5)C=C4)C=C3)cc1)[C@]1(O)COc2cc(O)ccc21
REMARK SMILES IDX 9 1 8 2 6 3 7 4 5 5 4 6 3 7 2 8 1 9 80 10 82 11 90 12 83 13
REMARK SMILES IDX 84 14 89 15 85 16 88 17 86 18 81 19 87 21 10 23 11 24 12 25
REMARK SMILES IDX 13 26 14 27 15 28 79 29 16 30 78 31 17 32 18 33 19 34 72 35
REMARK SMILES IDX 20 36 77 37 71 38 73 39 21 40 76 41 70 42 69 43 22 45 56 46
REMARK SMILES IDX 35 47 55 48 36 49 39 50 54 51 74 52 37 53 38 54 53 56 75 57
REMARK SMILES IDX 40 58 23 59 24 60 33 61 25 62 26 63 32 64 34 65 27 66 28 67
REMARK SMILES IDX 29 68 30 69 31 70 57 71 58 72 67 73 59 74 60 75 66 76 68 77
REMARK SMILES IDX 61 78 62 79 63 80 64 81 65 82 41 83 42 84 51 85 43 86 44 87
REMARK SMILES IDX 50 88 52 89 45 90 46 91 47 92 48 93 49 94
REMARK H PARENT 81 20 87 22 73 44 39 55
REMARK Flexibility Score: inf
ROOT
ATOM      1  C   UNL A   1      32.783  27.977  25.467  1.00  0.00     0.274 C 
ENDROOT
BRANCH   1   2
ATOM      2  O   UNL A   1      32.519  28.064  24.058  1.00  0.00    -0.462 OA
BRANCH   2   3
ATOM      3  C   UNL A   1      33.026  27.059  23.293  1.00  0.00     0.312 C 
ATOM      4  O   UNL A   1      33.475  27.203  22.163  1.00  0.00    -0.252 OA
BRANCH   3   5
ATOM      5  C   UNL A   1      33.003  25.725  24.032  1.00  0.00     0.139 C 
BRANCH   5   6
ATOM      6  C   UNL A   1      34.421  25.072  24.028  1.00  0.00     0.019 C 
BRANCH   6   7
ATOM      7  C   UNL A   1      34.942  24.538  25.368  1.00  0.00     0.001 C 
BRANCH   7   8
ATOM      8  C   UNL A   1      35.859  23.324  25.272  1.00  0.00    -0.003 C 
ATOM      9  C   UNL A   1      36.073  22.853  23.841  1.00  0.00     0.004 C 
ENDBRANCH   7   8
ENDBRANCH   6   7
ENDBRANCH   5   6
BRANCH   5  10
ATOM     10  C   UNL A   1      31.864  24.772  23.497  1.00  0.00     0.140 C 
ATOM     11  C   UNL A   1      30.598  24.856  24.366  1.00  0.00     0.270 C 
ATOM     12  C   UNL A   1      32.042  23.289  23.731  1.00  0.00     0.030 A 
ATOM     13  O   UNL A   1      30.929  24.107  25.544  1.00  0.00    -0.490 OA
ATOM     14  C   UNL A   1      31.550  23.016  25.004  1.00  0.00     0.129 A 
ATOM     15  C   UNL A   1      32.491  22.238  22.954  1.00  0.00     0.014 A 
ATOM     16  C   UNL A   1      31.630  21.789  25.614  1.00  0.00     0.093 A 
ATOM     17  C   UNL A   1      32.484  20.944  23.513  1.00  0.00     0.047 A 
ATOM     18  C   UNL A   1      32.086  20.739  24.843  1.00  0.00     0.119 A 
BRANCH  10  19
ATOM     19  O   UNL A   1      31.546  25.082  22.145  1.00  0.00    -0.381 OA
ATOM     20  H   UNL A   1      32.318  25.480  21.713  1.00  0.00     0.212 HD
ENDBRANCH  10  19
BRANCH  18  21
ATOM     21  O   UNL A   1      32.093  19.507  25.425  1.00  0.00    -0.508 OA
ATOM     22  H   UNL A   1      32.790  19.263  26.002  1.00  0.00     0.293 HD
ENDBRANCH  18  21
ENDBRANCH   5  10
ENDBRANCH   3   5
ENDBRANCH   2   3
ENDBRANCH   1   2
BRANCH   1  23
ATOM     23  C   UNL A   1      33.646  29.171  25.889  1.00  0.00     0.275 C 
BRANCH  23  24
ATOM     24  O   UNL A   1      33.721  29.265  27.328  1.00  0.00    -0.458 OA
BRANCH  24  25
ATOM     25  C   UNL A   1      34.422  30.308  27.842  1.00  0.00     0.338 C 
ATOM     26  O   UNL A   1      33.988  31.413  28.130  1.00  0.00    -0.246 OA
BRANCH  25  27
ATOM     27  C   UNL A   1      35.791  29.843  28.177  1.00  0.00     0.060 A 
ATOM     28  C   UNL A   1      36.761  29.933  27.172  1.00  0.00     0.016 A 
ATOM     29  C   UNL A   1      36.164  29.481  29.474  1.00  0.00     0.016 A 
ATOM     30  C   UNL A   1      38.115  29.847  27.498  1.00  0.00     0.010 A 
ATOM     31  C   UNL A   1      37.518  29.283  29.779  1.00  0.00     0.010 A 
ATOM     32  C   UNL A   1      38.501  29.494  28.798  1.00  0.00    -0.014 A 
BRANCH  32  33
ATOM     33  C   UNL A   1      39.898  29.046  29.022  1.00  0.00     0.031 A 
ATOM     34  C   UNL A   1      40.825  30.067  29.622  1.00  0.00     0.074 A 
ATOM     35  C   UNL A   1      40.326  27.796  28.757  1.00  0.00     0.049 A 
ATOM     36  N   UNL A   1      42.105  29.994  29.856  1.00  0.00    -0.248 NA
ATOM     37  C   UNL A   1      40.208  31.342  30.038  1.00  0.00     0.031 C 
ATOM     38  C   UNL A   1      39.492  26.683  28.304  1.00  0.00     0.029 A 
ATOM     39  N   UNL A   1      41.587  27.251  28.842  1.00  0.00    -0.354 N 
ATOM     40  C   UNL A   1      42.441  31.209  30.441  1.00  0.00     0.074 A 
ATOM     41  C   UNL A   1      41.235  31.989  30.556  1.00  0.00     0.031 C 
ATOM     42  C   UNL A   1      40.267  25.593  28.137  1.00  0.00     0.029 A 
ATOM     43  C   UNL A   1      41.660  25.941  28.417  1.00  0.00     0.049 A 
ATOM     44  H   UNL A   1      42.365  27.750  29.175  1.00  0.00     0.167 HD
ATOM     45  C   UNL A   1      43.660  31.657  30.812  1.00  0.00     0.037 A 
ATOM     46  C   UNL A   1      42.737  25.144  28.241  1.00  0.00     0.037 A 
ATOM     47  C   UNL A   1      44.866  30.913  30.605  1.00  0.00     0.049 A 
ATOM     48  C   UNL A   1      44.112  25.714  28.535  1.00  0.00     0.074 A 
ATOM     49  C   UNL A   1      46.171  31.313  30.811  1.00  0.00     0.029 A 
ATOM     50  N   UNL A   1      44.905  29.616  30.115  1.00  0.00    -0.354 N 
ATOM     51  N   UNL A   1      44.430  26.892  29.022  1.00  0.00    -0.248 NA
ATOM     52  C   UNL A   1      45.274  24.863  28.234  1.00  0.00     0.031 C 
ATOM     53  C   UNL A   1      47.006  30.269  30.405  1.00  0.00     0.029 A 
ATOM     54  C   UNL A   1      46.215  29.199  30.005  1.00  0.00     0.049 A 
ATOM     55  H   UNL A   1      44.117  29.075  29.883  1.00  0.00     0.167 HD
ATOM     56  C   UNL A   1      45.818  26.909  29.117  1.00  0.00     0.074 A 
ATOM     57  C   UNL A   1      46.284  25.626  28.635  1.00  0.00     0.031 C 
ATOM     58  C   UNL A   1      46.638  27.894  29.560  1.00  0.00     0.037 A 
BRANCH  45  59
ATOM     59  C   UNL A   1      43.723  33.052  31.357  1.00  0.00     0.058 A 
ATOM     60  C   UNL A   1      43.859  34.169  30.518  1.00  0.00     0.135 A 
ATOM     61  C   UNL A   1      43.731  33.265  32.744  1.00  0.00     0.135 A 
ATOM     62  F   UNL A   1      43.908  34.012  29.185  1.00  0.00    -0.206 F 
ATOM     63  C   UNL A   1      44.028  35.447  31.036  1.00  0.00     0.059 A 
ATOM     64  C   UNL A   1      43.874  34.537  33.285  1.00  0.00     0.059 A 
ATOM     65  F   UNL A   1      43.633  32.226  33.588  1.00  0.00    -0.206 F 
ATOM     66  C   UNL A   1      44.041  35.620  32.423  1.00  0.00     0.060 A 
BRANCH  66  67
ATOM     67  S   UNL A   1      44.290  37.280  33.085  1.00  0.00     0.124 S 
ATOM     68  O   UNL A   1      45.483  37.091  33.905  1.00  0.00    -0.237 OA
ATOM     69  O   UNL A   1      44.474  38.074  31.874  1.00  0.00    -0.237 OA
ATOM     70  O   UNL A   1      43.058  37.540  33.821  1.00  0.00    -0.744 OA
ENDBRANCH  66  67
ENDBRANCH  45  59
BRANCH  46  71
ATOM     71  C   UNL A   1      42.597  23.754  27.708  1.00  0.00     0.058 A 
ATOM     72  C   UNL A   1      42.459  23.505  26.332  1.00  0.00     0.135 A 
ATOM     73  C   UNL A   1      42.544  22.645  28.568  1.00  0.00     0.135 A 
ATOM     74  F   UNL A   1      42.476  24.525  25.461  1.00  0.00    -0.206 F 
ATOM     75  C   UNL A   1      42.259  22.217  25.833  1.00  0.00     0.059 A 
ATOM     76  C   UNL A   1      42.375  21.346  28.091  1.00  0.00     0.059 A 
ATOM     77  F   UNL A   1      42.665  22.816  29.894  1.00  0.00    -0.206 F 
ATOM     78  C   UNL A   1      42.221  21.142  26.722  1.00  0.00     0.060 A 
BRANCH  78  79
ATOM     79  S   UNL A   1      42.001  19.472  26.067  1.00  0.00     0.124 S 
ATOM     80  O   UNL A   1      42.473  18.654  27.178  1.00  0.00    -0.237 OA
ATOM     81  O   UNL A   1      40.565  19.430  25.808  1.00  0.00    -0.237 OA
ATOM     82  O   UNL A   1      42.844  19.466  24.875  1.00  0.00    -0.744 OA
ENDBRANCH  78  79
ENDBRANCH  46  71
BRANCH  58  83
ATOM     83  C   UNL A   1      48.113  27.623  29.622  1.00  0.00     0.058 A 
ATOM     84  C   UNL A   1      48.980  28.016  28.593  1.00  0.00     0.135 A 
ATOM     85  C   UNL A   1      48.675  27.115  30.805  1.00  0.00     0.135 A 
ATOM     86  F   UNL A   1      48.490  28.507  27.445  1.00  0.00    -0.206 F 
ATOM     87  C   UNL A   1      50.361  27.925  28.741  1.00  0.00     0.059 A 
ATOM     88  C   UNL A   1      50.050  27.037  30.982  1.00  0.00     0.059 A 
ATOM     89  F   UNL A   1      47.883  26.740  31.822  1.00  0.00    -0.206 F 
ATOM     90  C   UNL A   1      50.887  27.449  29.945  1.00  0.00     0.060 A 
BRANCH  90  91
ATOM     91  S   UNL A   1      52.678  27.440  30.165  1.00  0.00     0.124 S 
ATOM     92  O   UNL A   1      52.814  26.755  31.445  1.00  0.00    -0.237 OA
ATOM     93  O   UNL A   1      53.132  26.694  28.995  1.00  0.00    -0.237 OA
ATOM     94  O   UNL A   1      53.028  28.857  30.169  1.00  0.00    -0.744 OA
ENDBRANCH  90  91
ENDBRANCH  58  83
ENDBRANCH  32  33
ENDBRANCH  25  27
ENDBRANCH  24  25
ENDBRANCH  23  24
ENDBRANCH   1  23
TORSDOF 20
ENDMDL
MODEL 2
REMARK VINA RESULT:     -10.2      6.291     11.320
REMARK SMILES CCCC[C@@H](C(=O)OCCOC(=O)c1ccc(-c2c3nc(c(-c4c(F)cc(S(=O)(=O)[O-])cc4F)c4ccc([nH]4)c(-c4c(F)cc(S(=O)(=O)[O-])cc4F)c4nc(c(-c5c(F)cc(S(=O)(=O)[O-])cc5F)c5ccc2[nH]5)C=C4)C=C3)cc1)[C@]1(O)COc2cc(O)ccc21
REMARK SMILES IDX 9 1 8 2 6 3 7 4 5 5 4 6 3 7 2 8 1 9 80 10 82 11 90 12 83 13
REMARK SMILES IDX 84 14 89 15 85 16 88 17 86 18 81 19 87 21 10 23 11 24 12 25
REMARK SMILES IDX 13 26 14 27 15 28 79 29 16 30 78 31 17 32 18 33 19 34 72 35
REMARK SMILES IDX 20 36 77 37 71 38 73 39 21 40 76 41 70 42 69 43 22 45 56 46
REMARK SMILES IDX 35 47 55 48 36 49 39 50 54 51 74 52 37 53 38 54 53 56 75 57
REMARK SMILES IDX 40 58 23 59 24 60 33 61 25 62 26 63 32 64 34 65 27 66 28 67
REMARK SMILES IDX 29 68 30 69 31 70 57 71 58 72 67 73 59 74 60 75 66 76 68 77
REMARK SMILES IDX 61 78 62 79 63 80 64 81 65 82 41 83 42 84 51 85 43 86 44 87
REMARK SMILES IDX 50 88 52 89 45 90 46 91 47 92 48 93 49 94
REMARK H PARENT 81 20 87 22 73 44 39 55
REMARK Flexibility Score: inf
ROOT
ATOM      1  C   UNL A   1      45.182  26.981  25.522  1.00  0.00     0.274 C 
ENDROOT
BRANCH   1   2
ATOM      2  O   UNL A   1      46.017  26.158  24.694  1.00  0.00    -0.462 OA
BRANCH   2   3
ATOM      3  C   UNL A   1      46.676  25.148  25.326  1.00  0.00     0.312 C 
ATOM      4  O   UNL A   1      47.869  25.159  25.601  1.00  0.00    -0.252 OA
BRANCH   3   5
ATOM      5  C   UNL A   1      45.733  24.006  25.690  1.00  0.00     0.139 C 
BRANCH   5   6
ATOM      6  C   UNL A   1      46.151  23.363  27.049  1.00  0.00     0.019 C 
BRANCH   6   7
ATOM      7  C   UNL A   1      45.072  23.278  28.137  1.00  0.00     0.001 C 
BRANCH   7   8
ATOM      8  C   UNL A   1      44.135  24.478  28.218  1.00  0.00    -0.003 C 
ATOM      9  C   UNL A   1      44.715  25.630  29.025  1.00  0.00     0.004 C 
ENDBRANCH   7   8
ENDBRANCH   6   7
ENDBRANCH   5   6
BRANCH   5  10
ATOM     10  C   UNL A   1      45.586  22.964  24.514  1.00  0.00     0.140 C 
ATOM     11  C   UNL A   1      44.161  22.956  23.936  1.00  0.00     0.270 C 
ATOM     12  C   UNL A   1      45.543  21.501  24.892  1.00  0.00     0.030 A 
ATOM     13  O   UNL A   1      43.388  22.244  24.914  1.00  0.00    -0.490 OA
ATOM     14  C   UNL A   1      44.220  21.201  25.206  1.00  0.00     0.129 A 
ATOM     15  C   UNL A   1      46.475  20.482  24.909  1.00  0.00     0.014 A 
ATOM     16  C   UNL A   1      43.800  19.988  25.694  1.00  0.00     0.093 A 
ATOM     17  C   UNL A   1      46.052  19.195  25.301  1.00  0.00     0.047 A 
ATOM     18  C   UNL A   1      44.733  18.971  25.719  1.00  0.00     0.119 A 
BRANCH  10  19
ATOM     19  O   UNL A   1      46.526  23.238  23.481  1.00  0.00    -0.381 OA
ATOM     20  H   UNL A   1      46.381  24.134  23.140  1.00  0.00     0.212 HD
ENDBRANCH  10  19
BRANCH  18  21
ATOM     21  O   UNL A   1      44.296  17.747  26.131  1.00  0.00    -0.508 OA
ATOM     22  H   UNL A   1      43.406  17.633  26.403  1.00  0.00     0.293 HD
ENDBRANCH  18  21
ENDBRANCH   5  10
ENDBRANCH   3   5
ENDBRANCH   2   3
ENDBRANCH   1   2
BRANCH   1  23
ATOM     23  C   UNL A   1      43.742  26.917  25.004  1.00  0.00     0.275 C 
BRANCH  23  24
ATOM     24  O   UNL A   1      42.990  25.902  25.705  1.00  0.00    -0.458 OA
BRANCH  24  25
ATOM     25  C   UNL A   1      41.663  26.131  25.881  1.00  0.00     0.338 C 
ATOM     26  O   UNL A   1      40.753  25.764  25.155  1.00  0.00    -0.246 OA
BRANCH  25  27
ATOM     27  C   UNL A   1      41.460  26.754  27.213  1.00  0.00     0.060 A 
ATOM     28  C   UNL A   1      42.124  27.961  27.462  1.00  0.00     0.016 A 
ATOM     29  C   UNL A   1      40.527  26.269  28.134  1.00  0.00     0.016 A 
ATOM     30  C   UNL A   1      41.726  28.770  28.526  1.00  0.00     0.010 A 
ATOM     31  C   UNL A   1      40.207  27.032  29.266  1.00  0.00     0.010 A 
ATOM     32  C   UNL A   1      40.784  28.299  29.451  1.00  0.00    -0.014 A 
BRANCH  32  33
ATOM     33  C   UNL A   1      40.661  29.001  30.752  1.00  0.00     0.031 A 
ATOM     34  C   UNL A   1      39.592  30.056  30.828  1.00  0.00     0.074 A 
ATOM     35  C   UNL A   1      41.413  28.702  31.829  1.00  0.00     0.049 A 
ATOM     36  N   UNL A   1      39.304  30.882  31.795  1.00  0.00    -0.248 NA
ATOM     37  C   UNL A   1      38.711  30.177  29.651  1.00  0.00     0.031 C 
ATOM     38  C   UNL A   1      42.384  27.610  31.920  1.00  0.00     0.029 A 
ATOM     39  N   UNL A   1      41.469  29.297  33.069  1.00  0.00    -0.354 N 
ATOM     40  C   UNL A   1      38.215  31.615  31.340  1.00  0.00     0.074 A 
ATOM     41  C   UNL A   1      37.872  31.123  30.029  1.00  0.00     0.031 C 
ATOM     42  C   UNL A   1      42.947  27.625  33.144  1.00  0.00     0.029 A 
ATOM     43  C   UNL A   1      42.422  28.757  33.907  1.00  0.00     0.049 A 
ATOM     44  H   UNL A   1      40.882  30.040  33.333  1.00  0.00     0.167 HD
ATOM     45  C   UNL A   1      37.579  32.642  31.942  1.00  0.00     0.037 A 
ATOM     46  C   UNL A   1      42.838  29.165  35.126  1.00  0.00     0.037 A 
ATOM     47  C   UNL A   1      37.988  33.187  33.201  1.00  0.00     0.049 A 
ATOM     48  C   UNL A   1      42.203  30.406  35.727  1.00  0.00     0.074 A 
ATOM     49  C   UNL A   1      37.513  34.310  33.849  1.00  0.00     0.029 A 
ATOM     50  N   UNL A   1      38.996  32.652  33.990  1.00  0.00    -0.354 N 
ATOM     51  N   UNL A   1      41.219  31.138  35.257  1.00  0.00    -0.248 NA
ATOM     52  C   UNL A   1      42.747  30.890  37.006  1.00  0.00     0.031 C 
ATOM     53  C   UNL A   1      38.265  34.480  35.015  1.00  0.00     0.029 A 
ATOM     54  C   UNL A   1      39.164  33.427  35.120  1.00  0.00     0.049 A 
ATOM     55  H   UNL A   1      39.512  31.842  33.777  1.00  0.00     0.167 HD
ATOM     56  C   UNL A   1      41.005  32.145  36.195  1.00  0.00     0.074 A 
ATOM     57  C   UNL A   1      41.963  31.932  37.260  1.00  0.00     0.031 C 
ATOM     58  C   UNL A   1      40.103  33.156  36.180  1.00  0.00     0.037 A 
BRANCH  45  59
ATOM     59  C   UNL A   1      36.469  33.290  31.169  1.00  0.00     0.058 A 
ATOM     60  C   UNL A   1      36.720  34.084  30.040  1.00  0.00     0.135 A 
ATOM     61  C   UNL A   1      35.144  33.178  31.617  1.00  0.00     0.135 A 
ATOM     62  F   UNL A   1      37.977  34.262  29.602  1.00  0.00    -0.206 F 
ATOM     63  C   UNL A   1      35.696  34.770  29.396  1.00  0.00     0.059 A 
ATOM     64  C   UNL A   1      34.101  33.835  30.974  1.00  0.00     0.059 A 
ATOM     65  F   UNL A   1      34.857  32.454  32.710  1.00  0.00    -0.206 F 
ATOM     66  C   UNL A   1      34.390  34.643  29.876  1.00  0.00     0.060 A 
BRANCH  66  67
ATOM     67  S   UNL A   1      33.073  35.560  29.049  1.00  0.00     0.124 S 
ATOM     68  O   UNL A   1      32.292  36.036  30.187  1.00  0.00    -0.237 OA
ATOM     69  O   UNL A   1      33.817  36.583  28.319  1.00  0.00    -0.237 OA
ATOM     70  O   UNL A   1      32.425  34.550  28.221  1.00  0.00    -0.744 OA
ENDBRANCH  66  67
ENDBRANCH  45  59
BRANCH  46  71
ATOM     71  C   UNL A   1      43.941  28.460  35.847  1.00  0.00     0.058 A 
ATOM     72  C   UNL A   1      45.291  28.767  35.608  1.00  0.00     0.135 A 
ATOM     73  C   UNL A   1      43.672  27.423  36.756  1.00  0.00     0.135 A 
ATOM     74  F   UNL A   1      45.613  29.732  34.733  1.00  0.00    -0.206 F 
ATOM     75  C   UNL A   1      46.327  28.067  36.227  1.00  0.00     0.059 A 
ATOM     76  C   UNL A   1      44.689  26.728  37.408  1.00  0.00     0.059 A 
ATOM     77  F   UNL A   1      42.403  27.076  37.025  1.00  0.00    -0.206 F 
ATOM     78  C   UNL A   1      46.016  27.049  37.128  1.00  0.00     0.060 A 
BRANCH  78  79
ATOM     79  S   UNL A   1      47.361  26.171  37.956  1.00  0.00     0.124 S 
ATOM     80  O   UNL A   1      48.282  25.930  36.851  1.00  0.00    -0.237 OA
ATOM     81  O   UNL A   1      47.798  27.145  38.951  1.00  0.00    -0.237 OA
ATOM     82  O   UNL A   1      46.703  24.985  38.499  1.00  0.00    -0.744 OA
ENDBRANCH  78  79
ENDBRANCH  46  71
BRANCH  58  83
ATOM     83  C   UNL A   1      40.038  34.074  37.366  1.00  0.00     0.058 A 
ATOM     84  C   UNL A   1      40.675  35.323  37.369  1.00  0.00     0.135 A 
ATOM     85  C   UNL A   1      39.187  33.762  38.439  1.00  0.00     0.135 A 
ATOM     86  F   UNL A   1      41.497  35.666  36.366  1.00  0.00    -0.206 F 
ATOM     87  C   UNL A   1      40.460  36.240  38.394  1.00  0.00     0.059 A 
ATOM     88  C   UNL A   1      38.940  34.671  39.460  1.00  0.00     0.059 A 
ATOM     89  F   UNL A   1      38.544  32.584  38.471  1.00  0.00    -0.206 F 
ATOM     90  C   UNL A   1      39.579  35.910  39.427  1.00  0.00     0.060 A 
BRANCH  90  91
ATOM     91  S   UNL A   1      39.224  37.149  40.690  1.00  0.00     0.124 S 
ATOM     92  O   UNL A   1      38.271  38.010  39.999  1.00  0.00    -0.237 OA
ATOM     93  O   UNL A   1      38.676  36.340  41.775  1.00  0.00    -0.237 OA
ATOM     94  O   UNL A   1      40.529  37.745  40.960  1.00  0.00    -0.744 OA
ENDBRANCH  90  91
ENDBRANCH  58  83
ENDBRANCH  32  33
ENDBRANCH  25  27
ENDBRANCH  24  25
ENDBRANCH  23  24
ENDBRANCH   1  23
TORSDOF 20
ENDMDL
MODEL 3
REMARK VINA RESULT:     -10.1      3.048      8.669
REMARK SMILES CCCC[C@@H](C(=O)OCCOC(=O)c1ccc(-c2c3nc(c(-c4c(F)cc(S(=O)(=O)[O-])cc4F)c4ccc([nH]4)c(-c4c(F)cc(S(=O)(=O)[O-])cc4F)c4nc(c(-c5c(F)cc(S(=O)(=O)[O-])cc5F)c5ccc2[nH]5)C=C4)C=C3)cc1)[C@]1(O)COc2cc(O)ccc21
REMARK SMILES IDX 9 1 8 2 6 3 7 4 5 5 4 6 3 7 2 8 1 9 80 10 82 11 90 12 83 13
REMARK SMILES IDX 84 14 89 15 85 16 88 17 86 18 81 19 87 21 10 23 11 24 12 25
REMARK SMILES IDX 13 26 14 27 15 28 79 29 16 30 78 31 17 32 18 33 19 34 72 35
REMARK SMILES IDX 20 36 77 37 71 38 73 39 21 40 76 41 70 42 69 43 22 45 56 46
REMARK SMILES IDX 35 47 55 48 36 49 39 50 54 51 74 52 37 53 38 54 53 56 75 57
REMARK SMILES IDX 40 58 23 59 24 60 33 61 25 62 26 63 32 64 34 65 27 66 28 67
REMARK SMILES IDX 29 68 30 69 31 70 57 71 58 72 67 73 59 74 60 75 66 76 68 77
REMARK SMILES IDX 61 78 62 79 63 80 64 81 65 82 41 83 42 84 51 85 43 86 44 87
REMARK SMILES IDX 50 88 52 89 45 90 46 91 47 92 48 93 49 94
REMARK H PARENT 81 20 87 22 73 44 39 55
REMARK Flexibility Score: inf
ROOT
ATOM      1  C   UNL A   1      33.087  27.658  24.647  1.00  0.00     0.274 C 
ENDROOT
BRANCH   1   2
ATOM      2  O   UNL A   1      33.098  27.678  23.212  1.00  0.00    -0.462 OA
BRANCH   2   3
ATOM      3  C   UNL A   1      33.347  26.488  22.600  1.00  0.00     0.312 C 
ATOM      4  O   UNL A   1      33.652  26.360  21.421  1.00  0.00    -0.252 OA
BRANCH   3   5
ATOM      5  C   UNL A   1      33.238  25.322  23.578  1.00  0.00     0.139 C 
BRANCH   5   6
ATOM      6  C   UNL A   1      34.573  24.514  23.618  1.00  0.00     0.019 C 
BRANCH   6   7
ATOM      7  C   UNL A   1      35.197  24.275  24.999  1.00  0.00     0.001 C 
BRANCH   7   8
ATOM      8  C   UNL A   1      36.400  23.338  25.015  1.00  0.00    -0.003 C 
ATOM      9  C   UNL A   1      36.637  22.654  23.678  1.00  0.00     0.004 C 
ENDBRANCH   7   8
ENDBRANCH   6   7
ENDBRANCH   5   6
BRANCH   5  10
ATOM     10  C   UNL A   1      31.966  24.431  23.296  1.00  0.00     0.140 C 
ATOM     11  C   UNL A   1      30.873  24.648  24.355  1.00  0.00     0.270 C 
ATOM     12  C   UNL A   1      32.085  22.951  23.583  1.00  0.00     0.030 A 
ATOM     13  O   UNL A   1      31.351  23.933  25.504  1.00  0.00    -0.490 OA
ATOM     14  C   UNL A   1      31.799  22.775  24.934  1.00  0.00     0.129 A 
ATOM     15  C   UNL A   1      32.328  21.835  22.806  1.00  0.00     0.014 A 
ATOM     16  C   UNL A   1      31.903  21.575  25.593  1.00  0.00     0.093 A 
ATOM     17  C   UNL A   1      32.332  20.572  23.433  1.00  0.00     0.047 A 
ATOM     18  C   UNL A   1      32.153  20.460  24.820  1.00  0.00     0.119 A 
BRANCH  10  19
ATOM     19  O   UNL A   1      31.444  24.700  21.999  1.00  0.00    -0.381 OA
ATOM     20  H   UNL A   1      31.924  24.173  21.341  1.00  0.00     0.212 HD
ENDBRANCH  10  19
BRANCH  18  21
ATOM     21  O   UNL A   1      32.179  19.259  25.464  1.00  0.00    -0.508 OA
ATOM     22  H   UNL A   1      31.609  19.104  26.191  1.00  0.00     0.293 HD
ENDBRANCH  18  21
ENDBRANCH   5  10
ENDBRANCH   3   5
ENDBRANCH   2   3
ENDBRANCH   1   2
BRANCH   1  23
ATOM     23  C   UNL A   1      33.592  29.006  25.172  1.00  0.00     0.275 C 
BRANCH  23  24
ATOM     24  O   UNL A   1      34.238  28.847  26.454  1.00  0.00    -0.458 OA
BRANCH  24  25
ATOM     25  C   UNL A   1      34.422  29.971  27.194  1.00  0.00     0.338 C 
ATOM     26  O   UNL A   1      33.604  30.852  27.404  1.00  0.00    -0.246 OA
BRANCH  25  27
ATOM     27  C   UNL A   1      35.738  29.883  27.875  1.00  0.00     0.060 A 
ATOM     28  C   UNL A   1      35.744  29.429  29.198  1.00  0.00     0.016 A 
ATOM     29  C   UNL A   1      36.946  30.080  27.199  1.00  0.00     0.016 A 
ATOM     30  C   UNL A   1      36.935  28.995  29.782  1.00  0.00     0.010 A 
ATOM     31  C   UNL A   1      38.155  29.749  27.828  1.00  0.00     0.010 A 
ATOM     32  C   UNL A   1      38.152  29.178  29.112  1.00  0.00    -0.014 A 
BRANCH  32  33
ATOM     33  C   UNL A   1      39.410  29.064  29.889  1.00  0.00     0.031 A 
ATOM     34  C   UNL A   1      40.376  28.010  29.419  1.00  0.00     0.074 A 
ATOM     35  C   UNL A   1      39.717  29.868  30.925  1.00  0.00     0.049 A 
ATOM     36  N   UNL A   1      41.508  27.625  29.940  1.00  0.00    -0.248 NA
ATOM     37  C   UNL A   1      40.019  27.310  28.170  1.00  0.00     0.031 C 
ATOM     38  C   UNL A   1      38.927  31.010  31.386  1.00  0.00     0.029 A 
ATOM     39  N   UNL A   1      40.795  29.846  31.780  1.00  0.00    -0.354 N 
ATOM     40  C   UNL A   1      41.990  26.643  29.085  1.00  0.00     0.074 A 
ATOM     41  C   UNL A   1      41.053  26.507  27.998  1.00  0.00     0.031 C 
ATOM     42  C   UNL A   1      39.541  31.569  32.448  1.00  0.00     0.029 A 
ATOM     43  C   UNL A   1      40.737  30.794  32.779  1.00  0.00     0.049 A 
ATOM     44  H   UNL A   1      41.540  29.211  31.687  1.00  0.00     0.167 HD
ATOM     45  C   UNL A   1      43.100  25.884  29.213  1.00  0.00     0.037 A 
ATOM     46  C   UNL A   1      41.539  30.977  33.851  1.00  0.00     0.037 A 
ATOM     47  C   UNL A   1      43.974  25.959  30.345  1.00  0.00     0.049 A 
ATOM     48  C   UNL A   1      42.704  30.025  34.051  1.00  0.00     0.074 A 
ATOM     49  C   UNL A   1      45.050  25.152  30.657  1.00  0.00     0.029 A 
ATOM     50  N   UNL A   1      43.847  26.890  31.366  1.00  0.00    -0.354 N 
ATOM     51  N   UNL A   1      43.115  29.050  33.273  1.00  0.00    -0.248 NA
ATOM     52  C   UNL A   1      43.498  30.179  35.281  1.00  0.00     0.031 C 
ATOM     53  C   UNL A   1      45.551  25.570  31.893  1.00  0.00     0.029 A 
ATOM     54  C   UNL A   1      44.823  26.674  32.317  1.00  0.00     0.049 A 
ATOM     55  H   UNL A   1      43.164  27.597  31.405  1.00  0.00     0.167 HD
ATOM     56  C   UNL A   1      44.229  28.499  33.900  1.00  0.00     0.074 A 
ATOM     57  C   UNL A   1      44.430  29.246  35.123  1.00  0.00     0.031 C 
ATOM     58  C   UNL A   1      45.017  27.469  33.504  1.00  0.00     0.037 A 
BRANCH  45  59
ATOM     59  C   UNL A   1      43.329  24.846  28.156  1.00  0.00     0.058 A 
ATOM     60  C   UNL A   1      42.898  23.520  28.315  1.00  0.00     0.135 A 
ATOM     61  C   UNL A   1      44.062  25.168  27.003  1.00  0.00     0.135 A 
ATOM     62  F   UNL A   1      42.236  23.153  29.424  1.00  0.00    -0.206 F 
ATOM     63  C   UNL A   1      43.211  22.540  27.380  1.00  0.00     0.059 A 
ATOM     64  C   UNL A   1      44.366  24.210  26.043  1.00  0.00     0.059 A 
ATOM     65  F   UNL A   1      44.521  26.416  26.819  1.00  0.00    -0.206 F 
ATOM     66  C   UNL A   1      43.952  22.895  26.250  1.00  0.00     0.060 A 
BRANCH  66  67
ATOM     67  S   UNL A   1      44.377  21.609  25.057  1.00  0.00     0.124 S 
ATOM     68  O   UNL A   1      43.405  20.571  25.388  1.00  0.00    -0.237 OA
ATOM     69  O   UNL A   1      44.170  22.286  23.781  1.00  0.00    -0.237 OA
ATOM     70  O   UNL A   1      45.765  21.294  25.378  1.00  0.00    -0.744 OA
ENDBRANCH  66  67
ENDBRANCH  45  59
BRANCH  46  71
ATOM     71  C   UNL A   1      41.259  32.045  34.859  1.00  0.00     0.058 A 
ATOM     72  C   UNL A   1      40.475  31.796  35.997  1.00  0.00     0.135 A 
ATOM     73  C   UNL A   1      41.726  33.358  34.679  1.00  0.00     0.135 A 
ATOM     74  F   UNL A   1      39.979  30.568  36.213  1.00  0.00    -0.206 F 
ATOM     75  C   UNL A   1      40.153  32.804  36.907  1.00  0.00     0.059 A 
ATOM     76  C   UNL A   1      41.442  34.376  35.588  1.00  0.00     0.059 A 
ATOM     77  F   UNL A   1      42.476  33.664  33.608  1.00  0.00    -0.206 F 
ATOM     78  C   UNL A   1      40.643  34.092  36.694  1.00  0.00     0.060 A 
BRANCH  78  79
ATOM     79  S   UNL A   1      40.255  35.387  37.894  1.00  0.00     0.124 S 
ATOM     80  O   UNL A   1      41.313  35.202  38.881  1.00  0.00    -0.237 OA
ATOM     81  O   UNL A   1      40.343  36.596  37.082  1.00  0.00    -0.237 OA
ATOM     82  O   UNL A   1      38.909  35.037  38.339  1.00  0.00    -0.744 OA
ENDBRANCH  78  79
ENDBRANCH  46  71
BRANCH  58  83
ATOM     83  C   UNL A   1      46.211  27.119  34.343  1.00  0.00     0.058 A 
ATOM     84  C   UNL A   1      46.145  26.148  35.352  1.00  0.00     0.135 A 
ATOM     85  C   UNL A   1      47.470  27.646  34.013  1.00  0.00     0.135 A 
ATOM     86  F   UNL A   1      44.965  25.614  35.703  1.00  0.00    -0.206 F 
ATOM     87  C   UNL A   1      47.294  25.700  35.998  1.00  0.00     0.059 A 
ATOM     88  C   UNL A   1      48.632  27.198  34.628  1.00  0.00     0.059 A 
ATOM     89  F   UNL A   1      47.583  28.568  33.042  1.00  0.00    -0.206 F 
ATOM     90  C   UNL A   1      48.534  26.220  35.618  1.00  0.00     0.060 A 
BRANCH  90  91
ATOM     91  S   UNL A   1      50.025  25.554  36.386  1.00  0.00     0.124 S 
ATOM     92  O   UNL A   1      49.542  24.281  36.910  1.00  0.00    -0.237 OA
ATOM     93  O   UNL A   1      50.945  25.467  35.257  1.00  0.00    -0.237 OA
ATOM     94  O   UNL A   1      50.369  26.557  37.390  1.00  0.00    -0.744 OA
ENDBRANCH  90  91
ENDBRANCH  58  83
ENDBRANCH  32  33
ENDBRANCH  25  27
ENDBRANCH  24  25
ENDBRANCH  23  24
ENDBRANCH   1  23
TORSDOF 20
ENDMDL
