MODEL 1
REMARK VINA RESULT:     -10.9      0.000      0.000
REMARK SMILES CC[C@H](C(=O)OCCOC(=O)c1ccc(-c2c3nc(c(-c4c(F)cc(S(=O)(=O)[O-])cc4F)c4ccc([nH]4)c(-c4c(F)cc(S(=O)(=O)[O-])cc4F)c4nc(c(-c5c(F)cc(S(=O)(=O)[O-])cc5F)c5ccc2[nH]5)C=C4)C=C3)cc1)N(C)c1cc(C)ccc1[N+](=O)[O-]
REMARK SMILES IDX 7 1 6 2 4 3 5 4 3 5 2 6 1 7 78 8 79 9 80 10 81 11 86 12
REMARK SMILES IDX 82 13 85 14 83 15 84 16 87 17 88 18 89 19 8 20 9 21 10 22
REMARK SMILES IDX 11 23 12 24 13 25 77 26 14 27 76 28 15 29 16 30 17 31 70 32
REMARK SMILES IDX 18 33 75 34 69 35 71 36 19 37 74 38 68 39 67 40 20 42 54 43
REMARK SMILES IDX 33 44 53 45 34 46 37 47 52 48 72 49 35 50 36 51 51 53 73 54
REMARK SMILES IDX 38 55 21 56 22 57 31 58 23 59 24 60 30 61 32 62 25 63 26 64
REMARK SMILES IDX 27 65 28 66 29 67 55 68 56 69 65 70 57 71 58 72 64 73 66 74
REMARK SMILES IDX 59 75 60 76 61 77 62 78 63 79 39 80 40 81 49 82 41 83 42 84
REMARK SMILES IDX 48 85 50 86 43 87 44 88 45 89 46 90 47 91
REMARK H PARENT 71 41 37 52
REMARK Flexibility Score: inf
ROOT
ATOM      1  C   UNL A   1      36.559  21.317  25.849  1.00  0.00     0.274 C 
ENDROOT
BRANCH   1   2
ATOM      2  O   UNL A   1      35.742  20.562  24.932  1.00  0.00    -0.461 OA
BRANCH   2   3
ATOM      3  C   UNL A   1      34.392  20.687  25.083  1.00  0.00     0.328 C 
ATOM      4  O   UNL A   1      33.626  19.739  25.224  1.00  0.00    -0.250 OA
BRANCH   3   5
ATOM      5  C   UNL A   1      33.895  22.133  24.912  1.00  0.00     0.192 C 
BRANCH   5   6
ATOM      6  C   UNL A   1      33.023  22.354  23.663  1.00  0.00     0.034 C 
ATOM      7  C   UNL A   1      33.702  23.281  22.657  1.00  0.00     0.007 C 
ENDBRANCH   5   6
BRANCH   5   8
ATOM      8  N   UNL A   1      33.237  22.667  26.140  1.00  0.00    -0.356 N 
ATOM      9  C   UNL A   1      33.492  22.002  27.412  1.00  0.00     0.145 C 
BRANCH   8  10
ATOM     10  C   UNL A   1      32.600  23.896  26.171  1.00  0.00     0.116 A 
ATOM     11  C   UNL A   1      33.370  25.071  26.083  1.00  0.00     0.036 A 
ATOM     12  C   UNL A   1      31.207  24.070  26.291  1.00  0.00     0.292 A 
ATOM     13  C   UNL A   1      32.786  26.352  26.062  1.00  0.00    -0.049 A 
ATOM     14  C   UNL A   1      30.603  25.337  26.212  1.00  0.00     0.088 A 
ATOM     15  C   UNL A   1      33.653  27.577  26.095  1.00  0.00     0.044 C 
ATOM     16  C   UNL A   1      31.396  26.474  26.096  1.00  0.00     0.010 A 
BRANCH  12  17
ATOM     17  N   UNL A   1      30.321  22.953  26.612  1.00  0.00     0.064 N 
ATOM     18  O   UNL A   1      29.750  22.996  27.714  1.00  0.00    -0.258 OA
ATOM     19  O   UNL A   1      30.280  21.997  25.825  1.00  0.00    -0.258 OA
ENDBRANCH  12  17
ENDBRANCH   8  10
ENDBRANCH   5   8
ENDBRANCH   3   5
ENDBRANCH   2   3
ENDBRANCH   1   2
BRANCH   1  20
ATOM     20  C   UNL A   1      38.006  21.470  25.378  1.00  0.00     0.275 C 
BRANCH  20  21
ATOM     21  O   UNL A   1      38.481  22.818  25.526  1.00  0.00    -0.458 OA
BRANCH  21  22
ATOM     22  C   UNL A   1      39.688  22.937  26.119  1.00  0.00     0.338 C 
ATOM     23  O   UNL A   1      40.608  22.127  26.077  1.00  0.00    -0.246 OA
BRANCH  22  24
ATOM     24  C   UNL A   1      39.798  24.246  26.776  1.00  0.00     0.060 A 
ATOM     25  C   UNL A   1      40.654  25.213  26.233  1.00  0.00     0.016 A 
ATOM     26  C   UNL A   1      39.124  24.480  27.976  1.00  0.00     0.016 A 
ATOM     27  C   UNL A   1      40.864  26.416  26.907  1.00  0.00     0.010 A 
ATOM     28  C   UNL A   1      39.342  25.678  28.651  1.00  0.00     0.010 A 
ATOM     29  C   UNL A   1      40.232  26.637  28.135  1.00  0.00    -0.014 A 
BRANCH  29  30
ATOM     30  C   UNL A   1      40.569  27.803  28.979  1.00  0.00     0.031 A 
ATOM     31  C   UNL A   1      41.778  27.713  29.863  1.00  0.00     0.074 A 
ATOM     32  C   UNL A   1      39.763  28.877  29.020  1.00  0.00     0.049 A 
ATOM     33  N   UNL A   1      42.113  28.449  30.887  1.00  0.00    -0.248 NA
ATOM     34  C   UNL A   1      42.731  26.633  29.556  1.00  0.00     0.031 C 
ATOM     35  C   UNL A   1      38.601  29.096  28.158  1.00  0.00     0.029 A 
ATOM     36  N   UNL A   1      39.779  29.967  29.851  1.00  0.00    -0.354 N 
ATOM     37  C   UNL A   1      43.296  27.903  31.371  1.00  0.00     0.074 A 
ATOM     38  C   UNL A   1      43.622  26.775  30.525  1.00  0.00     0.031 C 
ATOM     39  C   UNL A   1      37.992  30.236  28.532  1.00  0.00     0.029 A 
ATOM     40  C   UNL A   1      38.690  30.789  29.690  1.00  0.00     0.049 A 
ATOM     41  H   UNL A   1      40.499  30.143  30.498  1.00  0.00     0.167 HD
ATOM     42  C   UNL A   1      44.033  28.307  32.433  1.00  0.00     0.037 A 
ATOM     43  C   UNL A   1      38.278  31.835  30.432  1.00  0.00     0.037 A 
ATOM     44  C   UNL A   1      43.687  29.431  33.261  1.00  0.00     0.049 A 
ATOM     45  C   UNL A   1      39.076  32.229  31.648  1.00  0.00     0.074 A 
ATOM     46  C   UNL A   1      44.341  29.913  34.380  1.00  0.00     0.029 A 
ATOM     47  N   UNL A   1      42.590  30.254  33.049  1.00  0.00    -0.354 N 
ATOM     48  N   UNL A   1      40.166  31.682  32.132  1.00  0.00    -0.248 NA
ATOM     49  C   UNL A   1      38.582  33.373  32.428  1.00  0.00     0.031 C 
ATOM     50  C   UNL A   1      43.626  31.015  34.859  1.00  0.00     0.029 A 
ATOM     51  C   UNL A   1      42.549  31.242  34.016  1.00  0.00     0.049 A 
ATOM     52  H   UNL A   1      41.938  30.150  32.319  1.00  0.00     0.167 HD
ATOM     53  C   UNL A   1      40.508  32.435  33.250  1.00  0.00     0.074 A 
ATOM     54  C   UNL A   1      39.505  33.473  33.376  1.00  0.00     0.031 C 
ATOM     55  C   UNL A   1      41.557  32.285  34.094  1.00  0.00     0.037 A 
BRANCH  42  56
ATOM     56  C   UNL A   1      45.258  27.507  32.770  1.00  0.00     0.058 A 
ATOM     57  C   UNL A   1      45.198  26.392  33.619  1.00  0.00     0.135 A 
ATOM     58  C   UNL A   1      46.505  27.850  32.224  1.00  0.00     0.135 A 
ATOM     59  F   UNL A   1      44.033  26.035  34.184  1.00  0.00    -0.206 F 
ATOM     60  C   UNL A   1      46.336  25.657  33.934  1.00  0.00     0.059 A 
ATOM     61  C   UNL A   1      47.653  27.117  32.508  1.00  0.00     0.059 A 
ATOM     62  F   UNL A   1      46.619  28.913  31.411  1.00  0.00    -0.206 F 
ATOM     63  C   UNL A   1      47.561  26.030  33.377  1.00  0.00     0.060 A 
BRANCH  63  64
ATOM     64  S   UNL A   1      49.032  25.069  33.794  1.00  0.00     0.124 S 
ATOM     65  O   UNL A   1      49.611  24.838  32.474  1.00  0.00    -0.237 OA
ATOM     66  O   UNL A   1      49.771  25.985  34.658  1.00  0.00    -0.237 OA
ATOM     67  O   UNL A   1      48.489  23.888  34.457  1.00  0.00    -0.744 OA
ENDBRANCH  63  64
ENDBRANCH  42  56
BRANCH  43  68
ATOM     68  C   UNL A   1      37.034  32.563  30.069  1.00  0.00     0.058 A 
ATOM     69  C   UNL A   1      37.078  33.681  29.224  1.00  0.00     0.135 A 
ATOM     70  C   UNL A   1      35.781  32.159  30.556  1.00  0.00     0.135 A 
ATOM     71  F   UNL A   1      38.254  34.111  28.742  1.00  0.00    -0.206 F 
ATOM     72  C   UNL A   1      35.927  34.384  28.884  1.00  0.00     0.059 A 
ATOM     73  C   UNL A   1      34.612  32.833  30.213  1.00  0.00     0.059 A 
ATOM     74  F   UNL A   1      35.684  31.090  31.361  1.00  0.00    -0.206 F 
ATOM     75  C   UNL A   1      34.697  33.952  29.386  1.00  0.00     0.060 A 
BRANCH  75  76
ATOM     76  S   UNL A   1      33.202  34.850  28.913  1.00  0.00     0.124 S 
ATOM     77  O   UNL A   1      32.623  33.951  27.922  1.00  0.00    -0.237 OA
ATOM     78  O   UNL A   1      32.485  34.947  30.181  1.00  0.00    -0.237 OA
ATOM     79  O   UNL A   1      33.720  36.112  28.396  1.00  0.00    -0.744 OA
ENDBRANCH  75  76
ENDBRANCH  43  68
BRANCH  55  80
ATOM     80  C   UNL A   1      41.722  33.302  35.186  1.00  0.00     0.058 A 
ATOM     81  C   UNL A   1      42.459  34.479  34.992  1.00  0.00     0.135 A 
ATOM     82  C   UNL A   1      41.052  33.133  36.407  1.00  0.00     0.135 A 
ATOM     83  F   UNL A   1      43.120  34.681  33.841  1.00  0.00    -0.206 F 
ATOM     84  C   UNL A   1      42.528  35.458  35.978  1.00  0.00     0.059 A 
ATOM     85  C   UNL A   1      41.092  34.107  37.400  1.00  0.00     0.059 A 
ATOM     86  F   UNL A   1      40.328  32.026  36.635  1.00  0.00    -0.206 F 
ATOM     87  C   UNL A   1      41.835  35.266  37.176  1.00  0.00     0.060 A 
BRANCH  87  88
ATOM     88  S   UNL A   1      41.869  36.574  38.420  1.00  0.00     0.124 S 
ATOM     89  O   UNL A   1      42.097  35.811  39.642  1.00  0.00    -0.237 OA
ATOM     90  O   UNL A   1      42.985  37.403  37.973  1.00  0.00    -0.237 OA
ATOM     91  O   UNL A   1      40.552  37.192  38.299  1.00  0.00    -0.744 OA
ENDBRANCH  87  88
ENDBRANCH  55  80
ENDBRANCH  29  30
ENDBRANCH  22  24
ENDBRANCH  21  22
ENDBRANCH  20  21
ENDBRANCH   1  20
TORSDOF 18
ENDMDL
MODEL 2
REMARK VINA RESULT:     -10.5      4.521     10.206
REMARK SMILES CC[C@H](C(=O)OCCOC(=O)c1ccc(-c2c3nc(c(-c4c(F)cc(S(=O)(=O)[O-])cc4F)c4ccc([nH]4)c(-c4c(F)cc(S(=O)(=O)[O-])cc4F)c4nc(c(-c5c(F)cc(S(=O)(=O)[O-])cc5F)c5ccc2[nH]5)C=C4)C=C3)cc1)N(C)c1cc(C)ccc1[N+](=O)[O-]
REMARK SMILES IDX 7 1 6 2 4 3 5 4 3 5 2 6 1 7 78 8 79 9 80 10 81 11 86 12
REMARK SMILES IDX 82 13 85 14 83 15 84 16 87 17 88 18 89 19 8 20 9 21 10 22
REMARK SMILES IDX 11 23 12 24 13 25 77 26 14 27 76 28 15 29 16 30 17 31 70 32
REMARK SMILES IDX 18 33 75 34 69 35 71 36 19 37 74 38 68 39 67 40 20 42 54 43
REMARK SMILES IDX 33 44 53 45 34 46 37 47 52 48 72 49 35 50 36 51 51 53 73 54
REMARK SMILES IDX 38 55 21 56 22 57 31 58 23 59 24 60 30 61 32 62 25 63 26 64
REMARK SMILES IDX 27 65 28 66 29 67 55 68 56 69 65 70 57 71 58 72 64 73 66 74
REMARK SMILES IDX 59 75 60 76 61 77 62 78 63 79 39 80 40 81 49 82 41 83 42 84
REMARK SMILES IDX 48 85 50 86 43 87 44 88 45 89 46 90 47 91
REMARK H PARENT 71 41 37 52
REMARK Flexibility Score: inf
ROOT
ATOM      1  C   UNL A   1      33.965  28.164  26.533  1.00  0.00     0.274 C 
ENDROOT
BRANCH   1   2
ATOM      2  O   UNL A   1      32.874  27.304  26.147  1.00  0.00    -0.461 OA
BRANCH   2   3
ATOM      3  C   UNL A   1      33.216  26.118  25.565  1.00  0.00     0.328 C 
ATOM      4  O   UNL A   1      34.365  25.803  25.275  1.00  0.00    -0.250 OA
BRANCH   3   5
ATOM      5  C   UNL A   1      31.999  25.265  25.169  1.00  0.00     0.192 C 
BRANCH   5   6
ATOM      6  C   UNL A   1      30.829  25.337  26.167  1.00  0.00     0.034 C 
ATOM      7  C   UNL A   1      30.286  23.950  26.500  1.00  0.00     0.007 C 
ENDBRANCH   5   6
BRANCH   5   8
ATOM      8  N   UNL A   1      31.543  25.523  23.772  1.00  0.00    -0.356 N 
ATOM      9  C   UNL A   1      31.367  24.388  22.876  1.00  0.00     0.145 C 
BRANCH   8  10
ATOM     10  C   UNL A   1      31.049  26.751  23.364  1.00  0.00     0.116 A 
ATOM     11  C   UNL A   1      29.669  27.005  23.470  1.00  0.00     0.036 A 
ATOM     12  C   UNL A   1      31.837  27.792  22.833  1.00  0.00     0.292 A 
ATOM     13  C   UNL A   1      29.104  28.246  23.116  1.00  0.00    -0.049 A 
ATOM     14  C   UNL A   1      31.300  29.056  22.531  1.00  0.00     0.088 A 
ATOM     15  C   UNL A   1      27.614  28.427  23.126  1.00  0.00     0.044 C 
ATOM     16  C   UNL A   1      29.934  29.279  22.676  1.00  0.00     0.010 A 
BRANCH  12  17
ATOM     17  N   UNL A   1      33.236  27.581  22.464  1.00  0.00     0.064 N 
ATOM     18  O   UNL A   1      34.071  28.319  23.011  1.00  0.00    -0.258 OA
ATOM     19  O   UNL A   1      33.485  26.768  21.564  1.00  0.00    -0.258 OA
ENDBRANCH  12  17
ENDBRANCH   8  10
ENDBRANCH   5   8
ENDBRANCH   3   5
ENDBRANCH   2   3
ENDBRANCH   1   2
BRANCH   1  20
ATOM     20  C   UNL A   1      33.553  29.245  27.533  1.00  0.00     0.275 C 
BRANCH  20  21
ATOM     21  O   UNL A   1      34.340  30.440  27.389  1.00  0.00    -0.458 OA
BRANCH  21  22
ATOM     22  C   UNL A   1      34.975  30.843  28.509  1.00  0.00     0.338 C 
ATOM     23  O   UNL A   1      34.531  31.589  29.376  1.00  0.00    -0.246 OA
BRANCH  22  24
ATOM     24  C   UNL A   1      36.284  30.185  28.609  1.00  0.00     0.060 A 
ATOM     25  C   UNL A   1      36.728  29.729  29.858  1.00  0.00     0.016 A 
ATOM     26  C   UNL A   1      37.107  30.102  27.484  1.00  0.00     0.016 A 
ATOM     27  C   UNL A   1      38.014  29.211  29.994  1.00  0.00     0.010 A 
ATOM     28  C   UNL A   1      38.395  29.592  27.626  1.00  0.00     0.010 A 
ATOM     29  C   UNL A   1      38.863  29.171  28.883  1.00  0.00    -0.014 A 
BRANCH  29  30
ATOM     30  C   UNL A   1      40.293  28.816  29.014  1.00  0.00     0.031 A 
ATOM     31  C   UNL A   1      41.269  29.910  29.331  1.00  0.00     0.074 A 
ATOM     32  C   UNL A   1      40.714  27.564  28.766  1.00  0.00     0.049 A 
ATOM     33  N   UNL A   1      42.568  29.922  29.207  1.00  0.00    -0.248 NA
ATOM     34  C   UNL A   1      40.697  31.166  29.842  1.00  0.00     0.031 C 
ATOM     35  C   UNL A   1      39.846  26.413  28.514  1.00  0.00     0.029 A 
ATOM     36  N   UNL A   1      41.984  27.063  28.646  1.00  0.00    -0.354 N 
ATOM     37  C   UNL A   1      42.970  31.196  29.590  1.00  0.00     0.074 A 
ATOM     38  C   UNL A   1      41.775  31.928  29.954  1.00  0.00     0.031 C 
ATOM     39  C   UNL A   1      40.613  25.345  28.232  1.00  0.00     0.029 A 
ATOM     40  C   UNL A   1      42.016  25.755  28.230  1.00  0.00     0.049 A 
ATOM     41  H   UNL A   1      42.793  27.590  28.840  1.00  0.00     0.167 HD
ATOM     42  C   UNL A   1      44.223  31.706  29.624  1.00  0.00     0.037 A 
ATOM     43  C   UNL A   1      43.057  24.996  27.838  1.00  0.00     0.037 A 
ATOM     44  C   UNL A   1      45.396  30.959  29.255  1.00  0.00     0.049 A 
ATOM     45  C   UNL A   1      44.437  25.601  27.820  1.00  0.00     0.074 A 
ATOM     46  C   UNL A   1      46.713  31.381  29.220  1.00  0.00     0.029 A 
ATOM     47  N   UNL A   1      45.389  29.628  28.863  1.00  0.00    -0.354 N 
ATOM     48  N   UNL A   1      44.808  26.819  28.136  1.00  0.00    -0.248 NA
ATOM     49  C   UNL A   1      45.540  24.734  27.379  1.00  0.00     0.031 C 
ATOM     50  C   UNL A   1      47.500  30.310  28.785  1.00  0.00     0.029 A 
ATOM     51  C   UNL A   1      46.678  29.211  28.586  1.00  0.00     0.049 A 
ATOM     52  H   UNL A   1      44.585  29.064  28.793  1.00  0.00     0.167 HD
ATOM     53  C   UNL A   1      46.187  26.855  27.967  1.00  0.00     0.074 A 
ATOM     54  C   UNL A   1      46.586  25.537  27.514  1.00  0.00     0.031 C 
ATOM     55  C   UNL A   1      47.048  27.881  28.170  1.00  0.00     0.037 A 
BRANCH  42  56
ATOM     56  C   UNL A   1      44.378  33.139  30.040  1.00  0.00     0.058 A 
ATOM     57  C   UNL A   1      44.124  34.195  29.153  1.00  0.00     0.135 A 
ATOM     58  C   UNL A   1      44.769  33.463  31.350  1.00  0.00     0.135 A 
ATOM     59  F   UNL A   1      43.768  33.940  27.883  1.00  0.00    -0.206 F 
ATOM     60  C   UNL A   1      44.273  35.523  29.541  1.00  0.00     0.059 A 
ATOM     61  C   UNL A   1      44.905  34.784  31.767  1.00  0.00     0.059 A 
ATOM     62  F   UNL A   1      45.031  32.490  32.238  1.00  0.00    -0.206 F 
ATOM     63  C   UNL A   1      44.669  35.808  30.850  1.00  0.00     0.060 A 
BRANCH  63  64
ATOM     64  S   UNL A   1      44.861  37.534  31.342  1.00  0.00     0.124 S 
ATOM     65  O   UNL A   1      44.677  38.220  30.066  1.00  0.00    -0.237 OA
ATOM     66  O   UNL A   1      43.787  37.706  32.314  1.00  0.00    -0.237 OA
ATOM     67  O   UNL A   1      46.213  37.582  31.890  1.00  0.00    -0.744 OA
ENDBRANCH  63  64
ENDBRANCH  42  56
BRANCH  43  68
ATOM     68  C   UNL A   1      42.835  23.594  27.399  1.00  0.00     0.058 A 
ATOM     69  C   UNL A   1      42.849  23.257  26.038  1.00  0.00     0.135 A 
ATOM     70  C   UNL A   1      42.604  22.564  28.326  1.00  0.00     0.135 A 
ATOM     71  F   UNL A   1      43.055  24.209  25.115  1.00  0.00    -0.206 F 
ATOM     72  C   UNL A   1      42.628  21.953  25.607  1.00  0.00     0.059 A 
ATOM     73  C   UNL A   1      42.402  21.248  27.920  1.00  0.00     0.059 A 
ATOM     74  F   UNL A   1      42.590  22.833  29.640  1.00  0.00    -0.206 F 
ATOM     75  C   UNL A   1      42.404  20.955  26.557  1.00  0.00     0.060 A 
BRANCH  75  76
ATOM     76  S   UNL A   1      42.151  19.257  25.991  1.00  0.00     0.124 S 
ATOM     77  O   UNL A   1      40.712  19.238  25.761  1.00  0.00    -0.237 OA
ATOM     78  O   UNL A   1      42.989  19.201  24.797  1.00  0.00    -0.237 OA
ATOM     79  O   UNL A   1      42.622  18.457  27.116  1.00  0.00    -0.744 OA
ENDBRANCH  75  76
ENDBRANCH  43  68
BRANCH  55  80
ATOM     80  C   UNL A   1      48.512  27.611  27.978  1.00  0.00     0.058 A 
ATOM     81  C   UNL A   1      49.327  27.179  29.034  1.00  0.00     0.135 A 
ATOM     82  C   UNL A   1      49.077  27.695  26.696  1.00  0.00     0.135 A 
ATOM     83  F   UNL A   1      48.831  27.088  30.277  1.00  0.00    -0.206 F 
ATOM     84  C   UNL A   1      50.660  26.841  28.824  1.00  0.00     0.059 A 
ATOM     85  C   UNL A   1      50.402  27.345  26.460  1.00  0.00     0.059 A 
ATOM     86  F   UNL A   1      48.332  28.096  25.653  1.00  0.00    -0.206 F 
ATOM     87  C   UNL A   1      51.187  26.920  27.532  1.00  0.00     0.060 A 
BRANCH  87  88
ATOM     88  S   UNL A   1      52.896  26.409  27.257  1.00  0.00     0.124 S 
ATOM     89  O   UNL A   1      52.715  25.169  26.510  1.00  0.00    -0.237 OA
ATOM     90  O   UNL A   1      53.442  27.532  26.499  1.00  0.00    -0.237 OA
ATOM     91  O   UNL A   1      53.427  26.259  28.609  1.00  0.00    -0.744 OA
ENDBRANCH  87  88
ENDBRANCH  55  80
ENDBRANCH  29  30
ENDBRANCH  22  24
ENDBRANCH  21  22
ENDBRANCH  20  21
ENDBRANCH   1  20
TORSDOF 18
ENDMDL
MODEL 3
REMARK VINA RESULT:     -10.4      3.980      9.943
REMARK SMILES CC[C@H](C(=O)OCCOC(=O)c1ccc(-c2c3nc(c(-c4c(F)cc(S(=O)(=O)[O-])cc4F)c4ccc([nH]4)c(-c4c(F)cc(S(=O)(=O)[O-])cc4F)c4nc(c(-c5c(F)cc(S(=O)(=O)[O-])cc5F)c5ccc2[nH]5)C=C4)C=C3)cc1)N(C)c1cc(C)ccc1[N+](=O)[O-]
REMARK SMILES IDX 7 1 6 2 4 3 5 4 3 5 2 6 1 7 78 8 79 9 80 10 81 11 86 12
REMARK SMILES IDX 82 13 85 14 83 15 84 16 87 17 88 18 89 19 8 20 9 21 10 22
REMARK SMILES IDX 11 23 12 24 13 25 77 26 14 27 76 28 15 29 16 30 17 31 70 32
REMARK SMILES IDX 18 33 75 34 69 35 71 36 19 37 74 38 68 39 67 40 20 42 54 43
REMARK SMILES IDX 33 44 53 45 34 46 37 47 52 48 72 49 35 50 36 51 51 53 73 54
REMARK SMILES IDX 38 55 21 56 22 57 31 58 23 59 24 60 30 61 32 62 25 63 26 64
REMARK SMILES IDX 27 65 28 66 29 67 55 68 56 69 65 70 57 71 58 72 64 73 66 74
REMARK SMILES IDX 59 75 60 76 61 77 62 78 63 79 39 80 40 81 49 82 41 83 42 84
REMARK SMILES IDX 48 85 50 86 43 87 44 88 45 89 46 90 47 91
REMARK H PARENT 71 41 37 52
REMARK Flexibility Score: inf
ROOT
ATOM      1  C   UNL A   1      31.946  30.407  25.874  1.00  0.00     0.274 C 
ENDROOT
BRANCH   1   2
ATOM      2  O   UNL A   1      31.547  29.044  25.625  1.00  0.00    -0.461 OA
BRANCH   2   3
ATOM      3  C   UNL A   1      31.473  28.667  24.316  1.00  0.00     0.328 C 
ATOM      4  O   UNL A   1      30.702  29.163  23.501  1.00  0.00    -0.250 OA
BRANCH   3   5
ATOM      5  C   UNL A   1      32.352  27.448  23.986  1.00  0.00     0.192 C 
BRANCH   5   6
ATOM      6  C   UNL A   1      33.738  27.474  24.655  1.00  0.00     0.034 C 
ATOM      7  C   UNL A   1      33.686  26.932  26.082  1.00  0.00     0.007 C 
ENDBRANCH   5   6
BRANCH   5   8
ATOM      8  N   UNL A   1      31.654  26.151  24.225  1.00  0.00    -0.356 N 
ATOM      9  C   UNL A   1      30.284  26.179  24.721  1.00  0.00     0.145 C 
BRANCH   8  10
ATOM     10  C   UNL A   1      32.152  24.942  23.771  1.00  0.00     0.116 A 
ATOM     11  C   UNL A   1      32.367  23.899  24.690  1.00  0.00     0.036 A 
ATOM     12  C   UNL A   1      32.474  24.665  22.426  1.00  0.00     0.292 A 
ATOM     13  C   UNL A   1      32.829  22.629  24.293  1.00  0.00    -0.049 A 
ATOM     14  C   UNL A   1      32.878  23.387  22.003  1.00  0.00     0.088 A 
ATOM     15  C   UNL A   1      33.163  21.590  25.323  1.00  0.00     0.044 C 
ATOM     16  C   UNL A   1      33.052  22.372  22.938  1.00  0.00     0.010 A 
BRANCH  12  17
ATOM     17  N   UNL A   1      32.510  25.720  21.415  1.00  0.00     0.064 N 
ATOM     18  O   UNL A   1      33.622  26.211  21.165  1.00  0.00    -0.258 OA
ATOM     19  O   UNL A   1      31.432  26.126  20.959  1.00  0.00    -0.258 OA
ENDBRANCH  12  17
ENDBRANCH   8  10
ENDBRANCH   5   8
ENDBRANCH   3   5
ENDBRANCH   2   3
ENDBRANCH   1   2
BRANCH   1  20
ATOM     20  C   UNL A   1      32.514  30.619  27.279  1.00  0.00     0.275 C 
BRANCH  20  21
ATOM     21  O   UNL A   1      33.881  30.185  27.378  1.00  0.00    -0.458 OA
BRANCH  21  22
ATOM     22  C   UNL A   1      34.651  30.912  28.215  1.00  0.00     0.338 C 
ATOM     23  O   UNL A   1      34.331  31.944  28.795  1.00  0.00    -0.246 OA
BRANCH  22  24
ATOM     24  C   UNL A   1      35.941  30.240  28.419  1.00  0.00     0.060 A 
ATOM     25  C   UNL A   1      36.249  29.721  29.684  1.00  0.00     0.016 A 
ATOM     26  C   UNL A   1      36.878  30.207  27.386  1.00  0.00     0.016 A 
ATOM     27  C   UNL A   1      37.513  29.189  29.931  1.00  0.00     0.010 A 
ATOM     28  C   UNL A   1      38.143  29.682  27.637  1.00  0.00     0.010 A 
ATOM     29  C   UNL A   1      38.475  29.197  28.915  1.00  0.00    -0.014 A 
BRANCH  29  30
ATOM     30  C   UNL A   1      39.882  28.826  29.178  1.00  0.00     0.031 A 
ATOM     31  C   UNL A   1      40.822  29.898  29.645  1.00  0.00     0.074 A 
ATOM     32  C   UNL A   1      40.324  27.584  28.919  1.00  0.00     0.049 A 
ATOM     33  N   UNL A   1      42.128  29.907  29.658  1.00  0.00    -0.248 NA
ATOM     34  C   UNL A   1      40.202  31.134  30.150  1.00  0.00     0.031 C 
ATOM     35  C   UNL A   1      39.485  26.452  28.525  1.00  0.00     0.029 A 
ATOM     36  N   UNL A   1      41.599  27.081  28.910  1.00  0.00    -0.354 N 
ATOM     37  C   UNL A   1      42.489  31.160  30.140  1.00  0.00     0.074 A 
ATOM     38  C   UNL A   1      41.264  31.883  30.410  1.00  0.00     0.031 C 
ATOM     39  C   UNL A   1      40.275  25.393  28.277  1.00  0.00     0.029 A 
ATOM     40  C   UNL A   1      41.671  25.792  28.440  1.00  0.00     0.049 A 
ATOM     41  H   UNL A   1      42.385  27.592  29.211  1.00  0.00     0.167 HD
ATOM     42  C   UNL A   1      43.733  31.658  30.327  1.00  0.00     0.037 A 
ATOM     43  C   UNL A   1      42.747  25.044  28.125  1.00  0.00     0.037 A 
ATOM     44  C   UNL A   1      44.937  30.921  30.050  1.00  0.00     0.049 A 
ATOM     45  C   UNL A   1      44.122  25.640  28.279  1.00  0.00     0.074 A 
ATOM     46  C   UNL A   1      46.251  31.335  30.172  1.00  0.00     0.029 A 
ATOM     47  N   UNL A   1      44.967  29.610  29.599  1.00  0.00    -0.354 N 
ATOM     48  N   UNL A   1      44.460  26.840  28.687  1.00  0.00    -0.248 NA
ATOM     49  C   UNL A   1      45.263  24.786  27.917  1.00  0.00     0.031 C 
ATOM     50  C   UNL A   1      47.077  30.279  29.774  1.00  0.00     0.029 A 
ATOM     51  C   UNL A   1      46.278  29.196  29.439  1.00  0.00     0.049 A 
ATOM     52  H   UNL A   1      44.174  29.055  29.419  1.00  0.00     0.167 HD
ATOM     53  C   UNL A   1      45.850  26.874  28.665  1.00  0.00     0.074 A 
ATOM     54  C   UNL A   1      46.291  25.575  28.197  1.00  0.00     0.031 C 
ATOM     55  C   UNL A   1      46.686  27.884  29.005  1.00  0.00     0.037 A 
BRANCH  42  56
ATOM     56  C   UNL A   1      43.847  33.071  30.823  1.00  0.00     0.058 A 
ATOM     57  C   UNL A   1      43.935  33.366  32.191  1.00  0.00     0.135 A 
ATOM     58  C   UNL A   1      43.886  34.143  29.917  1.00  0.00     0.135 A 
ATOM     59  F   UNL A   1      43.881  32.379  33.100  1.00  0.00    -0.206 F 
ATOM     60  C   UNL A   1      44.034  34.677  32.647  1.00  0.00     0.059 A 
ATOM     61  C   UNL A   1      44.006  35.460  30.348  1.00  0.00     0.059 A 
ATOM     62  F   UNL A   1      43.799  33.916  28.596  1.00  0.00    -0.206 F 
ATOM     63  C   UNL A   1      44.065  35.719  31.717  1.00  0.00     0.060 A 
BRANCH  63  64
ATOM     64  S   UNL A   1      44.192  37.415  32.320  1.00  0.00     0.124 S 
ATOM     65  O   UNL A   1      45.552  37.432  32.851  1.00  0.00    -0.237 OA
ATOM     66  O   UNL A   1      43.977  38.198  31.107  1.00  0.00    -0.237 OA
ATOM     67  O   UNL A   1      43.128  37.503  33.316  1.00  0.00    -0.744 OA
ENDBRANCH  63  64
ENDBRANCH  42  56
BRANCH  43  68
ATOM     68  C   UNL A   1      42.568  23.665  27.602  1.00  0.00     0.058 A 
ATOM     69  C   UNL A   1      42.609  22.560  28.463  1.00  0.00     0.135 A 
ATOM     70  C   UNL A   1      42.353  23.423  26.235  1.00  0.00     0.135 A 
ATOM     71  F   UNL A   1      42.823  22.741  29.775  1.00  0.00    -0.206 F 
ATOM     72  C   UNL A   1      42.459  21.260  27.990  1.00  0.00     0.059 A 
ATOM     73  C   UNL A   1      42.178  22.133  25.741  1.00  0.00     0.059 A 
ATOM     74  F   UNL A   1      42.296  24.447  25.371  1.00  0.00    -0.206 F 
ATOM     75  C   UNL A   1      42.245  21.057  26.625  1.00  0.00     0.060 A 
BRANCH  75  76
ATOM     76  S   UNL A   1      42.017  19.369  26.023  1.00  0.00     0.124 S 
ATOM     77  O   UNL A   1      40.581  19.340  25.772  1.00  0.00    -0.237 OA
ATOM     78  O   UNL A   1      42.871  19.344  24.839  1.00  0.00    -0.237 OA
ATOM     79  O   UNL A   1      42.481  18.551  27.138  1.00  0.00    -0.744 OA
ENDBRANCH  75  76
ENDBRANCH  43  68
BRANCH  55  80
ATOM     80  C   UNL A   1      48.162  27.612  28.954  1.00  0.00     0.058 A 
ATOM     81  C   UNL A   1      48.933  27.935  27.829  1.00  0.00     0.135 A 
ATOM     82  C   UNL A   1      48.821  27.110  30.087  1.00  0.00     0.135 A 
ATOM     83  F   UNL A   1      48.345  28.414  26.721  1.00  0.00    -0.206 F 
ATOM     84  C   UNL A   1      50.314  27.766  27.827  1.00  0.00     0.059 A 
ATOM     85  C   UNL A   1      50.202  26.950  30.114  1.00  0.00     0.059 A 
ATOM     86  F   UNL A   1      48.124  26.794  31.190  1.00  0.00    -0.206 F 
ATOM     87  C   UNL A   1      50.940  27.280  28.977  1.00  0.00     0.060 A 
BRANCH  87  88
ATOM     88  S   UNL A   1      52.740  27.133  28.992  1.00  0.00     0.124 S 
ATOM     89  O   UNL A   1      53.149  28.529  28.880  1.00  0.00    -0.237 OA
ATOM     90  O   UNL A   1      52.993  26.500  30.284  1.00  0.00    -0.237 OA
ATOM     91  O   UNL A   1      53.022  26.299  27.829  1.00  0.00    -0.744 OA
ENDBRANCH  87  88
ENDBRANCH  55  80
ENDBRANCH  29  30
ENDBRANCH  22  24
ENDBRANCH  21  22
ENDBRANCH  20  21
ENDBRANCH   1  20
TORSDOF 18
ENDMDL
