MODEL 1
REMARK VINA RESULT:     -10.2      0.000      0.000
REMARK SMILES C[C@@H](NS(=O)(=O)c1ccc2c(c1)CCC2)C(=O)OCCOC(=O)c1ccc(-c2c3nc(c(-c4c(F)cc(S(=O)(=O)[O-])cc4F)c4ccc([nH]4)c(-c4c(F)cc(S(=O)(=O)[O-])cc4F)c4nc(c(-c5c(F)cc(S(=O)(=O)[O-])cc5F)c5ccc2[nH]5)C=C4)C=C3)cc1
REMARK SMILES IDX 19 1 18 2 16 3 17 4 2 5 1 6 3 7 4 9 5 10 6 11 7 12 8 13
REMARK SMILES IDX 12 14 9 15 11 16 10 17 13 18 15 19 14 20 20 21 21 22 22 23
REMARK SMILES IDX 23 24 24 25 25 26 89 27 26 28 88 29 27 30 28 31 29 32 82 33
REMARK SMILES IDX 30 34 87 35 81 36 83 37 31 38 86 39 80 40 79 41 32 43 66 44
REMARK SMILES IDX 45 45 65 46 46 47 49 48 64 49 84 50 47 51 48 52 63 54 85 55
REMARK SMILES IDX 50 56 33 57 34 58 43 59 35 60 36 61 42 62 44 63 37 64 38 65
REMARK SMILES IDX 39 66 40 67 41 68 67 69 68 70 77 71 69 72 70 73 76 74 78 75
REMARK SMILES IDX 71 76 72 77 73 78 74 79 75 80 51 81 52 82 61 83 53 84 54 85
REMARK SMILES IDX 60 86 62 87 55 88 56 89 57 90 58 91 59 92
REMARK H PARENT 3 8 83 42 49 53
REMARK Flexibility Score: inf
ROOT
ATOM      1  C   UNL A   1      33.417  34.376  28.368  1.00  0.00     0.274 C 
ENDROOT
BRANCH   1   2
ATOM      2  O   UNL A   1      32.608  34.631  29.534  1.00  0.00    -0.461 OA
BRANCH   2   3
ATOM      3  C   UNL A   1      32.871  35.815  30.145  1.00  0.00     0.324 C 
ATOM      4  O   UNL A   1      33.072  36.856  29.537  1.00  0.00    -0.250 OA
BRANCH   3   5
ATOM      5  C   UNL A   1      32.988  35.751  31.653  1.00  0.00     0.176 C 
ATOM      6  C   UNL A   1      31.673  36.080  32.347  1.00  0.00     0.038 C 
BRANCH   5   7
ATOM      7  N   UNL A   1      33.529  34.440  32.095  1.00  0.00    -0.197 NA
ATOM      8  H   UNL A   1      33.733  33.894  31.258  1.00  0.00     0.142 HD
BRANCH   7   9
ATOM      9  S   UNL A   1      34.945  34.458  33.054  1.00  0.00     0.241 S 
ATOM     10  O   UNL A   1      35.125  35.808  33.529  1.00  0.00    -0.207 OA
ATOM     11  O   UNL A   1      34.781  33.349  33.973  1.00  0.00    -0.207 OA
BRANCH   9  12
ATOM     12  C   UNL A   1      36.262  34.025  31.939  1.00  0.00     0.082 A 
ATOM     13  C   UNL A   1      35.954  33.588  30.640  1.00  0.00     0.022 A 
ATOM     14  C   UNL A   1      37.590  34.204  32.343  1.00  0.00     0.025 A 
ATOM     15  C   UNL A   1      36.975  33.411  29.699  1.00  0.00     0.005 A 
ATOM     16  C   UNL A   1      38.572  34.147  31.368  1.00  0.00    -0.043 A 
ATOM     17  C   UNL A   1      38.271  33.742  30.064  1.00  0.00    -0.045 A 
ATOM     18  C   UNL A   1      39.999  34.595  31.482  1.00  0.00     0.036 C 
ATOM     19  C   UNL A   1      39.504  33.773  29.215  1.00  0.00     0.036 C 
ATOM     20  C   UNL A   1      40.366  34.775  29.999  1.00  0.00     0.010 C 
ENDBRANCH   9  12
ENDBRANCH   7   9
ENDBRANCH   5   7
ENDBRANCH   3   5
ENDBRANCH   2   3
ENDBRANCH   1   2
BRANCH   1  21
ATOM     21  C   UNL A   1      33.287  32.964  27.763  1.00  0.00     0.275 C 
BRANCH  21  22
ATOM     22  O   UNL A   1      34.052  31.944  28.444  1.00  0.00    -0.458 OA
BRANCH  22  23
ATOM     23  C   UNL A   1      34.372  30.870  27.676  1.00  0.00     0.338 C 
ATOM     24  O   UNL A   1      33.768  30.504  26.677  1.00  0.00    -0.246 OA
BRANCH  23  25
ATOM     25  C   UNL A   1      35.685  30.290  28.046  1.00  0.00     0.060 A 
ATOM     26  C   UNL A   1      35.759  29.636  29.283  1.00  0.00     0.016 A 
ATOM     27  C   UNL A   1      36.839  30.442  27.277  1.00  0.00     0.016 A 
ATOM     28  C   UNL A   1      36.966  29.145  29.765  1.00  0.00     0.010 A 
ATOM     29  C   UNL A   1      38.067  29.971  27.778  1.00  0.00     0.010 A 
ATOM     30  C   UNL A   1      38.140  29.340  29.035  1.00  0.00    -0.014 A 
BRANCH  30  31
ATOM     31  C   UNL A   1      39.430  28.985  29.684  1.00  0.00     0.031 A 
ATOM     32  C   UNL A   1      39.836  29.684  30.955  1.00  0.00     0.074 A 
ATOM     33  C   UNL A   1      40.170  27.961  29.215  1.00  0.00     0.049 A 
ATOM     34  N   UNL A   1      40.903  29.511  31.694  1.00  0.00    -0.248 NA
ATOM     35  C   UNL A   1      38.915  30.712  31.465  1.00  0.00     0.031 C 
ATOM     36  C   UNL A   1      39.847  27.159  28.034  1.00  0.00     0.029 A 
ATOM     37  N   UNL A   1      41.337  27.408  29.684  1.00  0.00    -0.354 N 
ATOM     38  C   UNL A   1      40.782  30.405  32.753  1.00  0.00     0.074 A 
ATOM     39  C   UNL A   1      39.557  31.146  32.539  1.00  0.00     0.031 C 
ATOM     40  C   UNL A   1      40.793  26.220  27.869  1.00  0.00     0.029 A 
ATOM     41  C   UNL A   1      41.809  26.376  28.908  1.00  0.00     0.049 A 
ATOM     42  H   UNL A   1      41.792  27.722  30.498  1.00  0.00     0.167 HD
ATOM     43  C   UNL A   1      41.608  30.582  33.811  1.00  0.00     0.037 A 
ATOM     44  C   UNL A   1      42.944  25.655  29.007  1.00  0.00     0.037 A 
ATOM     45  C   UNL A   1      42.825  29.836  34.021  1.00  0.00     0.049 A 
ATOM     46  C   UNL A   1      43.883  25.920  30.155  1.00  0.00     0.074 A 
ATOM     47  C   UNL A   1      43.740  29.954  35.053  1.00  0.00     0.029 A 
ATOM     48  N   UNL A   1      43.297  28.833  33.186  1.00  0.00    -0.354 N 
ATOM     49  N   UNL A   1      43.766  26.783  31.137  1.00  0.00    -0.248 NA
ATOM     50  C   UNL A   1      45.107  25.108  30.214  1.00  0.00     0.031 C 
ATOM     51  C   UNL A   1      44.788  29.058  34.816  1.00  0.00     0.029 A 
ATOM     52  C   UNL A   1      44.497  28.337  33.669  1.00  0.00     0.049 A 
ATOM     53  H   UNL A   1      42.843  28.518  32.371  1.00  0.00     0.167 HD
ATOM     54  C   UNL A   1      44.889  26.604  31.939  1.00  0.00     0.074 A 
ATOM     55  C   UNL A   1      45.657  25.530  31.343  1.00  0.00     0.031 C 
ATOM     56  C   UNL A   1      45.257  27.272  33.062  1.00  0.00     0.037 A 
BRANCH  43  57
ATOM     57  C   UNL A   1      41.239  31.639  34.818  1.00  0.00     0.058 A 
ATOM     58  C   UNL A   1      40.406  31.360  35.915  1.00  0.00     0.135 A 
ATOM     59  C   UNL A   1      41.760  32.939  34.711  1.00  0.00     0.135 A 
ATOM     60  F   UNL A   1      39.862  30.141  36.058  1.00  0.00    -0.206 F 
ATOM     61  C   UNL A   1      40.089  32.335  36.856  1.00  0.00     0.059 A 
ATOM     62  C   UNL A   1      41.480  33.922  35.656  1.00  0.00     0.059 A 
ATOM     63  F   UNL A   1      42.558  33.264  33.682  1.00  0.00    -0.206 F 
ATOM     64  C   UNL A   1      40.634  33.613  36.720  1.00  0.00     0.060 A 
BRANCH  64  65
ATOM     65  S   UNL A   1      40.228  34.859  37.962  1.00  0.00     0.124 S 
ATOM     66  O   UNL A   1      40.391  36.094  37.201  1.00  0.00    -0.237 OA
ATOM     67  O   UNL A   1      38.856  34.510  38.316  1.00  0.00    -0.237 OA
ATOM     68  O   UNL A   1      41.219  34.634  39.009  1.00  0.00    -0.744 OA
ENDBRANCH  64  65
ENDBRANCH  43  57
BRANCH  44  69
ATOM     69  C   UNL A   1      43.278  24.641  27.966  1.00  0.00     0.058 A 
ATOM     70  C   UNL A   1      42.917  23.293  28.104  1.00  0.00     0.135 A 
ATOM     71  C   UNL A   1      43.993  25.008  26.814  1.00  0.00     0.135 A 
ATOM     72  F   UNL A   1      42.246  22.886  29.194  1.00  0.00    -0.206 F 
ATOM     73  C   UNL A   1      43.273  22.341  27.153  1.00  0.00     0.059 A 
ATOM     74  C   UNL A   1      44.330  24.081  25.832  1.00  0.00     0.059 A 
ATOM     75  F   UNL A   1      44.359  26.285  26.626  1.00  0.00    -0.206 F 
ATOM     76  C   UNL A   1      43.980  22.746  26.019  1.00  0.00     0.060 A 
BRANCH  76  77
ATOM     77  S   UNL A   1      44.416  21.510  24.777  1.00  0.00     0.124 S 
ATOM     78  O   UNL A   1      43.417  20.478  25.025  1.00  0.00    -0.237 OA
ATOM     79  O   UNL A   1      44.266  22.257  23.532  1.00  0.00    -0.237 OA
ATOM     80  O   UNL A   1      45.790  21.154  25.125  1.00  0.00    -0.744 OA
ENDBRANCH  76  77
ENDBRANCH  44  69
BRANCH  56  81
ATOM     81  C   UNL A   1      46.536  26.838  33.731  1.00  0.00     0.058 A 
ATOM     82  C   UNL A   1      47.766  27.458  33.451  1.00  0.00     0.135 A 
ATOM     83  C   UNL A   1      46.533  25.789  34.665  1.00  0.00     0.135 A 
ATOM     84  F   UNL A   1      47.828  28.465  32.565  1.00  0.00    -0.206 F 
ATOM     85  C   UNL A   1      48.951  27.019  34.032  1.00  0.00     0.059 A 
ATOM     86  C   UNL A   1      47.702  25.358  35.286  1.00  0.00     0.059 A 
ATOM     87  F   UNL A   1      45.385  25.170  34.985  1.00  0.00    -0.206 F 
ATOM     88  C   UNL A   1      48.910  25.964  34.945  1.00  0.00     0.060 A 
BRANCH  88  89
ATOM     89  S   UNL A   1      50.456  25.394  35.680  1.00  0.00     0.124 S 
ATOM     90  O   UNL A   1      49.972  24.480  36.711  1.00  0.00    -0.237 OA
ATOM     91  O   UNL A   1      51.131  24.770  34.546  1.00  0.00    -0.237 OA
ATOM     92  O   UNL A   1      51.074  26.622  36.171  1.00  0.00    -0.744 OA
ENDBRANCH  88  89
ENDBRANCH  56  81
ENDBRANCH  30  31
ENDBRANCH  23  25
ENDBRANCH  22  23
ENDBRANCH  21  22
ENDBRANCH   1  21
TORSDOF 17
ENDMDL
MODEL 2
REMARK VINA RESULT:     -10.1      3.012     12.282
REMARK SMILES C[C@@H](NS(=O)(=O)c1ccc2c(c1)CCC2)C(=O)OCCOC(=O)c1ccc(-c2c3nc(c(-c4c(F)cc(S(=O)(=O)[O-])cc4F)c4ccc([nH]4)c(-c4c(F)cc(S(=O)(=O)[O-])cc4F)c4nc(c(-c5c(F)cc(S(=O)(=O)[O-])cc5F)c5ccc2[nH]5)C=C4)C=C3)cc1
REMARK SMILES IDX 19 1 18 2 16 3 17 4 2 5 1 6 3 7 4 9 5 10 6 11 7 12 8 13
REMARK SMILES IDX 12 14 9 15 11 16 10 17 13 18 15 19 14 20 20 21 21 22 22 23
REMARK SMILES IDX 23 24 24 25 25 26 89 27 26 28 88 29 27 30 28 31 29 32 82 33
REMARK SMILES IDX 30 34 87 35 81 36 83 37 31 38 86 39 80 40 79 41 32 43 66 44
REMARK SMILES IDX 45 45 65 46 46 47 49 48 64 49 84 50 47 51 48 52 63 54 85 55
REMARK SMILES IDX 50 56 33 57 34 58 43 59 35 60 36 61 42 62 44 63 37 64 38 65
REMARK SMILES IDX 39 66 40 67 41 68 67 69 68 70 77 71 69 72 70 73 76 74 78 75
REMARK SMILES IDX 71 76 72 77 73 78 74 79 75 80 51 81 52 82 61 83 53 84 54 85
REMARK SMILES IDX 60 86 62 87 55 88 56 89 57 90 58 91 59 92
REMARK H PARENT 3 8 83 42 49 53
REMARK Flexibility Score: inf
ROOT
ATOM      1  C   UNL A   1      40.259  21.600  26.192  1.00  0.00     0.274 C 
ENDROOT
BRANCH   1   2
ATOM      2  O   UNL A   1      41.594  21.064  26.092  1.00  0.00    -0.461 OA
BRANCH   2   3
ATOM      3  C   UNL A   1      41.641  19.719  25.912  1.00  0.00     0.324 C 
ATOM      4  O   UNL A   1      40.648  19.029  25.730  1.00  0.00    -0.250 OA
BRANCH   3   5
ATOM      5  C   UNL A   1      43.017  19.099  26.036  1.00  0.00     0.176 C 
ATOM      6  C   UNL A   1      43.063  18.011  27.101  1.00  0.00     0.038 C 
BRANCH   5   7
ATOM      7  N   UNL A   1      43.502  18.603  24.722  1.00  0.00    -0.197 NA
ATOM      8  H   UNL A   1      42.858  18.943  24.008  1.00  0.00     0.142 HD
BRANCH   7   9
ATOM      9  S   UNL A   1      45.081  19.056  24.248  1.00  0.00     0.241 S 
ATOM     10  O   UNL A   1      46.004  18.384  25.129  1.00  0.00    -0.207 OA
ATOM     11  O   UNL A   1      45.111  18.837  22.814  1.00  0.00    -0.207 OA
BRANCH   9  12
ATOM     12  C   UNL A   1      45.156  20.813  24.512  1.00  0.00     0.082 A 
ATOM     13  C   UNL A   1      44.504  21.677  23.616  1.00  0.00     0.022 A 
ATOM     14  C   UNL A   1      45.793  21.309  25.656  1.00  0.00     0.025 A 
ATOM     15  C   UNL A   1      44.406  23.043  23.904  1.00  0.00     0.005 A 
ATOM     16  C   UNL A   1      45.578  22.636  25.987  1.00  0.00    -0.043 A 
ATOM     17  C   UNL A   1      44.905  23.497  25.115  1.00  0.00    -0.045 A 
ATOM     18  C   UNL A   1      45.886  23.313  27.289  1.00  0.00     0.036 C 
ATOM     19  C   UNL A   1      44.805  24.866  25.715  1.00  0.00     0.036 C 
ATOM     20  C   UNL A   1      44.956  24.537  27.208  1.00  0.00     0.010 C 
ENDBRANCH   9  12
ENDBRANCH   7   9
ENDBRANCH   5   7
ENDBRANCH   3   5
ENDBRANCH   2   3
ENDBRANCH   1   2
BRANCH   1  21
ATOM     21  C   UNL A   1      40.162  23.065  26.663  1.00  0.00     0.275 C 
BRANCH  21  22
ATOM     22  O   UNL A   1      41.403  23.802  26.600  1.00  0.00    -0.458 OA
BRANCH  22  23
ATOM     23  C   UNL A   1      41.262  25.126  26.332  1.00  0.00     0.338 C 
ATOM     24  O   UNL A   1      40.935  25.603  25.254  1.00  0.00    -0.246 OA
BRANCH  23  25
ATOM     25  C   UNL A   1      41.332  25.956  27.559  1.00  0.00     0.060 A 
ATOM     26  C   UNL A   1      40.255  25.856  28.449  1.00  0.00     0.016 A 
ATOM     27  C   UNL A   1      42.352  26.872  27.812  1.00  0.00     0.016 A 
ATOM     28  C   UNL A   1      40.177  26.663  29.578  1.00  0.00     0.010 A 
ATOM     29  C   UNL A   1      42.261  27.710  28.939  1.00  0.00     0.010 A 
ATOM     30  C   UNL A   1      41.162  27.625  29.816  1.00  0.00    -0.014 A 
BRANCH  30  31
ATOM     31  C   UNL A   1      40.930  28.600  30.914  1.00  0.00     0.031 A 
ATOM     32  C   UNL A   1      41.827  28.580  32.124  1.00  0.00     0.074 A 
ATOM     33  C   UNL A   1      40.010  29.575  30.776  1.00  0.00     0.049 A 
ATOM     34  N   UNL A   1      41.815  29.353  33.180  1.00  0.00    -0.248 NA
ATOM     35  C   UNL A   1      42.882  27.555  32.144  1.00  0.00     0.031 C 
ATOM     36  C   UNL A   1      39.128  29.745  29.621  1.00  0.00     0.029 A 
ATOM     37  N   UNL A   1      39.675  30.617  31.607  1.00  0.00    -0.354 N 
ATOM     38  C   UNL A   1      42.857  28.910  33.988  1.00  0.00     0.074 A 
ATOM     39  C   UNL A   1      43.455  27.775  33.319  1.00  0.00     0.031 C 
ATOM     40  C   UNL A   1      38.352  30.823  29.817  1.00  0.00     0.029 A 
ATOM     41  C   UNL A   1      38.653  31.400  31.125  1.00  0.00     0.049 A 
ATOM     42  H   UNL A   1      40.125  30.787  32.465  1.00  0.00     0.167 HD
ATOM     43  C   UNL A   1      43.283  29.412  35.173  1.00  0.00     0.037 A 
ATOM     44  C   UNL A   1      38.013  32.447  31.685  1.00  0.00     0.037 A 
ATOM     45  C   UNL A   1      42.685  30.547  35.832  1.00  0.00     0.049 A 
ATOM     46  C   UNL A   1      38.460  32.941  33.037  1.00  0.00     0.074 A 
ATOM     47  C   UNL A   1      43.033  31.120  37.043  1.00  0.00     0.029 A 
ATOM     48  N   UNL A   1      41.618  31.283  35.338  1.00  0.00    -0.354 N 
ATOM     49  N   UNL A   1      39.433  32.499  33.798  1.00  0.00    -0.248 NA
ATOM     50  C   UNL A   1      37.727  34.082  33.602  1.00  0.00     0.031 C 
ATOM     51  C   UNL A   1      42.146  32.170  37.304  1.00  0.00     0.029 A 
ATOM     52  C   UNL A   1      41.283  32.292  36.226  1.00  0.00     0.049 A 
ATOM     53  H   UNL A   1      41.166  31.114  34.480  1.00  0.00     0.167 HD
ATOM     54  C   UNL A   1      39.440  33.319  34.923  1.00  0.00     0.074 A 
ATOM     55  C   UNL A   1      38.395  34.302  34.726  1.00  0.00     0.031 C 
ATOM     56  C   UNL A   1      40.233  33.260  36.023  1.00  0.00     0.037 A 
BRANCH  43  57
ATOM     57  C   UNL A   1      44.440  28.724  35.847  1.00  0.00     0.058 A 
ATOM     58  C   UNL A   1      45.771  29.102  35.604  1.00  0.00     0.135 A 
ATOM     59  C   UNL A   1      44.214  27.702  36.784  1.00  0.00     0.135 A 
ATOM     60  F   UNL A   1      46.050  30.058  34.705  1.00  0.00    -0.206 F 
ATOM     61  C   UNL A   1      46.835  28.480  36.251  1.00  0.00     0.059 A 
ATOM     62  C   UNL A   1      45.261  27.085  37.464  1.00  0.00     0.059 A 
ATOM     63  F   UNL A   1      42.963  27.297  37.054  1.00  0.00    -0.206 F 
ATOM     64  C   UNL A   1      46.569  27.475  37.182  1.00  0.00     0.060 A 
BRANCH  64  65
ATOM     65  S   UNL A   1      47.962  26.692  38.026  1.00  0.00     0.124 S 
ATOM     66  O   UNL A   1      47.953  27.386  39.310  1.00  0.00    -0.237 OA
ATOM     67  O   UNL A   1      47.557  25.291  38.060  1.00  0.00    -0.237 OA
ATOM     68  O   UNL A   1      49.097  26.993  37.160  1.00  0.00    -0.744 OA
ENDBRANCH  64  65
ENDBRANCH  43  57
BRANCH  44  69
ATOM     69  C   UNL A   1      36.853  33.072  30.989  1.00  0.00     0.058 A 
ATOM     70  C   UNL A   1      37.022  33.916  29.880  1.00  0.00     0.135 A 
ATOM     71  C   UNL A   1      35.542  32.851  31.442  1.00  0.00     0.135 A 
ATOM     72  F   UNL A   1      38.255  34.172  29.416  1.00  0.00    -0.206 F 
ATOM     73  C   UNL A   1      35.940  34.536  29.263  1.00  0.00     0.059 A 
ATOM     74  C   UNL A   1      34.441  33.432  30.821  1.00  0.00     0.059 A 
ATOM     75  F   UNL A   1      35.320  32.048  32.495  1.00  0.00    -0.206 F 
ATOM     76  C   UNL A   1      34.652  34.287  29.741  1.00  0.00     0.060 A 
BRANCH  76  77
ATOM     77  S   UNL A   1      33.250  35.075  28.920  1.00  0.00     0.124 S 
ATOM     78  O   UNL A   1      32.342  35.299  30.038  1.00  0.00    -0.237 OA
ATOM     79  O   UNL A   1      33.862  36.271  28.347  1.00  0.00    -0.237 OA
ATOM     80  O   UNL A   1      32.821  34.073  27.949  1.00  0.00    -0.744 OA
ENDBRANCH  76  77
ENDBRANCH  44  69
BRANCH  56  81
ATOM     81  C   UNL A   1      40.014  34.308  37.084  1.00  0.00     0.058 A 
ATOM     82  C   UNL A   1      39.195  34.071  38.200  1.00  0.00     0.135 A 
ATOM     83  C   UNL A   1      40.632  35.565  36.984  1.00  0.00     0.135 A 
ATOM     84  F   UNL A   1      38.579  32.887  38.347  1.00  0.00    -0.206 F 
ATOM     85  C   UNL A   1      38.955  35.059  39.150  1.00  0.00     0.059 A 
ATOM     86  C   UNL A   1      40.435  36.556  37.942  1.00  0.00     0.059 A 
ATOM     87  F   UNL A   1      41.439  35.844  35.948  1.00  0.00    -0.206 F 
ATOM     88  C   UNL A   1      39.575  36.301  39.009  1.00  0.00     0.060 A 
BRANCH  88  89
ATOM     89  S   UNL A   1      39.244  37.580  40.239  1.00  0.00     0.124 S 
ATOM     90  O   UNL A   1      38.770  36.786  41.368  1.00  0.00    -0.237 OA
ATOM     91  O   UNL A   1      40.556  38.200  40.406  1.00  0.00    -0.237 OA
ATOM     92  O   UNL A   1      38.238  38.420  39.596  1.00  0.00    -0.744 OA
ENDBRANCH  88  89
ENDBRANCH  56  81
ENDBRANCH  30  31
ENDBRANCH  23  25
ENDBRANCH  22  23
ENDBRANCH  21  22
ENDBRANCH   1  21
TORSDOF 17
ENDMDL
MODEL 3
REMARK VINA RESULT:      -9.8      4.837     11.827
REMARK SMILES C[C@@H](NS(=O)(=O)c1ccc2c(c1)CCC2)C(=O)OCCOC(=O)c1ccc(-c2c3nc(c(-c4c(F)cc(S(=O)(=O)[O-])cc4F)c4ccc([nH]4)c(-c4c(F)cc(S(=O)(=O)[O-])cc4F)c4nc(c(-c5c(F)cc(S(=O)(=O)[O-])cc5F)c5ccc2[nH]5)C=C4)C=C3)cc1
REMARK SMILES IDX 19 1 18 2 16 3 17 4 2 5 1 6 3 7 4 9 5 10 6 11 7 12 8 13
REMARK SMILES IDX 12 14 9 15 11 16 10 17 13 18 15 19 14 20 20 21 21 22 22 23
REMARK SMILES IDX 23 24 24 25 25 26 89 27 26 28 88 29 27 30 28 31 29 32 82 33
REMARK SMILES IDX 30 34 87 35 81 36 83 37 31 38 86 39 80 40 79 41 32 43 66 44
REMARK SMILES IDX 45 45 65 46 46 47 49 48 64 49 84 50 47 51 48 52 63 54 85 55
REMARK SMILES IDX 50 56 33 57 34 58 43 59 35 60 36 61 42 62 44 63 37 64 38 65
REMARK SMILES IDX 39 66 40 67 41 68 67 69 68 70 77 71 69 72 70 73 76 74 78 75
REMARK SMILES IDX 71 76 72 77 73 78 74 79 75 80 51 81 52 82 61 83 53 84 54 85
REMARK SMILES IDX 60 86 62 87 55 88 56 89 57 90 58 91 59 92
REMARK H PARENT 3 8 83 42 49 53
REMARK Flexibility Score: inf
ROOT
ATOM      1  C   UNL A   1      39.733  21.775  26.481  1.00  0.00     0.274 C 
ENDROOT
BRANCH   1   2
ATOM      2  O   UNL A   1      38.763  21.969  25.432  1.00  0.00    -0.461 OA
BRANCH   2   3
ATOM      3  C   UNL A   1      37.631  22.605  25.833  1.00  0.00     0.324 C 
ATOM      4  O   UNL A   1      37.635  23.658  26.454  1.00  0.00    -0.250 OA
BRANCH   3   5
ATOM      5  C   UNL A   1      36.339  21.875  25.532  1.00  0.00     0.176 C 
ATOM      6  C   UNL A   1      36.584  20.471  24.995  1.00  0.00     0.038 C 
BRANCH   5   7
ATOM      7  N   UNL A   1      35.443  21.861  26.717  1.00  0.00    -0.197 NA
ATOM      8  H   UNL A   1      35.837  22.500  27.408  1.00  0.00     0.142 HD
BRANCH   7   9
ATOM      9  S   UNL A   1      33.812  22.314  26.471  1.00  0.00     0.241 S 
ATOM     10  O   UNL A   1      33.141  22.214  27.743  1.00  0.00    -0.207 OA
ATOM     11  O   UNL A   1      33.884  23.572  25.751  1.00  0.00    -0.207 OA
BRANCH   9  12
ATOM     12  C   UNL A   1      33.162  21.102  25.343  1.00  0.00     0.082 A 
ATOM     13  C   UNL A   1      32.601  21.520  24.124  1.00  0.00     0.022 A 
ATOM     14  C   UNL A   1      33.293  19.742  25.646  1.00  0.00     0.025 A 
ATOM     15  C   UNL A   1      32.246  20.575  23.155  1.00  0.00     0.005 A 
ATOM     16  C   UNL A   1      33.056  18.830  24.631  1.00  0.00    -0.043 A 
ATOM     17  C   UNL A   1      32.525  19.240  23.404  1.00  0.00    -0.045 A 
ATOM     18  C   UNL A   1      33.414  17.374  24.609  1.00  0.00     0.036 C 
ATOM     19  C   UNL A   1      32.372  18.064  22.488  1.00  0.00     0.036 C 
ATOM     20  C   UNL A   1      33.395  17.092  23.097  1.00  0.00     0.010 C 
ENDBRANCH   9  12
ENDBRANCH   7   9
ENDBRANCH   5   7
ENDBRANCH   3   5
ENDBRANCH   2   3
ENDBRANCH   1   2
BRANCH   1  21
ATOM     21  C   UNL A   1      41.136  22.351  26.205  1.00  0.00     0.275 C 
BRANCH  21  22
ATOM     22  O   UNL A   1      41.191  23.792  26.120  1.00  0.00    -0.458 OA
BRANCH  22  23
ATOM     23  C   UNL A   1      42.191  24.364  26.841  1.00  0.00     0.338 C 
ATOM     24  O   UNL A   1      43.387  24.176  26.671  1.00  0.00    -0.246 OA
BRANCH  23  25
ATOM     25  C   UNL A   1      41.692  25.435  27.738  1.00  0.00     0.060 A 
ATOM     26  C   UNL A   1      42.581  26.476  28.032  1.00  0.00     0.016 A 
ATOM     27  C   UNL A   1      40.442  25.402  28.355  1.00  0.00     0.016 A 
ATOM     28  C   UNL A   1      42.246  27.475  28.937  1.00  0.00     0.010 A 
ATOM     29  C   UNL A   1      40.112  26.396  29.295  1.00  0.00     0.010 A 
ATOM     30  C   UNL A   1      41.021  27.426  29.607  1.00  0.00    -0.014 A 
BRANCH  30  31
ATOM     31  C   UNL A   1      40.795  28.393  30.714  1.00  0.00     0.031 A 
ATOM     32  C   UNL A   1      41.676  28.341  31.934  1.00  0.00     0.074 A 
ATOM     33  C   UNL A   1      39.896  29.387  30.577  1.00  0.00     0.049 A 
ATOM     34  N   UNL A   1      41.667  29.102  32.999  1.00  0.00    -0.248 NA
ATOM     35  C   UNL A   1      42.712  27.295  31.955  1.00  0.00     0.031 C 
ATOM     36  C   UNL A   1      39.031  29.587  29.413  1.00  0.00     0.029 A 
ATOM     37  N   UNL A   1      39.571  30.425  31.416  1.00  0.00    -0.354 N 
ATOM     38  C   UNL A   1      42.690  28.629  33.815  1.00  0.00     0.074 A 
ATOM     39  C   UNL A   1      43.275  27.490  33.139  1.00  0.00     0.031 C 
ATOM     40  C   UNL A   1      38.274  30.678  29.613  1.00  0.00     0.029 A 
ATOM     41  C   UNL A   1      38.570  31.233  30.931  1.00  0.00     0.049 A 
ATOM     42  H   UNL A   1      40.014  30.577  32.281  1.00  0.00     0.167 HD
ATOM     43  C   UNL A   1      43.111  29.108  35.010  1.00  0.00     0.037 A 
ATOM     44  C   UNL A   1      37.943  32.286  31.496  1.00  0.00     0.037 A 
ATOM     45  C   UNL A   1      42.528  30.247  35.676  1.00  0.00     0.049 A 
ATOM     46  C   UNL A   1      38.384  32.755  32.858  1.00  0.00     0.074 A 
ATOM     47  C   UNL A   1      42.872  30.799  36.897  1.00  0.00     0.029 A 
ATOM     48  N   UNL A   1      41.481  31.010  35.177  1.00  0.00    -0.354 N 
ATOM     49  N   UNL A   1      39.339  32.286  33.626  1.00  0.00    -0.248 NA
ATOM     50  C   UNL A   1      37.666  33.904  33.429  1.00  0.00     0.031 C 
ATOM     51  C   UNL A   1      42.002  31.863  37.159  1.00  0.00     0.029 A 
ATOM     52  C   UNL A   1      41.155  32.014  36.074  1.00  0.00     0.049 A 
ATOM     53  H   UNL A   1      41.037  30.859  34.312  1.00  0.00     0.167 HD
ATOM     54  C   UNL A   1      39.348  33.092  34.761  1.00  0.00     0.074 A 
ATOM     55  C   UNL A   1      38.325  34.097  34.563  1.00  0.00     0.031 C 
ATOM     56  C   UNL A   1      40.127  33.005  35.869  1.00  0.00     0.037 A 
BRANCH  43  57
ATOM     57  C   UNL A   1      44.247  28.390  35.690  1.00  0.00     0.058 A 
ATOM     58  C   UNL A   1      45.588  28.745  35.467  1.00  0.00     0.135 A 
ATOM     59  C   UNL A   1      43.990  27.362  36.612  1.00  0.00     0.135 A 
ATOM     60  F   UNL A   1      45.896  29.707  34.583  1.00  0.00    -0.206 F 
ATOM     61  C   UNL A   1      46.632  28.095  36.119  1.00  0.00     0.059 A 
ATOM     62  C   UNL A   1      45.017  26.717  37.297  1.00  0.00     0.059 A 
ATOM     63  F   UNL A   1      42.728  26.978  36.861  1.00  0.00    -0.206 F 
ATOM     64  C   UNL A   1      46.335  27.084  37.035  1.00  0.00     0.060 A 
BRANCH  64  65
ATOM     65  S   UNL A   1      47.702  26.265  37.886  1.00  0.00     0.124 S 
ATOM     66  O   UNL A   1      48.388  27.399  38.496  1.00  0.00    -0.237 OA
ATOM     67  O   UNL A   1      47.005  25.375  38.808  1.00  0.00    -0.237 OA
ATOM     68  O   UNL A   1      48.427  25.603  36.806  1.00  0.00    -0.744 OA
ENDBRANCH  64  65
ENDBRANCH  43  57
BRANCH  44  69
ATOM     69  C   UNL A   1      36.805  32.942  30.794  1.00  0.00     0.058 A 
ATOM     70  C   UNL A   1      37.008  33.861  29.753  1.00  0.00     0.135 A 
ATOM     71  C   UNL A   1      35.480  32.673  31.173  1.00  0.00     0.135 A 
ATOM     72  F   UNL A   1      38.255  34.165  29.361  1.00  0.00    -0.206 F 
ATOM     73  C   UNL A   1      35.942  34.507  29.132  1.00  0.00     0.059 A 
ATOM     74  C   UNL A   1      34.397  33.280  30.545  1.00  0.00     0.059 A 
ATOM     75  F   UNL A   1      35.226  31.798  32.159  1.00  0.00    -0.206 F 
ATOM     76  C   UNL A   1      34.639  34.209  29.535  1.00  0.00     0.060 A 
BRANCH  76  77
ATOM     77  S   UNL A   1      33.262  35.033  28.709  1.00  0.00     0.124 S 
ATOM     78  O   UNL A   1      32.763  33.974  27.841  1.00  0.00    -0.237 OA
ATOM     79  O   UNL A   1      32.402  35.396  29.831  1.00  0.00    -0.237 OA
ATOM     80  O   UNL A   1      33.901  36.157  28.029  1.00  0.00    -0.744 OA
ENDBRANCH  76  77
ENDBRANCH  44  69
BRANCH  56  81
ATOM     81  C   UNL A   1      39.915  34.044  36.940  1.00  0.00     0.058 A 
ATOM     82  C   UNL A   1      40.520  35.310  36.874  1.00  0.00     0.135 A 
ATOM     83  C   UNL A   1      39.095  33.771  38.047  1.00  0.00     0.135 A 
ATOM     84  F   UNL A   1      41.315  35.625  35.838  1.00  0.00    -0.206 F 
ATOM     85  C   UNL A   1      40.364  36.247  37.890  1.00  0.00     0.059 A 
ATOM     86  C   UNL A   1      38.894  34.708  39.058  1.00  0.00     0.059 A 
ATOM     87  F   UNL A   1      38.476  32.585  38.156  1.00  0.00    -0.206 F 
ATOM     88  C   UNL A   1      39.553  35.934  38.982  1.00  0.00     0.060 A 
BRANCH  88  89
ATOM     89  S   UNL A   1      39.369  37.151  40.302  1.00  0.00     0.124 S 
ATOM     90  O   UNL A   1      40.738  37.258  40.796  1.00  0.00    -0.237 OA
ATOM     91  O   UNL A   1      38.861  38.316  39.584  1.00  0.00    -0.237 OA
ATOM     92  O   UNL A   1      38.420  36.523  41.216  1.00  0.00    -0.744 OA
ENDBRANCH  88  89
ENDBRANCH  56  81
ENDBRANCH  30  31
ENDBRANCH  23  25
ENDBRANCH  22  23
ENDBRANCH  21  22
ENDBRANCH   1  21
TORSDOF 17
ENDMDL
