MODEL 1
REMARK VINA RESULT:     -11.7      0.000      0.000
REMARK SMILES CC(C)CN(C)c1cc2c(cc1Cl)C=C(C(=O)OCCOC(=O)c1ccc(-c3c4nc(c(-c5c(F)cc(S(=O)(=O)[O-])cc5F)c5ccc([nH]5)c(-c5c(F)cc(S(=O)(=O)[O-])cc5F)c5nc(c(-c6c(F)cc(S(=O)(=O)[O-])cc6F)c6ccc3[nH]6)C=C5)C=C4)cc1)[C@@H](C(F)(F)F)O2
REMARK SMILES IDX 19 1 18 2 16 3 17 4 15 5 7 6 8 7 12 8 9 9 11 10 13 11 10 12
REMARK SMILES IDX 95 13 14 14 90 15 5 16 6 17 4 18 2 19 1 20 3 21 91 22 92 23
REMARK SMILES IDX 93 24 94 25 20 26 21 27 22 28 23 29 24 30 25 31 89 32 26 33
REMARK SMILES IDX 88 34 27 35 28 36 29 37 82 38 30 39 87 40 81 41 83 42 31 43
REMARK SMILES IDX 86 44 80 45 79 46 32 48 66 49 45 50 65 51 46 52 49 53 64 54
REMARK SMILES IDX 84 55 47 56 48 57 63 59 85 60 50 61 33 62 34 63 43 64 35 65
REMARK SMILES IDX 36 66 42 67 44 68 37 69 38 70 39 71 40 72 41 73 67 74 68 75
REMARK SMILES IDX 77 76 69 77 70 78 76 79 78 80 71 81 72 82 73 83 74 84 75 85
REMARK SMILES IDX 51 86 52 87 61 88 53 89 54 90 60 91 62 92 55 93 56 94 57 95
REMARK SMILES IDX 58 96 59 97
REMARK H PARENT 83 47 49 58
REMARK Flexibility Score: inf
ROOT
ATOM      1  C   UNL A   1      39.288  21.785  26.117  1.00  0.00     0.275 C 
ENDROOT
BRANCH   1   2
ATOM      2  O   UNL A   1      38.003  22.378  25.817  1.00  0.00    -0.459 OA
BRANCH   2   3
ATOM      3  C   UNL A   1      37.219  21.631  25.008  1.00  0.00     0.338 C 
ATOM      4  O   UNL A   1      37.462  20.494  24.624  1.00  0.00    -0.246 OA
BRANCH   3   5
ATOM      5  C   UNL A   1      35.969  22.326  24.652  1.00  0.00     0.087 C 
ATOM      6  C   UNL A   1      32.218  25.697  24.594  1.00  0.00     0.059 A 
ATOM      7  C   UNL A   1      32.409  24.435  23.981  1.00  0.00     0.074 A 
ATOM      8  C   UNL A   1      33.231  26.163  25.459  1.00  0.00     0.065 A 
ATOM      9  C   UNL A   1      33.587  23.707  24.177  1.00  0.00     0.130 A 
ATOM     10  C   UNL A   1      34.445  25.497  25.557  1.00  0.00     0.034 A 
ATOM     11  Cl  UNL A   1      33.020  27.523  26.507  1.00  0.00    -0.082 Cl
ATOM     12  C   UNL A   1      34.620  24.280  24.909  1.00  0.00     0.019 A 
ATOM     13  O   UNL A   1      33.700  22.457  23.617  1.00  0.00    -0.475 OA
ATOM     14  C   UNL A   1      35.886  23.602  25.037  1.00  0.00     0.027 C 
ATOM     15  C   UNL A   1      34.771  21.588  24.126  1.00  0.00     0.316 C 
BRANCH   6  16
ATOM     16  N   UNL A   1      31.071  26.458  24.345  1.00  0.00    -0.373 N 
ATOM     17  C   UNL A   1      29.853  26.037  25.020  1.00  0.00     0.143 C 
BRANCH  16  18
ATOM     18  C   UNL A   1      30.945  27.102  23.019  1.00  0.00     0.119 C 
BRANCH  18  19
ATOM     19  C   UNL A   1      31.357  28.593  23.023  1.00  0.00     0.002 C 
ATOM     20  C   UNL A   1      30.935  29.305  24.313  1.00  0.00     0.009 C 
ATOM     21  C   UNL A   1      32.867  28.764  22.843  1.00  0.00     0.009 C 
ENDBRANCH  18  19
ENDBRANCH  16  18
ENDBRANCH   6  16
BRANCH  15  22
ATOM     22  C   UNL A   1      34.230  20.641  25.213  1.00  0.00     0.430 C 
ATOM     23  F   UNL A   1      32.877  20.604  25.217  1.00  0.00    -0.167 F 
ATOM     24  F   UNL A   1      34.650  19.367  25.004  1.00  0.00    -0.167 F 
ATOM     25  F   UNL A   1      34.630  20.996  26.455  1.00  0.00    -0.167 F 
ENDBRANCH  15  22
ENDBRANCH   3   5
ENDBRANCH   2   3
ENDBRANCH   1   2
BRANCH   1  26
ATOM     26  C   UNL A   1      40.224  22.765  26.829  1.00  0.00     0.275 C 
BRANCH  26  27
ATOM     27  O   UNL A   1      39.893  24.129  26.509  1.00  0.00    -0.458 OA
BRANCH  27  28
ATOM     28  C   UNL A   1      40.901  25.019  26.658  1.00  0.00     0.338 C 
ATOM     29  O   UNL A   1      41.932  25.080  26.011  1.00  0.00    -0.246 OA
BRANCH  28  30
ATOM     30  C   UNL A   1      40.552  26.007  27.691  1.00  0.00     0.060 A 
ATOM     31  C   UNL A   1      39.531  25.779  28.604  1.00  0.00     0.016 A 
ATOM     32  C   UNL A   1      41.386  27.106  27.846  1.00  0.00     0.016 A 
ATOM     33  C   UNL A   1      39.352  26.679  29.665  1.00  0.00     0.010 A 
ATOM     34  C   UNL A   1      41.309  27.903  28.984  1.00  0.00     0.010 A 
ATOM     35  C   UNL A   1      40.265  27.731  29.899  1.00  0.00    -0.014 A 
BRANCH  35  36
ATOM     36  C   UNL A   1      40.122  28.644  31.075  1.00  0.00     0.031 A 
ATOM     37  C   UNL A   1      41.033  28.522  32.279  1.00  0.00     0.074 A 
ATOM     38  C   UNL A   1      39.149  29.581  31.082  1.00  0.00     0.049 A 
ATOM     39  N   UNL A   1      41.065  29.249  33.370  1.00  0.00    -0.248 NA
ATOM     40  C   UNL A   1      42.008  27.417  32.285  1.00  0.00     0.031 C 
ATOM     41  C   UNL A   1      38.124  29.745  30.047  1.00  0.00     0.029 A 
ATOM     42  N   UNL A   1      38.871  30.588  31.975  1.00  0.00    -0.354 N 
ATOM     43  C   UNL A   1      42.034  28.674  34.188  1.00  0.00     0.074 A 
ATOM     44  C   UNL A   1      42.508  27.491  33.509  1.00  0.00     0.031 C 
ATOM     45  C   UNL A   1      37.395  30.839  30.315  1.00  0.00     0.029 A 
ATOM     46  C   UNL A   1      37.866  31.433  31.561  1.00  0.00     0.049 A 
ATOM     47  H   UNL A   1      39.347  30.695  32.830  1.00  0.00     0.167 HD
ATOM     48  C   UNL A   1      42.529  29.114  35.370  1.00  0.00     0.037 A 
ATOM     49  C   UNL A   1      37.391  32.571  32.106  1.00  0.00     0.037 A 
ATOM     50  C   UNL A   1      42.111  30.331  36.012  1.00  0.00     0.049 A 
ATOM     51  C   UNL A   1      37.999  33.082  33.383  1.00  0.00     0.074 A 
ATOM     52  C   UNL A   1      42.609  30.909  37.167  1.00  0.00     0.029 A 
ATOM     53  N   UNL A   1      41.108  31.166  35.546  1.00  0.00    -0.354 N 
ATOM     54  N   UNL A   1      38.967  32.562  34.099  1.00  0.00    -0.248 NA
ATOM     55  C   UNL A   1      37.451  34.332  33.929  1.00  0.00     0.031 C 
ATOM     56  C   UNL A   1      41.887  32.081  37.413  1.00  0.00     0.029 A 
ATOM     57  C   UNL A   1      40.965  32.252  36.393  1.00  0.00     0.049 A 
ATOM     58  H   UNL A   1      40.575  31.010  34.733  1.00  0.00     0.167 HD
ATOM     59  C   UNL A   1      39.155  33.428  35.170  1.00  0.00     0.074 A 
ATOM     60  C   UNL A   1      38.213  34.515  35.000  1.00  0.00     0.031 C 
ATOM     61  C   UNL A   1      40.023  33.327  36.206  1.00  0.00     0.037 A 
BRANCH  48  62
ATOM     62  C   UNL A   1      43.618  28.300  36.021  1.00  0.00     0.058 A 
ATOM     63  C   UNL A   1      44.975  28.626  35.852  1.00  0.00     0.135 A 
ATOM     64  C   UNL A   1      43.310  27.211  36.852  1.00  0.00     0.135 A 
ATOM     65  F   UNL A   1      45.330  29.650  35.060  1.00  0.00    -0.206 F 
ATOM     66  C   UNL A   1      45.985  27.883  36.452  1.00  0.00     0.059 A 
ATOM     67  C   UNL A   1      44.305  26.470  37.488  1.00  0.00     0.059 A 
ATOM     68  F   UNL A   1      42.032  26.856  37.056  1.00  0.00    -0.206 F 
ATOM     69  C   UNL A   1      45.640  26.806  37.270  1.00  0.00     0.060 A 
BRANCH  69  70
ATOM     70  S   UNL A   1      46.968  25.862  38.048  1.00  0.00     0.124 S 
ATOM     71  O   UNL A   1      48.015  25.940  37.034  1.00  0.00    -0.237 OA
ATOM     72  O   UNL A   1      47.213  26.620  39.271  1.00  0.00    -0.237 OA
ATOM     73  O   UNL A   1      46.379  24.541  38.241  1.00  0.00    -0.744 OA
ENDBRANCH  69  70
ENDBRANCH  48  62
BRANCH  49  74
ATOM     74  C   UNL A   1      36.333  33.342  31.400  1.00  0.00     0.058 A 
ATOM     75  C   UNL A   1      36.616  34.012  30.200  1.00  0.00     0.135 A 
ATOM     76  C   UNL A   1      35.013  33.386  31.875  1.00  0.00     0.135 A 
ATOM     77  F   UNL A   1      37.864  34.006  29.708  1.00  0.00    -0.206 F 
ATOM     78  C   UNL A   1      35.632  34.702  29.498  1.00  0.00     0.059 A 
ATOM     79  C   UNL A   1      34.006  34.049  31.180  1.00  0.00     0.059 A 
ATOM     80  F   UNL A   1      34.686  32.747  33.010  1.00  0.00    -0.206 F 
ATOM     81  C   UNL A   1      34.326  34.707  29.992  1.00  0.00     0.060 A 
BRANCH  81  82
ATOM     82  S   UNL A   1      33.044  35.541  29.032  1.00  0.00     0.124 S 
ATOM     83  O   UNL A   1      32.510  34.444  28.236  1.00  0.00    -0.237 OA
ATOM     84  O   UNL A   1      32.166  36.057  30.079  1.00  0.00    -0.237 OA
ATOM     85  O   UNL A   1      33.785  36.558  28.292  1.00  0.00    -0.744 OA
ENDBRANCH  81  82
ENDBRANCH  49  74
BRANCH  61  86
ATOM     86  C   UNL A   1      40.009  34.419  37.236  1.00  0.00     0.058 A 
ATOM     87  C   UNL A   1      40.750  35.598  37.060  1.00  0.00     0.135 A 
ATOM     88  C   UNL A   1      39.186  34.322  38.370  1.00  0.00     0.135 A 
ATOM     89  F   UNL A   1      41.555  35.737  35.995  1.00  0.00    -0.206 F 
ATOM     90  C   UNL A   1      40.683  36.639  37.978  1.00  0.00     0.059 A 
ATOM     91  C   UNL A   1      39.087  35.361  39.289  1.00  0.00     0.059 A 
ATOM     92  F   UNL A   1      38.451  33.219  38.579  1.00  0.00    -0.206 F 
ATOM     93  C   UNL A   1      39.845  36.514  39.087  1.00  0.00     0.060 A 
BRANCH  93  94
ATOM     94  S   UNL A   1      39.733  37.895  40.244  1.00  0.00     0.124 S 
ATOM     95  O   UNL A   1      38.687  38.708  39.631  1.00  0.00    -0.237 OA
ATOM     96  O   UNL A   1      39.368  37.228  41.491  1.00  0.00    -0.237 OA
ATOM     97  O   UNL A   1      41.073  38.473  40.217  1.00  0.00    -0.744 OA
ENDBRANCH  93  94
ENDBRANCH  61  86
ENDBRANCH  35  36
ENDBRANCH  28  30
ENDBRANCH  27  28
ENDBRANCH  26  27
ENDBRANCH   1  26
TORSDOF 18
ENDMDL
MODEL 2
REMARK VINA RESULT:     -11.5      5.494     10.157
REMARK SMILES CC(C)CN(C)c1cc2c(cc1Cl)C=C(C(=O)OCCOC(=O)c1ccc(-c3c4nc(c(-c5c(F)cc(S(=O)(=O)[O-])cc5F)c5ccc([nH]5)c(-c5c(F)cc(S(=O)(=O)[O-])cc5F)c5nc(c(-c6c(F)cc(S(=O)(=O)[O-])cc6F)c6ccc3[nH]6)C=C5)C=C4)cc1)[C@@H](C(F)(F)F)O2
REMARK SMILES IDX 19 1 18 2 16 3 17 4 15 5 7 6 8 7 12 8 9 9 11 10 13 11 10 12
REMARK SMILES IDX 95 13 14 14 90 15 5 16 6 17 4 18 2 19 1 20 3 21 91 22 92 23
REMARK SMILES IDX 93 24 94 25 20 26 21 27 22 28 23 29 24 30 25 31 89 32 26 33
REMARK SMILES IDX 88 34 27 35 28 36 29 37 82 38 30 39 87 40 81 41 83 42 31 43
REMARK SMILES IDX 86 44 80 45 79 46 32 48 66 49 45 50 65 51 46 52 49 53 64 54
REMARK SMILES IDX 84 55 47 56 48 57 63 59 85 60 50 61 33 62 34 63 43 64 35 65
REMARK SMILES IDX 36 66 42 67 44 68 37 69 38 70 39 71 40 72 41 73 67 74 68 75
REMARK SMILES IDX 77 76 69 77 70 78 76 79 78 80 71 81 72 82 73 83 74 84 75 85
REMARK SMILES IDX 51 86 52 87 61 88 53 89 54 90 60 91 62 92 55 93 56 94 57 95
REMARK SMILES IDX 58 96 59 97
REMARK H PARENT 83 47 49 58
REMARK Flexibility Score: inf
ROOT
ATOM      1  C   UNL A   1      32.448  29.158  25.530  1.00  0.00     0.275 C 
ENDROOT
BRANCH   1   2
ATOM      2  O   UNL A   1      31.384  28.200  25.737  1.00  0.00    -0.459 OA
BRANCH   2   3
ATOM      3  C   UNL A   1      30.872  27.680  24.599  1.00  0.00     0.338 C 
ATOM      4  O   UNL A   1      30.153  28.269  23.802  1.00  0.00    -0.246 OA
BRANCH   3   5
ATOM      5  C   UNL A   1      31.316  26.292  24.374  1.00  0.00     0.087 C 
ATOM      6  C   UNL A   1      33.286  21.715  25.149  1.00  0.00     0.059 A 
ATOM      7  C   UNL A   1      32.829  22.401  23.998  1.00  0.00     0.074 A 
ATOM      8  C   UNL A   1      33.259  22.408  26.377  1.00  0.00     0.065 A 
ATOM      9  C   UNL A   1      32.311  23.698  24.088  1.00  0.00     0.130 A 
ATOM     10  C   UNL A   1      32.637  23.645  26.483  1.00  0.00     0.034 A 
ATOM     11  Cl  UNL A   1      34.051  21.830  27.802  1.00  0.00    -0.082 Cl
ATOM     12  C   UNL A   1      32.158  24.277  25.341  1.00  0.00     0.019 A 
ATOM     13  O   UNL A   1      31.943  24.350  22.936  1.00  0.00    -0.475 OA
ATOM     14  C   UNL A   1      31.528  25.568  25.475  1.00  0.00     0.027 C 
ATOM     15  C   UNL A   1      31.749  25.805  23.021  1.00  0.00     0.316 C 
BRANCH   6  16
ATOM     16  N   UNL A   1      33.739  20.394  25.072  1.00  0.00    -0.373 N 
ATOM     17  C   UNL A   1      35.175  20.207  24.932  1.00  0.00     0.143 C 
BRANCH  16  18
ATOM     18  C   UNL A   1      32.843  19.392  24.455  1.00  0.00     0.119 C 
BRANCH  18  19
ATOM     19  C   UNL A   1      33.418  17.956  24.489  1.00  0.00     0.002 C 
ATOM     20  C   UNL A   1      32.578  17.018  25.363  1.00  0.00     0.009 C 
ATOM     21  C   UNL A   1      33.520  17.355  23.085  1.00  0.00     0.009 C 
ENDBRANCH  18  19
ENDBRANCH  16  18
ENDBRANCH   6  16
BRANCH  15  22
ATOM     22  C   UNL A   1      33.025  26.549  22.589  1.00  0.00     0.430 C 
ATOM     23  F   UNL A   1      32.813  27.882  22.476  1.00  0.00    -0.167 F 
ATOM     24  F   UNL A   1      34.016  26.393  23.503  1.00  0.00    -0.167 F 
ATOM     25  F   UNL A   1      33.503  26.113  21.402  1.00  0.00    -0.167 F 
ENDBRANCH  15  22
ENDBRANCH   3   5
ENDBRANCH   2   3
ENDBRANCH   1   2
BRANCH   1  26
ATOM     26  C   UNL A   1      33.819  28.588  25.904  1.00  0.00     0.275 C 
BRANCH  26  27
ATOM     27  O   UNL A   1      34.033  28.636  27.326  1.00  0.00    -0.458 OA
BRANCH  27  28
ATOM     28  C   UNL A   1      34.411  29.840  27.814  1.00  0.00     0.338 C 
ATOM     29  O   UNL A   1      33.705  30.817  27.994  1.00  0.00    -0.246 OA
BRANCH  28  30
ATOM     30  C   UNL A   1      35.830  29.804  28.201  1.00  0.00     0.060 A 
ATOM     31  C   UNL A   1      36.237  29.326  29.440  1.00  0.00     0.016 A 
ATOM     32  C   UNL A   1      36.776  30.097  27.229  1.00  0.00     0.016 A 
ATOM     33  C   UNL A   1      37.607  29.161  29.691  1.00  0.00     0.010 A 
ATOM     34  C   UNL A   1      38.118  29.781  27.422  1.00  0.00     0.010 A 
ATOM     35  C   UNL A   1      38.568  29.343  28.672  1.00  0.00    -0.014 A 
BRANCH  35  36
ATOM     36  C   UNL A   1      40.022  29.092  28.914  1.00  0.00     0.031 A 
ATOM     37  C   UNL A   1      40.661  27.767  28.551  1.00  0.00     0.074 A 
ATOM     38  C   UNL A   1      40.781  30.050  29.489  1.00  0.00     0.049 A 
ATOM     39  N   UNL A   1      41.912  27.392  28.668  1.00  0.00    -0.248 NA
ATOM     40  C   UNL A   1      39.780  26.707  28.032  1.00  0.00     0.031 C 
ATOM     41  C   UNL A   1      40.285  31.333  29.996  1.00  0.00     0.029 A 
ATOM     42  N   UNL A   1      42.134  30.109  29.726  1.00  0.00    -0.354 N 
ATOM     43  C   UNL A   1      41.955  26.060  28.264  1.00  0.00     0.074 A 
ATOM     44  C   UNL A   1      40.595  25.664  27.981  1.00  0.00     0.031 C 
ATOM     45  C   UNL A   1      41.324  32.083  30.395  1.00  0.00     0.029 A 
ATOM     46  C   UNL A   1      42.558  31.325  30.215  1.00  0.00     0.049 A 
ATOM     47  H   UNL A   1      42.743  29.353  29.560  1.00  0.00     0.167 HD
ATOM     48  C   UNL A   1      43.027  25.251  28.089  1.00  0.00     0.037 A 
ATOM     49  C   UNL A   1      43.797  31.789  30.467  1.00  0.00     0.037 A 
ATOM     50  C   UNL A   1      44.388  25.665  28.300  1.00  0.00     0.049 A 
ATOM     51  C   UNL A   1      44.982  30.902  30.203  1.00  0.00     0.074 A 
ATOM     52  C   UNL A   1      45.551  24.950  28.070  1.00  0.00     0.029 A 
ATOM     53  N   UNL A   1      44.771  26.911  28.772  1.00  0.00    -0.354 N 
ATOM     54  N   UNL A   1      45.002  29.672  29.747  1.00  0.00    -0.248 NA
ATOM     55  C   UNL A   1      46.311  31.461  30.486  1.00  0.00     0.031 C 
ATOM     56  C   UNL A   1      46.636  25.755  28.430  1.00  0.00     0.029 A 
ATOM     57  C   UNL A   1      46.151  26.984  28.849  1.00  0.00     0.049 A 
ATOM     58  H   UNL A   1      44.152  27.636  29.018  1.00  0.00     0.167 HD
ATOM     59  C   UNL A   1      46.344  29.315  29.676  1.00  0.00     0.074 A 
ATOM     60  C   UNL A   1      47.107  30.466  30.116  1.00  0.00     0.031 C 
ATOM     61  C   UNL A   1      46.894  28.139  29.287  1.00  0.00     0.037 A 
BRANCH  48  62
ATOM     62  C   UNL A   1      42.776  23.849  27.596  1.00  0.00     0.058 A 
ATOM     63  C   UNL A   1      42.491  22.799  28.487  1.00  0.00     0.135 A 
ATOM     64  C   UNL A   1      42.776  23.554  26.223  1.00  0.00     0.135 A 
ATOM     65  F   UNL A   1      42.488  23.020  29.811  1.00  0.00    -0.206 F 
ATOM     66  C   UNL A   1      42.254  21.505  28.038  1.00  0.00     0.059 A 
ATOM     67  C   UNL A   1      42.512  22.270  25.750  1.00  0.00     0.059 A 
ATOM     68  F   UNL A   1      43.035  24.517  25.324  1.00  0.00    -0.206 F 
ATOM     69  C   UNL A   1      42.266  21.249  26.667  1.00  0.00     0.060 A 
BRANCH  69  70
ATOM     70  S   UNL A   1      41.944  19.563  26.107  1.00  0.00     0.124 S 
ATOM     71  O   UNL A   1      42.320  18.788  27.285  1.00  0.00    -0.237 OA
ATOM     72  O   UNL A   1      40.516  19.603  25.806  1.00  0.00    -0.237 OA
ATOM     73  O   UNL A   1      42.821  19.415  24.951  1.00  0.00    -0.744 OA
ENDBRANCH  69  70
ENDBRANCH  48  62
BRANCH  49  74
ATOM     74  C   UNL A   1      43.980  33.192  30.928  1.00  0.00     0.058 A 
ATOM     75  C   UNL A   1      44.003  34.250  30.006  1.00  0.00     0.135 A 
ATOM     76  C   UNL A   1      44.086  33.512  32.290  1.00  0.00     0.135 A 
ATOM     77  F   UNL A   1      43.912  33.996  28.692  1.00  0.00    -0.206 F 
ATOM     78  C   UNL A   1      44.127  35.574  30.416  1.00  0.00     0.059 A 
ATOM     79  C   UNL A   1      44.188  34.830  32.727  1.00  0.00     0.059 A 
ATOM     80  F   UNL A   1      44.053  32.538  33.213  1.00  0.00    -0.206 F 
ATOM     81  C   UNL A   1      44.210  35.855  31.781  1.00  0.00     0.060 A 
BRANCH  81  82
ATOM     82  S   UNL A   1      44.294  37.582  32.304  1.00  0.00     0.124 S 
ATOM     83  O   UNL A   1      45.686  37.698  32.720  1.00  0.00    -0.237 OA
ATOM     84  O   UNL A   1      43.933  38.290  31.078  1.00  0.00    -0.237 OA
ATOM     85  O   UNL A   1      43.305  37.658  33.375  1.00  0.00    -0.744 OA
ENDBRANCH  81  82
ENDBRANCH  49  74
BRANCH  61  86
ATOM     86  C   UNL A   1      48.392  28.029  29.310  1.00  0.00     0.058 A 
ATOM     87  C   UNL A   1      49.065  27.468  30.406  1.00  0.00     0.135 A 
ATOM     88  C   UNL A   1      49.153  28.412  28.195  1.00  0.00     0.135 A 
ATOM     89  F   UNL A   1      48.381  27.091  31.498  1.00  0.00    -0.206 F 
ATOM     90  C   UNL A   1      50.444  27.301  30.400  1.00  0.00     0.059 A 
ATOM     91  C   UNL A   1      50.532  28.232  28.158  1.00  0.00     0.059 A 
ATOM     92  F   UNL A   1      48.555  28.944  27.118  1.00  0.00    -0.206 F 
ATOM     93  C   UNL A   1      51.170  27.681  29.269  1.00  0.00     0.060 A 
BRANCH  93  94
ATOM     94  S   UNL A   1      52.955  27.412  29.258  1.00  0.00     0.124 S 
ATOM     95  O   UNL A   1      53.067  26.221  28.422  1.00  0.00    -0.237 OA
ATOM     96  O   UNL A   1      53.453  28.650  28.666  1.00  0.00    -0.237 OA
ATOM     97  O   UNL A   1      53.280  27.221  30.668  1.00  0.00    -0.744 OA
ENDBRANCH  93  94
ENDBRANCH  61  86
ENDBRANCH  35  36
ENDBRANCH  28  30
ENDBRANCH  27  28
ENDBRANCH  26  27
ENDBRANCH   1  26
TORSDOF 18
ENDMDL
MODEL 3
REMARK VINA RESULT:     -11.5      5.402      7.033
REMARK SMILES CC(C)CN(C)c1cc2c(cc1Cl)C=C(C(=O)OCCOC(=O)c1ccc(-c3c4nc(c(-c5c(F)cc(S(=O)(=O)[O-])cc5F)c5ccc([nH]5)c(-c5c(F)cc(S(=O)(=O)[O-])cc5F)c5nc(c(-c6c(F)cc(S(=O)(=O)[O-])cc6F)c6ccc3[nH]6)C=C5)C=C4)cc1)[C@@H](C(F)(F)F)O2
REMARK SMILES IDX 19 1 18 2 16 3 17 4 15 5 7 6 8 7 12 8 9 9 11 10 13 11 10 12
REMARK SMILES IDX 95 13 14 14 90 15 5 16 6 17 4 18 2 19 1 20 3 21 91 22 92 23
REMARK SMILES IDX 93 24 94 25 20 26 21 27 22 28 23 29 24 30 25 31 89 32 26 33
REMARK SMILES IDX 88 34 27 35 28 36 29 37 82 38 30 39 87 40 81 41 83 42 31 43
REMARK SMILES IDX 86 44 80 45 79 46 32 48 66 49 45 50 65 51 46 52 49 53 64 54
REMARK SMILES IDX 84 55 47 56 48 57 63 59 85 60 50 61 33 62 34 63 43 64 35 65
REMARK SMILES IDX 36 66 42 67 44 68 37 69 38 70 39 71 40 72 41 73 67 74 68 75
REMARK SMILES IDX 77 76 69 77 70 78 76 79 78 80 71 81 72 82 73 83 74 84 75 85
REMARK SMILES IDX 51 86 52 87 61 88 53 89 54 90 60 91 62 92 55 93 56 94 57 95
REMARK SMILES IDX 58 96 59 97
REMARK H PARENT 83 47 49 58
REMARK Flexibility Score: inf
ROOT
ATOM      1  C   UNL A   1      36.310  20.798  25.187  1.00  0.00     0.275 C 
ENDROOT
BRANCH   1   2
ATOM      2  O   UNL A   1      35.437  21.499  24.272  1.00  0.00    -0.459 OA
BRANCH   2   3
ATOM      3  C   UNL A   1      34.127  21.194  24.406  1.00  0.00     0.338 C 
ATOM      4  O   UNL A   1      33.665  20.071  24.559  1.00  0.00    -0.246 OA
BRANCH   3   5
ATOM      5  C   UNL A   1      33.274  22.396  24.396  1.00  0.00     0.087 C 
ATOM      6  C   UNL A   1      31.668  27.117  23.639  1.00  0.00     0.059 A 
ATOM      7  C   UNL A   1      31.157  26.014  24.365  1.00  0.00     0.074 A 
ATOM      8  C   UNL A   1      32.914  26.956  22.997  1.00  0.00     0.065 A 
ATOM      9  C   UNL A   1      31.833  24.790  24.392  1.00  0.00     0.130 A 
ATOM     10  C   UNL A   1      33.521  25.709  22.925  1.00  0.00     0.034 A 
ATOM     11  Cl  UNL A   1      33.808  28.279  22.332  1.00  0.00    -0.082 Cl
ATOM     12  C   UNL A   1      32.973  24.633  23.614  1.00  0.00     0.019 A 
ATOM     13  O   UNL A   1      31.334  23.769  25.164  1.00  0.00    -0.475 OA
ATOM     14  C   UNL A   1      33.631  23.352  23.535  1.00  0.00     0.027 C 
ATOM     15  C   UNL A   1      32.236  22.645  25.453  1.00  0.00     0.316 C 
BRANCH   6  16
ATOM     16  N   UNL A   1      30.959  28.320  23.554  1.00  0.00    -0.373 N 
ATOM     17  C   UNL A   1      31.252  29.318  24.571  1.00  0.00     0.143 C 
BRANCH  16  18
ATOM     18  C   UNL A   1      29.591  28.277  22.993  1.00  0.00     0.119 C 
BRANCH  18  19
ATOM     19  C   UNL A   1      28.933  29.672  22.882  1.00  0.00     0.002 C 
ATOM     20  C   UNL A   1      29.306  30.385  21.578  1.00  0.00     0.009 C 
ATOM     21  C   UNL A   1      27.407  29.586  22.972  1.00  0.00     0.009 C 
ENDBRANCH  18  19
ENDBRANCH  16  18
ENDBRANCH   6  16
BRANCH  15  22
ATOM     22  C   UNL A   1      32.925  22.837  26.816  1.00  0.00     0.430 C 
ATOM     23  F   UNL A   1      34.062  23.562  26.705  1.00  0.00    -0.167 F 
ATOM     24  F   UNL A   1      32.121  23.510  27.679  1.00  0.00    -0.167 F 
ATOM     25  F   UNL A   1      33.249  21.663  27.405  1.00  0.00    -0.167 F 
ENDBRANCH  15  22
ENDBRANCH   3   5
ENDBRANCH   2   3
ENDBRANCH   1   2
BRANCH   1  26
ATOM     26  C   UNL A   1      37.784  21.141  24.957  1.00  0.00     0.275 C 
BRANCH  26  27
ATOM     27  O   UNL A   1      38.233  22.155  25.876  1.00  0.00    -0.458 OA
BRANCH  27  28
ATOM     28  C   UNL A   1      39.437  21.926  26.447  1.00  0.00     0.338 C 
ATOM     29  O   UNL A   1      40.082  20.892  26.417  1.00  0.00    -0.246 OA
BRANCH  28  30
ATOM     30  C   UNL A   1      39.942  23.159  27.072  1.00  0.00     0.060 A 
ATOM     31  C   UNL A   1      40.972  23.137  28.002  1.00  0.00     0.016 A 
ATOM     32  C   UNL A   1      39.481  24.372  26.578  1.00  0.00     0.016 A 
ATOM     33  C   UNL A   1      41.523  24.351  28.438  1.00  0.00     0.010 A 
ATOM     34  C   UNL A   1      40.135  25.561  26.889  1.00  0.00     0.010 A 
ATOM     35  C   UNL A   1      41.144  25.581  27.857  1.00  0.00    -0.014 A 
BRANCH  35  36
ATOM     36  C   UNL A   1      41.785  26.870  28.264  1.00  0.00     0.031 A 
ATOM     37  C   UNL A   1      43.234  27.164  27.933  1.00  0.00     0.074 A 
ATOM     38  C   UNL A   1      41.073  27.781  28.962  1.00  0.00     0.049 A 
ATOM     39  N   UNL A   1      43.938  28.242  28.187  1.00  0.00    -0.248 NA
ATOM     40  C   UNL A   1      44.010  26.102  27.272  1.00  0.00     0.031 C 
ATOM     41  C   UNL A   1      39.705  27.593  29.452  1.00  0.00     0.029 A 
ATOM     42  N   UNL A   1      41.388  29.058  29.363  1.00  0.00    -0.354 N 
ATOM     43  C   UNL A   1      45.229  27.972  27.743  1.00  0.00     0.074 A 
ATOM     44  C   UNL A   1      45.236  26.603  27.282  1.00  0.00     0.031 C 
ATOM     45  C   UNL A   1      39.268  28.737  30.001  1.00  0.00     0.029 A 
ATOM     46  C   UNL A   1      40.336  29.730  29.945  1.00  0.00     0.049 A 
ATOM     47  H   UNL A   1      42.281  29.454  29.245  1.00  0.00     0.167 HD
ATOM     48  C   UNL A   1      46.301  28.797  27.669  1.00  0.00     0.037 A 
ATOM     49  C   UNL A   1      40.230  31.007  30.362  1.00  0.00     0.037 A 
ATOM     50  C   UNL A   1      46.277  30.181  28.058  1.00  0.00     0.049 A 
ATOM     51  C   UNL A   1      41.408  31.929  30.211  1.00  0.00     0.074 A 
ATOM     52  C   UNL A   1      47.282  31.125  27.945  1.00  0.00     0.029 A 
ATOM     53  N   UNL A   1      45.184  30.825  28.619  1.00  0.00    -0.354 N 
ATOM     54  N   UNL A   1      42.595  31.672  29.716  1.00  0.00    -0.248 NA
ATOM     55  C   UNL A   1      41.235  33.314  30.673  1.00  0.00     0.031 C 
ATOM     56  C   UNL A   1      46.806  32.333  28.464  1.00  0.00     0.029 A 
ATOM     57  C   UNL A   1      45.493  32.151  28.865  1.00  0.00     0.049 A 
ATOM     58  H   UNL A   1      44.317  30.401  28.815  1.00  0.00     0.167 HD
ATOM     59  C   UNL A   1      43.306  32.864  29.795  1.00  0.00     0.074 A 
ATOM     60  C   UNL A   1      42.409  33.849  30.366  1.00  0.00     0.031 C 
ATOM     61  C   UNL A   1      44.587  33.119  29.433  1.00  0.00     0.037 A 
BRANCH  48  62
ATOM     62  C   UNL A   1      47.579  28.238  27.098  1.00  0.00     0.058 A 
ATOM     63  C   UNL A   1      47.798  28.183  25.710  1.00  0.00     0.135 A 
ATOM     64  C   UNL A   1      48.612  27.791  27.937  1.00  0.00     0.135 A 
ATOM     65  F   UNL A   1      46.841  28.586  24.859  1.00  0.00    -0.206 F 
ATOM     66  C   UNL A   1      48.975  27.672  25.176  1.00  0.00     0.059 A 
ATOM     67  C   UNL A   1      49.813  27.304  27.424  1.00  0.00     0.059 A 
ATOM     68  F   UNL A   1      48.464  27.825  29.271  1.00  0.00    -0.206 F 
ATOM     69  C   UNL A   1      49.979  27.235  26.041  1.00  0.00     0.060 A 
BRANCH  69  70
ATOM     70  S   UNL A   1      51.504  26.587  25.325  1.00  0.00     0.124 S 
ATOM     71  O   UNL A   1      51.245  26.740  23.898  1.00  0.00    -0.237 OA
ATOM     72  O   UNL A   1      52.514  27.481  25.884  1.00  0.00    -0.237 OA
ATOM     73  O   UNL A   1      51.552  25.212  25.811  1.00  0.00    -0.744 OA
ENDBRANCH  69  70
ENDBRANCH  48  62
BRANCH  49  74
ATOM     74  C   UNL A   1      38.932  31.505  30.893  1.00  0.00     0.058 A 
ATOM     75  C   UNL A   1      38.653  31.451  32.267  1.00  0.00     0.135 A 
ATOM     76  C   UNL A   1      37.968  32.086  30.055  1.00  0.00     0.135 A 
ATOM     77  F   UNL A   1      39.539  30.899  33.110  1.00  0.00    -0.206 F 
ATOM     78  C   UNL A   1      37.466  31.952  32.792  1.00  0.00     0.059 A 
ATOM     79  C   UNL A   1      36.783  32.615  30.558  1.00  0.00     0.059 A 
ATOM     80  F   UNL A   1      38.193  32.177  28.734  1.00  0.00    -0.206 F 
ATOM     81  C   UNL A   1      36.539  32.541  31.930  1.00  0.00     0.060 A 
BRANCH  81  82
ATOM     82  S   UNL A   1      35.037  33.254  32.633  1.00  0.00     0.124 S 
ATOM     83  O   UNL A   1      34.000  32.477  31.967  1.00  0.00    -0.237 OA
ATOM     84  O   UNL A   1      35.214  32.994  34.059  1.00  0.00    -0.237 OA
ATOM     85  O   UNL A   1      35.119  34.660  32.247  1.00  0.00    -0.744 OA
ENDBRANCH  81  82
ENDBRANCH  49  74
BRANCH  61  86
ATOM     86  C   UNL A   1      45.104  34.514  29.633  1.00  0.00     0.058 A 
ATOM     87  C   UNL A   1      44.944  35.499  28.647  1.00  0.00     0.135 A 
ATOM     88  C   UNL A   1      45.690  34.891  30.852  1.00  0.00     0.135 A 
ATOM     89  F   UNL A   1      44.394  35.187  27.463  1.00  0.00    -0.206 F 
ATOM     90  C   UNL A   1      45.359  36.809  28.858  1.00  0.00     0.059 A 
ATOM     91  C   UNL A   1      46.091  36.201  31.093  1.00  0.00     0.059 A 
ATOM     92  F   UNL A   1      45.856  33.988  31.831  1.00  0.00    -0.206 F 
ATOM     93  C   UNL A   1      45.927  37.152  30.086  1.00  0.00     0.060 A 
BRANCH  93  94
ATOM     94  S   UNL A   1      46.415  38.868  30.362  1.00  0.00     0.124 S 
ATOM     95  O   UNL A   1      45.131  39.556  30.276  1.00  0.00    -0.237 OA
ATOM     96  O   UNL A   1      47.015  38.811  31.692  1.00  0.00    -0.237 OA
ATOM     97  O   UNL A   1      47.346  39.138  29.270  1.00  0.00    -0.744 OA
ENDBRANCH  93  94
ENDBRANCH  61  86
ENDBRANCH  35  36
ENDBRANCH  28  30
ENDBRANCH  27  28
ENDBRANCH  26  27
ENDBRANCH   1  26
TORSDOF 18
ENDMDL
