MODEL 1
REMARK VINA RESULT:     -12.9      0.000      0.000
REMARK SMILES O=C(OCCOC(=O)[C@@H]1CCCC[C@@H]1C(=O)Nc1nc(-c2ccc(Cl)c(Cl)c2)cs1)c1ccc(-c2c3nc(c(-c4c(F)cc(S(=O)(=O)[O-])cc4F)c4ccc([nH]4)c(-c4c(F)cc(S(=O)(=O)[O-])cc4F)c4nc(c(-c5c(F)cc(S(=O)(=O)[O-])cc5F)c5ccc2[nH]5)C=C4)C=C3)cc1
REMARK SMILES IDX 4 1 3 2 2 3 1 4 31 5 32 6 96 7 33 8 95 9 34 10 35 11 36 12
REMARK SMILES IDX 89 13 37 14 94 15 88 16 90 17 38 18 93 19 87 20 86 21 39 23
REMARK SMILES IDX 73 24 52 25 72 26 53 27 56 28 71 29 91 30 54 31 55 32 70 34
REMARK SMILES IDX 92 35 57 36 40 37 41 38 50 39 42 40 43 41 49 42 51 43 44 44
REMARK SMILES IDX 45 45 46 46 47 47 48 48 74 49 75 50 84 51 76 52 77 53 83 54
REMARK SMILES IDX 85 55 78 56 79 57 80 58 81 59 82 60 58 61 59 62 68 63 60 64
REMARK SMILES IDX 61 65 67 66 69 67 62 68 63 69 64 70 65 71 66 72 5 73 6 74
REMARK SMILES IDX 7 75 8 76 9 77 10 78 14 79 11 80 13 81 12 82 15 83 16 84
REMARK SMILES IDX 17 85 18 87 19 88 30 89 20 90 29 91 21 92 22 93 28 94 23 95
REMARK SMILES IDX 26 96 24 97 27 98 25 99
REMARK H PARENT 90 22 56 33 17 86
REMARK Flexibility Score: inf
ROOT
ATOM      1  C   UNL A   1      31.934  30.096  27.024  1.00  0.00     0.275 C 
ENDROOT
BRANCH   1   2
ATOM      2  O   UNL A   1      33.242  29.716  27.510  1.00  0.00    -0.458 OA
BRANCH   2   3
ATOM      3  C   UNL A   1      34.238  30.444  28.074  1.00  0.00     0.338 C 
ATOM      4  O   UNL A   1      34.023  31.610  28.387  1.00  0.00    -0.246 OA
BRANCH   3   5
ATOM      5  C   UNL A   1      35.638  29.954  28.188  1.00  0.00     0.060 A 
ATOM      6  C   UNL A   1      36.777  29.835  26.773  1.00  0.00     0.016 A 
ATOM      7  C   UNL A   1      36.276  29.550  29.891  1.00  0.00     0.016 A 
ATOM      8  C   UNL A   1      38.524  29.409  26.988  1.00  0.00     0.010 A 
ATOM      9  C   UNL A   1      38.063  29.123  30.102  1.00  0.00     0.010 A 
ATOM     10  C   UNL A   1      39.169  29.086  28.654  1.00  0.00    -0.014 A 
BRANCH  10  11
ATOM     11  C   UNL A   1      40.584  28.701  28.772  1.00  0.00     0.031 A 
ATOM     12  C   UNL A   1      41.573  29.749  29.138  1.00  0.00     0.074 A 
ATOM     13  C   UNL A   1      40.976  27.433  28.580  1.00  0.00     0.049 A 
ATOM     14  N   UNL A   1      42.807  29.900  28.760  1.00  0.00    -0.248 NA
ATOM     15  C   UNL A   1      41.080  30.811  30.019  1.00  0.00     0.031 C 
ATOM     16  C   UNL A   1      40.102  26.273  28.458  1.00  0.00     0.029 A 
ATOM     17  N   UNL A   1      42.232  26.914  28.430  1.00  0.00    -0.354 N 
ATOM     18  C   UNL A   1      43.176  31.164  29.210  1.00  0.00     0.074 A 
ATOM     19  C   UNL A   1      42.043  31.715  29.911  1.00  0.00     0.031 C 
ATOM     20  C   UNL A   1      40.830  25.193  28.140  1.00  0.00     0.029 A 
ATOM     21  C   UNL A   1      42.222  25.596  28.036  1.00  0.00     0.049 A 
ATOM     22  H   UNL A   1      43.056  27.429  28.585  1.00  0.00     0.167 HD
ATOM     23  C   UNL A   1      44.374  31.774  29.044  1.00  0.00     0.037 A 
ATOM     24  C   UNL A   1      43.235  24.826  27.607  1.00  0.00     0.037 A 
ATOM     25  C   UNL A   1      45.528  31.029  28.613  1.00  0.00     0.049 A 
ATOM     26  C   UNL A   1      44.602  25.446  27.616  1.00  0.00     0.074 A 
ATOM     27  C   UNL A   1      46.842  31.435  28.490  1.00  0.00     0.029 A 
ATOM     28  N   UNL A   1      45.502  29.662  28.342  1.00  0.00    -0.354 N 
ATOM     29  N   UNL A   1      44.926  26.708  27.798  1.00  0.00    -0.248 NA
ATOM     30  C   UNL A   1      45.742  24.547  27.424  1.00  0.00     0.031 C 
ATOM     31  C   UNL A   1      47.613  30.301  28.192  1.00  0.00     0.029 A 
ATOM     32  C   UNL A   1      46.781  29.191  28.143  1.00  0.00     0.049 A 
ATOM     33  H   UNL A   1      44.686  29.113  28.299  1.00  0.00     0.167 HD
ATOM     34  C   UNL A   1      46.311  26.749  27.798  1.00  0.00     0.074 A 
ATOM     35  C   UNL A   1      46.760  25.383  27.585  1.00  0.00     0.031 C 
ATOM     36  C   UNL A   1      47.146  27.805  27.970  1.00  0.00     0.037 A 
BRANCH  23  37
ATOM     37  C   UNL A   1      44.467  33.257  29.305  1.00  0.00     0.058 A 
ATOM     38  C   UNL A   1      44.796  33.807  30.554  1.00  0.00     0.135 A 
ATOM     39  C   UNL A   1      44.155  34.160  28.271  1.00  0.00     0.135 A 
ATOM     40  F   UNL A   1      45.110  33.007  31.585  1.00  0.00    -0.206 F 
ATOM     41  C   UNL A   1      44.730  35.180  30.793  1.00  0.00     0.059 A 
ATOM     42  C   UNL A   1      44.126  35.539  28.476  1.00  0.00     0.059 A 
ATOM     43  F   UNL A   1      43.843  33.705  27.047  1.00  0.00    -0.206 F 
ATOM     44  C   UNL A   1      44.379  36.037  29.751  1.00  0.00     0.060 A 
BRANCH  44  45
ATOM     45  S   UNL A   1      44.251  37.810  30.072  1.00  0.00     0.124 S 
ATOM     46  O   UNL A   1      43.307  38.223  29.039  1.00  0.00    -0.237 OA
ATOM     47  O   UNL A   1      43.747  37.852  31.441  1.00  0.00    -0.237 OA
ATOM     48  O   UNL A   1      45.621  38.281  29.899  1.00  0.00    -0.744 OA
ENDBRANCH  44  45
ENDBRANCH  23  37
BRANCH  24  49
ATOM     49  C   UNL A   1      42.983  23.418  27.209  1.00  0.00     0.058 A 
ATOM     50  C   UNL A   1      43.007  23.036  25.860  1.00  0.00     0.135 A 
ATOM     51  C   UNL A   1      42.796  22.407  28.167  1.00  0.00     0.135 A 
ATOM     52  F   UNL A   1      43.201  23.960  24.906  1.00  0.00    -0.206 F 
ATOM     53  C   UNL A   1      42.831  21.712  25.471  1.00  0.00     0.059 A 
ATOM     54  C   UNL A   1      42.634  21.071  27.804  1.00  0.00     0.059 A 
ATOM     55  F   UNL A   1      42.803  22.712  29.474  1.00  0.00    -0.206 F 
ATOM     56  C   UNL A   1      42.646  20.735  26.451  1.00  0.00     0.060 A 
BRANCH  56  57
ATOM     57  S   UNL A   1      42.456  19.016  25.927  1.00  0.00     0.124 S 
ATOM     58  O   UNL A   1      41.028  18.952  25.638  1.00  0.00    -0.237 OA
ATOM     59  O   UNL A   1      43.344  18.951  24.770  1.00  0.00    -0.237 OA
ATOM     60  O   UNL A   1      42.897  18.255  27.092  1.00  0.00    -0.744 OA
ENDBRANCH  56  57
ENDBRANCH  24  49
BRANCH  36  61
ATOM     61  C   UNL A   1      48.607  27.494  28.016  1.00  0.00     0.058 A 
ATOM     62  C   UNL A   1      49.390  27.494  26.855  1.00  0.00     0.135 A 
ATOM     63  C   UNL A   1      49.232  27.261  29.251  1.00  0.00     0.135 A 
ATOM     64  F   UNL A   1      48.824  27.704  25.657  1.00  0.00    -0.206 F 
ATOM     65  C   UNL A   1      50.756  27.259  26.916  1.00  0.00     0.059 A 
ATOM     66  C   UNL A   1      50.600  27.045  29.335  1.00  0.00     0.059 A 
ATOM     67  F   UNL A   1      48.512  27.257  30.385  1.00  0.00    -0.206 F 
ATOM     68  C   UNL A   1      51.351  27.042  28.161  1.00  0.00     0.060 A 
BRANCH  68  69
ATOM     69  S   UNL A   1      53.137  26.800  28.229  1.00  0.00     0.124 S 
ATOM     70  O   UNL A   1      53.623  28.086  27.741  1.00  0.00    -0.237 OA
ATOM     71  O   UNL A   1      53.361  26.531  29.646  1.00  0.00    -0.237 OA
ATOM     72  O   UNL A   1      53.357  25.665  27.339  1.00  0.00    -0.744 OA
ENDBRANCH  68  69
ENDBRANCH  36  61
ENDBRANCH  10  11
ENDBRANCH   3   5
ENDBRANCH   2   3
ENDBRANCH   1   2
BRANCH   1  73
ATOM     73  C   UNL A   1      31.759  30.034  25.507  1.00  0.00     0.274 C 
BRANCH  73  74
ATOM     74  O   UNL A   1      31.099  28.835  25.102  1.00  0.00    -0.462 OA
BRANCH  74  75
ATOM     75  C   UNL A   1      30.648  28.789  23.828  1.00  0.00     0.309 C 
ATOM     76  O   UNL A   1      30.151  29.738  23.231  1.00  0.00    -0.252 OA
BRANCH  75  77
ATOM     77  C   UNL A   1      30.846  27.437  23.180  1.00  0.00     0.111 C 
ATOM     78  C   UNL A   1      30.245  26.263  23.948  1.00  0.00     0.016 C 
ATOM     79  C   UNL A   1      32.277  27.204  22.604  1.00  0.00     0.093 C 
ATOM     80  C   UNL A   1      30.281  24.973  23.126  1.00  0.00     0.001 C 
ATOM     81  C   UNL A   1      32.106  25.952  21.679  1.00  0.00     0.014 C 
ATOM     82  C   UNL A   1      31.620  24.724  22.439  1.00  0.00     0.001 C 
BRANCH  79  83
ATOM     83  C   UNL A   1      33.601  27.133  23.886  1.00  0.00     0.230 C 
ATOM     84  O   UNL A   1      34.195  28.243  23.704  1.00  0.00    -0.274 OA
ATOM     85  N   UNL A   1      34.006  25.721  25.199  1.00  0.00    -0.302 N 
ATOM     86  H   UNL A   1      34.723  26.044  25.792  1.00  0.00     0.172 HD
BRANCH  85  87
ATOM     87  C   UNL A   1      33.618  24.321  25.631  1.00  0.00     0.189 A 
ATOM     88  N   UNL A   1      34.131  23.151  25.334  1.00  0.00    -0.220 NA
ATOM     89  S   UNL A   1      32.147  24.215  26.515  1.00  0.00    -0.105 S 
ATOM     90  C   UNL A   1      33.146  22.189  25.393  1.00  0.00     0.084 A 
ATOM     91  C   UNL A   1      31.961  22.591  25.970  1.00  0.00     0.097 A 
BRANCH  90  92
ATOM     92  C   UNL A   1      33.413  20.903  24.792  1.00  0.00     0.003 A 
ATOM     93  C   UNL A   1      32.365  20.251  24.134  1.00  0.00     0.012 A 
ATOM     94  C   UNL A   1      34.620  20.231  25.016  1.00  0.00     0.032 A 
ATOM     95  C   UNL A   1      32.514  18.936  23.699  1.00  0.00     0.023 A 
ATOM     96  C   UNL A   1      34.765  18.905  24.593  1.00  0.00     0.060 A 
ATOM     97  C   UNL A   1      33.712  18.257  23.934  1.00  0.00     0.059 A 
ATOM     98  Cl  UNL A   1      36.255  18.103  24.953  1.00  0.00    -0.083 Cl
ATOM     99  Cl  UNL A   1      33.812  16.612  23.412  1.00  0.00    -0.083 Cl
ENDBRANCH  90  92
ENDBRANCH  85  87
ENDBRANCH  79  83
ENDBRANCH  75  77
ENDBRANCH  74  75
ENDBRANCH  73  74
ENDBRANCH   1  73
TORSDOF 17
ENDMDL
MODEL 2
REMARK VINA RESULT:     -12.2      5.696     11.180
REMARK SMILES O=C(OCCOC(=O)[C@@H]1CCCC[C@@H]1C(=O)Nc1nc(-c2ccc(Cl)c(Cl)c2)cs1)c1ccc(-c2c3nc(c(-c4c(F)cc(S(=O)(=O)[O-])cc4F)c4ccc([nH]4)c(-c4c(F)cc(S(=O)(=O)[O-])cc4F)c4nc(c(-c5c(F)cc(S(=O)(=O)[O-])cc5F)c5ccc2[nH]5)C=C4)C=C3)cc1
REMARK SMILES IDX 4 1 3 2 2 3 1 4 31 5 32 6 96 7 33 8 95 9 34 10 35 11 36 12
REMARK SMILES IDX 89 13 37 14 94 15 88 16 90 17 38 18 93 19 87 20 86 21 39 23
REMARK SMILES IDX 73 24 52 25 72 26 53 27 56 28 71 29 91 30 54 31 55 32 70 34
REMARK SMILES IDX 92 35 57 36 40 37 41 38 50 39 42 40 43 41 49 42 51 43 44 44
REMARK SMILES IDX 45 45 46 46 47 47 48 48 74 49 75 50 84 51 76 52 77 53 83 54
REMARK SMILES IDX 85 55 78 56 79 57 80 58 81 59 82 60 58 61 59 62 68 63 60 64
REMARK SMILES IDX 61 65 67 66 69 67 62 68 63 69 64 70 65 71 66 72 5 73 6 74
REMARK SMILES IDX 7 75 8 76 9 77 10 78 14 79 11 80 13 81 12 82 15 83 16 84
REMARK SMILES IDX 17 85 18 87 19 88 30 89 20 90 29 91 21 92 22 93 28 94 23 95
REMARK SMILES IDX 26 96 24 97 27 98 25 99
REMARK H PARENT 90 22 56 33 17 86
REMARK Flexibility Score: inf
ROOT
ATOM      1  C   UNL A   1      37.451  22.032  25.815  1.00  0.00     0.275 C 
ENDROOT
BRANCH   1   2
ATOM      2  O   UNL A   1      38.726  22.548  25.369  1.00  0.00    -0.458 OA
BRANCH   2   3
ATOM      3  C   UNL A   1      39.843  22.901  26.052  1.00  0.00     0.338 C 
ATOM      4  O   UNL A   1      40.791  22.123  26.091  1.00  0.00    -0.246 OA
BRANCH   3   5
ATOM      5  C   UNL A   1      39.926  24.119  26.901  1.00  0.00     0.060 A 
ATOM      6  C   UNL A   1      38.786  24.463  28.277  1.00  0.00     0.016 A 
ATOM      7  C   UNL A   1      41.343  25.290  26.594  1.00  0.00     0.016 A 
ATOM      8  C   UNL A   1      39.037  25.864  29.396  1.00  0.00     0.010 A 
ATOM      9  C   UNL A   1      41.596  26.714  27.747  1.00  0.00     0.010 A 
ATOM     10  C   UNL A   1      40.457  26.966  29.149  1.00  0.00    -0.014 A 
BRANCH  10  11
ATOM     11  C   UNL A   1      40.593  28.116  30.056  1.00  0.00     0.031 A 
ATOM     12  C   UNL A   1      41.654  28.073  31.097  1.00  0.00     0.074 A 
ATOM     13  C   UNL A   1      39.799  29.190  29.939  1.00  0.00     0.049 A 
ATOM     14  N   UNL A   1      41.656  28.546  32.307  1.00  0.00    -0.248 NA
ATOM     15  C   UNL A   1      42.872  27.343  30.735  1.00  0.00     0.031 C 
ATOM     16  C   UNL A   1      38.893  29.472  28.832  1.00  0.00     0.029 A 
ATOM     17  N   UNL A   1      39.614  30.244  30.790  1.00  0.00    -0.354 N 
ATOM     18  C   UNL A   1      42.794  28.015  32.907  1.00  0.00     0.074 A 
ATOM     19  C   UNL A   1      43.464  27.213  31.914  1.00  0.00     0.031 C 
ATOM     20  C   UNL A   1      38.163  30.560  29.114  1.00  0.00     0.029 A 
ATOM     21  C   UNL A   1      38.556  31.045  30.427  1.00  0.00     0.049 A 
ATOM     22  H   UNL A   1      40.177  30.412  31.579  1.00  0.00     0.167 HD
ATOM     23  C   UNL A   1      43.217  28.214  34.177  1.00  0.00     0.037 A 
ATOM     24  C   UNL A   1      37.961  32.036  31.111  1.00  0.00     0.037 A 
ATOM     25  C   UNL A   1      42.660  29.268  34.984  1.00  0.00     0.049 A 
ATOM     26  C   UNL A   1      38.562  32.391  32.439  1.00  0.00     0.074 A 
ATOM     27  C   UNL A   1      43.025  29.698  36.245  1.00  0.00     0.029 A 
ATOM     28  N   UNL A   1      41.672  30.140  34.532  1.00  0.00    -0.354 N 
ATOM     29  N   UNL A   1      39.474  31.736  33.125  1.00  0.00    -0.248 NA
ATOM     30  C   UNL A   1      38.110  33.636  33.063  1.00  0.00     0.031 C 
ATOM     31  C   UNL A   1      42.289  30.858  36.530  1.00  0.00     0.029 A 
ATOM     32  C   UNL A   1      41.477  31.155  35.443  1.00  0.00     0.049 A 
ATOM     33  H   UNL A   1      41.182  30.044  33.683  1.00  0.00     0.167 HD
ATOM     34  C   UNL A   1      39.747  32.517  34.237  1.00  0.00     0.074 A 
ATOM     35  C   UNL A   1      38.891  33.687  34.134  1.00  0.00     0.031 C 
ATOM     36  C   UNL A   1      40.628  32.305  35.248  1.00  0.00     0.037 A 
BRANCH  23  37
ATOM     37  C   UNL A   1      44.274  27.294  34.734  1.00  0.00     0.058 A 
ATOM     38  C   UNL A   1      45.653  27.541  34.632  1.00  0.00     0.135 A 
ATOM     39  C   UNL A   1      43.886  26.085  35.344  1.00  0.00     0.135 A 
ATOM     40  F   UNL A   1      46.097  28.676  34.068  1.00  0.00    -0.206 F 
ATOM     41  C   UNL A   1      46.601  26.598  35.029  1.00  0.00     0.059 A 
ATOM     42  C   UNL A   1      44.817  25.147  35.789  1.00  0.00     0.059 A 
ATOM     43  F   UNL A   1      42.585  25.788  35.487  1.00  0.00    -0.206 F 
ATOM     44  C   UNL A   1      46.172  25.397  35.593  1.00  0.00     0.060 A 
BRANCH  44  45
ATOM     45  S   UNL A   1      47.399  24.159  36.068  1.00  0.00     0.124 S 
ATOM     46  O   UNL A   1      48.629  24.944  36.031  1.00  0.00    -0.237 OA
ATOM     47  O   UNL A   1      46.948  23.753  37.395  1.00  0.00    -0.237 OA
ATOM     48  O   UNL A   1      47.269  23.143  35.028  1.00  0.00    -0.744 OA
ENDBRANCH  44  45
ENDBRANCH  23  37
BRANCH  24  49
ATOM     49  C   UNL A   1      36.805  32.758  30.521  1.00  0.00     0.058 A 
ATOM     50  C   UNL A   1      35.493  32.452  30.907  1.00  0.00     0.135 A 
ATOM     51  C   UNL A   1      36.988  33.825  29.625  1.00  0.00     0.135 A 
ATOM     52  F   UNL A   1      35.265  31.454  31.775  1.00  0.00    -0.206 F 
ATOM     53  C   UNL A   1      34.401  33.157  30.409  1.00  0.00     0.059 A 
ATOM     54  C   UNL A   1      35.912  34.557  29.126  1.00  0.00     0.059 A 
ATOM     55  F   UNL A   1      38.226  34.185  29.253  1.00  0.00    -0.206 F 
ATOM     56  C   UNL A   1      34.620  34.209  29.520  1.00  0.00     0.060 A 
BRANCH  56  57
ATOM     57  S   UNL A   1      33.192  35.136  28.914  1.00  0.00     0.124 S 
ATOM     58  O   UNL A   1      32.599  34.186  27.979  1.00  0.00    -0.237 OA
ATOM     59  O   UNL A   1      32.440  35.374  30.143  1.00  0.00    -0.237 OA
ATOM     60  O   UNL A   1      33.788  36.324  28.311  1.00  0.00    -0.744 OA
ENDBRANCH  56  57
ENDBRANCH  24  49
BRANCH  36  61
ATOM     61  C   UNL A   1      40.755  33.402  36.256  1.00  0.00     0.058 A 
ATOM     62  C   UNL A   1      41.619  34.484  36.051  1.00  0.00     0.135 A 
ATOM     63  C   UNL A   1      39.948  33.391  37.404  1.00  0.00     0.135 A 
ATOM     64  F   UNL A   1      42.412  34.522  34.968  1.00  0.00    -0.206 F 
ATOM     65  C   UNL A   1      41.689  35.525  36.964  1.00  0.00     0.059 A 
ATOM     66  C   UNL A   1      39.987  34.432  38.320  1.00  0.00     0.059 A 
ATOM     67  F   UNL A   1      39.106  32.370  37.631  1.00  0.00    -0.206 F 
ATOM     68  C   UNL A   1      40.864  35.492  38.093  1.00  0.00     0.060 A 
BRANCH  68  69
ATOM     69  S   UNL A   1      40.921  36.883  39.239  1.00  0.00     0.124 S 
ATOM     70  O   UNL A   1      39.690  37.588  38.902  1.00  0.00    -0.237 OA
ATOM     71  O   UNL A   1      40.937  36.215  40.537  1.00  0.00    -0.237 OA
ATOM     72  O   UNL A   1      42.159  37.567  38.878  1.00  0.00    -0.744 OA
ENDBRANCH  68  69
ENDBRANCH  36  61
ENDBRANCH  10  11
ENDBRANCH   3   5
ENDBRANCH   2   3
ENDBRANCH   1   2
BRANCH   1  73
ATOM     73  C   UNL A   1      36.591  21.389  24.728  1.00  0.00     0.274 C 
BRANCH  73  74
ATOM     74  O   UNL A   1      35.592  22.288  24.247  1.00  0.00    -0.462 OA
BRANCH  74  75
ATOM     75  C   UNL A   1      34.317  21.840  24.255  1.00  0.00     0.309 C 
ATOM     76  O   UNL A   1      33.953  20.780  24.753  1.00  0.00    -0.252 OA
BRANCH  75  77
ATOM     77  C   UNL A   1      33.348  22.804  23.606  1.00  0.00     0.111 C 
ATOM     78  C   UNL A   1      33.916  24.195  23.330  1.00  0.00     0.016 C 
ATOM     79  C   UNL A   1      31.909  22.771  24.207  1.00  0.00     0.093 C 
ATOM     80  C   UNL A   1      32.965  25.032  22.472  1.00  0.00     0.001 C 
ATOM     81  C   UNL A   1      31.046  23.533  23.146  1.00  0.00     0.014 C 
ATOM     82  C   UNL A   1      31.512  24.968  22.932  1.00  0.00     0.001 C 
BRANCH  79  83
ATOM     83  C   UNL A   1      31.809  23.355  25.954  1.00  0.00     0.230 C 
ATOM     84  O   UNL A   1      31.552  22.274  26.572  1.00  0.00    -0.274 OA
ATOM     85  N   UNL A   1      32.038  25.169  26.689  1.00  0.00    -0.302 N 
ATOM     86  H   UNL A   1      32.009  25.113  27.671  1.00  0.00     0.172 HD
BRANCH  85  87
ATOM     87  C   UNL A   1      32.243  26.619  26.296  1.00  0.00     0.189 A 
ATOM     88  N   UNL A   1      31.384  27.583  26.071  1.00  0.00    -0.220 NA
ATOM     89  S   UNL A   1      33.861  27.040  25.895  1.00  0.00    -0.105 S 
ATOM     90  C   UNL A   1      31.918  28.472  25.164  1.00  0.00     0.084 A 
ATOM     91  C   UNL A   1      33.260  28.311  24.898  1.00  0.00     0.097 A 
BRANCH  90  92
ATOM     92  C   UNL A   1      31.027  29.419  24.532  1.00  0.00     0.003 A 
ATOM     93  C   UNL A   1      30.935  30.704  25.077  1.00  0.00     0.012 A 
ATOM     94  C   UNL A   1      30.137  29.022  23.528  1.00  0.00     0.032 A 
ATOM     95  C   UNL A   1      29.963  31.593  24.626  1.00  0.00     0.023 A 
ATOM     96  C   UNL A   1      29.150  29.910  23.085  1.00  0.00     0.060 A 
ATOM     97  C   UNL A   1      29.063  31.196  23.634  1.00  0.00     0.059 A 
ATOM     98  Cl  UNL A   1      28.037  29.346  21.888  1.00  0.00    -0.083 Cl
ATOM     99  Cl  UNL A   1      27.851  32.332  23.156  1.00  0.00    -0.083 Cl
ENDBRANCH  90  92
ENDBRANCH  85  87
ENDBRANCH  79  83
ENDBRANCH  75  77
ENDBRANCH  74  75
ENDBRANCH  73  74
ENDBRANCH   1  73
TORSDOF 17
ENDMDL
MODEL 3
REMARK VINA RESULT:     -12.2      2.391      8.760
REMARK SMILES O=C(OCCOC(=O)[C@@H]1CCCC[C@@H]1C(=O)Nc1nc(-c2ccc(Cl)c(Cl)c2)cs1)c1ccc(-c2c3nc(c(-c4c(F)cc(S(=O)(=O)[O-])cc4F)c4ccc([nH]4)c(-c4c(F)cc(S(=O)(=O)[O-])cc4F)c4nc(c(-c5c(F)cc(S(=O)(=O)[O-])cc5F)c5ccc2[nH]5)C=C4)C=C3)cc1
REMARK SMILES IDX 4 1 3 2 2 3 1 4 31 5 32 6 96 7 33 8 95 9 34 10 35 11 36 12
REMARK SMILES IDX 89 13 37 14 94 15 88 16 90 17 38 18 93 19 87 20 86 21 39 23
REMARK SMILES IDX 73 24 52 25 72 26 53 27 56 28 71 29 91 30 54 31 55 32 70 34
REMARK SMILES IDX 92 35 57 36 40 37 41 38 50 39 42 40 43 41 49 42 51 43 44 44
REMARK SMILES IDX 45 45 46 46 47 47 48 48 74 49 75 50 84 51 76 52 77 53 83 54
REMARK SMILES IDX 85 55 78 56 79 57 80 58 81 59 82 60 58 61 59 62 68 63 60 64
REMARK SMILES IDX 61 65 67 66 69 67 62 68 63 69 64 70 65 71 66 72 5 73 6 74
REMARK SMILES IDX 7 75 8 76 9 77 10 78 14 79 11 80 13 81 12 82 15 83 16 84
REMARK SMILES IDX 17 85 18 87 19 88 30 89 20 90 29 91 21 92 22 93 28 94 23 95
REMARK SMILES IDX 26 96 24 97 27 98 25 99
REMARK H PARENT 90 22 56 33 17 86
REMARK Flexibility Score: inf
ROOT
ATOM      1  C   UNL A   1      34.819  32.263  30.296  1.00  0.00     0.275 C 
ENDROOT
BRANCH   1   2
ATOM      2  O   UNL A   1      35.990  31.871  31.048  1.00  0.00    -0.458 OA
BRANCH   2   3
ATOM      3  C   UNL A   1      36.681  30.705  31.095  1.00  0.00     0.338 C 
ATOM      4  O   UNL A   1      36.262  29.790  31.798  1.00  0.00    -0.246 OA
BRANCH   3   5
ATOM      5  C   UNL A   1      38.016  30.524  30.464  1.00  0.00     0.060 A 
ATOM      6  C   UNL A   1      39.577  30.533  31.399  1.00  0.00     0.016 A 
ATOM      7  C   UNL A   1      38.065  30.162  28.637  1.00  0.00     0.016 A 
ATOM      8  C   UNL A   1      41.159  30.127  30.618  1.00  0.00     0.010 A 
ATOM      9  C   UNL A   1      39.684  29.741  27.849  1.00  0.00     0.010 A 
ATOM     10  C   UNL A   1      41.205  29.701  28.854  1.00  0.00    -0.014 A 
BRANCH  10  11
ATOM     11  C   UNL A   1      42.519  29.422  28.255  1.00  0.00     0.031 A 
ATOM     12  C   UNL A   1      42.759  28.074  27.676  1.00  0.00     0.074 A 
ATOM     13  C   UNL A   1      43.473  30.363  28.208  1.00  0.00     0.049 A 
ATOM     14  N   UNL A   1      43.844  27.359  27.647  1.00  0.00    -0.248 NA
ATOM     15  C   UNL A   1      41.590  27.415  27.090  1.00  0.00     0.031 C 
ATOM     16  C   UNL A   1      43.300  31.778  28.511  1.00  0.00     0.029 A 
ATOM     17  N   UNL A   1      44.802  30.253  27.903  1.00  0.00    -0.354 N 
ATOM     18  C   UNL A   1      43.444  26.102  27.206  1.00  0.00     0.074 A 
ATOM     19  C   UNL A   1      42.026  26.170  26.954  1.00  0.00     0.031 C 
ATOM     20  C   UNL A   1      44.492  32.392  28.489  1.00  0.00     0.029 A 
ATOM     21  C   UNL A   1      45.508  31.403  28.171  1.00  0.00     0.049 A 
ATOM     22  H   UNL A   1      45.210  29.438  27.532  1.00  0.00     0.167 HD
ATOM     23  C   UNL A   1      44.225  25.011  27.026  1.00  0.00     0.037 A 
ATOM     24  C   UNL A   1      46.836  31.605  28.187  1.00  0.00     0.037 A 
ATOM     25  C   UNL A   1      45.660  25.128  27.000  1.00  0.00     0.049 A 
ATOM     26  C   UNL A   1      47.698  30.443  27.788  1.00  0.00     0.074 A 
ATOM     27  C   UNL A   1      46.616  24.169  26.725  1.00  0.00     0.029 A 
ATOM     28  N   UNL A   1      46.335  26.337  27.153  1.00  0.00    -0.354 N 
ATOM     29  N   UNL A   1      47.347  29.186  27.614  1.00  0.00    -0.248 NA
ATOM     30  C   UNL A   1      49.111  30.721  27.529  1.00  0.00     0.031 C 
ATOM     31  C   UNL A   1      47.861  24.813  26.666  1.00  0.00     0.029 A 
ATOM     32  C   UNL A   1      47.677  26.171  26.891  1.00  0.00     0.049 A 
ATOM     33  H   UNL A   1      45.913  27.188  27.413  1.00  0.00     0.167 HD
ATOM     34  C   UNL A   1      48.485  28.532  27.170  1.00  0.00     0.074 A 
ATOM     35  C   UNL A   1      49.537  29.533  27.116  1.00  0.00     0.031 C 
ATOM     36  C   UNL A   1      48.655  27.230  26.825  1.00  0.00     0.037 A 
BRANCH  23  37
ATOM     37  C   UNL A   1      43.558  23.668  26.869  1.00  0.00     0.058 A 
ATOM     38  C   UNL A   1      43.110  22.892  27.950  1.00  0.00     0.135 A 
ATOM     39  C   UNL A   1      43.419  23.112  25.583  1.00  0.00     0.135 A 
ATOM     40  F   UNL A   1      43.205  23.360  29.205  1.00  0.00    -0.206 F 
ATOM     41  C   UNL A   1      42.631  21.593  27.776  1.00  0.00     0.059 A 
ATOM     42  C   UNL A   1      42.901  21.833  25.381  1.00  0.00     0.059 A 
ATOM     43  F   UNL A   1      43.814  23.802  24.502  1.00  0.00    -0.206 F 
ATOM     44  C   UNL A   1      42.545  21.067  26.487  1.00  0.00     0.060 A 
BRANCH  44  45
ATOM     45  S   UNL A   1      41.966  19.370  26.265  1.00  0.00     0.124 S 
ATOM     46  O   UNL A   1      40.526  19.572  26.141  1.00  0.00    -0.237 OA
ATOM     47  O   UNL A   1      42.653  18.954  25.046  1.00  0.00    -0.237 OA
ATOM     48  O   UNL A   1      42.407  18.703  27.486  1.00  0.00    -0.744 OA
ENDBRANCH  44  45
ENDBRANCH  23  37
BRANCH  24  49
ATOM     49  C   UNL A   1      47.382  32.942  28.530  1.00  0.00     0.058 A 
ATOM     50  C   UNL A   1      47.806  33.233  29.834  1.00  0.00     0.135 A 
ATOM     51  C   UNL A   1      47.569  33.931  27.549  1.00  0.00     0.135 A 
ATOM     52  F   UNL A   1      47.667  32.316  30.804  1.00  0.00    -0.206 F 
ATOM     53  C   UNL A   1      48.374  34.461  30.162  1.00  0.00     0.059 A 
ATOM     54  C   UNL A   1      48.151  35.162  27.849  1.00  0.00     0.059 A 
ATOM     55  F   UNL A   1      47.215  33.690  26.277  1.00  0.00    -0.206 F 
ATOM     56  C   UNL A   1      48.543  35.419  29.162  1.00  0.00     0.060 A 
BRANCH  56  57
ATOM     57  S   UNL A   1      49.316  36.992  29.601  1.00  0.00     0.124 S 
ATOM     58  O   UNL A   1      49.822  37.443  28.309  1.00  0.00    -0.237 OA
ATOM     59  O   UNL A   1      48.189  37.745  30.142  1.00  0.00    -0.237 OA
ATOM     60  O   UNL A   1      50.334  36.611  30.576  1.00  0.00    -0.744 OA
ENDBRANCH  56  57
ENDBRANCH  24  49
BRANCH  36  61
ATOM     61  C   UNL A   1      49.999  26.859  26.285  1.00  0.00     0.058 A 
ATOM     62  C   UNL A   1      50.279  26.926  24.915  1.00  0.00     0.135 A 
ATOM     63  C   UNL A   1      51.029  26.498  27.167  1.00  0.00     0.135 A 
ATOM     64  F   UNL A   1      49.315  27.259  24.043  1.00  0.00    -0.206 F 
ATOM     65  C   UNL A   1      51.544  26.634  24.430  1.00  0.00     0.059 A 
ATOM     66  C   UNL A   1      52.308  26.222  26.704  1.00  0.00     0.059 A 
ATOM     67  F   UNL A   1      50.797  26.426  28.487  1.00  0.00    -0.206 F 
ATOM     68  C   UNL A   1      52.553  26.289  25.333  1.00  0.00     0.060 A 
BRANCH  68  69
ATOM     69  S   UNL A   1      54.209  25.972  24.693  1.00  0.00     0.124 S 
ATOM     70  O   UNL A   1      55.017  26.855  25.527  1.00  0.00    -0.237 OA
ATOM     71  O   UNL A   1      54.369  24.542  24.937  1.00  0.00    -0.237 OA
ATOM     72  O   UNL A   1      54.105  26.354  23.288  1.00  0.00    -0.744 OA
ENDBRANCH  68  69
ENDBRANCH  36  61
ENDBRANCH  10  11
ENDBRANCH   3   5
ENDBRANCH   2   3
ENDBRANCH   1   2
BRANCH   1  73
ATOM     73  C   UNL A   1      34.971  32.202  28.776  1.00  0.00     0.274 C 
BRANCH  73  74
ATOM     74  O   UNL A   1      34.007  31.329  28.186  1.00  0.00    -0.462 OA
BRANCH  74  75
ATOM     75  C   UNL A   1      34.487  30.289  27.469  1.00  0.00     0.309 C 
ATOM     76  O   UNL A   1      35.589  30.263  26.931  1.00  0.00    -0.252 OA
BRANCH  75  77
ATOM     77  C   UNL A   1      33.533  29.117  27.416  1.00  0.00     0.111 C 
ATOM     78  C   UNL A   1      33.995  27.952  26.544  1.00  0.00     0.016 C 
ATOM     79  C   UNL A   1      32.033  29.516  27.268  1.00  0.00     0.093 C 
ATOM     80  C   UNL A   1      33.099  26.724  26.722  1.00  0.00     0.001 C 
ATOM     81  C   UNL A   1      31.261  28.202  27.625  1.00  0.00     0.014 C 
ATOM     82  C   UNL A   1      31.609  27.046  26.696  1.00  0.00     0.001 C 
BRANCH  79  83
ATOM     83  C   UNL A   1      31.625  30.325  25.660  1.00  0.00     0.230 C 
ATOM     84  O   UNL A   1      31.190  31.457  26.045  1.00  0.00    -0.274 OA
ATOM     85  N   UNL A   1      31.807  29.636  23.824  1.00  0.00    -0.302 N 
ATOM     86  H   UNL A   1      31.582  30.360  23.196  1.00  0.00     0.172 HD
BRANCH  85  87
ATOM     87  C   UNL A   1      32.167  28.399  23.024  1.00  0.00     0.189 A 
ATOM     88  N   UNL A   1      31.749  27.160  23.114  1.00  0.00    -0.220 NA
ATOM     89  S   UNL A   1      33.477  28.599  21.929  1.00  0.00    -0.105 S 
ATOM     90  C   UNL A   1      32.743  26.307  22.684  1.00  0.00     0.084 A 
ATOM     91  C   UNL A   1      33.805  26.911  22.046  1.00  0.00     0.097 A 
BRANCH  90  92
ATOM     92  C   UNL A   1      32.621  24.903  23.002  1.00  0.00     0.003 A 
ATOM     93  C   UNL A   1      31.340  24.381  23.205  1.00  0.00     0.012 A 
ATOM     94  C   UNL A   1      33.746  24.122  23.292  1.00  0.00     0.032 A 
ATOM     95  C   UNL A   1      31.175  23.086  23.692  1.00  0.00     0.023 A 
ATOM     96  C   UNL A   1      33.581  22.827  23.795  1.00  0.00     0.060 A 
ATOM     97  C   UNL A   1      32.294  22.309  23.995  1.00  0.00     0.059 A 
ATOM     98  Cl  UNL A   1      35.004  21.930  24.195  1.00  0.00    -0.083 Cl
ATOM     99  Cl  UNL A   1      32.017  20.730  24.641  1.00  0.00    -0.083 Cl
ENDBRANCH  90  92
ENDBRANCH  85  87
ENDBRANCH  79  83
ENDBRANCH  75  77
ENDBRANCH  74  75
ENDBRANCH  73  74
ENDBRANCH   1  73
TORSDOF 17
ENDMDL
