MODEL 1
REMARK VINA RESULT:     -11.4      0.000      0.000
REMARK SMILES CC(C)(C)c1ccc(OCC(=O)N/N=C/c2ccc(C(=O)OCCOC(=O)c3ccc(-c4c5nc(c(-c6c(F)cc(S(=O)(=O)[O-])cc6F)c6ccc([nH]6)c(-c6c(F)cc(S(=O)(=O)[O-])cc6F)c6nc(c(-c7c(F)cc(S(=O)(=O)[O-])cc7F)c7ccc4[nH]7)C=C6)C=C5)cc3)cc2)cc1
REMARK SMILES IDX 22 1 20 2 21 3 19 4 16 5 17 6 95 7 18 8 94 9 15 10 14 11
REMARK SMILES IDX 13 12 11 13 12 14 10 16 9 17 8 18 5 19 6 20 97 21 7 22 96 23
REMARK SMILES IDX 2 24 1 25 3 26 4 27 23 28 24 29 25 30 26 31 27 32 28 33
REMARK SMILES IDX 29 34 93 35 30 36 92 37 31 38 32 39 33 40 86 41 34 42 91 43
REMARK SMILES IDX 85 44 87 45 35 46 90 47 84 48 83 49 36 51 70 52 49 53 69 54
REMARK SMILES IDX 50 55 53 56 68 57 88 58 51 59 52 60 67 62 89 63 54 64 37 65
REMARK SMILES IDX 38 66 47 67 39 68 40 69 46 70 48 71 41 72 42 73 43 74 44 75
REMARK SMILES IDX 45 76 71 77 72 78 81 79 73 80 74 81 80 82 82 83 75 84 76 85
REMARK SMILES IDX 77 86 78 87 79 88 55 89 56 90 65 91 57 92 58 93 64 94 66 95
REMARK SMILES IDX 59 96 60 97 61 98 62 99 63 100
REMARK H PARENT 13 15 87 50 53 61
REMARK Flexibility Score: inf
ROOT
ATOM      1  O   UNL A   1      38.971  21.806  26.361  1.00  0.00    -0.458 OA
ENDROOT
BRANCH   1   2
ATOM      2  C   UNL A   1      38.176  21.264  25.404  1.00  0.00     0.338 C 
ATOM      3  O   UNL A   1      38.222  20.122  24.985  1.00  0.00    -0.246 OA
BRANCH   2   4
ATOM      4  C   UNL A   1      37.135  22.225  24.969  1.00  0.00     0.060 A 
ATOM      5  C   UNL A   1      35.094  23.983  24.286  1.00  0.00    -0.005 A 
ATOM      6  C   UNL A   1      35.406  23.794  25.626  1.00  0.00     0.010 A 
ATOM      7  C   UNL A   1      35.775  23.296  23.277  1.00  0.00     0.010 A 
ATOM      8  C   UNL A   1      36.397  22.885  25.959  1.00  0.00     0.016 A 
ATOM      9  C   UNL A   1      36.825  22.431  23.621  1.00  0.00     0.016 A 
BRANCH   5  10
ATOM     10  C   UNL A   1      34.041  24.962  24.014  1.00  0.00     0.141 C 
ATOM     11  N   UNL A   1      33.546  25.707  24.938  1.00  0.00    -0.181 NA
BRANCH  11  12
ATOM     12  N   UNL A   1      32.642  26.686  24.649  1.00  0.00    -0.244 N 
ATOM     13  C   UNL A   1      31.276  26.742  24.532  1.00  0.00     0.277 C 
ATOM     14  O   UNL A   1      30.773  27.850  24.295  1.00  0.00    -0.269 OA
ATOM     15  H   UNL A   1      33.069  27.559  24.489  1.00  0.00     0.193 HD
BRANCH  13  16
ATOM     16  C   UNL A   1      30.360  25.524  24.694  1.00  0.00     0.331 C 
BRANCH  16  17
ATOM     17  O   UNL A   1      30.416  24.536  23.676  1.00  0.00    -0.484 OA
BRANCH  17  18
ATOM     18  C   UNL A   1      31.054  23.365  23.985  1.00  0.00     0.120 A 
ATOM     19  C   UNL A   1      32.381  20.882  24.383  1.00  0.00    -0.042 A 
ATOM     20  C   UNL A   1      32.274  21.460  23.105  1.00  0.00     0.008 A 
ATOM     21  C   UNL A   1      31.817  21.593  25.452  1.00  0.00     0.008 A 
ATOM     22  C   UNL A   1      31.626  22.687  22.910  1.00  0.00     0.047 A 
ATOM     23  C   UNL A   1      31.172  22.819  25.259  1.00  0.00     0.047 A 
BRANCH  19  24
ATOM     24  C   UNL A   1      33.082  19.529  24.581  1.00  0.00    -0.013 C 
ATOM     25  C   UNL A   1      34.625  19.635  24.620  1.00  0.00     0.016 C 
ATOM     26  C   UNL A   1      32.723  18.568  23.428  1.00  0.00     0.016 C 
ATOM     27  C   UNL A   1      32.629  18.913  25.921  1.00  0.00     0.016 C 
ENDBRANCH  19  24
ENDBRANCH  17  18
ENDBRANCH  16  17
ENDBRANCH  13  16
ENDBRANCH  11  12
ENDBRANCH   5  10
ENDBRANCH   2   4
ENDBRANCH   1   2
BRANCH   1  28
ATOM     28  C   UNL A   1      40.317  21.286  26.409  1.00  0.00     0.275 C 
BRANCH  28  29
ATOM     29  C   UNL A   1      41.369  22.398  26.383  1.00  0.00     0.275 C 
BRANCH  29  30
ATOM     30  O   UNL A   1      40.757  23.699  26.447  1.00  0.00    -0.458 OA
BRANCH  30  31
ATOM     31  C   UNL A   1      41.604  24.736  26.262  1.00  0.00     0.338 C 
ATOM     32  O   UNL A   1      42.489  24.828  25.426  1.00  0.00    -0.246 OA
BRANCH  31  33
ATOM     33  C   UNL A   1      41.270  25.845  27.165  1.00  0.00     0.060 A 
ATOM     34  C   UNL A   1      41.937  27.046  26.976  1.00  0.00     0.016 A 
ATOM     35  C   UNL A   1      40.495  25.652  28.304  1.00  0.00     0.016 A 
ATOM     36  C   UNL A   1      41.992  27.985  27.999  1.00  0.00     0.010 A 
ATOM     37  C   UNL A   1      40.404  26.680  29.253  1.00  0.00     0.010 A 
ATOM     38  C   UNL A   1      41.190  27.843  29.137  1.00  0.00    -0.014 A 
BRANCH  38  39
ATOM     39  C   UNL A   1      41.159  28.918  30.175  1.00  0.00     0.031 A 
ATOM     40  C   UNL A   1      42.162  28.934  31.302  1.00  0.00     0.074 A 
ATOM     41  C   UNL A   1      40.211  29.879  30.121  1.00  0.00     0.049 A 
ATOM     42  N   UNL A   1      42.167  29.652  32.397  1.00  0.00    -0.248 NA
ATOM     43  C   UNL A   1      43.297  28.006  31.195  1.00  0.00     0.031 C 
ATOM     44  C   UNL A   1      39.193  30.009  29.074  1.00  0.00     0.029 A 
ATOM     45  N   UNL A   1      39.936  30.925  30.969  1.00  0.00    -0.354 N 
ATOM     46  C   UNL A   1      43.260  29.217  33.138  1.00  0.00     0.074 A 
ATOM     47  C   UNL A   1      43.894  28.167  32.367  1.00  0.00     0.031 C 
ATOM     48  C   UNL A   1      38.432  31.082  29.320  1.00  0.00     0.029 A 
ATOM     49  C   UNL A   1      38.819  31.643  30.606  1.00  0.00     0.049 A 
ATOM     50  H   UNL A   1      40.484  31.140  31.759  1.00  0.00     0.167 HD
ATOM     51  C   UNL A   1      43.688  29.647  34.351  1.00  0.00     0.037 A 
ATOM     52  C   UNL A   1      38.124  32.595  31.257  1.00  0.00     0.037 A 
ATOM     53  C   UNL A   1      43.068  30.724  35.084  1.00  0.00     0.049 A 
ATOM     54  C   UNL A   1      38.583  33.030  32.616  1.00  0.00     0.074 A 
ATOM     55  C   UNL A   1      43.456  31.278  36.291  1.00  0.00     0.029 A 
ATOM     56  N   UNL A   1      41.926  31.407  34.683  1.00  0.00    -0.354 N 
ATOM     57  N   UNL A   1      39.615  32.607  33.304  1.00  0.00    -0.248 NA
ATOM     58  C   UNL A   1      37.779  34.053  33.293  1.00  0.00     0.031 C 
ATOM     59  C   UNL A   1      42.511  32.246  36.653  1.00  0.00     0.029 A 
ATOM     60  C   UNL A   1      41.570  32.343  35.640  1.00  0.00     0.049 A 
ATOM     61  H   UNL A   1      41.442  31.248  33.841  1.00  0.00     0.167 HD
ATOM     62  C   UNL A   1      39.586  33.311  34.500  1.00  0.00     0.074 A 
ATOM     63  C   UNL A   1      38.448  34.207  34.428  1.00  0.00     0.031 C 
ATOM     64  C   UNL A   1      40.424  33.218  35.563  1.00  0.00     0.037 A 
BRANCH  51  65
ATOM     65  C   UNL A   1      44.840  28.914  34.991  1.00  0.00     0.058 A 
ATOM     66  C   UNL A   1      44.659  27.798  35.824  1.00  0.00     0.135 A 
ATOM     67  C   UNL A   1      46.160  29.340  34.757  1.00  0.00     0.135 A 
ATOM     68  F   UNL A   1      43.423  27.347  36.092  1.00  0.00    -0.206 F 
ATOM     69  C   UNL A   1      45.736  27.169  36.445  1.00  0.00     0.059 A 
ATOM     70  C   UNL A   1      47.254  28.705  35.339  1.00  0.00     0.059 A 
ATOM     71  F   UNL A   1      46.398  30.396  33.962  1.00  0.00    -0.206 F 
ATOM     72  C   UNL A   1      47.030  27.635  36.203  1.00  0.00     0.060 A 
BRANCH  72  73
ATOM     73  S   UNL A   1      48.411  26.837  37.048  1.00  0.00     0.124 S 
ATOM     74  O   UNL A   1      47.985  25.439  37.041  1.00  0.00    -0.237 OA
ATOM     75  O   UNL A   1      49.538  27.159  36.180  1.00  0.00    -0.237 OA
ATOM     76  O   UNL A   1      48.427  27.479  38.359  1.00  0.00    -0.744 OA
ENDBRANCH  72  73
ENDBRANCH  51  65
BRANCH  52  77
ATOM     77  C   UNL A   1      36.880  33.130  30.639  1.00  0.00     0.058 A 
ATOM     78  C   UNL A   1      35.615  32.781  31.128  1.00  0.00     0.135 A 
ATOM     79  C   UNL A   1      36.942  34.081  29.603  1.00  0.00     0.135 A 
ATOM     80  F   UNL A   1      35.503  31.871  32.107  1.00  0.00    -0.206 F 
ATOM     81  C   UNL A   1      34.456  33.364  30.626  1.00  0.00     0.059 A 
ATOM     82  C   UNL A   1      35.801  34.700  29.108  1.00  0.00     0.059 A 
ATOM     83  F   UNL A   1      38.131  34.461  29.109  1.00  0.00    -0.206 F 
ATOM     84  C   UNL A   1      34.561  34.336  29.627  1.00  0.00     0.060 A 
BRANCH  84  85
ATOM     85  S   UNL A   1      33.058  35.163  29.062  1.00  0.00     0.124 S 
ATOM     86  O   UNL A   1      32.540  34.204  28.094  1.00  0.00    -0.237 OA
ATOM     87  O   UNL A   1      32.298  35.294  30.301  1.00  0.00    -0.237 OA
ATOM     88  O   UNL A   1      33.554  36.419  28.505  1.00  0.00    -0.744 OA
ENDBRANCH  84  85
ENDBRANCH  52  77
BRANCH  64  89
ATOM     89  C   UNL A   1      40.144  34.111  36.739  1.00  0.00     0.058 A 
ATOM     90  C   UNL A   1      40.695  35.400  36.830  1.00  0.00     0.135 A 
ATOM     91  C   UNL A   1      39.266  33.700  37.755  1.00  0.00     0.135 A 
ATOM     92  F   UNL A   1      41.552  35.836  35.894  1.00  0.00    -0.206 F 
ATOM     93  C   UNL A   1      40.392  36.245  37.892  1.00  0.00     0.059 A 
ATOM     94  C   UNL A   1      38.927  34.540  38.811  1.00  0.00     0.059 A 
ATOM     95  F   UNL A   1      38.710  32.478  37.714  1.00  0.00    -0.206 F 
ATOM     96  C   UNL A   1      39.500  35.808  38.874  1.00  0.00     0.060 A 
BRANCH  96  97
ATOM     97  S   UNL A   1      39.073  36.939  40.215  1.00  0.00     0.124 S 
ATOM     98  O   UNL A   1      40.377  37.172  40.829  1.00  0.00    -0.237 OA
ATOM     99  O   UNL A   1      38.498  38.071  39.496  1.00  0.00    -0.237 OA
ATOM    100  O   UNL A   1      38.130  36.171  41.021  1.00  0.00    -0.744 OA
ENDBRANCH  96  97
ENDBRANCH  64  89
ENDBRANCH  38  39
ENDBRANCH  31  33
ENDBRANCH  30  31
ENDBRANCH  29  30
ENDBRANCH  28  29
ENDBRANCH   1  28
TORSDOF 20
ENDMDL
MODEL 2
REMARK VINA RESULT:     -11.4      2.248      3.368
REMARK SMILES CC(C)(C)c1ccc(OCC(=O)N/N=C/c2ccc(C(=O)OCCOC(=O)c3ccc(-c4c5nc(c(-c6c(F)cc(S(=O)(=O)[O-])cc6F)c6ccc([nH]6)c(-c6c(F)cc(S(=O)(=O)[O-])cc6F)c6nc(c(-c7c(F)cc(S(=O)(=O)[O-])cc7F)c7ccc4[nH]7)C=C6)C=C5)cc3)cc2)cc1
REMARK SMILES IDX 22 1 20 2 21 3 19 4 16 5 17 6 95 7 18 8 94 9 15 10 14 11
REMARK SMILES IDX 13 12 11 13 12 14 10 16 9 17 8 18 5 19 6 20 97 21 7 22 96 23
REMARK SMILES IDX 2 24 1 25 3 26 4 27 23 28 24 29 25 30 26 31 27 32 28 33
REMARK SMILES IDX 29 34 93 35 30 36 92 37 31 38 32 39 33 40 86 41 34 42 91 43
REMARK SMILES IDX 85 44 87 45 35 46 90 47 84 48 83 49 36 51 70 52 49 53 69 54
REMARK SMILES IDX 50 55 53 56 68 57 88 58 51 59 52 60 67 62 89 63 54 64 37 65
REMARK SMILES IDX 38 66 47 67 39 68 40 69 46 70 48 71 41 72 42 73 43 74 44 75
REMARK SMILES IDX 45 76 71 77 72 78 81 79 73 80 74 81 80 82 82 83 75 84 76 85
REMARK SMILES IDX 77 86 78 87 79 88 55 89 56 90 65 91 57 92 58 93 64 94 66 95
REMARK SMILES IDX 59 96 60 97 61 98 62 99 63 100
REMARK H PARENT 13 15 87 50 53 61
REMARK Flexibility Score: inf
ROOT
ATOM      1  O   UNL A   1      35.532  21.731  26.328  1.00  0.00    -0.458 OA
ENDROOT
BRANCH   1   2
ATOM      2  C   UNL A   1      34.181  21.823  26.243  1.00  0.00     0.338 C 
ATOM      3  O   UNL A   1      33.391  20.896  26.233  1.00  0.00    -0.246 OA
BRANCH   2   4
ATOM      4  C   UNL A   1      33.741  23.237  26.260  1.00  0.00     0.060 A 
ATOM      5  C   UNL A   1      32.770  25.841  26.229  1.00  0.00    -0.005 A 
ATOM      6  C   UNL A   1      31.908  24.800  26.549  1.00  0.00     0.010 A 
ATOM      7  C   UNL A   1      34.109  25.604  25.908  1.00  0.00     0.010 A 
ATOM      8  C   UNL A   1      32.392  23.501  26.522  1.00  0.00     0.016 A 
ATOM      9  C   UNL A   1      34.606  24.293  25.951  1.00  0.00     0.016 A 
BRANCH   5  10
ATOM     10  C   UNL A   1      32.187  27.182  26.285  1.00  0.00     0.141 C 
ATOM     11  N   UNL A   1      32.898  28.243  26.129  1.00  0.00    -0.181 NA
BRANCH  11  12
ATOM     12  N   UNL A   1      32.323  29.479  26.078  1.00  0.00    -0.244 N 
ATOM     13  C   UNL A   1      31.388  30.082  25.276  1.00  0.00     0.277 C 
ATOM     14  O   UNL A   1      31.062  31.244  25.562  1.00  0.00    -0.269 OA
ATOM     15  H   UNL A   1      32.658  30.079  26.784  1.00  0.00     0.193 HD
BRANCH  13  16
ATOM     16  C   UNL A   1      30.727  29.393  24.077  1.00  0.00     0.331 C 
BRANCH  16  17
ATOM     17  O   UNL A   1      31.574  29.025  22.998  1.00  0.00    -0.484 OA
BRANCH  17  18
ATOM     18  C   UNL A   1      31.855  27.693  22.860  1.00  0.00     0.120 A 
ATOM     19  C   UNL A   1      32.661  24.993  22.477  1.00  0.00    -0.042 A 
ATOM     20  C   UNL A   1      33.583  26.053  22.395  1.00  0.00     0.008 A 
ATOM     21  C   UNL A   1      31.331  25.328  22.770  1.00  0.00     0.008 A 
ATOM     22  C   UNL A   1      33.187  27.382  22.591  1.00  0.00     0.047 A 
ATOM     23  C   UNL A   1      30.935  26.655  22.968  1.00  0.00     0.047 A 
BRANCH  19  24
ATOM     24  C   UNL A   1      33.105  23.540  22.246  1.00  0.00    -0.013 C 
ATOM     25  C   UNL A   1      34.528  23.241  22.773  1.00  0.00     0.016 C 
ATOM     26  C   UNL A   1      33.104  23.216  20.737  1.00  0.00     0.016 C 
ATOM     27  C   UNL A   1      32.134  22.589  22.976  1.00  0.00     0.016 C 
ENDBRANCH  19  24
ENDBRANCH  17  18
ENDBRANCH  16  17
ENDBRANCH  13  16
ENDBRANCH  11  12
ENDBRANCH   5  10
ENDBRANCH   2   4
ENDBRANCH   1   2
BRANCH   1  28
ATOM     28  C   UNL A   1      36.163  20.959  25.284  1.00  0.00     0.275 C 
BRANCH  28  29
ATOM     29  C   UNL A   1      37.555  21.492  24.932  1.00  0.00     0.275 C 
BRANCH  29  30
ATOM     30  O   UNL A   1      37.811  22.754  25.573  1.00  0.00    -0.458 OA
BRANCH  30  31
ATOM     31  C   UNL A   1      39.060  22.899  26.066  1.00  0.00     0.338 C 
ATOM     32  O   UNL A   1      40.005  22.139  25.922  1.00  0.00    -0.246 OA
BRANCH  31  33
ATOM     33  C   UNL A   1      39.198  24.186  26.759  1.00  0.00     0.060 A 
ATOM     34  C   UNL A   1      40.096  25.103  26.233  1.00  0.00     0.016 A 
ATOM     35  C   UNL A   1      38.635  24.405  28.012  1.00  0.00     0.016 A 
ATOM     36  C   UNL A   1      40.582  26.139  27.021  1.00  0.00     0.010 A 
ATOM     37  C   UNL A   1      38.992  25.555  28.732  1.00  0.00     0.010 A 
ATOM     38  C   UNL A   1      40.007  26.414  28.267  1.00  0.00    -0.014 A 
BRANCH  38  39
ATOM     39  C   UNL A   1      40.449  27.605  29.054  1.00  0.00     0.031 A 
ATOM     40  C   UNL A   1      41.751  27.588  29.816  1.00  0.00     0.074 A 
ATOM     41  C   UNL A   1      39.668  28.706  29.106  1.00  0.00     0.049 A 
ATOM     42  N   UNL A   1      42.198  28.433  30.711  1.00  0.00    -0.248 NA
ATOM     43  C   UNL A   1      42.661  26.463  29.553  1.00  0.00     0.031 C 
ATOM     44  C   UNL A   1      38.396  28.878  28.396  1.00  0.00     0.029 A 
ATOM     45  N   UNL A   1      39.817  29.888  29.791  1.00  0.00    -0.354 N 
ATOM     46  C   UNL A   1      43.403  27.908  31.167  1.00  0.00     0.074 A 
ATOM     47  C   UNL A   1      43.616  26.668  30.449  1.00  0.00     0.031 C 
ATOM     48  C   UNL A   1      37.901  30.093  28.655  1.00  0.00     0.029 A 
ATOM     49  C   UNL A   1      38.747  30.742  29.646  1.00  0.00     0.049 A 
ATOM     50  H   UNL A   1      40.611  30.102  30.333  1.00  0.00     0.167 HD
ATOM     51  C   UNL A   1      44.248  28.412  32.102  1.00  0.00     0.037 A 
ATOM     52  C   UNL A   1      38.426  31.882  30.287  1.00  0.00     0.037 A 
ATOM     53  C   UNL A   1      44.040  29.671  32.774  1.00  0.00     0.049 A 
ATOM     54  C   UNL A   1      39.347  32.402  31.349  1.00  0.00     0.074 A 
ATOM     55  C   UNL A   1      44.861  30.301  33.693  1.00  0.00     0.029 A 
ATOM     56  N   UNL A   1      42.930  30.489  32.608  1.00  0.00    -0.354 N 
ATOM     57  N   UNL A   1      40.479  31.895  31.770  1.00  0.00    -0.248 NA
ATOM     58  C   UNL A   1      38.941  33.635  32.033  1.00  0.00     0.031 C 
ATOM     59  C   UNL A   1      44.216  31.463  34.132  1.00  0.00     0.029 A 
ATOM     60  C   UNL A   1      43.023  31.594  33.439  1.00  0.00     0.049 A 
ATOM     61  H   UNL A   1      42.187  30.311  31.988  1.00  0.00     0.167 HD
ATOM     62  C   UNL A   1      40.925  32.745  32.773  1.00  0.00     0.074 A 
ATOM     63  C   UNL A   1      39.951  33.814  32.874  1.00  0.00     0.031 C 
ATOM     64  C   UNL A   1      42.037  32.643  33.543  1.00  0.00     0.037 A 
BRANCH  51  65
ATOM     65  C   UNL A   1      45.437  27.573  32.500  1.00  0.00     0.058 A 
ATOM     66  C   UNL A   1      45.377  26.607  33.517  1.00  0.00     0.135 A 
ATOM     67  C   UNL A   1      46.666  27.741  31.837  1.00  0.00     0.135 A 
ATOM     68  F   UNL A   1      44.233  26.405  34.191  1.00  0.00    -0.206 F 
ATOM     69  C   UNL A   1      46.502  25.882  33.901  1.00  0.00     0.059 A 
ATOM     70  C   UNL A   1      47.795  27.002  32.181  1.00  0.00     0.059 A 
ATOM     71  F   UNL A   1      46.785  28.643  30.850  1.00  0.00    -0.206 F 
ATOM     72  C   UNL A   1      47.709  26.092  33.232  1.00  0.00     0.060 A 
BRANCH  72  73
ATOM     73  S   UNL A   1      49.169  25.175  33.769  1.00  0.00     0.124 S 
ATOM     74  O   UNL A   1      49.883  26.192  34.537  1.00  0.00    -0.237 OA
ATOM     75  O   UNL A   1      48.586  24.087  34.548  1.00  0.00    -0.237 OA
ATOM     76  O   UNL A   1      49.804  24.777  32.516  1.00  0.00    -0.744 OA
ENDBRANCH  72  73
ENDBRANCH  51  65
BRANCH  52  77
ATOM     77  C   UNL A   1      37.132  32.547  29.973  1.00  0.00     0.058 A 
ATOM     78  C   UNL A   1      35.969  32.253  30.695  1.00  0.00     0.135 A 
ATOM     79  C   UNL A   1      37.062  33.562  29.001  1.00  0.00     0.135 A 
ATOM     80  F   UNL A   1      35.982  31.285  31.624  1.00  0.00    -0.206 F 
ATOM     81  C   UNL A   1      34.784  32.952  30.479  1.00  0.00     0.059 A 
ATOM     82  C   UNL A   1      35.899  34.294  28.791  1.00  0.00     0.059 A 
ATOM     83  F   UNL A   1      38.153  33.892  28.292  1.00  0.00    -0.206 F 
ATOM     84  C   UNL A   1      34.765  33.982  29.536  1.00  0.00     0.060 A 
BRANCH  84  85
ATOM     85  S   UNL A   1      33.253  34.952  29.345  1.00  0.00     0.124 S 
ATOM     86  O   UNL A   1      32.531  34.177  28.342  1.00  0.00    -0.237 OA
ATOM     87  O   UNL A   1      32.700  34.924  30.695  1.00  0.00    -0.237 OA
ATOM     88  O   UNL A   1      33.744  36.256  28.903  1.00  0.00    -0.744 OA
ENDBRANCH  84  85
ENDBRANCH  52  77
BRANCH  64  89
ATOM     89  C   UNL A   1      42.266  33.721  34.566  1.00  0.00     0.058 A 
ATOM     90  C   UNL A   1      41.732  33.629  35.861  1.00  0.00     0.135 A 
ATOM     91  C   UNL A   1      43.079  34.827  34.268  1.00  0.00     0.135 A 
ATOM     92  F   UNL A   1      40.935  32.601  36.192  1.00  0.00    -0.206 F 
ATOM     93  C   UNL A   1      41.988  34.600  36.823  1.00  0.00     0.059 A 
ATOM     94  C   UNL A   1      43.373  35.794  35.223  1.00  0.00     0.059 A 
ATOM     95  F   UNL A   1      43.617  34.960  33.045  1.00  0.00    -0.206 F 
ATOM     96  C   UNL A   1      42.817  35.676  36.496  1.00  0.00     0.060 A 
BRANCH  96  97
ATOM     97  S   UNL A   1      43.187  36.897  37.773  1.00  0.00     0.124 S 
ATOM     98  O   UNL A   1      44.157  36.180  38.595  1.00  0.00    -0.237 OA
ATOM     99  O   UNL A   1      43.716  38.012  36.994  1.00  0.00    -0.237 OA
ATOM    100  O   UNL A   1      41.891  37.137  38.400  1.00  0.00    -0.744 OA
ENDBRANCH  96  97
ENDBRANCH  64  89
ENDBRANCH  38  39
ENDBRANCH  31  33
ENDBRANCH  30  31
ENDBRANCH  29  30
ENDBRANCH  28  29
ENDBRANCH   1  28
TORSDOF 20
ENDMDL
MODEL 3
REMARK VINA RESULT:     -11.3      4.576     10.332
REMARK SMILES CC(C)(C)c1ccc(OCC(=O)N/N=C/c2ccc(C(=O)OCCOC(=O)c3ccc(-c4c5nc(c(-c6c(F)cc(S(=O)(=O)[O-])cc6F)c6ccc([nH]6)c(-c6c(F)cc(S(=O)(=O)[O-])cc6F)c6nc(c(-c7c(F)cc(S(=O)(=O)[O-])cc7F)c7ccc4[nH]7)C=C6)C=C5)cc3)cc2)cc1
REMARK SMILES IDX 22 1 20 2 21 3 19 4 16 5 17 6 95 7 18 8 94 9 15 10 14 11
REMARK SMILES IDX 13 12 11 13 12 14 10 16 9 17 8 18 5 19 6 20 97 21 7 22 96 23
REMARK SMILES IDX 2 24 1 25 3 26 4 27 23 28 24 29 25 30 26 31 27 32 28 33
REMARK SMILES IDX 29 34 93 35 30 36 92 37 31 38 32 39 33 40 86 41 34 42 91 43
REMARK SMILES IDX 85 44 87 45 35 46 90 47 84 48 83 49 36 51 70 52 49 53 69 54
REMARK SMILES IDX 50 55 53 56 68 57 88 58 51 59 52 60 67 62 89 63 54 64 37 65
REMARK SMILES IDX 38 66 47 67 39 68 40 69 46 70 48 71 41 72 42 73 43 74 44 75
REMARK SMILES IDX 45 76 71 77 72 78 81 79 73 80 74 81 80 82 82 83 75 84 76 85
REMARK SMILES IDX 77 86 78 87 79 88 55 89 56 90 65 91 57 92 58 93 64 94 66 95
REMARK SMILES IDX 59 96 60 97 61 98 62 99 63 100
REMARK H PARENT 13 15 87 50 53 61
REMARK Flexibility Score: inf
ROOT
ATOM      1  O   UNL A   1      31.894  28.817  24.875  1.00  0.00    -0.458 OA
ENDROOT
BRANCH   1   2
ATOM      2  C   UNL A   1      32.647  28.544  23.780  1.00  0.00     0.338 C 
ATOM      3  O   UNL A   1      32.831  29.278  22.826  1.00  0.00    -0.246 OA
BRANCH   2   4
ATOM      4  C   UNL A   1      33.330  27.236  23.915  1.00  0.00     0.060 A 
ATOM      5  C   UNL A   1      34.491  24.716  24.075  1.00  0.00    -0.005 A 
ATOM      6  C   UNL A   1      33.878  25.107  22.892  1.00  0.00     0.010 A 
ATOM      7  C   UNL A   1      34.521  25.558  25.190  1.00  0.00     0.010 A 
ATOM      8  C   UNL A   1      33.266  26.349  22.835  1.00  0.00     0.016 A 
ATOM      9  C   UNL A   1      33.960  26.841  25.100  1.00  0.00     0.016 A 
BRANCH   5  10
ATOM     10  C   UNL A   1      35.118  23.394  24.055  1.00  0.00     0.141 C 
ATOM     11  N   UNL A   1      35.827  22.960  25.037  1.00  0.00    -0.181 NA
BRANCH  11  12
ATOM     12  N   UNL A   1      36.316  21.687  25.047  1.00  0.00    -0.244 N 
ATOM     13  C   UNL A   1      35.762  20.434  24.978  1.00  0.00     0.277 C 
ATOM     14  O   UNL A   1      36.542  19.470  24.969  1.00  0.00    -0.269 OA
ATOM     15  H   UNL A   1      37.298  21.661  25.121  1.00  0.00     0.193 HD
BRANCH  13  16
ATOM     16  C   UNL A   1      34.253  20.177  24.895  1.00  0.00     0.331 C 
BRANCH  16  17
ATOM     17  O   UNL A   1      33.495  20.406  26.073  1.00  0.00    -0.484 OA
BRANCH  17  18
ATOM     18  C   UNL A   1      32.755  21.557  26.117  1.00  0.00     0.120 A 
ATOM     19  C   UNL A   1      31.172  23.914  25.964  1.00  0.00    -0.042 A 
ATOM     20  C   UNL A   1      31.153  22.950  24.939  1.00  0.00     0.008 A 
ATOM     21  C   UNL A   1      31.995  23.652  27.069  1.00  0.00     0.008 A 
ATOM     22  C   UNL A   1      31.928  21.786  25.018  1.00  0.00     0.047 A 
ATOM     23  C   UNL A   1      32.767  22.489  27.150  1.00  0.00     0.047 A 
BRANCH  19  24
ATOM     24  C   UNL A   1      30.327  25.194  25.859  1.00  0.00    -0.013 C 
ATOM     25  C   UNL A   1      30.105  25.667  24.403  1.00  0.00     0.016 C 
ATOM     26  C   UNL A   1      31.019  26.351  26.610  1.00  0.00     0.016 C 
ATOM     27  C   UNL A   1      28.938  24.939  26.478  1.00  0.00     0.016 C 
ENDBRANCH  19  24
ENDBRANCH  17  18
ENDBRANCH  16  17
ENDBRANCH  13  16
ENDBRANCH  11  12
ENDBRANCH   5  10
ENDBRANCH   2   4
ENDBRANCH   1   2
BRANCH   1  28
ATOM     28  C   UNL A   1      32.012  30.163  25.383  1.00  0.00     0.275 C 
BRANCH  28  29
ATOM     29  C   UNL A   1      32.174  30.195  26.906  1.00  0.00     0.275 C 
BRANCH  29  30
ATOM     30  O   UNL A   1      33.439  29.640  27.309  1.00  0.00    -0.458 OA
BRANCH  30  31
ATOM     31  C   UNL A   1      34.272  30.509  27.922  1.00  0.00     0.338 C 
ATOM     32  O   UNL A   1      33.993  31.609  28.372  1.00  0.00    -0.246 OA
BRANCH  31  33
ATOM     33  C   UNL A   1      35.608  29.920  28.083  1.00  0.00     0.060 A 
ATOM     34  C   UNL A   1      35.981  29.520  29.357  1.00  0.00     0.016 A 
ATOM     35  C   UNL A   1      36.553  29.965  27.063  1.00  0.00     0.016 A 
ATOM     36  C   UNL A   1      37.323  29.344  29.671  1.00  0.00     0.010 A 
ATOM     37  C   UNL A   1      37.880  29.607  27.343  1.00  0.00     0.010 A 
ATOM     38  C   UNL A   1      38.294  29.338  28.662  1.00  0.00    -0.014 A 
BRANCH  38  39
ATOM     39  C   UNL A   1      39.718  29.023  28.990  1.00  0.00     0.031 A 
ATOM     40  C   UNL A   1      40.628  30.077  29.570  1.00  0.00     0.074 A 
ATOM     41  C   UNL A   1      40.208  27.788  28.746  1.00  0.00     0.049 A 
ATOM     42  N   UNL A   1      41.929  30.056  29.722  1.00  0.00    -0.248 NA
ATOM     43  C   UNL A   1      39.997  31.328  30.018  1.00  0.00     0.031 C 
ATOM     44  C   UNL A   1      39.438  26.659  28.215  1.00  0.00     0.029 A 
ATOM     45  N   UNL A   1      41.473  27.272  28.901  1.00  0.00    -0.354 N 
ATOM     46  C   UNL A   1      42.279  31.308  30.217  1.00  0.00     0.074 A 
ATOM     47  C   UNL A   1      41.051  32.067  30.336  1.00  0.00     0.031 C 
ATOM     48  C   UNL A   1      40.229  25.585  28.119  1.00  0.00     0.029 A 
ATOM     49  C   UNL A   1      41.590  25.975  28.456  1.00  0.00     0.049 A 
ATOM     50  H   UNL A   1      42.220  27.781  29.291  1.00  0.00     0.167 HD
ATOM     51  C   UNL A   1      43.510  31.781  30.534  1.00  0.00     0.037 A 
ATOM     52  C   UNL A   1      42.672  25.197  28.260  1.00  0.00     0.037 A 
ATOM     53  C   UNL A   1      44.717  30.995  30.449  1.00  0.00     0.049 A 
ATOM     54  C   UNL A   1      44.030  25.748  28.573  1.00  0.00     0.074 A 
ATOM     55  C   UNL A   1      46.006  31.357  30.800  1.00  0.00     0.029 A 
ATOM     56  N   UNL A   1      44.786  29.691  29.973  1.00  0.00    -0.354 N 
ATOM     57  N   UNL A   1      44.345  26.933  29.036  1.00  0.00    -0.248 NA
ATOM     58  C   UNL A   1      45.177  24.869  28.321  1.00  0.00     0.031 C 
ATOM     59  C   UNL A   1      46.862  30.299  30.472  1.00  0.00     0.029 A 
ATOM     60  C   UNL A   1      46.100  29.252  29.978  1.00  0.00     0.049 A 
ATOM     61  H   UNL A   1      44.014  29.159  29.676  1.00  0.00     0.167 HD
ATOM     62  C   UNL A   1      45.730  26.946  29.131  1.00  0.00     0.074 A 
ATOM     63  C   UNL A   1      46.188  25.639  28.702  1.00  0.00     0.031 C 
ATOM     64  C   UNL A   1      46.546  27.953  29.532  1.00  0.00     0.037 A 
BRANCH  51  65
ATOM     65  C   UNL A   1      43.625  33.230  30.938  1.00  0.00     0.058 A 
ATOM     66  C   UNL A   1      43.767  34.268  30.004  1.00  0.00     0.135 A 
ATOM     67  C   UNL A   1      43.585  33.583  32.299  1.00  0.00     0.135 A 
ATOM     68  F   UNL A   1      43.818  33.995  28.691  1.00  0.00    -0.206 F 
ATOM     69  C   UNL A   1      43.922  35.593  30.405  1.00  0.00     0.059 A 
ATOM     70  C   UNL A   1      43.702  34.905  32.721  1.00  0.00     0.059 A 
ATOM     71  F   UNL A   1      43.441  32.636  33.239  1.00  0.00    -0.206 F 
ATOM     72  C   UNL A   1      43.897  35.901  31.767  1.00  0.00     0.060 A 
BRANCH  72  73
ATOM     73  S   UNL A   1      44.142  37.617  32.272  1.00  0.00     0.124 S 
ATOM     74  O   UNL A   1      43.765  38.333  31.056  1.00  0.00    -0.237 OA
ATOM     75  O   UNL A   1      43.220  37.747  33.395  1.00  0.00    -0.237 OA
ATOM     76  O   UNL A   1      45.560  37.672  32.617  1.00  0.00    -0.744 OA
ENDBRANCH  72  73
ENDBRANCH  51  65
BRANCH  52  77
ATOM     77  C   UNL A   1      42.490  23.843  27.670  1.00  0.00     0.058 A 
ATOM     78  C   UNL A   1      42.542  23.639  26.286  1.00  0.00     0.135 A 
ATOM     79  C   UNL A   1      42.354  22.710  28.494  1.00  0.00     0.135 A 
ATOM     80  F   UNL A   1      42.659  24.688  25.457  1.00  0.00    -0.206 F 
ATOM     81  C   UNL A   1      42.483  22.362  25.736  1.00  0.00     0.059 A 
ATOM     82  C   UNL A   1      42.326  21.423  27.970  1.00  0.00     0.059 A 
ATOM     83  F   UNL A   1      42.315  22.850  29.828  1.00  0.00    -0.206 F 
ATOM     84  C   UNL A   1      42.393  21.259  26.589  1.00  0.00     0.060 A 
BRANCH  84  85
ATOM     85  S   UNL A   1      42.428  19.602  25.869  1.00  0.00     0.124 S 
ATOM     86  O   UNL A   1      41.044  19.439  25.438  1.00  0.00    -0.237 OA
ATOM     87  O   UNL A   1      43.414  19.754  24.804  1.00  0.00    -0.237 OA
ATOM     88  O   UNL A   1      42.846  18.759  26.985  1.00  0.00    -0.744 OA
ENDBRANCH  84  85
ENDBRANCH  52  77
BRANCH  64  89
ATOM     89  C   UNL A   1      48.025  27.682  29.529  1.00  0.00     0.058 A 
ATOM     90  C   UNL A   1      48.807  27.894  28.383  1.00  0.00     0.135 A 
ATOM     91  C   UNL A   1      48.677  27.267  30.701  1.00  0.00     0.135 A 
ATOM     92  F   UNL A   1      48.231  28.276  27.232  1.00  0.00    -0.206 F 
ATOM     93  C   UNL A   1      50.183  27.694  28.396  1.00  0.00     0.059 A 
ATOM     94  C   UNL A   1      50.055  27.089  30.746  1.00  0.00     0.059 A 
ATOM     95  F   UNL A   1      47.974  27.054  31.826  1.00  0.00    -0.206 F 
ATOM     96  C   UNL A   1      50.800  27.299  29.586  1.00  0.00     0.060 A 
BRANCH  96  97
ATOM     97  S   UNL A   1      52.593  27.100  29.602  1.00  0.00     0.124 S 
ATOM     98  O   UNL A   1      52.744  25.848  30.338  1.00  0.00    -0.237 OA
ATOM     99  O   UNL A   1      52.913  27.043  28.180  1.00  0.00    -0.237 OA
ATOM    100  O   UNL A   1      53.062  28.295  30.297  1.00  0.00    -0.744 OA
ENDBRANCH  96  97
ENDBRANCH  64  89
ENDBRANCH  38  39
ENDBRANCH  31  33
ENDBRANCH  30  31
ENDBRANCH  29  30
ENDBRANCH  28  29
ENDBRANCH   1  28
TORSDOF 20
ENDMDL
