MODEL 1
REMARK VINA RESULT:     -15.1      0.000      0.000
REMARK SMILES Cc1ccc(N2C(=O)N=C(OCCOC(=O)c3ccc(-c4c5nc(c(-c6c(F)cc(S(=O)(=O)[O-])cc6F)c6ccc([nH]6)c(-c6c(F)cc(S(=O)(=O)[O-])cc6F)c6nc(c(-c7c(F)cc(S(=O)(=O)[O-])cc7F)c7ccc4[nH]7)C=C6)C=C5)cc3)/C(=C\c3ccccc3OCc3cccc(C(=O)[O-])c3)C2=O)cc1
REMARK SMILES IDX 12 1 11 2 10 3 6 4 7 5 102 6 8 7 9 8 83 9 103 10 84 11 5 12
REMARK SMILES IDX 1 13 2 14 3 15 105 16 4 17 104 18 85 19 86 20 90 21 87 22
REMARK SMILES IDX 89 23 88 24 91 25 92 26 93 27 94 28 101 29 95 30 97 31 96 32
REMARK SMILES IDX 98 33 99 34 100 35 13 36 14 37 15 38 16 39 17 40 18 41 82 42
REMARK SMILES IDX 19 43 81 44 20 45 21 46 22 47 75 48 23 49 80 50 74 51 76 52
REMARK SMILES IDX 24 53 79 54 73 55 72 56 25 58 59 59 38 60 58 61 39 62 42 63
REMARK SMILES IDX 57 64 77 65 40 66 41 67 56 69 78 70 43 71 26 72 27 73 36 74
REMARK SMILES IDX 28 75 29 76 35 77 37 78 30 79 31 80 32 81 33 82 34 83 60 84
REMARK SMILES IDX 61 85 70 86 62 87 63 88 69 89 71 90 64 91 65 92 66 93 67 94
REMARK SMILES IDX 68 95 44 96 45 97 54 98 46 99 47 100 53 101 55 102 48 103
REMARK SMILES IDX 49 104 50 105 51 106 52 107
REMARK H PARENT 76 57 42 68
REMARK Flexibility Score: inf
ROOT
ATOM      1  C   UNL A   1      31.514  31.483  26.458  1.00  0.00     0.273 C 
ENDROOT
BRANCH   1   2
ATOM      2  O   UNL A   1      30.986  30.771  25.377  1.00  0.00    -0.473 OA
BRANCH   2   3
ATOM      3  C   UNL A   1      31.518  29.567  25.209  1.00  0.00     0.231 C 
ATOM      4  N   UNL A   1      33.514  26.602  24.950  1.00  0.00    -0.226 N 
ATOM      5  C   UNL A   1      32.365  26.847  26.338  1.00  0.00     0.358 C 
ATOM      6  C   UNL A   1      33.668  27.742  23.640  1.00  0.00     0.272 C 
ATOM      7  O   UNL A   1      32.336  25.909  27.179  1.00  0.00    -0.245 OA
ATOM      8  N   UNL A   1      31.472  28.603  26.320  1.00  0.00    -0.156 NA
ATOM      9  C   UNL A   1      32.460  29.204  23.608  1.00  0.00     0.103 C 
ATOM     10  O   UNL A   1      34.243  27.550  22.573  1.00  0.00    -0.268 OA
ATOM     11  C   UNL A   1      31.791  29.073  22.415  1.00  0.00     0.031 C 
BRANCH   4  12
ATOM     12  C   UNL A   1      34.212  25.295  24.719  1.00  0.00     0.054 A 
ATOM     13  C   UNL A   1      36.743  21.690  24.317  1.00  0.00     0.044 C 
ATOM     14  C   UNL A   1      35.856  22.898  24.424  1.00  0.00    -0.051 A 
ATOM     15  C   UNL A   1      35.045  23.370  23.384  1.00  0.00     0.005 A 
ATOM     16  C   UNL A   1      35.830  23.613  25.604  1.00  0.00     0.005 A 
ATOM     17  C   UNL A   1      34.233  24.547  23.528  1.00  0.00     0.027 A 
ATOM     18  C   UNL A   1      35.010  24.745  25.741  1.00  0.00     0.027 A 
ENDBRANCH   4  12
BRANCH  11  19
ATOM     19  C   UNL A   1      30.316  29.019  22.319  1.00  0.00     0.018 A 
ATOM     20  C   UNL A   1      29.722  30.202  21.792  1.00  0.00     0.012 A 
ATOM     21  C   UNL A   1      29.521  28.021  22.933  1.00  0.00     0.127 A 
ATOM     22  C   UNL A   1      28.435  30.607  22.136  1.00  0.00     0.001 A 
ATOM     23  C   UNL A   1      28.221  28.529  23.292  1.00  0.00     0.047 A 
ATOM     24  C   UNL A   1      27.730  29.817  23.006  1.00  0.00     0.004 A 
BRANCH  21  25
ATOM     25  O   UNL A   1      29.928  26.610  23.096  1.00  0.00    -0.488 OA
BRANCH  25  26
ATOM     26  C   UNL A   1      30.109  25.252  24.219  1.00  0.00     0.265 C 
BRANCH  26  27
ATOM     27  C   UNL A   1      30.925  23.773  24.485  1.00  0.00    -0.010 A 
ATOM     28  C   UNL A   1      31.426  23.415  25.729  1.00  0.00     0.007 A 
ATOM     29  C   UNL A   1      31.040  22.649  23.614  1.00  0.00     0.017 A 
ATOM     30  C   UNL A   1      32.035  22.128  25.923  1.00  0.00     0.001 A 
ATOM     31  C   UNL A   1      31.893  21.504  23.560  1.00  0.00    -0.002 A 
ATOM     32  C   UNL A   1      32.305  21.210  24.852  1.00  0.00     0.010 A 
BRANCH  31  33
ATOM     33  C   UNL A   1      32.095  20.359  22.212  1.00  0.00     0.071 C 
ATOM     34  O   UNL A   1      32.032  21.099  21.175  1.00  0.00    -0.545 OA
ATOM     35  O   UNL A   1      32.252  18.364  22.206  1.00  0.00    -0.545 OA
ENDBRANCH  31  33
ENDBRANCH  26  27
ENDBRANCH  25  26
ENDBRANCH  21  25
ENDBRANCH  11  19
ENDBRANCH   2   3
ENDBRANCH   1   2
BRANCH   1  36
ATOM     36  C   UNL A   1      32.871  30.966  26.991  1.00  0.00     0.274 C 
BRANCH  36  37
ATOM     37  O   UNL A   1      33.762  31.890  27.778  1.00  0.00    -0.458 OA
BRANCH  37  38
ATOM     38  C   UNL A   1      35.103  32.219  27.835  1.00  0.00     0.338 C 
ATOM     39  O   UNL A   1      35.495  33.341  27.536  1.00  0.00    -0.246 OA
BRANCH  38  40
ATOM     40  C   UNL A   1      36.098  31.355  28.637  1.00  0.00     0.060 A 
ATOM     41  C   UNL A   1      36.232  29.664  27.964  1.00  0.00     0.016 A 
ATOM     42  C   UNL A   1      37.657  31.816  29.773  1.00  0.00     0.016 A 
ATOM     43  C   UNL A   1      37.800  28.778  28.250  1.00  0.00     0.010 A 
ATOM     44  C   UNL A   1      39.061  30.840  29.762  1.00  0.00     0.010 A 
ATOM     45  C   UNL A   1      39.221  29.482  29.066  1.00  0.00    -0.014 A 
BRANCH  45  46
ATOM     46  C   UNL A   1      40.789  29.307  29.503  1.00  0.00     0.031 A 
ATOM     47  C   UNL A   1      41.287  28.019  29.085  1.00  0.00     0.074 A 
ATOM     48  C   UNL A   1      41.522  29.601  30.712  1.00  0.00     0.049 A 
ATOM     49  N   UNL A   1      42.612  27.269  29.760  1.00  0.00    -0.248 NA
ATOM     50  C   UNL A   1      40.712  26.975  27.445  1.00  0.00     0.031 C 
ATOM     51  C   UNL A   1      42.970  29.618  31.029  1.00  0.00     0.029 A 
ATOM     52  N   UNL A   1      41.087  29.931  32.013  1.00  0.00    -0.354 N 
ATOM     53  C   UNL A   1      43.252  25.931  28.639  1.00  0.00     0.074 A 
ATOM     54  C   UNL A   1      41.902  25.802  27.199  1.00  0.00     0.031 C 
ATOM     55  C   UNL A   1      43.189  29.819  32.362  1.00  0.00     0.029 A 
ATOM     56  C   UNL A   1      41.929  29.902  33.102  1.00  0.00     0.049 A 
ATOM     57  H   UNL A   1      40.147  30.193  32.147  1.00  0.00     0.167 HD
ATOM     58  C   UNL A   1      44.638  26.032  28.629  1.00  0.00     0.037 A 
ATOM     59  C   UNL A   1      41.624  29.681  34.449  1.00  0.00     0.037 A 
ATOM     60  C   UNL A   1      45.050  26.470  29.978  1.00  0.00     0.049 A 
ATOM     61  C   UNL A   1      42.390  28.411  34.797  1.00  0.00     0.074 A 
ATOM     62  C   UNL A   1      45.695  27.590  30.488  1.00  0.00     0.029 A 
ATOM     63  N   UNL A   1      44.496  25.831  31.085  1.00  0.00    -0.354 N 
ATOM     64  N   UNL A   1      43.043  27.762  33.873  1.00  0.00    -0.248 NA
ATOM     65  C   UNL A   1      42.520  27.745  36.092  1.00  0.00     0.031 C 
ATOM     66  C   UNL A   1      45.556  27.585  31.904  1.00  0.00     0.029 A 
ATOM     67  C   UNL A   1      44.801  26.483  32.262  1.00  0.00     0.049 A 
ATOM     68  H   UNL A   1      43.952  25.012  31.033  1.00  0.00     0.167 HD
ATOM     69  C   UNL A   1      43.678  26.676  34.372  1.00  0.00     0.074 A 
ATOM     70  C   UNL A   1      43.316  26.698  35.778  1.00  0.00     0.031 C 
ATOM     71  C   UNL A   1      44.425  25.887  33.544  1.00  0.00     0.037 A 
BRANCH  58  72
ATOM     72  C   UNL A   1      45.560  26.183  27.405  1.00  0.00     0.058 A 
ATOM     73  C   UNL A   1      45.380  27.243  26.475  1.00  0.00     0.135 A 
ATOM     74  C   UNL A   1      46.582  25.289  27.029  1.00  0.00     0.135 A 
ATOM     75  F   UNL A   1      44.446  28.186  26.653  1.00  0.00    -0.206 F 
ATOM     76  C   UNL A   1      46.146  27.402  25.310  1.00  0.00     0.059 A 
ATOM     77  C   UNL A   1      47.380  25.437  25.883  1.00  0.00     0.059 A 
ATOM     78  F   UNL A   1      46.850  24.196  27.740  1.00  0.00    -0.206 F 
ATOM     79  C   UNL A   1      47.170  26.511  25.036  1.00  0.00     0.060 A 
BRANCH  79  80
ATOM     80  S   UNL A   1      48.259  26.821  23.632  1.00  0.00     0.124 S 
ATOM     81  O   UNL A   1      49.506  27.210  24.283  1.00  0.00    -0.237 OA
ATOM     82  O   UNL A   1      48.267  25.523  22.966  1.00  0.00    -0.237 OA
ATOM     83  O   UNL A   1      47.579  27.890  22.903  1.00  0.00    -0.744 OA
ENDBRANCH  79  80
ENDBRANCH  58  72
BRANCH  59  84
ATOM     84  C   UNL A   1      40.384  30.253  35.260  1.00  0.00     0.058 A 
ATOM     85  C   UNL A   1      40.649  31.116  36.348  1.00  0.00     0.135 A 
ATOM     86  C   UNL A   1      38.996  30.235  34.913  1.00  0.00     0.135 A 
ATOM     87  F   UNL A   1      41.865  31.100  36.912  1.00  0.00    -0.206 F 
ATOM     88  C   UNL A   1      39.713  32.040  36.881  1.00  0.00     0.059 A 
ATOM     89  C   UNL A   1      38.055  31.226  35.369  1.00  0.00     0.059 A 
ATOM     90  F   UNL A   1      38.565  29.425  33.933  1.00  0.00    -0.206 F 
ATOM     91  C   UNL A   1      38.433  32.143  36.347  1.00  0.00     0.060 A 
BRANCH  91  92
ATOM     92  S   UNL A   1      37.342  33.505  36.910  1.00  0.00     0.124 S 
ATOM     93  O   UNL A   1      36.476  33.698  35.753  1.00  0.00    -0.237 OA
ATOM     94  O   UNL A   1      36.687  32.931  38.086  1.00  0.00    -0.237 OA
ATOM     95  O   UNL A   1      38.269  34.598  37.181  1.00  0.00    -0.744 OA
ENDBRANCH  91  92
ENDBRANCH  59  84
BRANCH  71  96
ATOM     96  C   UNL A   1      44.951  24.509  33.848  1.00  0.00     0.058 A 
ATOM     97  C   UNL A   1      46.303  24.209  34.050  1.00  0.00     0.135 A 
ATOM     98  C   UNL A   1      44.044  23.445  34.101  1.00  0.00     0.135 A 
ATOM     99  F   UNL A   1      47.256  25.148  33.968  1.00  0.00    -0.206 F 
ATOM    100  C   UNL A   1      46.731  22.927  34.385  1.00  0.00     0.059 A 
ATOM    101  C   UNL A   1      44.441  22.193  34.539  1.00  0.00     0.059 A 
ATOM    102  F   UNL A   1      42.719  23.575  33.936  1.00  0.00    -0.206 F 
ATOM    103  C   UNL A   1      45.792  21.928  34.628  1.00  0.00     0.060 A 
BRANCH 103 104
ATOM    104  S   UNL A   1      46.344  20.273  35.044  1.00  0.00     0.124 S 
ATOM    105  O   UNL A   1      46.965  20.502  36.345  1.00  0.00    -0.237 OA
ATOM    106  O   UNL A   1      45.095  19.519  35.061  1.00  0.00    -0.237 OA
ATOM    107  O   UNL A   1      47.260  19.935  33.959  1.00  0.00    -0.744 OA
ENDBRANCH 103 104
ENDBRANCH  71  96
ENDBRANCH  45  46
ENDBRANCH  38  40
ENDBRANCH  37  38
ENDBRANCH  36  37
ENDBRANCH   1  36
TORSDOF 19
ENDMDL
MODEL 2
REMARK VINA RESULT:     -13.9      5.951     16.778
REMARK SMILES Cc1ccc(N2C(=O)N=C(OCCOC(=O)c3ccc(-c4c5nc(c(-c6c(F)cc(S(=O)(=O)[O-])cc6F)c6ccc([nH]6)c(-c6c(F)cc(S(=O)(=O)[O-])cc6F)c6nc(c(-c7c(F)cc(S(=O)(=O)[O-])cc7F)c7ccc4[nH]7)C=C6)C=C5)cc3)/C(=C\c3ccccc3OCc3cccc(C(=O)[O-])c3)C2=O)cc1
REMARK SMILES IDX 12 1 11 2 10 3 6 4 7 5 102 6 8 7 9 8 83 9 103 10 84 11 5 12
REMARK SMILES IDX 1 13 2 14 3 15 105 16 4 17 104 18 85 19 86 20 90 21 87 22
REMARK SMILES IDX 89 23 88 24 91 25 92 26 93 27 94 28 101 29 95 30 97 31 96 32
REMARK SMILES IDX 98 33 99 34 100 35 13 36 14 37 15 38 16 39 17 40 18 41 82 42
REMARK SMILES IDX 19 43 81 44 20 45 21 46 22 47 75 48 23 49 80 50 74 51 76 52
REMARK SMILES IDX 24 53 79 54 73 55 72 56 25 58 59 59 38 60 58 61 39 62 42 63
REMARK SMILES IDX 57 64 77 65 40 66 41 67 56 69 78 70 43 71 26 72 27 73 36 74
REMARK SMILES IDX 28 75 29 76 35 77 37 78 30 79 31 80 32 81 33 82 34 83 60 84
REMARK SMILES IDX 61 85 70 86 62 87 63 88 69 89 71 90 64 91 65 92 66 93 67 94
REMARK SMILES IDX 68 95 44 96 45 97 54 98 46 99 47 100 53 101 55 102 48 103
REMARK SMILES IDX 49 104 50 105 51 106 52 107
REMARK H PARENT 76 57 42 68
REMARK Flexibility Score: inf
ROOT
ATOM      1  C   UNL A   1      45.193  23.104  39.554  1.00  0.00     0.273 C 
ENDROOT
BRANCH   1   2
ATOM      2  O   UNL A   1      46.035  22.104  40.049  1.00  0.00    -0.473 OA
BRANCH   2   3
ATOM      3  C   UNL A   1      47.063  21.820  39.260  1.00  0.00     0.231 C 
ATOM      4  N   UNL A   1      49.574  21.503  36.723  1.00  0.00    -0.226 N 
ATOM      5  C   UNL A   1      49.900  22.411  38.264  1.00  0.00     0.358 C 
ATOM      6  C   UNL A   1      48.068  20.682  36.412  1.00  0.00     0.272 C 
ATOM      7  O   UNL A   1      51.055  22.907  38.356  1.00  0.00    -0.245 OA
ATOM      8  N   UNL A   1      48.329  22.547  39.444  1.00  0.00    -0.156 NA
ATOM      9  C   UNL A   1      46.801  20.618  37.822  1.00  0.00     0.103 C 
ATOM     10  O   UNL A   1      47.851  19.875  35.513  1.00  0.00    -0.268 OA
ATOM     11  C   UNL A   1      46.614  19.276  38.056  1.00  0.00     0.031 C 
BRANCH   4  12
ATOM     12  C   UNL A   1      50.663  21.194  35.737  1.00  0.00     0.054 A 
ATOM     13  C   UNL A   1      53.504  20.516  32.416  1.00  0.00     0.044 C 
ATOM     14  C   UNL A   1      52.563  20.720  33.570  1.00  0.00    -0.051 A 
ATOM     15  C   UNL A   1      52.333  19.769  34.573  1.00  0.00     0.005 A 
ATOM     16  C   UNL A   1      51.856  21.902  33.663  1.00  0.00     0.005 A 
ATOM     17  C   UNL A   1      51.402  20.001  35.641  1.00  0.00     0.027 A 
ATOM     18  C   UNL A   1      50.970  22.127  34.729  1.00  0.00     0.027 A 
ENDBRANCH   4  12
BRANCH  11  19
ATOM     19  C   UNL A   1      46.783  18.658  39.389  1.00  0.00     0.018 A 
ATOM     20  C   UNL A   1      48.012  18.983  40.032  1.00  0.00     0.012 A 
ATOM     21  C   UNL A   1      45.954  17.624  39.890  1.00  0.00     0.127 A 
ATOM     22  C   UNL A   1      48.628  18.124  40.939  1.00  0.00     0.001 A 
ATOM     23  C   UNL A   1      46.675  16.760  40.789  1.00  0.00     0.047 A 
ATOM     24  C   UNL A   1      48.006  16.935  41.215  1.00  0.00     0.004 A 
BRANCH  21  25
ATOM     25  O   UNL A   1      44.508  17.500  39.610  1.00  0.00    -0.488 OA
BRANCH  25  26
ATOM     26  C   UNL A   1      43.032  16.563  39.887  1.00  0.00     0.265 C 
BRANCH  26  27
ATOM     27  C   UNL A   1      42.400  15.162  40.637  1.00  0.00    -0.010 A 
ATOM     28  C   UNL A   1      41.644  14.226  39.944  1.00  0.00     0.007 A 
ATOM     29  C   UNL A   1      42.687  14.636  41.932  1.00  0.00     0.017 A 
ATOM     30  C   UNL A   1      41.201  13.025  40.596  1.00  0.00     0.001 A 
ATOM     31  C   UNL A   1      42.057  13.687  42.792  1.00  0.00    -0.002 A 
ATOM     32  C   UNL A   1      41.363  12.781  42.003  1.00  0.00     0.010 A 
BRANCH  31  33
ATOM     33  C   UNL A   1      42.391  13.387  44.515  1.00  0.00     0.071 C 
ATOM     34  O   UNL A   1      41.753  14.317  45.113  1.00  0.00    -0.545 OA
ATOM     35  O   UNL A   1      43.573  12.037  45.400  1.00  0.00    -0.545 OA
ENDBRANCH  31  33
ENDBRANCH  26  27
ENDBRANCH  25  26
ENDBRANCH  21  25
ENDBRANCH  11  19
ENDBRANCH   2   3
ENDBRANCH   1   2
BRANCH   1  36
ATOM     36  C   UNL A   1      45.600  23.693  38.182  1.00  0.00     0.274 C 
BRANCH  36  37
ATOM     37  O   UNL A   1      44.878  23.249  36.939  1.00  0.00    -0.458 OA
BRANCH  37  38
ATOM     38  C   UNL A   1      45.072  23.293  35.571  1.00  0.00     0.338 C 
ATOM     39  O   UNL A   1      45.725  22.430  34.994  1.00  0.00    -0.246 OA
BRANCH  38  40
ATOM     40  C   UNL A   1      44.173  24.163  34.669  1.00  0.00     0.060 A 
ATOM     41  C   UNL A   1      42.616  24.628  35.503  1.00  0.00     0.016 A 
ATOM     42  C   UNL A   1      44.568  25.361  33.139  1.00  0.00     0.016 A 
ATOM     43  C   UNL A   1      41.815  26.174  34.963  1.00  0.00     0.010 A 
ATOM     44  C   UNL A   1      43.711  26.826  32.936  1.00  0.00     0.010 A 
ATOM     45  C   UNL A   1      42.489  27.286  33.743  1.00  0.00    -0.014 A 
BRANCH  45  46
ATOM     46  C   UNL A   1      42.365  28.721  32.964  1.00  0.00     0.031 A 
ATOM     47  C   UNL A   1      41.608  29.659  33.758  1.00  0.00     0.074 A 
ATOM     48  C   UNL A   1      42.075  29.088  31.598  1.00  0.00     0.049 A 
ATOM     49  N   UNL A   1      40.842  31.000  33.133  1.00  0.00    -0.248 NA
ATOM     50  C   UNL A   1      41.537  29.751  35.781  1.00  0.00     0.031 C 
ATOM     51  C   UNL A   1      42.155  30.375  30.866  1.00  0.00     0.029 A 
ATOM     52  N   UNL A   1      41.575  28.338  30.514  1.00  0.00    -0.354 N 
ATOM     53  C   UNL A   1      40.446  32.218  34.482  1.00  0.00     0.074 A 
ATOM     54  C   UNL A   1      40.896  31.266  36.157  1.00  0.00     0.031 C 
ATOM     55  C   UNL A   1      41.638  30.268  29.607  1.00  0.00     0.029 A 
ATOM     56  C   UNL A   1      41.101  28.929  29.364  1.00  0.00     0.049 A 
ATOM     57  H   UNL A   1      41.565  27.355  30.581  1.00  0.00     0.167 HD
ATOM     58  C   UNL A   1      40.761  33.482  33.998  1.00  0.00     0.037 A 
ATOM     59  C   UNL A   1      40.142  28.460  28.460  1.00  0.00     0.037 A 
ATOM     60  C   UNL A   1      40.463  33.479  32.552  1.00  0.00     0.049 A 
ATOM     61  C   UNL A   1      39.030  29.500  28.529  1.00  0.00     0.074 A 
ATOM     62  C   UNL A   1      41.218  33.642  31.397  1.00  0.00     0.029 A 
ATOM     63  N   UNL A   1      39.247  32.951  32.123  1.00  0.00    -0.354 N 
ATOM     64  N   UNL A   1      39.100  30.481  29.386  1.00  0.00    -0.248 NA
ATOM     65  C   UNL A   1      37.803  29.583  27.739  1.00  0.00     0.031 C 
ATOM     66  C   UNL A   1      40.427  33.249  30.281  1.00  0.00     0.029 A 
ATOM     67  C   UNL A   1      39.200  32.816  30.750  1.00  0.00     0.049 A 
ATOM     68  H   UNL A   1      38.509  32.705  32.727  1.00  0.00     0.167 HD
ATOM     69  C   UNL A   1      38.037  31.314  29.286  1.00  0.00     0.074 A 
ATOM     70  C   UNL A   1      37.238  30.706  28.238  1.00  0.00     0.031 C 
ATOM     71  C   UNL A   1      37.954  32.408  30.100  1.00  0.00     0.037 A 
BRANCH  58  72
ATOM     72  C   UNL A   1      41.698  34.525  34.636  1.00  0.00     0.058 A 
ATOM     73  C   UNL A   1      41.182  35.693  35.260  1.00  0.00     0.135 A 
ATOM     74  C   UNL A   1      43.106  34.494  34.604  1.00  0.00     0.135 A 
ATOM     75  F   UNL A   1      39.866  35.908  35.373  1.00  0.00    -0.206 F 
ATOM     76  C   UNL A   1      41.982  36.709  35.806  1.00  0.00     0.059 A 
ATOM     77  C   UNL A   1      43.931  35.483  35.164  1.00  0.00     0.059 A 
ATOM     78  F   UNL A   1      43.770  33.512  33.999  1.00  0.00    -0.206 F 
ATOM     79  C   UNL A   1      43.361  36.581  35.784  1.00  0.00     0.060 A 
BRANCH  79  80
ATOM     80  S   UNL A   1      44.375  37.803  36.639  1.00  0.00     0.124 S 
ATOM     81  O   UNL A   1      45.563  37.031  36.991  1.00  0.00    -0.237 OA
ATOM     82  O   UNL A   1      44.557  38.817  35.607  1.00  0.00    -0.237 OA
ATOM     83  O   UNL A   1      43.540  38.207  37.769  1.00  0.00    -0.744 OA
ENDBRANCH  79  80
ENDBRANCH  58  72
BRANCH  59  84
ATOM     84  C   UNL A   1      39.974  26.976  27.921  1.00  0.00     0.058 A 
ATOM     85  C   UNL A   1      40.608  26.641  26.702  1.00  0.00     0.135 A 
ATOM     86  C   UNL A   1      39.477  25.821  28.604  1.00  0.00     0.135 A 
ATOM     87  F   UNL A   1      40.958  27.622  25.858  1.00  0.00    -0.206 F 
ATOM     88  C   UNL A   1      40.936  25.317  26.310  1.00  0.00     0.059 A 
ATOM     89  C   UNL A   1      39.879  24.477  28.279  1.00  0.00     0.059 A 
ATOM     90  F   UNL A   1      38.800  25.967  29.754  1.00  0.00    -0.206 F 
ATOM     91  C   UNL A   1      40.631  24.237  27.131  1.00  0.00     0.060 A 
BRANCH  91  92
ATOM     92  S   UNL A   1      41.280  22.578  26.694  1.00  0.00     0.124 S 
ATOM     93  O   UNL A   1      42.234  22.896  25.637  1.00  0.00    -0.237 OA
ATOM     94  O   UNL A   1      41.877  22.121  27.949  1.00  0.00    -0.237 OA
ATOM     95  O   UNL A   1      40.095  21.848  26.261  1.00  0.00    -0.744 OA
ENDBRANCH  91  92
ENDBRANCH  59  84
BRANCH  71  96
ATOM     96  C   UNL A   1      36.739  33.265  30.334  1.00  0.00     0.058 A 
ATOM     97  C   UNL A   1      36.084  33.994  29.334  1.00  0.00     0.135 A 
ATOM     98  C   UNL A   1      36.092  33.246  31.600  1.00  0.00     0.135 A 
ATOM     99  F   UNL A   1      36.515  33.997  28.065  1.00  0.00    -0.206 F 
ATOM    100  C   UNL A   1      34.928  34.726  29.593  1.00  0.00     0.059 A 
ATOM    101  C   UNL A   1      34.886  33.879  31.848  1.00  0.00     0.059 A 
ATOM    102  F   UNL A   1      36.605  32.604  32.660  1.00  0.00    -0.206 F 
ATOM    103  C   UNL A   1      34.338  34.661  30.852  1.00  0.00     0.060 A 
BRANCH 103 104
ATOM    104  S   UNL A   1      32.858  35.616  31.190  1.00  0.00     0.124 S 
ATOM    105  O   UNL A   1      33.423  36.941  31.419  1.00  0.00    -0.237 OA
ATOM    106  O   UNL A   1      32.093  35.457  29.957  1.00  0.00    -0.237 OA
ATOM    107  O   UNL A   1      32.289  34.960  32.363  1.00  0.00    -0.744 OA
ENDBRANCH 103 104
ENDBRANCH  71  96
ENDBRANCH  45  46
ENDBRANCH  38  40
ENDBRANCH  37  38
ENDBRANCH  36  37
ENDBRANCH   1  36
TORSDOF 19
ENDMDL
MODEL 3
REMARK VINA RESULT:     -13.4      9.123     14.361
REMARK SMILES Cc1ccc(N2C(=O)N=C(OCCOC(=O)c3ccc(-c4c5nc(c(-c6c(F)cc(S(=O)(=O)[O-])cc6F)c6ccc([nH]6)c(-c6c(F)cc(S(=O)(=O)[O-])cc6F)c6nc(c(-c7c(F)cc(S(=O)(=O)[O-])cc7F)c7ccc4[nH]7)C=C6)C=C5)cc3)/C(=C\c3ccccc3OCc3cccc(C(=O)[O-])c3)C2=O)cc1
REMARK SMILES IDX 12 1 11 2 10 3 6 4 7 5 102 6 8 7 9 8 83 9 103 10 84 11 5 12
REMARK SMILES IDX 1 13 2 14 3 15 105 16 4 17 104 18 85 19 86 20 90 21 87 22
REMARK SMILES IDX 89 23 88 24 91 25 92 26 93 27 94 28 101 29 95 30 97 31 96 32
REMARK SMILES IDX 98 33 99 34 100 35 13 36 14 37 15 38 16 39 17 40 18 41 82 42
REMARK SMILES IDX 19 43 81 44 20 45 21 46 22 47 75 48 23 49 80 50 74 51 76 52
REMARK SMILES IDX 24 53 79 54 73 55 72 56 25 58 59 59 38 60 58 61 39 62 42 63
REMARK SMILES IDX 57 64 77 65 40 66 41 67 56 69 78 70 43 71 26 72 27 73 36 74
REMARK SMILES IDX 28 75 29 76 35 77 37 78 30 79 31 80 32 81 33 82 34 83 60 84
REMARK SMILES IDX 61 85 70 86 62 87 63 88 69 89 71 90 64 91 65 92 66 93 67 94
REMARK SMILES IDX 68 95 44 96 45 97 54 98 46 99 47 100 53 101 55 102 48 103
REMARK SMILES IDX 49 104 50 105 51 106 52 107
REMARK H PARENT 76 57 42 68
REMARK Flexibility Score: inf
ROOT
ATOM      1  C   UNL A   1      46.402  38.943  25.730  1.00  0.00     0.273 C 
ENDROOT
BRANCH   1   2
ATOM      2  O   UNL A   1      46.775  40.275  25.938  1.00  0.00    -0.473 OA
BRANCH   2   3
ATOM      3  C   UNL A   1      46.571  41.065  24.892  1.00  0.00     0.231 C 
ATOM      4  N   UNL A   1      46.604  43.459  22.226  1.00  0.00    -0.226 N 
ATOM      5  C   UNL A   1      46.953  41.701  21.919  1.00  0.00     0.358 C 
ATOM      6  C   UNL A   1      46.172  44.074  23.798  1.00  0.00     0.272 C 
ATOM      7  O   UNL A   1      47.203  41.408  20.719  1.00  0.00    -0.245 OA
ATOM      8  N   UNL A   1      46.992  40.609  23.558  1.00  0.00    -0.156 NA
ATOM      9  C   UNL A   1      45.905  42.811  25.188  1.00  0.00     0.103 C 
ATOM     10  O   UNL A   1      45.711  45.186  24.043  1.00  0.00    -0.268 OA
ATOM     11  C   UNL A   1      44.604  43.007  25.586  1.00  0.00     0.031 C 
BRANCH   4  12
ATOM     12  C   UNL A   1      46.424  44.440  21.105  1.00  0.00     0.054 A 
ATOM     13  C   UNL A   1      45.585  46.898  17.525  1.00  0.00     0.044 C 
ATOM     14  C   UNL A   1      45.900  46.092  18.754  1.00  0.00    -0.051 A 
ATOM     15  C   UNL A   1      47.151  46.079  19.384  1.00  0.00     0.005 A 
ATOM     16  C   UNL A   1      44.919  45.295  19.308  1.00  0.00     0.005 A 
ATOM     17  C   UNL A   1      47.410  45.271  20.543  1.00  0.00     0.027 A 
ATOM     18  C   UNL A   1      45.177  44.531  20.458  1.00  0.00     0.027 A 
ENDBRANCH   4  12
BRANCH  11  19
ATOM     19  C   UNL A   1      43.602  41.919  25.633  1.00  0.00     0.018 A 
ATOM     20  C   UNL A   1      42.870  41.746  24.422  1.00  0.00     0.012 A 
ATOM     21  C   UNL A   1      43.190  41.277  26.826  1.00  0.00     0.127 A 
ATOM     22  C   UNL A   1      41.571  41.248  24.403  1.00  0.00     0.001 A 
ATOM     23  C   UNL A   1      41.825  40.825  26.737  1.00  0.00     0.047 A 
ATOM     24  C   UNL A   1      40.999  40.908  25.600  1.00  0.00     0.004 A 
BRANCH  21  25
ATOM     25  O   UNL A   1      44.073  41.011  27.981  1.00  0.00    -0.488 OA
BRANCH  25  26
ATOM     26  C   UNL A   1      44.498  41.457  29.641  1.00  0.00     0.265 C 
BRANCH  26  27
ATOM     27  C   UNL A   1      43.866  41.746  31.204  1.00  0.00    -0.010 A 
ATOM     28  C   UNL A   1      43.484  40.716  32.051  1.00  0.00     0.007 A 
ATOM     29  C   UNL A   1      43.821  42.969  31.936  1.00  0.00     0.017 A 
ATOM     30  C   UNL A   1      43.031  41.003  33.385  1.00  0.00     0.001 A 
ATOM     31  C   UNL A   1      43.097  43.431  33.077  1.00  0.00    -0.002 A 
ATOM     32  C   UNL A   1      42.798  42.334  33.873  1.00  0.00     0.010 A 
BRANCH  31  33
ATOM     33  C   UNL A   1      42.939  45.104  33.665  1.00  0.00     0.071 C 
ATOM     34  O   UNL A   1      41.683  45.325  33.611  1.00  0.00    -0.545 OA
ATOM     35  O   UNL A   1      44.332  46.445  34.177  1.00  0.00    -0.545 OA
ENDBRANCH  31  33
ENDBRANCH  26  27
ENDBRANCH  25  26
ENDBRANCH  21  25
ENDBRANCH  11  19
ENDBRANCH   2   3
ENDBRANCH   1   2
BRANCH   1  36
ATOM     36  C   UNL A   1      45.885  38.197  26.983  1.00  0.00     0.274 C 
BRANCH  36  37
ATOM     37  O   UNL A   1      44.430  37.821  27.075  1.00  0.00    -0.458 OA
BRANCH  37  38
ATOM     38  C   UNL A   1      43.562  37.313  28.023  1.00  0.00     0.338 C 
ATOM     39  O   UNL A   1      42.853  38.053  28.696  1.00  0.00    -0.246 OA
BRANCH  38  40
ATOM     40  C   UNL A   1      43.148  35.827  28.005  1.00  0.00     0.060 A 
ATOM     41  C   UNL A   1      43.681  34.989  26.473  1.00  0.00     0.016 A 
ATOM     42  C   UNL A   1      42.755  34.528  29.451  1.00  0.00     0.016 A 
ATOM     43  C   UNL A   1      43.963  33.190  26.567  1.00  0.00     0.010 A 
ATOM     44  C   UNL A   1      43.238  32.895  29.308  1.00  0.00     0.010 A 
ATOM     45  C   UNL A   1      43.830  32.225  28.061  1.00  0.00    -0.014 A 
BRANCH  45  46
ATOM     46  C   UNL A   1      44.030  30.772  28.788  1.00  0.00     0.031 A 
ATOM     47  C   UNL A   1      44.940  29.950  28.027  1.00  0.00     0.074 A 
ATOM     48  C   UNL A   1      43.119  29.832  29.397  1.00  0.00     0.049 A 
ATOM     49  N   UNL A   1      45.006  28.289  28.134  1.00  0.00    -0.248 NA
ATOM     50  C   UNL A   1      46.503  30.593  26.908  1.00  0.00     0.031 C 
ATOM     51  C   UNL A   1      43.332  28.617  30.219  1.00  0.00     0.029 A 
ATOM     52  N   UNL A   1      41.712  29.742  29.370  1.00  0.00    -0.354 N 
ATOM     53  C   UNL A   1      46.608  27.649  27.441  1.00  0.00     0.074 A 
ATOM     54  C   UNL A   1      47.465  29.235  26.627  1.00  0.00     0.031 C 
ATOM     55  C   UNL A   1      42.158  27.960  30.456  1.00  0.00     0.029 A 
ATOM     56  C   UNL A   1      41.037  28.614  29.780  1.00  0.00     0.049 A 
ATOM     57  H   UNL A   1      41.193  30.514  29.048  1.00  0.00     0.167 HD
ATOM     58  C   UNL A   1      47.067  26.667  28.310  1.00  0.00     0.037 A 
ATOM     59  C   UNL A   1      39.788  28.134  29.372  1.00  0.00     0.037 A 
ATOM     60  C   UNL A   1      45.879  25.976  28.850  1.00  0.00     0.049 A 
ATOM     61  C   UNL A   1      40.099  26.780  28.747  1.00  0.00     0.074 A 
ATOM     62  C   UNL A   1      45.331  25.819  30.117  1.00  0.00     0.029 A 
ATOM     63  N   UNL A   1      44.877  25.582  27.966  1.00  0.00    -0.354 N 
ATOM     64  N   UNL A   1      41.336  26.382  28.620  1.00  0.00    -0.248 NA
ATOM     65  C   UNL A   1      39.173  25.778  28.222  1.00  0.00     0.031 C 
ATOM     66  C   UNL A   1      44.017  25.291  29.978  1.00  0.00     0.029 A 
ATOM     67  C   UNL A   1      43.746  25.152  28.628  1.00  0.00     0.049 A 
ATOM     68  H   UNL A   1      44.966  25.608  26.985  1.00  0.00     0.167 HD
ATOM     69  C   UNL A   1      41.414  25.149  28.067  1.00  0.00     0.074 A 
ATOM     70  C   UNL A   1      40.025  24.807  27.823  1.00  0.00     0.031 C 
ATOM     71  C   UNL A   1      42.636  24.569  27.874  1.00  0.00     0.037 A 
BRANCH  58  72
ATOM     72  C   UNL A   1      48.440  26.596  29.006  1.00  0.00     0.058 A 
ATOM     73  C   UNL A   1      48.668  27.245  30.249  1.00  0.00     0.135 A 
ATOM     74  C   UNL A   1      49.598  25.989  28.482  1.00  0.00     0.135 A 
ATOM     75  F   UNL A   1      47.690  27.891  30.897  1.00  0.00    -0.206 F 
ATOM     76  C   UNL A   1      49.908  27.270  30.905  1.00  0.00     0.059 A 
ATOM     77  C   UNL A   1      50.845  25.976  29.127  1.00  0.00     0.059 A 
ATOM     78  F   UNL A   1      49.596  25.392  27.292  1.00  0.00    -0.206 F 
ATOM     79  C   UNL A   1      50.988  26.603  30.353  1.00  0.00     0.060 A 
BRANCH  79  80
ATOM     80  S   UNL A   1      52.530  26.492  31.283  1.00  0.00     0.124 S 
ATOM     81  O   UNL A   1      52.164  25.614  32.390  1.00  0.00    -0.237 OA
ATOM     82  O   UNL A   1      53.438  25.925  30.293  1.00  0.00    -0.237 OA
ATOM     83  O   UNL A   1      52.802  27.879  31.655  1.00  0.00    -0.744 OA
ENDBRANCH  79  80
ENDBRANCH  58  72
BRANCH  59  84
ATOM     84  C   UNL A   1      38.473  28.982  29.107  1.00  0.00     0.058 A 
ATOM     85  C   UNL A   1      37.556  29.130  30.175  1.00  0.00     0.135 A 
ATOM     86  C   UNL A   1      38.166  29.852  28.013  1.00  0.00     0.135 A 
ATOM     87  F   UNL A   1      37.594  28.256  31.191  1.00  0.00    -0.206 F 
ATOM     88  C   UNL A   1      36.599  30.173  30.268  1.00  0.00     0.059 A 
ATOM     89  C   UNL A   1      37.271  30.974  28.122  1.00  0.00     0.059 A 
ATOM     90  F   UNL A   1      38.908  29.801  26.895  1.00  0.00    -0.206 F 
ATOM     91  C   UNL A   1      36.500  31.137  29.270  1.00  0.00     0.060 A 
BRANCH  91  92
ATOM     92  S   UNL A   1      35.415  32.590  29.544  1.00  0.00     0.124 S 
ATOM     93  O   UNL A   1      35.141  32.498  30.974  1.00  0.00    -0.237 OA
ATOM     94  O   UNL A   1      36.267  33.712  29.148  1.00  0.00    -0.237 OA
ATOM     95  O   UNL A   1      34.272  32.335  28.676  1.00  0.00    -0.744 OA
ENDBRANCH  91  92
ENDBRANCH  59  84
BRANCH  71  96
ATOM     96  C   UNL A   1      42.935  23.362  27.026  1.00  0.00     0.058 A 
ATOM     97  C   UNL A   1      43.173  23.406  25.647  1.00  0.00     0.135 A 
ATOM     98  C   UNL A   1      43.145  22.098  27.642  1.00  0.00     0.135 A 
ATOM     99  F   UNL A   1      43.134  24.556  24.960  1.00  0.00    -0.206 F 
ATOM    100  C   UNL A   1      43.502  22.266  24.919  1.00  0.00     0.059 A 
ATOM    101  C   UNL A   1      43.576  20.977  26.953  1.00  0.00     0.059 A 
ATOM    102  F   UNL A   1      42.942  21.895  28.952  1.00  0.00    -0.206 F 
ATOM    103  C   UNL A   1      43.702  21.058  25.582  1.00  0.00     0.060 A 
BRANCH 103 104
ATOM    104  S   UNL A   1      44.111  19.587  24.642  1.00  0.00     0.124 S 
ATOM    105  O   UNL A   1      42.852  18.850  24.709  1.00  0.00    -0.237 OA
ATOM    106  O   UNL A   1      44.457  20.134  23.334  1.00  0.00    -0.237 OA
ATOM    107  O   UNL A   1      45.223  19.004  25.386  1.00  0.00    -0.744 OA
ENDBRANCH 103 104
ENDBRANCH  71  96
ENDBRANCH  45  46
ENDBRANCH  38  40
ENDBRANCH  37  38
ENDBRANCH  36  37
ENDBRANCH   1  36
TORSDOF 19
ENDMDL
