MODEL 1
REMARK VINA RESULT:      -9.1      0.000      0.000
REMARK SMILES CSCc1ccc(C(=O)Nc2cc(C)c(C(=O)OCCOC(=O)c3ccc(-c4c5nc(c(-c6c(F)cc(S(=O)(=O)[O-])cc6F)c6ccc([nH]6)c(-c6c(F)cc(S(=O)(=O)[O-])cc6F)c6nc(c(-c7c(F)cc(S(=O)(=O)[O-])cc7F)c7ccc4[nH]7)C=C6)C=C5)cc3)s2)cc1
REMARK SMILES IDX 19 1 18 2 16 3 17 4 15 5 11 6 12 7 90 8 13 9 14 10 10 11
REMARK SMILES IDX 8 12 9 13 7 15 4 16 5 17 92 18 6 19 91 20 3 21 2 22 1 23
REMARK SMILES IDX 20 24 21 25 22 26 23 27 24 28 25 29 89 30 26 31 88 32 27 33
REMARK SMILES IDX 28 34 29 35 82 36 30 37 87 38 81 39 83 40 31 41 86 42 80 43
REMARK SMILES IDX 79 44 32 46 66 47 45 48 65 49 46 50 49 51 64 52 84 53 47 54
REMARK SMILES IDX 48 55 63 57 85 58 50 59 33 60 34 61 43 62 35 63 36 64 42 65
REMARK SMILES IDX 44 66 37 67 38 68 39 69 40 70 41 71 67 72 68 73 77 74 69 75
REMARK SMILES IDX 70 76 76 77 78 78 71 79 72 80 73 81 74 82 75 83 51 84 52 85
REMARK SMILES IDX 61 86 53 87 54 88 60 89 62 90 55 91 56 92 57 93 58 94 59 95
REMARK H PARENT 10 14 83 45 49 56
REMARK Flexibility Score: inf
ROOT
ATOM      1  C   UNL A   1      33.949  33.510  28.360  1.00  0.00     0.275 C 
ENDROOT
BRANCH   1   2
ATOM      2  O   UNL A   1      34.676  34.296  29.329  1.00  0.00    -0.458 OA
BRANCH   2   3
ATOM      3  C   UNL A   1      34.920  33.713  30.543  1.00  0.00     0.348 C 
ATOM      4  O   UNL A   1      34.108  32.999  31.113  1.00  0.00    -0.245 OA
BRANCH   3   5
ATOM      5  C   UNL A   1      36.274  34.010  31.013  1.00  0.00     0.117 A 
ATOM      6  C   UNL A   1      38.094  34.476  32.617  1.00  0.00     0.096 A 
ATOM      7  C   UNL A   1      38.580  34.260  31.355  1.00  0.00     0.042 A 
ATOM      8  S   UNL A   1      36.415  34.652  32.621  1.00  0.00    -0.111 S 
ATOM      9  C   UNL A   1      37.536  33.880  30.431  1.00  0.00    -0.023 A 
ATOM     10  C   UNL A   1      37.869  33.404  29.052  1.00  0.00     0.046 C 
BRANCH   6  11
ATOM     11  N   UNL A   1      38.793  34.684  33.776  1.00  0.00    -0.314 N 
ATOM     12  C   UNL A   1      39.439  33.747  34.568  1.00  0.00     0.256 C 
ATOM     13  O   UNL A   1      39.833  34.116  35.678  1.00  0.00    -0.269 OA
ATOM     14  H   UNL A   1      38.844  35.617  34.087  1.00  0.00     0.171 HD
BRANCH  12  15
ATOM     15  C   UNL A   1      39.834  32.377  34.091  1.00  0.00     0.040 A 
ATOM     16  C   UNL A   1      40.508  29.707  33.347  1.00  0.00    -0.038 A 
ATOM     17  C   UNL A   1      39.179  30.068  33.617  1.00  0.00     0.005 A 
ATOM     18  C   UNL A   1      41.483  30.695  33.471  1.00  0.00     0.005 A 
ATOM     19  C   UNL A   1      38.847  31.384  33.986  1.00  0.00     0.014 A 
ATOM     20  C   UNL A   1      41.156  31.992  33.867  1.00  0.00     0.014 A 
BRANCH  16  21
ATOM     21  C   UNL A   1      40.825  28.328  32.820  1.00  0.00     0.104 C 
BRANCH  21  22
ATOM     22  S   UNL A   1      42.493  27.671  33.141  1.00  0.00    -0.161 SA
ATOM     23  C   UNL A   1      42.185  26.819  34.710  1.00  0.00     0.085 C 
ENDBRANCH  21  22
ENDBRANCH  16  21
ENDBRANCH  12  15
ENDBRANCH   6  11
ENDBRANCH   3   5
ENDBRANCH   2   3
ENDBRANCH   1   2
BRANCH   1  24
ATOM     24  C   UNL A   1      34.743  32.288  27.876  1.00  0.00     0.275 C 
BRANCH  24  25
ATOM     25  O   UNL A   1      34.276  31.059  28.468  1.00  0.00    -0.458 OA
BRANCH  25  26
ATOM     26  C   UNL A   1      34.856  29.952  27.956  1.00  0.00     0.338 C 
ATOM     27  O   UNL A   1      34.355  29.183  27.149  1.00  0.00    -0.246 OA
BRANCH  26  28
ATOM     28  C   UNL A   1      36.257  29.816  28.392  1.00  0.00     0.060 A 
ATOM     29  C   UNL A   1      37.217  29.854  27.388  1.00  0.00     0.016 A 
ATOM     30  C   UNL A   1      36.633  29.518  29.702  1.00  0.00     0.016 A 
ATOM     31  C   UNL A   1      38.541  29.541  27.654  1.00  0.00     0.010 A 
ATOM     32  C   UNL A   1      37.981  29.233  29.981  1.00  0.00     0.010 A 
ATOM     33  C   UNL A   1      38.942  29.216  28.954  1.00  0.00    -0.014 A 
BRANCH  33  34
ATOM     34  C   UNL A   1      40.377  28.913  29.193  1.00  0.00     0.031 A 
ATOM     35  C   UNL A   1      40.946  27.546  28.933  1.00  0.00     0.074 A 
ATOM     36  C   UNL A   1      41.195  29.918  29.556  1.00  0.00     0.049 A 
ATOM     37  N   UNL A   1      42.197  27.185  28.798  1.00  0.00    -0.248 NA
ATOM     38  C   UNL A   1      39.996  26.443  28.749  1.00  0.00     0.031 C 
ATOM     39  C   UNL A   1      40.778  31.302  29.801  1.00  0.00     0.029 A 
ATOM     40  N   UNL A   1      42.545  29.932  29.789  1.00  0.00    -0.354 N 
ATOM     41  C   UNL A   1      42.171  25.851  28.407  1.00  0.00     0.074 A 
ATOM     42  C   UNL A   1      40.783  25.453  28.352  1.00  0.00     0.031 C 
ATOM     43  C   UNL A   1      41.847  32.023  30.169  1.00  0.00     0.029 A 
ATOM     44  C   UNL A   1      43.011  31.146  30.230  1.00  0.00     0.049 A 
ATOM     45  H   UNL A   1      43.125  29.148  29.653  1.00  0.00     0.167 HD
ATOM     46  C   UNL A   1      43.209  25.018  28.162  1.00  0.00     0.037 A 
ATOM     47  C   UNL A   1      44.231  31.496  30.676  1.00  0.00     0.037 A 
ATOM     48  C   UNL A   1      44.573  25.336  28.495  1.00  0.00     0.049 A 
ATOM     49  C   UNL A   1      45.327  30.467  30.656  1.00  0.00     0.074 A 
ATOM     50  C   UNL A   1      45.689  24.520  28.429  1.00  0.00     0.029 A 
ATOM     51  N   UNL A   1      44.987  26.537  29.053  1.00  0.00    -0.354 N 
ATOM     52  N   UNL A   1      45.302  29.245  30.177  1.00  0.00    -0.248 NA
ATOM     53  C   UNL A   1      46.617  30.861  31.234  1.00  0.00     0.031 C 
ATOM     54  C   UNL A   1      46.749  25.189  29.053  1.00  0.00     0.029 A 
ATOM     55  C   UNL A   1      46.320  26.456  29.416  1.00  0.00     0.049 A 
ATOM     56  H   UNL A   1      44.416  27.330  29.173  1.00  0.00     0.167 HD
ATOM     57  C   UNL A   1      46.581  28.734  30.371  1.00  0.00     0.074 A 
ATOM     58  C   UNL A   1      47.354  29.785  31.001  1.00  0.00     0.031 C 
ATOM     59  C   UNL A   1      47.071  27.511  30.051  1.00  0.00     0.037 A 
BRANCH  46  60
ATOM     60  C   UNL A   1      42.899  23.651  27.619  1.00  0.00     0.058 A 
ATOM     61  C   UNL A   1      42.957  23.381  26.242  1.00  0.00     0.135 A 
ATOM     62  C   UNL A   1      42.590  22.587  28.480  1.00  0.00     0.135 A 
ATOM     63  F   UNL A   1      43.224  24.367  25.370  1.00  0.00    -0.206 F 
ATOM     64  C   UNL A   1      42.725  22.102  25.740  1.00  0.00     0.059 A 
ATOM     65  C   UNL A   1      42.368  21.298  28.003  1.00  0.00     0.059 A 
ATOM     66  F   UNL A   1      42.502  22.795  29.803  1.00  0.00    -0.206 F 
ATOM     67  C   UNL A   1      42.435  21.066  26.630  1.00  0.00     0.060 A 
BRANCH  67  68
ATOM     68  S   UNL A   1      42.152  19.409  25.968  1.00  0.00     0.124 S 
ATOM     69  O   UNL A   1      40.704  19.410  25.781  1.00  0.00    -0.237 OA
ATOM     70  O   UNL A   1      42.950  19.421  24.747  1.00  0.00    -0.237 OA
ATOM     71  O   UNL A   1      42.642  18.530  27.026  1.00  0.00    -0.744 OA
ENDBRANCH  67  68
ENDBRANCH  46  60
BRANCH  47  72
ATOM     72  C   UNL A   1      44.452  32.855  31.237  1.00  0.00     0.058 A 
ATOM     73  C   UNL A   1      44.611  33.974  30.409  1.00  0.00     0.135 A 
ATOM     74  C   UNL A   1      44.518  33.056  32.627  1.00  0.00     0.135 A 
ATOM     75  F   UNL A   1      44.565  33.834  29.076  1.00  0.00    -0.206 F 
ATOM     76  C   UNL A   1      44.850  35.240  30.935  1.00  0.00     0.059 A 
ATOM     77  C   UNL A   1      44.723  34.315  33.177  1.00  0.00     0.059 A 
ATOM     78  F   UNL A   1      44.363  32.020  33.467  1.00  0.00    -0.206 F 
ATOM     79  C   UNL A   1      44.905  35.400  32.322  1.00  0.00     0.060 A 
BRANCH  79  80
ATOM     80  S   UNL A   1      45.203  37.048  32.996  1.00  0.00     0.124 S 
ATOM     81  O   UNL A   1      45.391  36.754  34.412  1.00  0.00    -0.237 OA
ATOM     82  O   UNL A   1      46.395  37.466  32.266  1.00  0.00    -0.237 OA
ATOM     83  O   UNL A   1      43.983  37.775  32.659  1.00  0.00    -0.744 OA
ENDBRANCH  79  80
ENDBRANCH  47  72
BRANCH  59  84
ATOM     84  C   UNL A   1      48.522  27.249  30.349  1.00  0.00     0.058 A 
ATOM     85  C   UNL A   1      49.540  27.598  29.448  1.00  0.00     0.135 A 
ATOM     86  C   UNL A   1      48.898  26.688  31.580  1.00  0.00     0.135 A 
ATOM     87  F   UNL A   1      49.234  28.132  28.254  1.00  0.00    -0.206 F 
ATOM     88  C   UNL A   1      50.879  27.371  29.744  1.00  0.00     0.059 A 
ATOM     89  C   UNL A   1      50.233  26.486  31.913  1.00  0.00     0.059 A 
ATOM     90  F   UNL A   1      47.965  26.348  32.483  1.00  0.00    -0.206 F 
ATOM     91  C   UNL A   1      51.216  26.817  30.982  1.00  0.00     0.060 A 
BRANCH  91  92
ATOM     92  S   UNL A   1      52.960  26.563  31.369  1.00  0.00     0.124 S 
ATOM     93  O   UNL A   1      53.357  27.890  31.824  1.00  0.00    -0.237 OA
ATOM     94  O   UNL A   1      52.903  25.528  32.398  1.00  0.00    -0.237 OA
ATOM     95  O   UNL A   1      53.533  26.138  30.094  1.00  0.00    -0.744 OA
ENDBRANCH  91  92
ENDBRANCH  59  84
ENDBRANCH  33  34
ENDBRANCH  26  28
ENDBRANCH  25  26
ENDBRANCH  24  25
ENDBRANCH   1  24
TORSDOF 18
ENDMDL
MODEL 2
REMARK VINA RESULT:      -8.8      4.318     10.511
REMARK SMILES CSCc1ccc(C(=O)Nc2cc(C)c(C(=O)OCCOC(=O)c3ccc(-c4c5nc(c(-c6c(F)cc(S(=O)(=O)[O-])cc6F)c6ccc([nH]6)c(-c6c(F)cc(S(=O)(=O)[O-])cc6F)c6nc(c(-c7c(F)cc(S(=O)(=O)[O-])cc7F)c7ccc4[nH]7)C=C6)C=C5)cc3)s2)cc1
REMARK SMILES IDX 19 1 18 2 16 3 17 4 15 5 11 6 12 7 90 8 13 9 14 10 10 11
REMARK SMILES IDX 8 12 9 13 7 15 4 16 5 17 92 18 6 19 91 20 3 21 2 22 1 23
REMARK SMILES IDX 20 24 21 25 22 26 23 27 24 28 25 29 89 30 26 31 88 32 27 33
REMARK SMILES IDX 28 34 29 35 82 36 30 37 87 38 81 39 83 40 31 41 86 42 80 43
REMARK SMILES IDX 79 44 32 46 66 47 45 48 65 49 46 50 49 51 64 52 84 53 47 54
REMARK SMILES IDX 48 55 63 57 85 58 50 59 33 60 34 61 43 62 35 63 36 64 42 65
REMARK SMILES IDX 44 66 37 67 38 68 39 69 40 70 41 71 67 72 68 73 77 74 69 75
REMARK SMILES IDX 70 76 76 77 78 78 71 79 72 80 73 81 74 82 75 83 51 84 52 85
REMARK SMILES IDX 61 86 53 87 54 88 60 89 62 90 55 91 56 92 57 93 58 94 59 95
REMARK H PARENT 10 14 83 45 49 56
REMARK Flexibility Score: inf
ROOT
ATOM      1  C   UNL A   1      31.765  30.241  25.657  1.00  0.00     0.275 C 
ENDROOT
BRANCH   1   2
ATOM      2  O   UNL A   1      31.206  29.225  24.797  1.00  0.00    -0.458 OA
BRANCH   2   3
ATOM      3  C   UNL A   1      32.091  28.460  24.086  1.00  0.00     0.348 C 
ATOM      4  O   UNL A   1      33.103  28.916  23.573  1.00  0.00    -0.245 OA
BRANCH   3   5
ATOM      5  C   UNL A   1      31.693  27.051  24.083  1.00  0.00     0.117 A 
ATOM      6  C   UNL A   1      30.748  24.933  24.935  1.00  0.00     0.096 A 
ATOM      7  C   UNL A   1      31.025  24.858  23.595  1.00  0.00     0.042 A 
ATOM      8  S   UNL A   1      31.408  26.321  25.633  1.00  0.00    -0.111 S 
ATOM      9  C   UNL A   1      31.477  26.123  23.063  1.00  0.00    -0.023 A 
ATOM     10  C   UNL A   1      31.643  26.319  21.590  1.00  0.00     0.046 C 
BRANCH   6  11
ATOM     11  N   UNL A   1      30.149  23.998  25.736  1.00  0.00    -0.314 N 
ATOM     12  C   UNL A   1      30.572  22.707  26.012  1.00  0.00     0.256 C 
ATOM     13  O   UNL A   1      29.778  21.962  26.593  1.00  0.00    -0.269 OA
ATOM     14  H   UNL A   1      29.311  24.278  26.171  1.00  0.00     0.171 HD
BRANCH  12  15
ATOM     15  C   UNL A   1      31.980  22.225  25.802  1.00  0.00     0.040 A 
ATOM     16  C   UNL A   1      34.584  21.129  25.409  1.00  0.00    -0.038 A 
ATOM     17  C   UNL A   1      33.537  20.841  24.519  1.00  0.00     0.005 A 
ATOM     18  C   UNL A   1      34.300  21.955  26.494  1.00  0.00     0.005 A 
ATOM     19  C   UNL A   1      32.252  21.379  24.715  1.00  0.00     0.014 A 
ATOM     20  C   UNL A   1      33.017  22.463  26.703  1.00  0.00     0.014 A 
BRANCH  16  21
ATOM     21  C   UNL A   1      35.985  20.655  25.106  1.00  0.00     0.104 C 
BRANCH  21  22
ATOM     22  S   UNL A   1      37.257  21.928  24.822  1.00  0.00    -0.161 SA
ATOM     23  C   UNL A   1      36.523  22.777  23.399  1.00  0.00     0.085 C 
ENDBRANCH  21  22
ENDBRANCH  16  21
ENDBRANCH  12  15
ENDBRANCH   6  11
ENDBRANCH   3   5
ENDBRANCH   2   3
ENDBRANCH   1   2
BRANCH   1  24
ATOM     24  C   UNL A   1      32.293  29.670  26.981  1.00  0.00     0.275 C 
BRANCH  24  25
ATOM     25  O   UNL A   1      33.727  29.524  26.984  1.00  0.00    -0.458 OA
BRANCH  25  26
ATOM     26  C   UNL A   1      34.371  30.486  27.682  1.00  0.00     0.338 C 
ATOM     27  O   UNL A   1      33.896  31.549  28.053  1.00  0.00    -0.246 OA
BRANCH  26  28
ATOM     28  C   UNL A   1      35.728  30.063  28.070  1.00  0.00     0.060 A 
ATOM     29  C   UNL A   1      35.888  29.663  29.392  1.00  0.00     0.016 A 
ATOM     30  C   UNL A   1      36.843  30.180  27.240  1.00  0.00     0.016 A 
ATOM     31  C   UNL A   1      37.150  29.434  29.921  1.00  0.00     0.010 A 
ATOM     32  C   UNL A   1      38.120  29.917  27.764  1.00  0.00     0.010 A 
ATOM     33  C   UNL A   1      38.287  29.567  29.116  1.00  0.00    -0.014 A 
BRANCH  33  34
ATOM     34  C   UNL A   1      39.614  29.288  29.722  1.00  0.00     0.031 A 
ATOM     35  C   UNL A   1      40.171  30.142  30.827  1.00  0.00     0.074 A 
ATOM     36  C   UNL A   1      40.279  28.184  29.332  1.00  0.00     0.049 A 
ATOM     37  N   UNL A   1      41.146  29.881  31.660  1.00  0.00    -0.248 NA
ATOM     38  C   UNL A   1      39.526  31.437  31.068  1.00  0.00     0.031 C 
ATOM     39  C   UNL A   1      39.830  27.245  28.300  1.00  0.00     0.029 A 
ATOM     40  N   UNL A   1      41.475  27.667  29.754  1.00  0.00    -0.354 N 
ATOM     41  C   UNL A   1      41.150  30.921  32.582  1.00  0.00     0.074 A 
ATOM     42  C   UNL A   1      40.102  31.836  32.194  1.00  0.00     0.031 C 
ATOM     43  C   UNL A   1      40.750  26.281  28.155  1.00  0.00     0.029 A 
ATOM     44  C   UNL A   1      41.869  26.556  29.048  1.00  0.00     0.049 A 
ATOM     45  H   UNL A   1      42.002  28.053  30.491  1.00  0.00     0.167 HD
ATOM     46  C   UNL A   1      41.983  31.123  33.630  1.00  0.00     0.037 A 
ATOM     47  C   UNL A   1      43.024  25.867  29.089  1.00  0.00     0.037 A 
ATOM     48  C   UNL A   1      43.191  30.369  33.836  1.00  0.00     0.049 A 
ATOM     49  C   UNL A   1      44.072  26.278  30.086  1.00  0.00     0.074 A 
ATOM     50  C   UNL A   1      44.187  30.574  34.775  1.00  0.00     0.029 A 
ATOM     51  N   UNL A   1      43.615  29.325  33.025  1.00  0.00    -0.354 N 
ATOM     52  N   UNL A   1      44.005  27.197  31.021  1.00  0.00    -0.248 NA
ATOM     53  C   UNL A   1      45.351  25.561  30.037  1.00  0.00     0.031 C 
ATOM     54  C   UNL A   1      45.259  29.732  34.457  1.00  0.00     0.029 A 
ATOM     55  C   UNL A   1      44.893  28.934  33.386  1.00  0.00     0.049 A 
ATOM     56  H   UNL A   1      43.085  28.923  32.300  1.00  0.00     0.167 HD
ATOM     57  C   UNL A   1      45.223  27.148  31.690  1.00  0.00     0.074 A 
ATOM     58  C   UNL A   1      46.000  26.102  31.058  1.00  0.00     0.031 C 
ATOM     59  C   UNL A   1      45.655  27.896  32.737  1.00  0.00     0.037 A 
BRANCH  46  60
ATOM     60  C   UNL A   1      41.682  32.269  34.556  1.00  0.00     0.058 A 
ATOM     61  C   UNL A   1      42.261  33.534  34.365  1.00  0.00     0.135 A 
ATOM     62  C   UNL A   1      40.771  32.120  35.613  1.00  0.00     0.135 A 
ATOM     63  F   UNL A   1      43.158  33.727  33.385  1.00  0.00    -0.206 F 
ATOM     64  C   UNL A   1      41.941  34.613  35.187  1.00  0.00     0.059 A 
ATOM     65  C   UNL A   1      40.426  33.187  36.438  1.00  0.00     0.059 A 
ATOM     66  F   UNL A   1      40.205  30.927  35.851  1.00  0.00    -0.206 F 
ATOM     67  C   UNL A   1      41.019  34.429  36.219  1.00  0.00     0.060 A 
BRANCH  67  68
ATOM     68  S   UNL A   1      40.601  35.839  37.269  1.00  0.00     0.124 S 
ATOM     69  O   UNL A   1      39.988  35.179  38.418  1.00  0.00    -0.237 OA
ATOM     70  O   UNL A   1      41.906  36.447  37.507  1.00  0.00    -0.237 OA
ATOM     71  O   UNL A   1      39.688  36.622  36.442  1.00  0.00    -0.744 OA
ENDBRANCH  67  68
ENDBRANCH  46  60
BRANCH  47  72
ATOM     72  C   UNL A   1      43.268  24.772  28.114  1.00  0.00     0.058 A 
ATOM     73  C   UNL A   1      42.934  23.443  28.405  1.00  0.00     0.135 A 
ATOM     74  C   UNL A   1      43.855  25.040  26.864  1.00  0.00     0.135 A 
ATOM     75  F   UNL A   1      42.380  23.134  29.587  1.00  0.00    -0.206 F 
ATOM     76  C   UNL A   1      43.193  22.414  27.504  1.00  0.00     0.059 A 
ATOM     77  C   UNL A   1      44.092  24.035  25.936  1.00  0.00     0.059 A 
ATOM     78  F   UNL A   1      44.186  26.297  26.530  1.00  0.00    -0.206 F 
ATOM     79  C   UNL A   1      43.773  22.721  26.271  1.00  0.00     0.060 A 
BRANCH  79  80
ATOM     80  S   UNL A   1      44.093  21.382  25.103  1.00  0.00     0.124 S 
ATOM     81  O   UNL A   1      43.017  20.451  25.425  1.00  0.00    -0.237 OA
ATOM     82  O   UNL A   1      43.986  22.063  23.818  1.00  0.00    -0.237 OA
ATOM     83  O   UNL A   1      45.437  20.939  25.460  1.00  0.00    -0.744 OA
ENDBRANCH  79  80
ENDBRANCH  47  72
BRANCH  59  84
ATOM     84  C   UNL A   1      47.022  27.590  33.285  1.00  0.00     0.058 A 
ATOM     85  C   UNL A   1      47.223  26.621  34.280  1.00  0.00     0.135 A 
ATOM     86  C   UNL A   1      48.151  28.244  32.767  1.00  0.00     0.135 A 
ATOM     87  F   UNL A   1      46.176  25.971  34.815  1.00  0.00    -0.206 F 
ATOM     88  C   UNL A   1      48.495  26.333  34.763  1.00  0.00     0.059 A 
ATOM     89  C   UNL A   1      49.435  27.945  33.209  1.00  0.00     0.059 A 
ATOM     90  F   UNL A   1      48.015  29.170  31.805  1.00  0.00    -0.206 F 
ATOM     91  C   UNL A   1      49.595  26.998  34.218  1.00  0.00     0.060 A 
BRANCH  91  92
ATOM     92  S   UNL A   1      51.243  26.587  34.828  1.00  0.00     0.124 S 
ATOM     93  O   UNL A   1      51.286  25.145  34.610  1.00  0.00    -0.237 OA
ATOM     94  O   UNL A   1      52.104  27.386  33.962  1.00  0.00    -0.237 OA
ATOM     95  O   UNL A   1      51.203  27.010  36.225  1.00  0.00    -0.744 OA
ENDBRANCH  91  92
ENDBRANCH  59  84
ENDBRANCH  33  34
ENDBRANCH  26  28
ENDBRANCH  25  26
ENDBRANCH  24  25
ENDBRANCH   1  24
TORSDOF 18
ENDMDL
MODEL 3
REMARK VINA RESULT:      -8.7      4.480      7.383
REMARK SMILES CSCc1ccc(C(=O)Nc2cc(C)c(C(=O)OCCOC(=O)c3ccc(-c4c5nc(c(-c6c(F)cc(S(=O)(=O)[O-])cc6F)c6ccc([nH]6)c(-c6c(F)cc(S(=O)(=O)[O-])cc6F)c6nc(c(-c7c(F)cc(S(=O)(=O)[O-])cc7F)c7ccc4[nH]7)C=C6)C=C5)cc3)s2)cc1
REMARK SMILES IDX 19 1 18 2 16 3 17 4 15 5 11 6 12 7 90 8 13 9 14 10 10 11
REMARK SMILES IDX 8 12 9 13 7 15 4 16 5 17 92 18 6 19 91 20 3 21 2 22 1 23
REMARK SMILES IDX 20 24 21 25 22 26 23 27 24 28 25 29 89 30 26 31 88 32 27 33
REMARK SMILES IDX 28 34 29 35 82 36 30 37 87 38 81 39 83 40 31 41 86 42 80 43
REMARK SMILES IDX 79 44 32 46 66 47 45 48 65 49 46 50 49 51 64 52 84 53 47 54
REMARK SMILES IDX 48 55 63 57 85 58 50 59 33 60 34 61 43 62 35 63 36 64 42 65
REMARK SMILES IDX 44 66 37 67 38 68 39 69 40 70 41 71 67 72 68 73 77 74 69 75
REMARK SMILES IDX 70 76 76 77 78 78 71 79 72 80 73 81 74 82 75 83 51 84 52 85
REMARK SMILES IDX 61 86 53 87 54 88 60 89 62 90 55 91 56 92 57 93 58 94 59 95
REMARK H PARENT 10 14 83 45 49 56
REMARK Flexibility Score: inf
ROOT
ATOM      1  C   UNL A   1      31.733  30.059  25.313  1.00  0.00     0.275 C 
ENDROOT
BRANCH   1   2
ATOM      2  O   UNL A   1      31.141  28.904  24.681  1.00  0.00    -0.458 OA
BRANCH   2   3
ATOM      3  C   UNL A   1      31.991  28.045  24.038  1.00  0.00     0.348 C 
ATOM      4  O   UNL A   1      32.961  28.424  23.398  1.00  0.00    -0.245 OA
BRANCH   3   5
ATOM      5  C   UNL A   1      31.615  26.649  24.274  1.00  0.00     0.117 A 
ATOM      6  C   UNL A   1      31.230  24.262  23.770  1.00  0.00     0.096 A 
ATOM      7  C   UNL A   1      31.139  24.513  25.113  1.00  0.00     0.042 A 
ATOM      8  S   UNL A   1      31.277  25.688  22.868  1.00  0.00    -0.111 S 
ATOM      9  C   UNL A   1      31.468  25.884  25.432  1.00  0.00    -0.023 A 
ATOM     10  C   UNL A   1      31.627  26.324  26.852  1.00  0.00     0.046 C 
BRANCH   6  11
ATOM     11  N   UNL A   1      31.157  23.059  23.120  1.00  0.00    -0.314 N 
ATOM     12  C   UNL A   1      32.194  22.205  22.777  1.00  0.00     0.256 C 
ATOM     13  O   UNL A   1      31.931  21.271  22.013  1.00  0.00    -0.269 OA
ATOM     14  H   UNL A   1      30.254  22.762  22.865  1.00  0.00     0.171 HD
BRANCH  12  15
ATOM     15  C   UNL A   1      33.558  22.248  23.408  1.00  0.00     0.040 A 
ATOM     16  C   UNL A   1      36.217  22.264  24.440  1.00  0.00    -0.038 A 
ATOM     17  C   UNL A   1      35.883  23.000  23.292  1.00  0.00     0.005 A 
ATOM     18  C   UNL A   1      35.208  21.516  25.043  1.00  0.00     0.005 A 
ATOM     19  C   UNL A   1      34.571  22.991  22.782  1.00  0.00     0.014 A 
ATOM     20  C   UNL A   1      33.916  21.483  24.518  1.00  0.00     0.014 A 
BRANCH  16  21
ATOM     21  C   UNL A   1      37.592  22.397  25.049  1.00  0.00     0.104 C 
BRANCH  21  22
ATOM     22  S   UNL A   1      37.857  23.760  26.228  1.00  0.00    -0.161 SA
ATOM     23  C   UNL A   1      39.477  23.280  26.885  1.00  0.00     0.085 C 
ENDBRANCH  21  22
ENDBRANCH  16  21
ENDBRANCH  12  15
ENDBRANCH   6  11
ENDBRANCH   3   5
ENDBRANCH   2   3
ENDBRANCH   1   2
BRANCH   1  24
ATOM     24  C   UNL A   1      32.381  29.726  26.664  1.00  0.00     0.275 C 
BRANCH  24  25
ATOM     25  O   UNL A   1      33.820  29.704  26.594  1.00  0.00    -0.458 OA
BRANCH  25  26
ATOM     26  C   UNL A   1      34.418  30.642  27.360  1.00  0.00     0.338 C 
ATOM     27  O   UNL A   1      33.949  31.727  27.672  1.00  0.00    -0.246 OA
BRANCH  26  28
ATOM     28  C   UNL A   1      35.701  30.166  27.906  1.00  0.00     0.060 A 
ATOM     29  C   UNL A   1      35.664  29.661  29.201  1.00  0.00     0.016 A 
ATOM     30  C   UNL A   1      36.926  30.327  27.258  1.00  0.00     0.016 A 
ATOM     31  C   UNL A   1      36.834  29.368  29.887  1.00  0.00     0.010 A 
ATOM     32  C   UNL A   1      38.111  29.999  27.938  1.00  0.00     0.010 A 
ATOM     33  C   UNL A   1      38.077  29.542  29.268  1.00  0.00    -0.014 A 
BRANCH  33  34
ATOM     34  C   UNL A   1      39.300  29.192  30.035  1.00  0.00     0.031 A 
ATOM     35  C   UNL A   1      40.176  28.037  29.637  1.00  0.00     0.074 A 
ATOM     36  C   UNL A   1      39.673  29.994  31.050  1.00  0.00     0.049 A 
ATOM     37  N   UNL A   1      41.407  27.774  29.995  1.00  0.00    -0.248 NA
ATOM     38  C   UNL A   1      39.627  27.074  28.675  1.00  0.00     0.031 C 
ATOM     39  C   UNL A   1      38.936  31.173  31.513  1.00  0.00     0.029 A 
ATOM     40  N   UNL A   1      40.763  29.938  31.878  1.00  0.00    -0.354 N 
ATOM     41  C   UNL A   1      41.808  26.691  29.220  1.00  0.00     0.074 A 
ATOM     42  C   UNL A   1      40.683  26.323  28.392  1.00  0.00     0.031 C 
ATOM     43  C   UNL A   1      39.583  31.714  32.555  1.00  0.00     0.029 A 
ATOM     44  C   UNL A   1      40.753  30.898  32.860  1.00  0.00     0.049 A 
ATOM     45  H   UNL A   1      41.484  29.274  31.779  1.00  0.00     0.167 HD
ATOM     46  C   UNL A   1      42.989  26.031  29.231  1.00  0.00     0.037 A 
ATOM     47  C   UNL A   1      41.571  31.069  33.914  1.00  0.00     0.037 A 
ATOM     48  C   UNL A   1      43.990  26.218  30.248  1.00  0.00     0.049 A 
ATOM     49  C   UNL A   1      42.745  30.143  34.071  1.00  0.00     0.074 A 
ATOM     50  C   UNL A   1      45.160  25.506  30.448  1.00  0.00     0.029 A 
ATOM     51  N   UNL A   1      43.886  27.120  31.297  1.00  0.00    -0.354 N 
ATOM     52  N   UNL A   1      43.163  29.196  33.263  1.00  0.00    -0.248 NA
ATOM     53  C   UNL A   1      43.560  30.305  35.281  1.00  0.00     0.031 C 
ATOM     54  C   UNL A   1      45.700  25.901  31.678  1.00  0.00     0.029 A 
ATOM     55  C   UNL A   1      44.923  26.927  32.193  1.00  0.00     0.049 A 
ATOM     56  H   UNL A   1      43.178  27.798  31.391  1.00  0.00     0.167 HD
ATOM     57  C   UNL A   1      44.306  28.670  33.852  1.00  0.00     0.074 A 
ATOM     58  C   UNL A   1      44.518  29.412  35.079  1.00  0.00     0.031 C 
ATOM     59  C   UNL A   1      45.111  27.669  33.416  1.00  0.00     0.037 A 
BRANCH  46  60
ATOM     60  C   UNL A   1      43.211  24.970  28.188  1.00  0.00     0.058 A 
ATOM     61  C   UNL A   1      43.810  25.273  26.954  1.00  0.00     0.135 A 
ATOM     62  C   UNL A   1      42.869  23.633  28.437  1.00  0.00     0.135 A 
ATOM     63  F   UNL A   1      44.135  26.541  26.652  1.00  0.00    -0.206 F 
ATOM     64  C   UNL A   1      44.068  24.283  26.008  1.00  0.00     0.059 A 
ATOM     65  C   UNL A   1      43.129  22.625  27.513  1.00  0.00     0.059 A 
ATOM     66  F   UNL A   1      42.275  23.293  29.592  1.00  0.00    -0.206 F 
ATOM     67  C   UNL A   1      43.727  22.961  26.299  1.00  0.00     0.060 A 
BRANCH  67  68
ATOM     68  S   UNL A   1      44.080  21.685  25.070  1.00  0.00     0.124 S 
ATOM     69  O   UNL A   1      43.042  20.701  25.361  1.00  0.00    -0.237 OA
ATOM     70  O   UNL A   1      43.931  22.412  23.814  1.00  0.00    -0.237 OA
ATOM     71  O   UNL A   1      45.441  21.267  25.392  1.00  0.00    -0.744 OA
ENDBRANCH  67  68
ENDBRANCH  46  60
BRANCH  47  72
ATOM     72  C   UNL A   1      41.265  32.114  34.927  1.00  0.00     0.058 A 
ATOM     73  C   UNL A   1      40.339  31.890  35.954  1.00  0.00     0.135 A 
ATOM     74  C   UNL A   1      41.896  33.369  34.877  1.00  0.00     0.135 A 
ATOM     75  F   UNL A   1      39.705  30.712  36.041  1.00  0.00    -0.206 F 
ATOM     76  C   UNL A   1      40.030  32.880  36.882  1.00  0.00     0.059 A 
ATOM     77  C   UNL A   1      41.628  34.361  35.811  1.00  0.00     0.059 A 
ATOM     78  F   UNL A   1      42.798  33.633  33.919  1.00  0.00    -0.206 F 
ATOM     79  C   UNL A   1      40.681  34.114  36.802  1.00  0.00     0.060 A 
BRANCH  79  80
ATOM     80  S   UNL A   1      40.283  35.387  38.018  1.00  0.00     0.124 S 
ATOM     81  O   UNL A   1      39.353  34.678  38.889  1.00  0.00    -0.237 OA
ATOM     82  O   UNL A   1      41.592  35.687  38.588  1.00  0.00    -0.237 OA
ATOM     83  O   UNL A   1      39.700  36.454  37.209  1.00  0.00    -0.744 OA
ENDBRANCH  79  80
ENDBRANCH  47  72
BRANCH  59  84
ATOM     84  C   UNL A   1      46.315  27.335  34.254  1.00  0.00     0.058 A 
ATOM     85  C   UNL A   1      47.542  27.994  34.085  1.00  0.00     0.135 A 
ATOM     86  C   UNL A   1      46.218  26.376  35.275  1.00  0.00     0.135 A 
ATOM     87  F   UNL A   1      47.691  28.916  33.120  1.00  0.00    -0.206 F 
ATOM     88  C   UNL A   1      48.642  27.692  34.882  1.00  0.00     0.059 A 
ATOM     89  C   UNL A   1      47.293  26.085  36.106  1.00  0.00     0.059 A 
ATOM     90  F   UNL A   1      45.063  25.726  35.486  1.00  0.00    -0.206 F 
ATOM     91  C   UNL A   1      48.506  26.738  35.893  1.00  0.00     0.060 A 
BRANCH  91  92
ATOM     92  S   UNL A   1      49.929  26.382  36.942  1.00  0.00     0.124 S 
ATOM     93  O   UNL A   1      49.295  26.179  38.240  1.00  0.00    -0.237 OA
ATOM     94  O   UNL A   1      50.488  25.188  36.315  1.00  0.00    -0.237 OA
ATOM     95  O   UNL A   1      50.748  27.586  36.825  1.00  0.00    -0.744 OA
ENDBRANCH  91  92
ENDBRANCH  59  84
ENDBRANCH  33  34
ENDBRANCH  26  28
ENDBRANCH  25  26
ENDBRANCH  24  25
ENDBRANCH   1  24
TORSDOF 18
ENDMDL
