MODEL 1
REMARK VINA RESULT:      -9.9      0.000      0.000
REMARK SMILES C[N@H+](CCC(=O)Nc1sccc1C#N)CC(=O)OCCOC(=O)c1ccc(-c2c3nc(c(-c4c(F)cc(S(=O)(=O)[O-])cc4F)c4ccc([nH]4)c(-c4c(F)cc(S(=O)(=O)[O-])cc4F)c4nc(c(-c5c(F)cc(S(=O)(=O)[O-])cc5F)c5ccc2[nH]5)C=C4)C=C3)cc1
REMARK SMILES IDX 18 1 16 2 17 3 15 4 2 5 1 6 3 8 4 9 5 10 6 11 7 12 8 14 9 15
REMARK SMILES IDX 12 16 10 17 11 18 13 19 14 20 19 21 20 22 21 23 22 24 23 25
REMARK SMILES IDX 24 26 25 27 89 28 26 29 88 30 27 31 28 32 29 33 82 34 30 35
REMARK SMILES IDX 87 36 81 37 83 38 31 39 86 40 80 41 79 42 32 44 66 45 45 46
REMARK SMILES IDX 65 47 46 48 49 49 64 50 84 51 47 52 48 53 63 55 85 56 50 57
REMARK SMILES IDX 33 58 34 59 43 60 35 61 36 62 42 63 44 64 37 65 38 66 39 67
REMARK SMILES IDX 40 68 41 69 67 70 68 71 77 72 69 73 70 74 76 75 78 76 71 77
REMARK SMILES IDX 72 78 73 79 74 80 75 81 51 82 52 83 61 84 53 85 54 86 60 87
REMARK SMILES IDX 62 88 55 89 56 90 57 91 58 92 59 93
REMARK H PARENT 2 7 7 13 83 43 49 54
REMARK Flexibility Score: inf
ROOT
ATOM      1  O   UNL A   1      32.117  28.774  24.853  1.00  0.00    -0.458 OA
ENDROOT
BRANCH   1   2
ATOM      2  C   UNL A   1      31.208  28.775  23.842  1.00  0.00     0.361 C 
ATOM      3  O   UNL A   1      30.132  29.357  23.869  1.00  0.00    -0.245 OA
BRANCH   2   4
ATOM      4  C   UNL A   1      31.737  28.018  22.644  1.00  0.00     0.386 C 
BRANCH   4   5
ATOM      5  N   UNL A   1      32.402  26.774  23.058  1.00  0.00    -0.328 N 
ATOM      6  C   UNL A   1      33.439  26.449  22.076  1.00  0.00     0.333 C 
ATOM      7  H   UNL A   1      32.818  26.939  23.975  1.00  0.00     0.348 HD
BRANCH   5   8
ATOM      8  C   UNL A   1      31.484  25.642  23.270  1.00  0.00     0.272 C 
BRANCH   8   9
ATOM      9  C   UNL A   1      30.924  25.386  24.671  1.00  0.00     0.161 C 
BRANCH   9  10
ATOM     10  C   UNL A   1      31.659  25.236  26.004  1.00  0.00     0.230 C 
ATOM     11  O   UNL A   1      31.188  25.884  26.957  1.00  0.00    -0.274 OA
ATOM     12  N   UNL A   1      32.690  24.429  26.329  1.00  0.00    -0.316 N 
ATOM     13  H   UNL A   1      32.813  24.341  27.302  1.00  0.00     0.170 HD
BRANCH  12  14
ATOM     14  C   UNL A   1      33.602  23.708  25.614  1.00  0.00     0.113 A 
ATOM     15  S   UNL A   1      34.864  24.702  25.033  1.00  0.00    -0.125 S 
ATOM     16  C   UNL A   1      33.746  22.418  25.163  1.00  0.00     0.087 A 
ATOM     17  C   UNL A   1      35.827  23.345  24.642  1.00  0.00     0.068 A 
ATOM     18  C   UNL A   1      35.077  22.187  24.679  1.00  0.00     0.033 A 
BRANCH  16  19
ATOM     19  C   UNL A   1      32.701  21.442  25.142  1.00  0.00     0.102 C 
ATOM     20  N   UNL A   1      31.857  20.648  25.117  1.00  0.00    -0.192 NA
ENDBRANCH  16  19
ENDBRANCH  12  14
ENDBRANCH   9  10
ENDBRANCH   8   9
ENDBRANCH   5   8
ENDBRANCH   4   5
ENDBRANCH   2   4
ENDBRANCH   1   2
BRANCH   1  21
ATOM     21  C   UNL A   1      31.737  29.512  26.017  1.00  0.00     0.274 C 
BRANCH  21  22
ATOM     22  C   UNL A   1      32.905  30.391  26.460  1.00  0.00     0.275 C 
BRANCH  22  23
ATOM     23  O   UNL A   1      33.586  29.818  27.599  1.00  0.00    -0.458 OA
BRANCH  23  24
ATOM     24  C   UNL A   1      34.448  30.644  28.240  1.00  0.00     0.338 C 
ATOM     25  O   UNL A   1      34.202  31.758  28.678  1.00  0.00    -0.246 OA
BRANCH  24  26
ATOM     26  C   UNL A   1      35.777  30.026  28.410  1.00  0.00     0.060 A 
ATOM     27  C   UNL A   1      36.202  29.571  29.654  1.00  0.00     0.016 A 
ATOM     28  C   UNL A   1      36.681  30.077  27.349  1.00  0.00     0.016 A 
ATOM     29  C   UNL A   1      37.553  29.275  29.860  1.00  0.00     0.010 A 
ATOM     30  C   UNL A   1      38.005  29.660  27.535  1.00  0.00     0.010 A 
ATOM     31  C   UNL A   1      38.479  29.289  28.807  1.00  0.00    -0.014 A 
BRANCH  31  32
ATOM     32  C   UNL A   1      39.924  28.938  29.002  1.00  0.00     0.031 A 
ATOM     33  C   UNL A   1      40.918  30.006  29.404  1.00  0.00     0.074 A 
ATOM     34  C   UNL A   1      40.380  27.685  28.783  1.00  0.00     0.049 A 
ATOM     35  N   UNL A   1      42.221  30.026  29.271  1.00  0.00    -0.248 NA
ATOM     36  C   UNL A   1      40.367  31.226  30.018  1.00  0.00     0.031 C 
ATOM     37  C   UNL A   1      39.559  26.516  28.465  1.00  0.00     0.029 A 
ATOM     38  N   UNL A   1      41.665  27.189  28.771  1.00  0.00    -0.354 N 
ATOM     39  C   UNL A   1      42.635  31.284  29.704  1.00  0.00     0.074 A 
ATOM     40  C   UNL A   1      41.444  31.995  30.117  1.00  0.00     0.031 C 
ATOM     41  C   UNL A   1      40.346  25.443  28.314  1.00  0.00     0.029 A 
ATOM     42  C   UNL A   1      41.735  25.873  28.372  1.00  0.00     0.049 A 
ATOM     43  H   UNL A   1      42.454  27.721  29.022  1.00  0.00     0.167 HD
ATOM     44  C   UNL A   1      43.890  31.797  29.737  1.00  0.00     0.037 A 
ATOM     45  C   UNL A   1      42.778  25.110  27.990  1.00  0.00     0.037 A 
ATOM     46  C   UNL A   1      45.073  31.049  29.379  1.00  0.00     0.049 A 
ATOM     47  C   UNL A   1      44.154  25.708  27.966  1.00  0.00     0.074 A 
ATOM     48  C   UNL A   1      46.394  31.464  29.394  1.00  0.00     0.029 A 
ATOM     49  N   UNL A   1      45.080  29.727  28.958  1.00  0.00    -0.354 N 
ATOM     50  N   UNL A   1      44.526  26.925  28.280  1.00  0.00    -0.248 NA
ATOM     51  C   UNL A   1      45.247  24.836  27.517  1.00  0.00     0.031 C 
ATOM     52  C   UNL A   1      47.192  30.411  28.935  1.00  0.00     0.029 A 
ATOM     53  C   UNL A   1      46.378  29.318  28.694  1.00  0.00     0.049 A 
ATOM     54  H   UNL A   1      44.280  29.161  28.860  1.00  0.00     0.167 HD
ATOM     55  C   UNL A   1      45.901  26.962  28.082  1.00  0.00     0.074 A 
ATOM     56  C   UNL A   1      46.294  25.640  27.638  1.00  0.00     0.031 C 
ATOM     57  C   UNL A   1      46.758  27.997  28.254  1.00  0.00     0.037 A 
BRANCH  44  58
ATOM     58  C   UNL A   1      44.064  33.244  30.128  1.00  0.00     0.058 A 
ATOM     59  C   UNL A   1      44.368  33.643  31.439  1.00  0.00     0.135 A 
ATOM     60  C   UNL A   1      43.983  34.252  29.149  1.00  0.00     0.135 A 
ATOM     61  F   UNL A   1      44.448  32.731  32.421  1.00  0.00    -0.206 F 
ATOM     62  C   UNL A   1      44.556  34.984  31.771  1.00  0.00     0.059 A 
ATOM     63  C   UNL A   1      44.198  35.595  29.450  1.00  0.00     0.059 A 
ATOM     64  F   UNL A   1      43.700  33.935  27.875  1.00  0.00    -0.206 F 
ATOM     65  C   UNL A   1      44.470  35.952  30.768  1.00  0.00     0.060 A 
BRANCH  65  66
ATOM     66  S   UNL A   1      44.718  37.685  31.214  1.00  0.00     0.124 S 
ATOM     67  O   UNL A   1      46.125  37.686  31.607  1.00  0.00    -0.237 OA
ATOM     68  O   UNL A   1      44.410  38.376  29.965  1.00  0.00    -0.237 OA
ATOM     69  O   UNL A   1      43.765  37.900  32.298  1.00  0.00    -0.744 OA
ENDBRANCH  65  66
ENDBRANCH  44  58
BRANCH  45  70
ATOM     70  C   UNL A   1      42.532  23.720  27.515  1.00  0.00     0.058 A 
ATOM     71  C   UNL A   1      42.444  23.426  26.147  1.00  0.00     0.135 A 
ATOM     72  C   UNL A   1      42.437  22.649  28.422  1.00  0.00     0.135 A 
ATOM     73  F   UNL A   1      42.511  24.415  25.244  1.00  0.00    -0.206 F 
ATOM     74  C   UNL A   1      42.279  22.122  25.693  1.00  0.00     0.059 A 
ATOM     75  C   UNL A   1      42.309  21.334  27.991  1.00  0.00     0.059 A 
ATOM     76  F   UNL A   1      42.526  22.876  29.742  1.00  0.00    -0.206 F 
ATOM     77  C   UNL A   1      42.227  21.080  26.623  1.00  0.00     0.060 A 
BRANCH  77  78
ATOM     78  S   UNL A   1      42.104  19.383  26.019  1.00  0.00     0.124 S 
ATOM     79  O   UNL A   1      42.925  19.441  24.815  1.00  0.00    -0.237 OA
ATOM     80  O   UNL A   1      42.657  18.621  27.134  1.00  0.00    -0.237 OA
ATOM     81  O   UNL A   1      40.672  19.208  25.800  1.00  0.00    -0.744 OA
ENDBRANCH  77  78
ENDBRANCH  45  70
BRANCH  57  82
ATOM     82  C   UNL A   1      48.216  27.727  28.010  1.00  0.00     0.058 A 
ATOM     83  C   UNL A   1      48.796  27.864  26.739  1.00  0.00     0.135 A 
ATOM     84  C   UNL A   1      49.051  27.343  29.074  1.00  0.00     0.135 A 
ATOM     85  F   UNL A   1      48.040  28.216  25.688  1.00  0.00    -0.206 F 
ATOM     86  C   UNL A   1      50.145  27.602  26.524  1.00  0.00     0.059 A 
ATOM     87  C   UNL A   1      50.409  27.106  28.888  1.00  0.00     0.059 A 
ATOM     88  F   UNL A   1      48.549  27.203  30.311  1.00  0.00    -0.206 F 
ATOM     89  C   UNL A   1      50.943  27.224  27.605  1.00  0.00     0.060 A 
BRANCH  89  90
ATOM     90  S   UNL A   1      52.696  26.908  27.317  1.00  0.00     0.124 S 
ATOM     91  O   UNL A   1      53.237  28.262  27.274  1.00  0.00    -0.237 OA
ATOM     92  O   UNL A   1      53.065  26.113  28.486  1.00  0.00    -0.237 OA
ATOM     93  O   UNL A   1      52.708  26.186  26.047  1.00  0.00    -0.744 OA
ENDBRANCH  89  90
ENDBRANCH  57  82
ENDBRANCH  31  32
ENDBRANCH  24  26
ENDBRANCH  23  24
ENDBRANCH  22  23
ENDBRANCH  21  22
ENDBRANCH   1  21
TORSDOF 20
ENDMDL
MODEL 2
REMARK VINA RESULT:      -9.6      1.803      2.633
REMARK SMILES C[N@H+](CCC(=O)Nc1sccc1C#N)CC(=O)OCCOC(=O)c1ccc(-c2c3nc(c(-c4c(F)cc(S(=O)(=O)[O-])cc4F)c4ccc([nH]4)c(-c4c(F)cc(S(=O)(=O)[O-])cc4F)c4nc(c(-c5c(F)cc(S(=O)(=O)[O-])cc5F)c5ccc2[nH]5)C=C4)C=C3)cc1
REMARK SMILES IDX 18 1 16 2 17 3 15 4 2 5 1 6 3 8 4 9 5 10 6 11 7 12 8 14 9 15
REMARK SMILES IDX 12 16 10 17 11 18 13 19 14 20 19 21 20 22 21 23 22 24 23 25
REMARK SMILES IDX 24 26 25 27 89 28 26 29 88 30 27 31 28 32 29 33 82 34 30 35
REMARK SMILES IDX 87 36 81 37 83 38 31 39 86 40 80 41 79 42 32 44 66 45 45 46
REMARK SMILES IDX 65 47 46 48 49 49 64 50 84 51 47 52 48 53 63 55 85 56 50 57
REMARK SMILES IDX 33 58 34 59 43 60 35 61 36 62 42 63 44 64 37 65 38 66 39 67
REMARK SMILES IDX 40 68 41 69 67 70 68 71 77 72 69 73 70 74 76 75 78 76 71 77
REMARK SMILES IDX 72 78 73 79 74 80 75 81 51 82 52 83 61 84 53 85 54 86 60 87
REMARK SMILES IDX 62 88 55 89 56 90 57 91 58 92 59 93
REMARK H PARENT 2 7 7 13 83 43 49 54
REMARK Flexibility Score: inf
ROOT
ATOM      1  O   UNL A   1      32.122  28.865  26.050  1.00  0.00    -0.458 OA
ENDROOT
BRANCH   1   2
ATOM      2  C   UNL A   1      31.439  27.863  26.666  1.00  0.00     0.361 C 
ATOM      3  O   UNL A   1      31.406  27.680  27.875  1.00  0.00    -0.245 OA
BRANCH   2   4
ATOM      4  C   UNL A   1      30.663  27.045  25.659  1.00  0.00     0.386 C 
BRANCH   4   5
ATOM      5  N   UNL A   1      31.550  26.126  24.930  1.00  0.00    -0.328 N 
ATOM      6  C   UNL A   1      30.757  25.404  23.931  1.00  0.00     0.333 C 
ATOM      7  H   UNL A   1      32.268  26.689  24.475  1.00  0.00     0.348 HD
BRANCH   5   8
ATOM      8  C   UNL A   1      32.301  25.201  25.795  1.00  0.00     0.272 C 
BRANCH   8   9
ATOM      9  C   UNL A   1      31.605  23.948  26.332  1.00  0.00     0.161 C 
BRANCH   9  10
ATOM     10  C   UNL A   1      31.644  22.511  25.813  1.00  0.00     0.230 C 
ATOM     11  O   UNL A   1      30.594  21.857  25.950  1.00  0.00    -0.274 OA
ATOM     12  N   UNL A   1      32.620  21.870  25.137  1.00  0.00    -0.316 N 
ATOM     13  H   UNL A   1      32.304  21.044  24.705  1.00  0.00     0.170 HD
BRANCH  12  14
ATOM     14  C   UNL A   1      33.946  22.107  24.918  1.00  0.00     0.113 A 
ATOM     15  S   UNL A   1      34.912  21.430  26.156  1.00  0.00    -0.125 S 
ATOM     16  C   UNL A   1      34.718  22.807  24.022  1.00  0.00     0.087 A 
ATOM     17  C   UNL A   1      36.334  21.628  25.229  1.00  0.00     0.068 A 
ATOM     18  C   UNL A   1      36.103  22.455  24.149  1.00  0.00     0.033 A 
BRANCH  16  19
ATOM     19  C   UNL A   1      34.215  23.785  23.108  1.00  0.00     0.102 C 
ATOM     20  N   UNL A   1      33.814  24.574  22.359  1.00  0.00    -0.192 NA
ENDBRANCH  16  19
ENDBRANCH  12  14
ENDBRANCH   9  10
ENDBRANCH   8   9
ENDBRANCH   5   8
ENDBRANCH   4   5
ENDBRANCH   2   4
ENDBRANCH   1   2
BRANCH   1  21
ATOM     21  C   UNL A   1      33.547  28.751  26.095  1.00  0.00     0.274 C 
BRANCH  21  22
ATOM     22  C   UNL A   1      34.110  29.839  27.007  1.00  0.00     0.275 C 
BRANCH  22  23
ATOM     23  O   UNL A   1      35.180  29.326  27.831  1.00  0.00    -0.458 OA
BRANCH  23  24
ATOM     24  C   UNL A   1      35.843  30.248  28.570  1.00  0.00     0.338 C 
ATOM     25  O   UNL A   1      35.346  31.132  29.251  1.00  0.00    -0.246 OA
BRANCH  24  26
ATOM     26  C   UNL A   1      37.304  30.055  28.508  1.00  0.00     0.060 A 
ATOM     27  C   UNL A   1      37.953  29.877  27.289  1.00  0.00     0.016 A 
ATOM     28  C   UNL A   1      38.007  29.859  29.697  1.00  0.00     0.016 A 
ATOM     29  C   UNL A   1      39.266  29.399  27.265  1.00  0.00     0.010 A 
ATOM     30  C   UNL A   1      39.360  29.498  29.661  1.00  0.00     0.010 A 
ATOM     31  C   UNL A   1      40.006  29.220  28.442  1.00  0.00    -0.014 A 
BRANCH  31  32
ATOM     32  C   UNL A   1      41.428  28.743  28.433  1.00  0.00     0.031 A 
ATOM     33  C   UNL A   1      42.564  29.735  28.563  1.00  0.00     0.074 A 
ATOM     34  C   UNL A   1      41.731  27.436  28.264  1.00  0.00     0.049 A 
ATOM     35  N   UNL A   1      43.822  29.613  28.219  1.00  0.00    -0.248 NA
ATOM     36  C   UNL A   1      42.233  31.048  29.139  1.00  0.00     0.031 C 
ATOM     37  C   UNL A   1      40.771  26.334  28.197  1.00  0.00     0.029 A 
ATOM     38  N   UNL A   1      42.948  26.815  28.090  1.00  0.00    -0.354 N 
ATOM     39  C   UNL A   1      44.410  30.853  28.456  1.00  0.00     0.074 A 
ATOM     40  C   UNL A   1      43.372  31.711  28.987  1.00  0.00     0.031 C 
ATOM     41  C   UNL A   1      41.426  25.180  28.022  1.00  0.00     0.029 A 
ATOM     42  C   UNL A   1      42.836  25.471  27.812  1.00  0.00     0.049 A 
ATOM     43  H   UNL A   1      43.811  27.283  28.157  1.00  0.00     0.167 HD
ATOM     44  C   UNL A   1      45.692  31.238  28.235  1.00  0.00     0.037 A 
ATOM     45  C   UNL A   1      43.729  24.579  27.341  1.00  0.00     0.037 A 
ATOM     46  C   UNL A   1      46.727  30.349  27.763  1.00  0.00     0.049 A 
ATOM     47  C   UNL A   1      45.126  25.032  27.037  1.00  0.00     0.074 A 
ATOM     48  C   UNL A   1      48.062  30.629  27.523  1.00  0.00     0.029 A 
ATOM     49  N   UNL A   1      46.549  29.003  27.475  1.00  0.00    -0.354 N 
ATOM     50  N   UNL A   1      45.650  26.226  27.168  1.00  0.00    -0.248 NA
ATOM     51  C   UNL A   1      46.048  24.021  26.501  1.00  0.00     0.031 C 
ATOM     52  C   UNL A   1      48.677  29.468  27.043  1.00  0.00     0.029 A 
ATOM     53  C   UNL A   1      47.743  28.446  27.044  1.00  0.00     0.049 A 
ATOM     54  H   UNL A   1      45.699  28.515  27.563  1.00  0.00     0.167 HD
ATOM     55  C   UNL A   1      46.968  26.109  26.746  1.00  0.00     0.074 A 
ATOM     56  C   UNL A   1      47.165  24.723  26.373  1.00  0.00     0.031 C 
ATOM     57  C   UNL A   1      47.928  27.063  26.677  1.00  0.00     0.037 A 
BRANCH  44  58
ATOM     58  C   UNL A   1      46.053  32.688  28.452  1.00  0.00     0.058 A 
ATOM     59  C   UNL A   1      45.932  33.657  27.445  1.00  0.00     0.135 A 
ATOM     60  C   UNL A   1      46.474  33.125  29.722  1.00  0.00     0.135 A 
ATOM     61  F   UNL A   1      45.547  33.302  26.208  1.00  0.00    -0.206 F 
ATOM     62  C   UNL A   1      46.241  34.996  27.677  1.00  0.00     0.059 A 
ATOM     63  C   UNL A   1      46.757  34.463  29.987  1.00  0.00     0.059 A 
ATOM     64  F   UNL A   1      46.605  32.247  30.730  1.00  0.00    -0.206 F 
ATOM     65  C   UNL A   1      46.652  35.389  28.953  1.00  0.00     0.060 A 
BRANCH  65  66
ATOM     66  S   UNL A   1      47.046  37.129  29.238  1.00  0.00     0.124 S 
ATOM     67  O   UNL A   1      45.744  37.759  29.035  1.00  0.00    -0.237 OA
ATOM     68  O   UNL A   1      47.535  37.116  30.613  1.00  0.00    -0.237 OA
ATOM     69  O   UNL A   1      48.049  37.424  28.221  1.00  0.00    -0.744 OA
ENDBRANCH  65  66
ENDBRANCH  44  58
BRANCH  45  70
ATOM     70  C   UNL A   1      43.287  23.187  27.048  1.00  0.00     0.058 A 
ATOM     71  C   UNL A   1      43.092  22.751  25.730  1.00  0.00     0.135 A 
ATOM     72  C   UNL A   1      43.107  22.249  28.080  1.00  0.00     0.135 A 
ATOM     73  F   UNL A   1      43.233  23.611  24.711  1.00  0.00    -0.206 F 
ATOM     74  C   UNL A   1      42.742  21.435  25.444  1.00  0.00     0.059 A 
ATOM     75  C   UNL A   1      42.795  20.921  27.817  1.00  0.00     0.059 A 
ATOM     76  F   UNL A   1      43.293  22.614  29.360  1.00  0.00    -0.206 F 
ATOM     77  C   UNL A   1      42.610  20.524  26.495  1.00  0.00     0.060 A 
BRANCH  77  78
ATOM     78  S   UNL A   1      42.245  18.799  26.107  1.00  0.00     0.124 S 
ATOM     79  O   UNL A   1      43.169  18.545  25.007  1.00  0.00    -0.237 OA
ATOM     80  O   UNL A   1      42.551  18.130  27.367  1.00  0.00    -0.237 OA
ATOM     81  O   UNL A   1      40.830  18.828  25.749  1.00  0.00    -0.744 OA
ENDBRANCH  77  78
ENDBRANCH  45  70
BRANCH  57  82
ATOM     82  C   UNL A   1      49.294  26.629  26.226  1.00  0.00     0.058 A 
ATOM     83  C   UNL A   1      49.735  26.813  24.906  1.00  0.00     0.135 A 
ATOM     84  C   UNL A   1      50.184  26.037  27.138  1.00  0.00     0.135 A 
ATOM     85  F   UNL A   1      48.920  27.362  23.992  1.00  0.00    -0.206 F 
ATOM     86  C   UNL A   1      50.999  26.398  24.498  1.00  0.00     0.059 A 
ATOM     87  C   UNL A   1      51.463  25.643  26.761  1.00  0.00     0.059 A 
ATOM     88  F   UNL A   1      49.815  25.844  28.414  1.00  0.00    -0.206 F 
ATOM     89  C   UNL A   1      51.856  25.815  25.433  1.00  0.00     0.060 A 
BRANCH  89  90
ATOM     90  S   UNL A   1      53.501  25.301  24.897  1.00  0.00     0.124 S 
ATOM     91  O   UNL A   1      53.479  23.876  25.206  1.00  0.00    -0.237 OA
ATOM     92  O   UNL A   1      53.485  25.643  23.477  1.00  0.00    -0.237 OA
ATOM     93  O   UNL A   1      54.396  26.110  25.719  1.00  0.00    -0.744 OA
ENDBRANCH  89  90
ENDBRANCH  57  82
ENDBRANCH  31  32
ENDBRANCH  24  26
ENDBRANCH  23  24
ENDBRANCH  22  23
ENDBRANCH  21  22
ENDBRANCH   1  21
TORSDOF 20
ENDMDL
MODEL 3
REMARK VINA RESULT:      -9.4      1.207      2.047
REMARK SMILES C[N@H+](CCC(=O)Nc1sccc1C#N)CC(=O)OCCOC(=O)c1ccc(-c2c3nc(c(-c4c(F)cc(S(=O)(=O)[O-])cc4F)c4ccc([nH]4)c(-c4c(F)cc(S(=O)(=O)[O-])cc4F)c4nc(c(-c5c(F)cc(S(=O)(=O)[O-])cc5F)c5ccc2[nH]5)C=C4)C=C3)cc1
REMARK SMILES IDX 18 1 16 2 17 3 15 4 2 5 1 6 3 8 4 9 5 10 6 11 7 12 8 14 9 15
REMARK SMILES IDX 12 16 10 17 11 18 13 19 14 20 19 21 20 22 21 23 22 24 23 25
REMARK SMILES IDX 24 26 25 27 89 28 26 29 88 30 27 31 28 32 29 33 82 34 30 35
REMARK SMILES IDX 87 36 81 37 83 38 31 39 86 40 80 41 79 42 32 44 66 45 45 46
REMARK SMILES IDX 65 47 46 48 49 49 64 50 84 51 47 52 48 53 63 55 85 56 50 57
REMARK SMILES IDX 33 58 34 59 43 60 35 61 36 62 42 63 44 64 37 65 38 66 39 67
REMARK SMILES IDX 40 68 41 69 67 70 68 71 77 72 69 73 70 74 76 75 78 76 71 77
REMARK SMILES IDX 72 78 73 79 74 80 75 81 51 82 52 83 61 84 53 85 54 86 60 87
REMARK SMILES IDX 62 88 55 89 56 90 57 91 58 92 59 93
REMARK H PARENT 2 7 7 13 83 43 49 54
REMARK Flexibility Score: inf
ROOT
ATOM      1  O   UNL A   1      32.326  27.710  25.625  1.00  0.00    -0.458 OA
ENDROOT
BRANCH   1   2
ATOM      2  C   UNL A   1      31.282  26.848  25.503  1.00  0.00     0.361 C 
ATOM      3  O   UNL A   1      30.414  26.916  24.642  1.00  0.00    -0.245 OA
BRANCH   2   4
ATOM      4  C   UNL A   1      31.375  25.743  26.532  1.00  0.00     0.386 C 
BRANCH   4   5
ATOM      5  N   UNL A   1      32.149  24.605  26.015  1.00  0.00    -0.328 N 
ATOM      6  C   UNL A   1      31.846  23.425  26.830  1.00  0.00     0.333 C 
ATOM      7  H   UNL A   1      31.862  24.453  25.048  1.00  0.00     0.348 HD
BRANCH   5   8
ATOM      8  C   UNL A   1      33.598  24.848  25.935  1.00  0.00     0.272 C 
BRANCH   8   9
ATOM      9  C   UNL A   1      34.225  25.189  24.580  1.00  0.00     0.161 C 
BRANCH   9  10
ATOM     10  C   UNL A   1      34.056  24.500  23.226  1.00  0.00     0.230 C 
ATOM     11  O   UNL A   1      34.063  25.250  22.233  1.00  0.00    -0.274 OA
ATOM     12  N   UNL A   1      33.996  23.184  22.934  1.00  0.00    -0.316 N 
ATOM     13  H   UNL A   1      34.136  22.999  21.978  1.00  0.00     0.170 HD
BRANCH  12  14
ATOM     14  C   UNL A   1      33.784  22.051  23.666  1.00  0.00     0.113 A 
ATOM     15  S   UNL A   1      32.190  21.469  23.464  1.00  0.00    -0.125 S 
ATOM     16  C   UNL A   1      34.471  21.292  24.583  1.00  0.00     0.087 A 
ATOM     17  C   UNL A   1      32.590  19.967  24.173  1.00  0.00     0.068 A 
ATOM     18  C   UNL A   1      33.814  20.036  24.807  1.00  0.00     0.033 A 
BRANCH  16  19
ATOM     19  C   UNL A   1      35.663  21.710  25.254  1.00  0.00     0.102 C 
ATOM     20  N   UNL A   1      36.633  22.049  25.789  1.00  0.00    -0.192 NA
ENDBRANCH  16  19
ENDBRANCH  12  14
ENDBRANCH   9  10
ENDBRANCH   8   9
ENDBRANCH   5   8
ENDBRANCH   4   5
ENDBRANCH   2   4
ENDBRANCH   1   2
BRANCH   1  21
ATOM     21  C   UNL A   1      32.180  28.707  26.640  1.00  0.00     0.274 C 
BRANCH  21  22
ATOM     22  C   UNL A   1      33.490  29.480  26.778  1.00  0.00     0.275 C 
BRANCH  22  23
ATOM     23  O   UNL A   1      33.545  30.190  28.036  1.00  0.00    -0.458 OA
BRANCH  23  24
ATOM     24  C   UNL A   1      34.555  31.085  28.158  1.00  0.00     0.338 C 
ATOM     25  O   UNL A   1      34.462  32.302  28.104  1.00  0.00    -0.246 OA
BRANCH  24  26
ATOM     26  C   UNL A   1      35.848  30.424  28.417  1.00  0.00     0.060 A 
ATOM     27  C   UNL A   1      36.301  30.221  29.717  1.00  0.00     0.016 A 
ATOM     28  C   UNL A   1      36.702  30.176  27.343  1.00  0.00     0.016 A 
ATOM     29  C   UNL A   1      37.638  29.877  29.940  1.00  0.00     0.010 A 
ATOM     30  C   UNL A   1      38.005  29.713  27.575  1.00  0.00     0.010 A 
ATOM     31  C   UNL A   1      38.512  29.595  28.881  1.00  0.00    -0.014 A 
BRANCH  31  32
ATOM     32  C   UNL A   1      39.939  29.190  29.103  1.00  0.00     0.031 A 
ATOM     33  C   UNL A   1      40.966  30.221  29.520  1.00  0.00     0.074 A 
ATOM     34  C   UNL A   1      40.351  27.919  28.895  1.00  0.00     0.049 A 
ATOM     35  N   UNL A   1      42.271  30.191  29.411  1.00  0.00    -0.248 NA
ATOM     36  C   UNL A   1      40.451  31.462  30.122  1.00  0.00     0.031 C 
ATOM     37  C   UNL A   1      39.492  26.781  28.565  1.00  0.00     0.029 A 
ATOM     38  N   UNL A   1      41.617  27.375  28.907  1.00  0.00    -0.354 N 
ATOM     39  C   UNL A   1      42.724  31.433  29.848  1.00  0.00     0.074 A 
ATOM     40  C   UNL A   1      41.554  32.190  30.238  1.00  0.00     0.031 C 
ATOM     41  C   UNL A   1      40.241  25.679  28.430  1.00  0.00     0.029 A 
ATOM     42  C   UNL A   1      41.644  26.056  28.512  1.00  0.00     0.049 A 
ATOM     43  H   UNL A   1      42.421  27.878  29.171  1.00  0.00     0.167 HD
ATOM     44  C   UNL A   1      43.998  31.898  29.903  1.00  0.00     0.037 A 
ATOM     45  C   UNL A   1      42.664  25.253  28.151  1.00  0.00     0.037 A 
ATOM     46  C   UNL A   1      45.157  31.105  29.567  1.00  0.00     0.049 A 
ATOM     47  C   UNL A   1      44.061  25.798  28.151  1.00  0.00     0.074 A 
ATOM     48  C   UNL A   1      46.492  31.470  29.605  1.00  0.00     0.029 A 
ATOM     49  N   UNL A   1      45.122  29.782  29.150  1.00  0.00    -0.354 N 
ATOM     50  N   UNL A   1      44.474  27.001  28.468  1.00  0.00    -0.248 NA
ATOM     51  C   UNL A   1      45.128  24.884  27.723  1.00  0.00     0.031 C 
ATOM     52  C   UNL A   1      47.258  30.386  29.163  1.00  0.00     0.029 A 
ATOM     53  C   UNL A   1      46.408  29.323  28.910  1.00  0.00     0.049 A 
ATOM     54  H   UNL A   1      44.303  29.247  29.039  1.00  0.00     0.167 HD
ATOM     55  C   UNL A   1      45.852  26.985  28.295  1.00  0.00     0.074 A 
ATOM     56  C   UNL A   1      46.203  25.648  27.861  1.00  0.00     0.031 C 
ATOM     57  C   UNL A   1      46.745  27.988  28.480  1.00  0.00     0.037 A 
BRANCH  44  58
ATOM     58  C   UNL A   1      44.219  33.339  30.293  1.00  0.00     0.058 A 
ATOM     59  C   UNL A   1      44.443  33.738  31.620  1.00  0.00     0.135 A 
ATOM     60  C   UNL A   1      44.268  34.337  29.302  1.00  0.00     0.135 A 
ATOM     61  F   UNL A   1      44.398  32.835  32.614  1.00  0.00    -0.206 F 
ATOM     62  C   UNL A   1      44.677  35.071  31.954  1.00  0.00     0.059 A 
ATOM     63  C   UNL A   1      44.532  35.670  29.607  1.00  0.00     0.059 A 
ATOM     64  F   UNL A   1      44.066  34.019  28.013  1.00  0.00    -0.206 F 
ATOM     65  C   UNL A   1      44.721  36.029  30.939  1.00  0.00     0.060 A 
BRANCH  65  66
ATOM     66  S   UNL A   1      45.028  37.752  31.388  1.00  0.00     0.124 S 
ATOM     67  O   UNL A   1      45.079  38.390  30.076  1.00  0.00    -0.237 OA
ATOM     68  O   UNL A   1      43.861  38.074  32.204  1.00  0.00    -0.237 OA
ATOM     69  O   UNL A   1      46.297  37.698  32.108  1.00  0.00    -0.744 OA
ENDBRANCH  65  66
ENDBRANCH  44  58
BRANCH  45  70
ATOM     70  C   UNL A   1      42.373  23.872  27.675  1.00  0.00     0.058 A 
ATOM     71  C   UNL A   1      42.128  23.609  26.320  1.00  0.00     0.135 A 
ATOM     72  C   UNL A   1      42.392  22.780  28.560  1.00  0.00     0.135 A 
ATOM     73  F   UNL A   1      42.082  24.618  25.439  1.00  0.00    -0.206 F 
ATOM     74  C   UNL A   1      41.921  22.313  25.857  1.00  0.00     0.059 A 
ATOM     75  C   UNL A   1      42.224  21.474  28.116  1.00  0.00     0.059 A 
ATOM     76  F   UNL A   1      42.633  22.977  29.867  1.00  0.00    -0.206 F 
ATOM     77  C   UNL A   1      41.985  21.251  26.762  1.00  0.00     0.060 A 
BRANCH  77  78
ATOM     78  S   UNL A   1      41.803  19.567  26.136  1.00  0.00     0.124 S 
ATOM     79  O   UNL A   1      42.186  18.778  27.302  1.00  0.00    -0.237 OA
ATOM     80  O   UNL A   1      40.391  19.527  25.772  1.00  0.00    -0.237 OA
ATOM     81  O   UNL A   1      42.733  19.525  25.012  1.00  0.00    -0.744 OA
ENDBRANCH  77  78
ENDBRANCH  45  70
BRANCH  57  82
ATOM     82  C   UNL A   1      48.196  27.661  28.263  1.00  0.00     0.058 A 
ATOM     83  C   UNL A   1      49.019  27.202  29.304  1.00  0.00     0.135 A 
ATOM     84  C   UNL A   1      48.765  27.791  26.985  1.00  0.00     0.135 A 
ATOM     85  F   UNL A   1      48.527  27.073  30.545  1.00  0.00    -0.206 F 
ATOM     86  C   UNL A   1      50.363  26.912  29.092  1.00  0.00     0.059 A 
ATOM     87  C   UNL A   1      50.099  27.477  26.743  1.00  0.00     0.059 A 
ATOM     88  F   UNL A   1      48.021  28.220  25.954  1.00  0.00    -0.206 F 
ATOM     89  C   UNL A   1      50.893  27.051  27.808  1.00  0.00     0.060 A 
BRANCH  89  90
ATOM     90  S   UNL A   1      52.632  26.650  27.542  1.00  0.00     0.124 S 
ATOM     91  O   UNL A   1      53.071  27.774  26.721  1.00  0.00    -0.237 OA
ATOM     92  O   UNL A   1      53.155  26.618  28.906  1.00  0.00    -0.237 OA
ATOM     93  O   UNL A   1      52.585  25.357  26.865  1.00  0.00    -0.744 OA
ENDBRANCH  89  90
ENDBRANCH  57  82
ENDBRANCH  31  32
ENDBRANCH  24  26
ENDBRANCH  23  24
ENDBRANCH  22  23
ENDBRANCH  21  22
ENDBRANCH   1  21
TORSDOF 20
ENDMDL
