MODEL 1
REMARK VINA RESULT:     -11.0      0.000      0.000
REMARK SMILES Cc1nc2sc3c(c2c2nc(CCC(=O)OCCOC(=O)c4ccc(-c5c6nc(c(-c7c(F)cc(S(=O)(=O)[O-])cc7F)c7ccc([nH]7)c(-c7c(F)cc(S(=O)(=O)[O-])cc7F)c7nc(c(-c8c(F)cc(S(=O)(=O)[O-])cc8F)c8ccc5[nH]8)C=C7)C=C6)cc4)nn12)[C@@H](C)CCC3
REMARK SMILES IDX 18 1 17 2 16 3 14 4 15 5 13 6 12 7 11 8 1 9 2 10 3 11 89 12
REMARK SMILES IDX 4 13 9 14 88 15 5 16 8 17 10 18 6 19 7 20 94 21 90 22 93 23
REMARK SMILES IDX 91 24 92 25 19 26 20 27 21 28 22 29 23 30 87 31 24 32 86 33
REMARK SMILES IDX 25 34 26 35 27 36 80 37 28 38 85 39 79 40 81 41 29 42 84 43
REMARK SMILES IDX 78 44 77 45 30 47 64 48 43 49 63 50 44 51 47 52 62 53 82 54
REMARK SMILES IDX 45 55 46 56 61 58 83 59 48 60 31 61 32 62 41 63 33 64 34 65
REMARK SMILES IDX 40 66 42 67 35 68 36 69 37 70 38 71 39 72 65 73 66 74 75 75
REMARK SMILES IDX 67 76 68 77 74 78 76 79 69 80 70 81 71 82 72 83 73 84 49 85
REMARK SMILES IDX 50 86 59 87 51 88 52 89 58 90 60 91 53 92 54 93 55 94 56 95
REMARK SMILES IDX 57 96
REMARK H PARENT 81 46 47 57
REMARK Flexibility Score: inf
ROOT
ATOM      1  C   UNL A   1      33.618  33.593  28.842  1.00  0.00     0.275 C 
ENDROOT
BRANCH   1   2
ATOM      2  C   UNL A   1      34.084  34.502  29.974  1.00  0.00     0.274 C 
BRANCH   2   3
ATOM      3  O   UNL A   1      35.111  33.914  30.795  1.00  0.00    -0.462 OA
BRANCH   3   4
ATOM      4  C   UNL A   1      34.737  32.871  31.582  1.00  0.00     0.306 C 
ATOM      5  O   UNL A   1      33.830  32.905  32.406  1.00  0.00    -0.252 OA
BRANCH   4   6
ATOM      6  C   UNL A   1      35.636  31.676  31.398  1.00  0.00     0.131 C 
BRANCH   6   7
ATOM      7  C   UNL A   1      36.229  31.129  32.688  1.00  0.00     0.091 C 
BRANCH   7   8
ATOM      8  C   UNL A   1      37.389  31.923  33.188  1.00  0.00     0.152 A 
ATOM      9  C   UNL A   1      38.726  33.136  36.925  1.00  0.00     0.090 C 
ATOM     10  C   UNL A   1      39.362  33.419  35.599  1.00  0.00     0.131 A 
ATOM     11  N   UNL A   1      40.466  34.116  35.499  1.00  0.00    -0.222 NA
ATOM     12  N   UNL A   1      38.708  32.875  34.488  1.00  0.00    -0.199 N 
ATOM     13  C   UNL A   1      40.929  34.321  34.221  1.00  0.00     0.129 A 
ATOM     14  C   UNL A   1      39.149  33.072  33.208  1.00  0.00     0.168 A 
ATOM     15  N   UNL A   1      37.563  32.160  34.500  1.00  0.00    -0.150 NA
ATOM     16  S   UNL A   1      42.350  35.223  33.921  1.00  0.00    -0.120 S 
ATOM     17  C   UNL A   1      40.367  33.891  33.027  1.00  0.00     0.060 A 
ATOM     18  N   UNL A   1      38.339  32.485  32.364  1.00  0.00    -0.211 NA
ATOM     19  C   UNL A   1      42.171  35.067  32.232  1.00  0.00     0.011 A 
ATOM     20  C   UNL A   1      41.038  34.362  31.863  1.00  0.00    -0.018 A 
ATOM     21  C   UNL A   1      43.143  35.679  31.276  1.00  0.00     0.047 C 
ATOM     22  C   UNL A   1      40.646  34.181  30.416  1.00  0.00     0.018 C 
ATOM     23  C   UNL A   1      43.081  34.935  29.938  1.00  0.00     0.006 C 
ATOM     24  C   UNL A   1      39.268  34.791  30.153  1.00  0.00     0.013 C 
ATOM     25  C   UNL A   1      41.641  34.853  29.430  1.00  0.00     0.008 C 
ENDBRANCH   7   8
ENDBRANCH   6   7
ENDBRANCH   4   6
ENDBRANCH   3   4
ENDBRANCH   2   3
ENDBRANCH   1   2
BRANCH   1  26
ATOM     26  O   UNL A   1      34.668  33.223  27.955  1.00  0.00    -0.458 OA
BRANCH  26  27
ATOM     27  C   UNL A   1      34.685  31.902  27.684  1.00  0.00     0.338 C 
ATOM     28  O   UNL A   1      33.741  31.158  27.465  1.00  0.00    -0.246 OA
BRANCH  27  29
ATOM     29  C   UNL A   1      36.017  31.392  27.906  1.00  0.00     0.060 A 
ATOM     30  C   UNL A   1      36.258  30.021  27.820  1.00  0.00     0.016 A 
ATOM     31  C   UNL A   1      36.966  32.305  28.373  1.00  0.00     0.016 A 
ATOM     32  C   UNL A   1      37.498  29.552  28.211  1.00  0.00     0.010 A 
ATOM     33  C   UNL A   1      38.192  31.835  28.771  1.00  0.00     0.010 A 
ATOM     34  C   UNL A   1      38.446  30.461  28.697  1.00  0.00    -0.014 A 
BRANCH  34  35
ATOM     35  C   UNL A   1      39.783  29.980  28.998  1.00  0.00     0.031 A 
ATOM     36  C   UNL A   1      40.099  29.897  30.448  1.00  0.00     0.074 A 
ATOM     37  C   UNL A   1      40.560  29.401  28.064  1.00  0.00     0.049 A 
ATOM     38  N   UNL A   1      41.082  30.433  31.093  1.00  0.00    -0.248 NA
ATOM     39  C   UNL A   1      39.141  29.175  31.308  1.00  0.00     0.031 C 
ATOM     40  C   UNL A   1      40.166  29.060  26.693  1.00  0.00     0.029 A 
ATOM     41  N   UNL A   1      41.804  28.858  28.182  1.00  0.00    -0.354 N 
ATOM     42  C   UNL A   1      40.984  29.943  32.392  1.00  0.00     0.074 A 
ATOM     43  C   UNL A   1      39.697  29.310  32.510  1.00  0.00     0.031 C 
ATOM     44  C   UNL A   1      41.055  28.181  26.187  1.00  0.00     0.029 A 
ATOM     45  C   UNL A   1      42.141  28.008  27.139  1.00  0.00     0.049 A 
ATOM     46  H   UNL A   1      42.407  29.051  28.936  1.00  0.00     0.167 HD
ATOM     47  C   UNL A   1      42.067  29.846  33.208  1.00  0.00     0.037 A 
ATOM     48  C   UNL A   1      43.199  27.165  27.089  1.00  0.00     0.037 A 
ATOM     49  C   UNL A   1      43.199  30.573  32.713  1.00  0.00     0.049 A 
ATOM     50  C   UNL A   1      44.225  27.642  28.052  1.00  0.00     0.074 A 
ATOM     51  C   UNL A   1      43.671  31.865  32.767  1.00  0.00     0.029 A 
ATOM     52  N   UNL A   1      43.905  29.921  31.739  1.00  0.00    -0.354 N 
ATOM     53  N   UNL A   1      44.836  28.792  27.959  1.00  0.00    -0.248 NA
ATOM     54  C   UNL A   1      44.412  26.940  29.319  1.00  0.00     0.031 C 
ATOM     55  C   UNL A   1      44.599  32.005  31.692  1.00  0.00     0.029 A 
ATOM     56  C   UNL A   1      44.669  30.795  31.008  1.00  0.00     0.049 A 
ATOM     57  H   UNL A   1      43.869  28.949  31.583  1.00  0.00     0.167 HD
ATOM     58  C   UNL A   1      45.139  29.127  29.263  1.00  0.00     0.074 A 
ATOM     59  C   UNL A   1      45.023  27.895  30.024  1.00  0.00     0.031 C 
ATOM     60  C   UNL A   1      45.119  30.422  29.685  1.00  0.00     0.037 A 
BRANCH  47  61
ATOM     61  C   UNL A   1      42.232  28.749  34.224  1.00  0.00     0.058 A 
ATOM     62  C   UNL A   1      42.507  27.435  33.809  1.00  0.00     0.135 A 
ATOM     63  C   UNL A   1      41.851  28.906  35.577  1.00  0.00     0.135 A 
ATOM     64  F   UNL A   1      42.839  27.179  32.534  1.00  0.00    -0.206 F 
ATOM     65  C   UNL A   1      42.396  26.345  34.677  1.00  0.00     0.059 A 
ATOM     66  C   UNL A   1      41.787  27.845  36.471  1.00  0.00     0.059 A 
ATOM     67  F   UNL A   1      41.437  30.088  36.056  1.00  0.00    -0.206 F 
ATOM     68  C   UNL A   1      42.029  26.562  36.004  1.00  0.00     0.060 A 
BRANCH  68  69
ATOM     69  S   UNL A   1      41.819  25.154  37.110  1.00  0.00     0.124 S 
ATOM     70  O   UNL A   1      40.634  25.549  37.862  1.00  0.00    -0.237 OA
ATOM     71  O   UNL A   1      41.643  24.048  36.174  1.00  0.00    -0.237 OA
ATOM     72  O   UNL A   1      43.070  25.133  37.863  1.00  0.00    -0.744 OA
ENDBRANCH  68  69
ENDBRANCH  47  61
BRANCH  48  73
ATOM     73  C   UNL A   1      43.266  25.825  26.455  1.00  0.00     0.058 A 
ATOM     74  C   UNL A   1      44.131  25.594  25.373  1.00  0.00     0.135 A 
ATOM     75  C   UNL A   1      42.709  24.684  27.067  1.00  0.00     0.135 A 
ATOM     76  F   UNL A   1      44.711  26.624  24.739  1.00  0.00    -0.206 F 
ATOM     77  C   UNL A   1      44.489  24.306  24.972  1.00  0.00     0.059 A 
ATOM     78  C   UNL A   1      43.032  23.388  26.669  1.00  0.00     0.059 A 
ATOM     79  F   UNL A   1      41.908  24.785  28.138  1.00  0.00    -0.206 F 
ATOM     80  C   UNL A   1      43.956  23.209  25.647  1.00  0.00     0.060 A 
BRANCH  80  81
ATOM     81  S   UNL A   1      44.588  21.559  25.277  1.00  0.00     0.124 S 
ATOM     82  O   UNL A   1      44.543  21.538  23.820  1.00  0.00    -0.237 OA
ATOM     83  O   UNL A   1      45.919  21.605  25.876  1.00  0.00    -0.237 OA
ATOM     84  O   UNL A   1      43.636  20.674  25.945  1.00  0.00    -0.744 OA
ENDBRANCH  80  81
ENDBRANCH  48  73
BRANCH  60  85
ATOM     85  C   UNL A   1      45.379  31.494  28.673  1.00  0.00     0.058 A 
ATOM     86  C   UNL A   1      46.656  31.910  28.267  1.00  0.00     0.135 A 
ATOM     87  C   UNL A   1      44.276  32.090  28.043  1.00  0.00     0.135 A 
ATOM     88  F   UNL A   1      47.758  31.332  28.767  1.00  0.00    -0.206 F 
ATOM     89  C   UNL A   1      46.830  32.904  27.303  1.00  0.00     0.059 A 
ATOM     90  C   UNL A   1      44.424  33.063  27.060  1.00  0.00     0.059 A 
ATOM     91  F   UNL A   1      43.029  31.701  28.360  1.00  0.00    -0.206 F 
ATOM     92  C   UNL A   1      45.705  33.476  26.705  1.00  0.00     0.060 A 
BRANCH  92  93
ATOM     93  S   UNL A   1      45.932  34.713  25.408  1.00  0.00     0.124 S 
ATOM     94  O   UNL A   1      47.358  34.599  25.120  1.00  0.00    -0.237 OA
ATOM     95  O   UNL A   1      45.033  34.243  24.359  1.00  0.00    -0.237 OA
ATOM     96  O   UNL A   1      45.524  35.959  26.052  1.00  0.00    -0.744 OA
ENDBRANCH  92  93
ENDBRANCH  60  85
ENDBRANCH  34  35
ENDBRANCH  27  29
ENDBRANCH  26  27
ENDBRANCH   1  26
TORSDOF 16
ENDMDL
MODEL 2
REMARK VINA RESULT:     -10.7      4.491     11.606
REMARK SMILES Cc1nc2sc3c(c2c2nc(CCC(=O)OCCOC(=O)c4ccc(-c5c6nc(c(-c7c(F)cc(S(=O)(=O)[O-])cc7F)c7ccc([nH]7)c(-c7c(F)cc(S(=O)(=O)[O-])cc7F)c7nc(c(-c8c(F)cc(S(=O)(=O)[O-])cc8F)c8ccc5[nH]8)C=C7)C=C6)cc4)nn12)[C@@H](C)CCC3
REMARK SMILES IDX 18 1 17 2 16 3 14 4 15 5 13 6 12 7 11 8 1 9 2 10 3 11 89 12
REMARK SMILES IDX 4 13 9 14 88 15 5 16 8 17 10 18 6 19 7 20 94 21 90 22 93 23
REMARK SMILES IDX 91 24 92 25 19 26 20 27 21 28 22 29 23 30 87 31 24 32 86 33
REMARK SMILES IDX 25 34 26 35 27 36 80 37 28 38 85 39 79 40 81 41 29 42 84 43
REMARK SMILES IDX 78 44 77 45 30 47 64 48 43 49 63 50 44 51 47 52 62 53 82 54
REMARK SMILES IDX 45 55 46 56 61 58 83 59 48 60 31 61 32 62 41 63 33 64 34 65
REMARK SMILES IDX 40 66 42 67 35 68 36 69 37 70 38 71 39 72 65 73 66 74 75 75
REMARK SMILES IDX 67 76 68 77 74 78 76 79 69 80 70 81 71 82 72 83 73 84 49 85
REMARK SMILES IDX 50 86 59 87 51 88 52 89 58 90 60 91 53 92 54 93 55 94 56 95
REMARK SMILES IDX 57 96
REMARK H PARENT 81 46 47 57
REMARK Flexibility Score: inf
ROOT
ATOM      1  C   UNL A   1      42.338  19.839  26.050  1.00  0.00     0.275 C 
ENDROOT
BRANCH   1   2
ATOM      2  C   UNL A   1      41.000  20.056  26.748  1.00  0.00     0.274 C 
BRANCH   2   3
ATOM      3  O   UNL A   1      40.074  20.849  25.980  1.00  0.00    -0.462 OA
BRANCH   3   4
ATOM      4  C   UNL A   1      39.627  21.993  26.560  1.00  0.00     0.306 C 
ATOM      5  O   UNL A   1      40.141  22.533  27.534  1.00  0.00    -0.252 OA
BRANCH   4   6
ATOM      6  C   UNL A   1      38.351  22.484  25.928  1.00  0.00     0.131 C 
BRANCH   6   7
ATOM      7  C   UNL A   1      37.607  21.437  25.114  1.00  0.00     0.091 C 
BRANCH   7   8
ATOM      8  C   UNL A   1      36.124  21.529  25.246  1.00  0.00     0.152 A 
ATOM      9  C   UNL A   1      32.985  18.819  25.082  1.00  0.00     0.090 C 
ATOM     10  C   UNL A   1      32.896  20.295  25.317  1.00  0.00     0.131 A 
ATOM     11  N   UNL A   1      31.748  20.896  25.505  1.00  0.00    -0.222 NA
ATOM     12  N   UNL A   1      34.119  20.977  25.339  1.00  0.00    -0.199 N 
ATOM     13  C   UNL A   1      31.808  22.258  25.686  1.00  0.00     0.129 A 
ATOM     14  C   UNL A   1      34.200  22.332  25.512  1.00  0.00     0.168 A 
ATOM     15  N   UNL A   1      35.341  20.441  25.142  1.00  0.00    -0.150 NA
ATOM     16  S   UNL A   1      30.395  23.188  25.929  1.00  0.00    -0.120 S 
ATOM     17  C   UNL A   1      32.931  23.073  25.684  1.00  0.00     0.060 A 
ATOM     18  N   UNL A   1      35.451  22.712  25.458  1.00  0.00    -0.211 NA
ATOM     19  C   UNL A   1      31.284  24.643  25.980  1.00  0.00     0.011 A 
ATOM     20  C   UNL A   1      32.644  24.462  25.794  1.00  0.00    -0.018 A 
ATOM     21  C   UNL A   1      30.618  25.967  26.172  1.00  0.00     0.047 C 
ATOM     22  C   UNL A   1      33.601  25.628  25.719  1.00  0.00     0.018 C 
ATOM     23  C   UNL A   1      31.629  26.970  26.737  1.00  0.00     0.006 C 
ATOM     24  C   UNL A   1      34.321  25.646  24.369  1.00  0.00     0.013 C 
ATOM     25  C   UNL A   1      32.896  27.003  25.881  1.00  0.00     0.008 C 
ENDBRANCH   7   8
ENDBRANCH   6   7
ENDBRANCH   4   6
ENDBRANCH   3   4
ENDBRANCH   2   3
ENDBRANCH   1   2
BRANCH   1  26
ATOM     26  O   UNL A   1      43.332  20.779  26.442  1.00  0.00    -0.458 OA
BRANCH  26  27
ATOM     27  C   UNL A   1      43.438  21.818  25.590  1.00  0.00     0.338 C 
ATOM     28  O   UNL A   1      43.757  21.805  24.410  1.00  0.00    -0.246 OA
BRANCH  27  29
ATOM     29  C   UNL A   1      43.326  23.051  26.332  1.00  0.00     0.060 A 
ATOM     30  C   UNL A   1      43.666  23.079  27.684  1.00  0.00     0.016 A 
ATOM     31  C   UNL A   1      42.707  24.120  25.679  1.00  0.00     0.016 A 
ATOM     32  C   UNL A   1      43.380  24.224  28.403  1.00  0.00     0.010 A 
ATOM     33  C   UNL A   1      42.414  25.251  26.398  1.00  0.00     0.010 A 
ATOM     34  C   UNL A   1      42.743  25.291  27.757  1.00  0.00    -0.014 A 
BRANCH  34  35
ATOM     35  C   UNL A   1      42.548  26.532  28.487  1.00  0.00     0.031 A 
ATOM     36  C   UNL A   1      43.645  27.521  28.331  1.00  0.00     0.074 A 
ATOM     37  C   UNL A   1      41.360  26.862  29.027  1.00  0.00     0.049 A 
ATOM     38  N   UNL A   1      44.348  28.101  29.248  1.00  0.00    -0.248 NA
ATOM     39  C   UNL A   1      44.063  27.855  26.955  1.00  0.00     0.031 C 
ATOM     40  C   UNL A   1      40.099  26.130  28.870  1.00  0.00     0.029 A 
ATOM     41  N   UNL A   1      40.992  27.991  29.696  1.00  0.00    -0.354 N 
ATOM     42  C   UNL A   1      45.146  29.023  28.576  1.00  0.00     0.074 A 
ATOM     43  C   UNL A   1      45.051  28.722  27.172  1.00  0.00     0.031 C 
ATOM     44  C   UNL A   1      39.077  26.936  29.228  1.00  0.00     0.029 A 
ATOM     45  C   UNL A   1      39.618  28.175  29.763  1.00  0.00     0.049 A 
ATOM     46  H   UNL A   1      41.639  28.617  30.094  1.00  0.00     0.167 HD
ATOM     47  C   UNL A   1      45.620  30.142  29.184  1.00  0.00     0.037 A 
ATOM     48  C   UNL A   1      38.969  29.293  30.162  1.00  0.00     0.037 A 
ATOM     49  C   UNL A   1      45.480  30.098  30.610  1.00  0.00     0.049 A 
ATOM     50  C   UNL A   1      39.893  30.099  31.000  1.00  0.00     0.074 A 
ATOM     51  C   UNL A   1      46.191  29.600  31.679  1.00  0.00     0.029 A 
ATOM     52  N   UNL A   1      44.228  30.411  31.063  1.00  0.00    -0.354 N 
ATOM     53  N   UNL A   1      40.386  29.696  32.140  1.00  0.00    -0.248 NA
ATOM     54  C   UNL A   1      40.509  31.304  30.449  1.00  0.00     0.031 C 
ATOM     55  C   UNL A   1      45.272  29.500  32.767  1.00  0.00     0.029 A 
ATOM     56  C   UNL A   1      44.025  29.937  32.334  1.00  0.00     0.049 A 
ATOM     57  H   UNL A   1      43.558  30.913  30.543  1.00  0.00     0.167 HD
ATOM     58  C   UNL A   1      41.601  30.342  32.238  1.00  0.00     0.074 A 
ATOM     59  C   UNL A   1      41.544  31.435  31.282  1.00  0.00     0.031 C 
ATOM     60  C   UNL A   1      42.677  29.746  32.823  1.00  0.00     0.037 A 
BRANCH  47  61
ATOM     61  C   UNL A   1      45.811  31.448  28.462  1.00  0.00     0.058 A 
ATOM     62  C   UNL A   1      44.709  32.118  27.906  1.00  0.00     0.135 A 
ATOM     63  C   UNL A   1      47.086  31.914  28.065  1.00  0.00     0.135 A 
ATOM     64  F   UNL A   1      43.458  31.725  28.193  1.00  0.00    -0.206 F 
ATOM     65  C   UNL A   1      44.861  33.173  27.002  1.00  0.00     0.059 A 
ATOM     66  C   UNL A   1      47.262  32.995  27.210  1.00  0.00     0.059 A 
ATOM     67  F   UNL A   1      48.209  31.273  28.422  1.00  0.00    -0.206 F 
ATOM     68  C   UNL A   1      46.143  33.597  26.657  1.00  0.00     0.060 A 
BRANCH  68  69
ATOM     69  S   UNL A   1      46.348  34.912  25.440  1.00  0.00     0.124 S 
ATOM     70  O   UNL A   1      47.751  34.759  25.079  1.00  0.00    -0.237 OA
ATOM     71  O   UNL A   1      45.379  34.538  24.414  1.00  0.00    -0.237 OA
ATOM     72  O   UNL A   1      46.014  36.118  26.193  1.00  0.00    -0.744 OA
ENDBRANCH  68  69
ENDBRANCH  47  61
BRANCH  48  73
ATOM     73  C   UNL A   1      37.689  29.836  29.643  1.00  0.00     0.058 A 
ATOM     74  C   UNL A   1      36.712  30.320  30.529  1.00  0.00     0.135 A 
ATOM     75  C   UNL A   1      37.513  30.155  28.281  1.00  0.00     0.135 A 
ATOM     76  F   UNL A   1      36.808  30.069  31.843  1.00  0.00    -0.206 F 
ATOM     77  C   UNL A   1      35.667  31.141  30.103  1.00  0.00     0.059 A 
ATOM     78  C   UNL A   1      36.464  30.953  27.829  1.00  0.00     0.059 A 
ATOM     79  F   UNL A   1      38.409  29.786  27.355  1.00  0.00    -0.206 F 
ATOM     80  C   UNL A   1      35.569  31.476  28.754  1.00  0.00     0.060 A 
BRANCH  80  81
ATOM     81  S   UNL A   1      34.357  32.711  28.241  1.00  0.00     0.124 S 
ATOM     82  O   UNL A   1      35.174  33.629  27.456  1.00  0.00    -0.237 OA
ATOM     83  O   UNL A   1      33.402  31.903  27.490  1.00  0.00    -0.237 OA
ATOM     84  O   UNL A   1      33.860  33.244  29.507  1.00  0.00    -0.744 OA
ENDBRANCH  80  81
ENDBRANCH  48  73
BRANCH  60  85
ATOM     85  C   UNL A   1      42.420  28.707  33.870  1.00  0.00     0.058 A 
ATOM     86  C   UNL A   1      42.660  27.335  33.702  1.00  0.00     0.135 A 
ATOM     87  C   UNL A   1      41.962  29.133  35.125  1.00  0.00     0.135 A 
ATOM     88  F   UNL A   1      43.172  26.862  32.557  1.00  0.00    -0.206 F 
ATOM     89  C   UNL A   1      42.417  26.419  34.726  1.00  0.00     0.059 A 
ATOM     90  C   UNL A   1      41.738  28.242  36.171  1.00  0.00     0.059 A 
ATOM     91  F   UNL A   1      41.756  30.441  35.358  1.00  0.00    -0.206 F 
ATOM     92  C   UNL A   1      41.955  26.884  35.959  1.00  0.00     0.060 A 
BRANCH  92  93
ATOM     93  S   UNL A   1      41.706  25.706  37.306  1.00  0.00     0.124 S 
ATOM     94  O   UNL A   1      41.902  24.425  36.635  1.00  0.00    -0.237 OA
ATOM     95  O   UNL A   1      42.744  26.088  38.259  1.00  0.00    -0.237 OA
ATOM     96  O   UNL A   1      40.340  25.976  37.747  1.00  0.00    -0.744 OA
ENDBRANCH  92  93
ENDBRANCH  60  85
ENDBRANCH  34  35
ENDBRANCH  27  29
ENDBRANCH  26  27
ENDBRANCH   1  26
TORSDOF 16
ENDMDL
MODEL 3
REMARK VINA RESULT:     -10.2      4.177     11.070
REMARK SMILES Cc1nc2sc3c(c2c2nc(CCC(=O)OCCOC(=O)c4ccc(-c5c6nc(c(-c7c(F)cc(S(=O)(=O)[O-])cc7F)c7ccc([nH]7)c(-c7c(F)cc(S(=O)(=O)[O-])cc7F)c7nc(c(-c8c(F)cc(S(=O)(=O)[O-])cc8F)c8ccc5[nH]8)C=C7)C=C6)cc4)nn12)[C@@H](C)CCC3
REMARK SMILES IDX 18 1 17 2 16 3 14 4 15 5 13 6 12 7 11 8 1 9 2 10 3 11 89 12
REMARK SMILES IDX 4 13 9 14 88 15 5 16 8 17 10 18 6 19 7 20 94 21 90 22 93 23
REMARK SMILES IDX 91 24 92 25 19 26 20 27 21 28 22 29 23 30 87 31 24 32 86 33
REMARK SMILES IDX 25 34 26 35 27 36 80 37 28 38 85 39 79 40 81 41 29 42 84 43
REMARK SMILES IDX 78 44 77 45 30 47 64 48 43 49 63 50 44 51 47 52 62 53 82 54
REMARK SMILES IDX 45 55 46 56 61 58 83 59 48 60 31 61 32 62 41 63 33 64 34 65
REMARK SMILES IDX 40 66 42 67 35 68 36 69 37 70 38 71 39 72 65 73 66 74 75 75
REMARK SMILES IDX 67 76 68 77 74 78 76 79 69 80 70 81 71 82 72 83 73 84 49 85
REMARK SMILES IDX 50 86 59 87 51 88 52 89 58 90 60 91 53 92 54 93 55 94 56 95
REMARK SMILES IDX 57 96
REMARK H PARENT 81 46 47 57
REMARK Flexibility Score: inf
ROOT
ATOM      1  C   UNL A   1      42.198  20.056  26.495  1.00  0.00     0.275 C 
ENDROOT
BRANCH   1   2
ATOM      2  C   UNL A   1      40.759  20.347  26.905  1.00  0.00     0.274 C 
BRANCH   2   3
ATOM      3  O   UNL A   1      40.014  21.071  25.906  1.00  0.00    -0.462 OA
BRANCH   3   4
ATOM      4  C   UNL A   1      39.281  22.128  26.344  1.00  0.00     0.306 C 
ATOM      5  O   UNL A   1      39.649  22.935  27.190  1.00  0.00    -0.252 OA
BRANCH   4   6
ATOM      6  C   UNL A   1      37.902  22.148  25.736  1.00  0.00     0.131 C 
BRANCH   6   7
ATOM      7  C   UNL A   1      37.441  23.518  25.262  1.00  0.00     0.091 C 
BRANCH   7   8
ATOM      8  C   UNL A   1      36.012  23.803  25.579  1.00  0.00     0.152 A 
ATOM      9  C   UNL A   1      33.159  22.106  28.069  1.00  0.00     0.090 C 
ATOM     10  C   UNL A   1      32.987  23.290  27.169  1.00  0.00     0.131 A 
ATOM     11  N   UNL A   1      31.849  23.933  27.086  1.00  0.00    -0.222 NA
ATOM     12  N   UNL A   1      34.123  23.666  26.443  1.00  0.00    -0.199 N 
ATOM     13  C   UNL A   1      31.822  24.987  26.203  1.00  0.00     0.129 A 
ATOM     14  C   UNL A   1      34.115  24.707  25.556  1.00  0.00     0.168 A 
ATOM     15  N   UNL A   1      35.325  23.053  26.458  1.00  0.00    -0.150 NA
ATOM     16  S   UNL A   1      30.408  25.918  25.970  1.00  0.00    -0.120 S 
ATOM     17  C   UNL A   1      32.844  25.445  25.384  1.00  0.00     0.060 A 
ATOM     18  N   UNL A   1      35.291  24.820  24.994  1.00  0.00    -0.211 NA
ATOM     19  C   UNL A   1      31.154  26.871  24.769  1.00  0.00     0.011 A 
ATOM     20  C   UNL A   1      32.461  26.496  24.504  1.00  0.00    -0.018 A 
ATOM     21  C   UNL A   1      30.424  27.969  24.066  1.00  0.00     0.047 C 
ATOM     22  C   UNL A   1      33.276  27.154  23.417  1.00  0.00     0.018 C 
ATOM     23  C   UNL A   1      31.433  28.977  23.506  1.00  0.00     0.006 C 
ATOM     24  C   UNL A   1      33.709  26.123  22.373  1.00  0.00     0.013 C 
ATOM     25  C   UNL A   1      32.497  28.269  22.665  1.00  0.00     0.008 C 
ENDBRANCH   7   8
ENDBRANCH   6   7
ENDBRANCH   4   6
ENDBRANCH   3   4
ENDBRANCH   2   3
ENDBRANCH   1   2
BRANCH   1  26
ATOM     26  O   UNL A   1      42.682  20.937  25.487  1.00  0.00    -0.458 OA
BRANCH  26  27
ATOM     27  C   UNL A   1      43.810  21.579  25.849  1.00  0.00     0.338 C 
ATOM     28  O   UNL A   1      44.962  21.172  25.816  1.00  0.00    -0.246 OA
BRANCH  27  29
ATOM     29  C   UNL A   1      43.459  22.807  26.522  1.00  0.00     0.060 A 
ATOM     30  C   UNL A   1      42.788  23.812  25.826  1.00  0.00     0.016 A 
ATOM     31  C   UNL A   1      43.977  22.985  27.808  1.00  0.00     0.016 A 
ATOM     32  C   UNL A   1      42.626  25.037  26.446  1.00  0.00     0.010 A 
ATOM     33  C   UNL A   1      43.825  24.206  28.416  1.00  0.00     0.010 A 
ATOM     34  C   UNL A   1      43.160  25.225  27.727  1.00  0.00    -0.014 A 
BRANCH  34  35
ATOM     35  C   UNL A   1      42.889  26.475  28.417  1.00  0.00     0.031 A 
ATOM     36  C   UNL A   1      43.956  27.500  28.284  1.00  0.00     0.074 A 
ATOM     37  C   UNL A   1      41.668  26.774  28.898  1.00  0.00     0.049 A 
ATOM     38  N   UNL A   1      44.598  28.126  29.215  1.00  0.00    -0.248 NA
ATOM     39  C   UNL A   1      44.421  27.816  26.919  1.00  0.00     0.031 C 
ATOM     40  C   UNL A   1      40.441  25.992  28.706  1.00  0.00     0.029 A 
ATOM     41  N   UNL A   1      41.231  27.903  29.523  1.00  0.00    -0.354 N 
ATOM     42  C   UNL A   1      45.390  29.061  28.555  1.00  0.00     0.074 A 
ATOM     43  C   UNL A   1      45.366  28.724  27.156  1.00  0.00     0.031 C 
ATOM     44  C   UNL A   1      39.378  26.767  29.000  1.00  0.00     0.029 A 
ATOM     45  C   UNL A   1      39.850  28.038  29.527  1.00  0.00     0.049 A 
ATOM     46  H   UNL A   1      41.838  28.561  29.933  1.00  0.00     0.167 HD
ATOM     47  C   UNL A   1      45.797  30.210  29.155  1.00  0.00     0.037 A 
ATOM     48  C   UNL A   1      39.145  29.140  29.870  1.00  0.00     0.037 A 
ATOM     49  C   UNL A   1      45.597  30.195  30.574  1.00  0.00     0.049 A 
ATOM     50  C   UNL A   1      40.002  29.999  30.727  1.00  0.00     0.074 A 
ATOM     51  C   UNL A   1      46.279  29.748  31.684  1.00  0.00     0.029 A 
ATOM     52  N   UNL A   1      44.317  30.472  30.966  1.00  0.00    -0.354 N 
ATOM     53  N   UNL A   1      40.460  29.640  31.896  1.00  0.00    -0.248 NA
ATOM     54  C   UNL A   1      40.598  31.212  30.173  1.00  0.00     0.031 C 
ATOM     55  C   UNL A   1      45.318  29.639  32.734  1.00  0.00     0.029 A 
ATOM     56  C   UNL A   1      44.076  30.020  32.238  1.00  0.00     0.049 A 
ATOM     57  H   UNL A   1      43.652  30.936  30.405  1.00  0.00     0.167 HD
ATOM     58  C   UNL A   1      41.645  30.333  32.030  1.00  0.00     0.074 A 
ATOM     59  C   UNL A   1      41.591  31.401  31.045  1.00  0.00     0.031 C 
ATOM     60  C   UNL A   1      42.715  29.791  32.674  1.00  0.00     0.037 A 
BRANCH  47  61
ATOM     61  C   UNL A   1      45.973  31.506  28.409  1.00  0.00     0.058 A 
ATOM     62  C   UNL A   1      44.911  32.042  27.661  1.00  0.00     0.135 A 
ATOM     63  C   UNL A   1      47.244  32.086  28.189  1.00  0.00     0.135 A 
ATOM     64  F   UNL A   1      43.674  31.532  27.773  1.00  0.00    -0.206 F 
ATOM     65  C   UNL A   1      45.101  33.077  26.742  1.00  0.00     0.059 A 
ATOM     66  C   UNL A   1      47.446  33.152  27.321  1.00  0.00     0.059 A 
ATOM     67  F   UNL A   1      48.353  31.575  28.742  1.00  0.00    -0.206 F 
ATOM     68  C   UNL A   1      46.374  33.619  26.576  1.00  0.00     0.060 A 
BRANCH  68  69
ATOM     69  S   UNL A   1      46.639  34.908  25.344  1.00  0.00     0.124 S 
ATOM     70  O   UNL A   1      45.595  34.603  24.373  1.00  0.00    -0.237 OA
ATOM     71  O   UNL A   1      46.450  36.127  26.125  1.00  0.00    -0.237 OA
ATOM     72  O   UNL A   1      48.009  34.668  24.899  1.00  0.00    -0.744 OA
ENDBRANCH  68  69
ENDBRANCH  47  61
BRANCH  48  73
ATOM     73  C   UNL A   1      37.870  29.623  29.284  1.00  0.00     0.058 A 
ATOM     74  C   UNL A   1      37.752  29.813  27.897  1.00  0.00     0.135 A 
ATOM     75  C   UNL A   1      36.668  29.634  30.022  1.00  0.00     0.135 A 
ATOM     76  F   UNL A   1      38.846  29.809  27.120  1.00  0.00    -0.206 F 
ATOM     77  C   UNL A   1      36.513  29.924  27.266  1.00  0.00     0.059 A 
ATOM     78  C   UNL A   1      35.420  29.767  29.417  1.00  0.00     0.059 A 
ATOM     79  F   UNL A   1      36.658  29.414  31.345  1.00  0.00    -0.206 F 
ATOM     80  C   UNL A   1      35.350  29.870  28.034  1.00  0.00     0.060 A 
BRANCH  80  81
ATOM     81  S   UNL A   1      33.751  29.789  27.200  1.00  0.00     0.124 S 
ATOM     82  O   UNL A   1      33.156  28.603  27.803  1.00  0.00    -0.237 OA
ATOM     83  O   UNL A   1      33.151  31.066  27.573  1.00  0.00    -0.237 OA
ATOM     84  O   UNL A   1      34.111  29.661  25.789  1.00  0.00    -0.744 OA
ENDBRANCH  80  81
ENDBRANCH  48  73
BRANCH  60  85
ATOM     85  C   UNL A   1      42.451  28.768  33.734  1.00  0.00     0.058 A 
ATOM     86  C   UNL A   1      41.998  29.064  35.029  1.00  0.00     0.135 A 
ATOM     87  C   UNL A   1      42.612  27.414  33.402  1.00  0.00     0.135 A 
ATOM     88  F   UNL A   1      41.746  30.329  35.395  1.00  0.00    -0.206 F 
ATOM     89  C   UNL A   1      41.753  28.060  35.966  1.00  0.00     0.059 A 
ATOM     90  C   UNL A   1      42.348  26.394  34.310  1.00  0.00     0.059 A 
ATOM     91  F   UNL A   1      43.002  27.068  32.163  1.00  0.00    -0.206 F 
ATOM     92  C   UNL A   1      41.931  26.725  35.596  1.00  0.00     0.060 A 
BRANCH  92  93
ATOM     93  S   UNL A   1      41.547  25.424  36.788  1.00  0.00     0.124 S 
ATOM     94  O   UNL A   1      42.804  25.296  37.519  1.00  0.00    -0.237 OA
ATOM     95  O   UNL A   1      40.434  25.997  37.538  1.00  0.00    -0.237 OA
ATOM     96  O   UNL A   1      41.197  24.283  35.946  1.00  0.00    -0.744 OA
ENDBRANCH  92  93
ENDBRANCH  60  85
ENDBRANCH  34  35
ENDBRANCH  27  29
ENDBRANCH  26  27
ENDBRANCH   1  26
TORSDOF 16
ENDMDL
