MODEL 1
REMARK VINA RESULT:     -11.4      0.000      0.000
REMARK SMILES O=C(OCCOC(=O)c1nccnc1C(=O)Nc1ccc2c(c1)OCO2)c1ccc(-c2c3nc(c(-c4c(F)cc(S(=O)(=O)[O-])cc4F)c4ccc([nH]4)c(-c4c(F)cc(S(=O)(=O)[O-])cc4F)c4nc(c(-c5c(F)cc(S(=O)(=O)[O-])cc5F)c5ccc2[nH]5)C=C4)C=C3)cc1
REMARK SMILES IDX 4 1 3 2 2 3 1 4 27 5 28 6 92 7 29 8 91 9 30 10 31 11 32 12
REMARK SMILES IDX 85 13 33 14 90 15 84 16 86 17 34 18 89 19 83 20 82 21 35 23
REMARK SMILES IDX 69 24 48 25 68 26 49 27 52 28 67 29 87 30 50 31 51 32 66 34
REMARK SMILES IDX 88 35 53 36 36 37 37 38 46 39 38 40 39 41 45 42 47 43 40 44
REMARK SMILES IDX 41 45 42 46 43 47 44 48 70 49 71 50 80 51 72 52 73 53 79 54
REMARK SMILES IDX 81 55 74 56 75 57 76 58 77 59 78 60 54 61 55 62 64 63 56 64
REMARK SMILES IDX 57 65 63 66 65 67 58 68 59 69 60 70 61 71 62 72 5 73 6 74
REMARK SMILES IDX 7 75 8 76 9 77 10 78 14 79 11 80 13 81 12 82 15 83 16 84
REMARK SMILES IDX 17 85 18 87 19 88 23 89 20 90 22 91 21 92 24 93 26 94 25 95
REMARK H PARENT 86 22 52 33 17 86
REMARK Flexibility Score: inf
ROOT
ATOM      1  C   UNL A   1      40.838  22.424  28.015  1.00  0.00     0.275 C 
ENDROOT
BRANCH   1   2
ATOM      2  O   UNL A   1      40.215  23.679  27.619  1.00  0.00    -0.458 OA
BRANCH   2   3
ATOM      3  C   UNL A   1      40.820  24.769  27.071  1.00  0.00     0.338 C 
ATOM      4  O   UNL A   1      41.392  24.730  25.991  1.00  0.00    -0.246 OA
BRANCH   3   5
ATOM      5  C   UNL A   1      40.901  25.963  27.927  1.00  0.00     0.060 A 
ATOM      6  C   UNL A   1      39.859  26.261  28.798  1.00  0.00     0.016 A 
ATOM      7  C   UNL A   1      42.100  26.688  27.964  1.00  0.00     0.016 A 
ATOM      8  C   UNL A   1      40.100  27.122  29.855  1.00  0.00     0.010 A 
ATOM      9  C   UNL A   1      42.326  27.595  28.999  1.00  0.00     0.010 A 
ATOM     10  C   UNL A   1      41.339  27.770  29.977  1.00  0.00    -0.014 A 
BRANCH  10  11
ATOM     11  C   UNL A   1      41.427  28.805  31.022  1.00  0.00     0.031 A 
ATOM     12  C   UNL A   1      40.495  29.957  30.852  1.00  0.00     0.074 A 
ATOM     13  C   UNL A   1      42.115  28.618  32.163  1.00  0.00     0.049 A 
ATOM     14  N   UNL A   1      40.031  30.764  31.760  1.00  0.00    -0.248 NA
ATOM     15  C   UNL A   1      39.912  30.136  29.510  1.00  0.00     0.031 C 
ATOM     16  C   UNL A   1      42.952  27.465  32.467  1.00  0.00     0.029 A 
ATOM     17  N   UNL A   1      42.194  29.384  33.296  1.00  0.00    -0.354 N 
ATOM     18  C   UNL A   1      38.997  31.440  31.138  1.00  0.00     0.074 A 
ATOM     19  C   UNL A   1      38.954  31.014  29.757  1.00  0.00     0.031 C 
ATOM     20  C   UNL A   1      43.526  27.628  33.672  1.00  0.00     0.029 A 
ATOM     21  C   UNL A   1      43.038  28.870  34.255  1.00  0.00     0.049 A 
ATOM     22  H   UNL A   1      41.694  30.224  33.414  1.00  0.00     0.167 HD
ATOM     23  C   UNL A   1      38.132  32.309  31.697  1.00  0.00     0.037 A 
ATOM     24  C   UNL A   1      43.350  29.347  35.476  1.00  0.00     0.037 A 
ATOM     25  C   UNL A   1      38.297  32.829  33.021  1.00  0.00     0.049 A 
ATOM     26  C   UNL A   1      42.561  30.529  35.978  1.00  0.00     0.074 A 
ATOM     27  C   UNL A   1      37.602  33.845  33.644  1.00  0.00     0.029 A 
ATOM     28  N   UNL A   1      39.277  32.400  33.909  1.00  0.00    -0.354 N 
ATOM     29  N   UNL A   1      41.556  31.148  35.401  1.00  0.00    -0.248 NA
ATOM     30  C   UNL A   1      42.910  31.054  37.303  1.00  0.00     0.031 C 
ATOM     31  C   UNL A   1      38.200  34.070  34.890  1.00  0.00     0.029 A 
ATOM     32  C   UNL A   1      39.233  33.158  35.063  1.00  0.00     0.049 A 
ATOM     33  H   UNL A   1      39.908  31.662  33.742  1.00  0.00     0.167 HD
ATOM     34  C   UNL A   1      41.125  32.107  36.307  1.00  0.00     0.074 A 
ATOM     35  C   UNL A   1      41.978  31.983  37.473  1.00  0.00     0.031 C 
ATOM     36  C   UNL A   1      40.110  33.001  36.197  1.00  0.00     0.037 A 
BRANCH  23  37
ATOM     37  C   UNL A   1      36.997  32.756  30.834  1.00  0.00     0.058 A 
ATOM     38  C   UNL A   1      37.153  33.828  29.940  1.00  0.00     0.135 A 
ATOM     39  C   UNL A   1      35.728  32.177  30.961  1.00  0.00     0.135 A 
ATOM     40  F   UNL A   1      38.338  34.446  29.821  1.00  0.00    -0.206 F 
ATOM     41  C   UNL A   1      36.079  34.319  29.206  1.00  0.00     0.059 A 
ATOM     42  C   UNL A   1      34.643  32.646  30.229  1.00  0.00     0.059 A 
ATOM     43  F   UNL A   1      35.527  31.178  31.834  1.00  0.00    -0.206 F 
ATOM     44  C   UNL A   1      34.826  33.724  29.363  1.00  0.00     0.060 A 
BRANCH  44  45
ATOM     45  S   UNL A   1      33.433  34.389  28.428  1.00  0.00     0.124 S 
ATOM     46  O   UNL A   1      33.004  33.217  27.672  1.00  0.00    -0.237 OA
ATOM     47  O   UNL A   1      32.529  34.828  29.485  1.00  0.00    -0.237 OA
ATOM     48  O   UNL A   1      34.036  35.459  27.638  1.00  0.00    -0.744 OA
ENDBRANCH  44  45
ENDBRANCH  23  37
BRANCH  24  49
ATOM     49  C   UNL A   1      44.439  28.736  36.290  1.00  0.00     0.058 A 
ATOM     50  C   UNL A   1      44.209  27.676  37.178  1.00  0.00     0.135 A 
ATOM     51  C   UNL A   1      45.739  29.269  36.241  1.00  0.00     0.135 A 
ATOM     52  F   UNL A   1      42.988  27.129  37.268  1.00  0.00    -0.206 F 
ATOM     53  C   UNL A   1      45.211  27.197  38.022  1.00  0.00     0.059 A 
ATOM     54  C   UNL A   1      46.761  28.794  37.059  1.00  0.00     0.059 A 
ATOM     55  F   UNL A   1      46.022  30.278  35.402  1.00  0.00    -0.206 F 
ATOM     56  C   UNL A   1      46.482  27.773  37.965  1.00  0.00     0.060 A 
BRANCH  56  57
ATOM     57  S   UNL A   1      47.765  27.180  39.091  1.00  0.00     0.124 S 
ATOM     58  O   UNL A   1      47.410  25.772  39.224  1.00  0.00    -0.237 OA
ATOM     59  O   UNL A   1      48.988  27.463  38.344  1.00  0.00    -0.237 OA
ATOM     60  O   UNL A   1      47.566  27.995  40.286  1.00  0.00    -0.744 OA
ENDBRANCH  56  57
ENDBRANCH  24  49
BRANCH  36  61
ATOM     61  C   UNL A   1      39.871  33.900  37.372  1.00  0.00     0.058 A 
ATOM     62  C   UNL A   1      38.972  33.547  38.389  1.00  0.00     0.135 A 
ATOM     63  C   UNL A   1      40.593  35.095  37.507  1.00  0.00     0.135 A 
ATOM     64  F   UNL A   1      38.256  32.415  38.298  1.00  0.00    -0.206 F 
ATOM     65  C   UNL A   1      38.779  34.365  39.495  1.00  0.00     0.059 A 
ATOM     66  C   UNL A   1      40.437  35.914  38.619  1.00  0.00     0.059 A 
ATOM     67  F   UNL A   1      41.474  35.464  36.564  1.00  0.00    -0.206 F 
ATOM     68  C   UNL A   1      39.518  35.546  39.601  1.00  0.00     0.060 A 
BRANCH  68  69
ATOM     69  S   UNL A   1      39.291  36.581  41.061  1.00  0.00     0.124 S 
ATOM     70  O   UNL A   1      38.468  35.720  41.903  1.00  0.00    -0.237 OA
ATOM     71  O   UNL A   1      40.662  36.792  41.514  1.00  0.00    -0.237 OA
ATOM     72  O   UNL A   1      38.624  37.767  40.531  1.00  0.00    -0.744 OA
ENDBRANCH  68  69
ENDBRANCH  36  61
ENDBRANCH  10  11
ENDBRANCH   3   5
ENDBRANCH   2   3
ENDBRANCH   1   2
BRANCH   1  73
ATOM     73  C   UNL A   1      40.868  21.269  26.990  1.00  0.00     0.275 C 
BRANCH  73  74
ATOM     74  O   UNL A   1      42.199  20.753  26.811  1.00  0.00    -0.457 OA
BRANCH  74  75
ATOM     75  C   UNL A   1      42.352  19.725  25.932  1.00  0.00     0.359 C 
ATOM     76  O   UNL A   1      41.527  18.889  25.665  1.00  0.00    -0.244 OA
BRANCH  75  77
ATOM     77  C   UNL A   1      43.755  19.726  25.454  1.00  0.00     0.179 A 
ATOM     78  N   UNL A   1      44.323  18.483  25.589  1.00  0.00    -0.245 NA
ATOM     79  C   UNL A   1      44.504  20.842  25.108  1.00  0.00     0.161 A 
ATOM     80  C   UNL A   1      45.664  18.404  25.502  1.00  0.00     0.132 A 
ATOM     81  N   UNL A   1      45.875  20.729  24.993  1.00  0.00    -0.247 NA
ATOM     82  C   UNL A   1      46.427  19.515  25.230  1.00  0.00     0.132 A 
BRANCH  79  83
ATOM     83  C   UNL A   1      44.060  22.273  24.923  1.00  0.00     0.276 C 
ATOM     84  O   UNL A   1      43.520  22.572  23.855  1.00  0.00    -0.267 OA
ATOM     85  N   UNL A   1      43.851  23.114  26.011  1.00  0.00    -0.320 N 
ATOM     86  H   UNL A   1      42.911  23.339  26.196  1.00  0.00     0.170 HD
BRANCH  85  87
ATOM     87  C   UNL A   1      44.793  23.685  26.883  1.00  0.00     0.045 A 
ATOM     88  C   UNL A   1      44.431  24.021  28.182  1.00  0.00     0.030 A 
ATOM     89  C   UNL A   1      46.133  23.807  26.525  1.00  0.00     0.076 A 
ATOM     90  C   UNL A   1      45.266  24.703  29.061  1.00  0.00     0.053 A 
ATOM     91  C   UNL A   1      46.988  24.411  27.435  1.00  0.00     0.167 A 
ATOM     92  C   UNL A   1      46.551  24.890  28.649  1.00  0.00     0.165 A 
ATOM     93  O   UNL A   1      48.328  24.603  27.280  1.00  0.00    -0.454 OA
ATOM     94  O   UNL A   1      47.527  25.474  29.385  1.00  0.00    -0.454 OA
ATOM     95  C   UNL A   1      48.661  25.243  28.534  1.00  0.00     0.468 C 
ENDBRANCH  85  87
ENDBRANCH  79  83
ENDBRANCH  75  77
ENDBRANCH  74  75
ENDBRANCH  73  74
ENDBRANCH   1  73
TORSDOF 16
ENDMDL
MODEL 2
REMARK VINA RESULT:     -11.2      5.916     14.162
REMARK SMILES O=C(OCCOC(=O)c1nccnc1C(=O)Nc1ccc2c(c1)OCO2)c1ccc(-c2c3nc(c(-c4c(F)cc(S(=O)(=O)[O-])cc4F)c4ccc([nH]4)c(-c4c(F)cc(S(=O)(=O)[O-])cc4F)c4nc(c(-c5c(F)cc(S(=O)(=O)[O-])cc5F)c5ccc2[nH]5)C=C4)C=C3)cc1
REMARK SMILES IDX 4 1 3 2 2 3 1 4 27 5 28 6 92 7 29 8 91 9 30 10 31 11 32 12
REMARK SMILES IDX 85 13 33 14 90 15 84 16 86 17 34 18 89 19 83 20 82 21 35 23
REMARK SMILES IDX 69 24 48 25 68 26 49 27 52 28 67 29 87 30 50 31 51 32 66 34
REMARK SMILES IDX 88 35 53 36 36 37 37 38 46 39 38 40 39 41 45 42 47 43 40 44
REMARK SMILES IDX 41 45 42 46 43 47 44 48 70 49 71 50 80 51 72 52 73 53 79 54
REMARK SMILES IDX 81 55 74 56 75 57 76 58 77 59 78 60 54 61 55 62 64 63 56 64
REMARK SMILES IDX 57 65 63 66 65 67 58 68 59 69 60 70 61 71 62 72 5 73 6 74
REMARK SMILES IDX 7 75 8 76 9 77 10 78 14 79 11 80 13 81 12 82 15 83 16 84
REMARK SMILES IDX 17 85 18 87 19 88 23 89 20 90 22 91 21 92 24 93 26 94 25 95
REMARK H PARENT 86 22 52 33 17 86
REMARK Flexibility Score: inf
ROOT
ATOM      1  C   UNL A   1      36.356  32.783  28.441  1.00  0.00     0.275 C 
ENDROOT
BRANCH   1   2
ATOM      2  O   UNL A   1      36.084  31.396  28.788  1.00  0.00    -0.458 OA
BRANCH   2   3
ATOM      3  C   UNL A   1      36.800  30.591  29.621  1.00  0.00     0.338 C 
ATOM      4  O   UNL A   1      36.324  30.108  30.638  1.00  0.00    -0.246 OA
BRANCH   3   5
ATOM      5  C   UNL A   1      38.237  30.470  29.327  1.00  0.00     0.060 A 
ATOM      6  C   UNL A   1      39.171  30.806  30.301  1.00  0.00     0.016 A 
ATOM      7  C   UNL A   1      38.634  29.864  28.127  1.00  0.00     0.016 A 
ATOM      8  C   UNL A   1      40.465  30.328  30.177  1.00  0.00     0.010 A 
ATOM      9  C   UNL A   1      39.950  29.427  27.978  1.00  0.00     0.010 A 
ATOM     10  C   UNL A   1      40.852  29.614  29.031  1.00  0.00    -0.014 A 
BRANCH  10  11
ATOM     11  C   UNL A   1      42.290  29.318  28.911  1.00  0.00     0.031 A 
ATOM     12  C   UNL A   1      42.627  27.877  28.721  1.00  0.00     0.074 A 
ATOM     13  C   UNL A   1      43.212  30.284  28.744  1.00  0.00     0.049 A 
ATOM     14  N   UNL A   1      43.687  27.358  28.175  1.00  0.00    -0.248 NA
ATOM     15  C   UNL A   1      41.574  26.907  29.074  1.00  0.00     0.031 C 
ATOM     16  C   UNL A   1      42.953  31.717  28.789  1.00  0.00     0.029 A 
ATOM     17  N   UNL A   1      44.552  30.205  28.471  1.00  0.00    -0.354 N 
ATOM     18  C   UNL A   1      43.368  26.027  27.979  1.00  0.00     0.074 A 
ATOM     19  C   UNL A   1      42.054  25.797  28.538  1.00  0.00     0.031 C 
ATOM     20  C   UNL A   1      44.106  32.391  28.630  1.00  0.00     0.029 A 
ATOM     21  C   UNL A   1      45.177  31.430  28.401  1.00  0.00     0.049 A 
ATOM     22  H   UNL A   1      45.025  29.352  28.338  1.00  0.00     0.167 HD
ATOM     23  C   UNL A   1      44.101  25.093  27.340  1.00  0.00     0.037 A 
ATOM     24  C   UNL A   1      46.466  31.729  28.151  1.00  0.00     0.037 A 
ATOM     25  C   UNL A   1      45.459  25.311  26.939  1.00  0.00     0.049 A 
ATOM     26  C   UNL A   1      47.365  30.599  27.716  1.00  0.00     0.074 A 
ATOM     27  C   UNL A   1      46.371  24.399  26.449  1.00  0.00     0.029 A 
ATOM     28  N   UNL A   1      46.114  26.532  27.041  1.00  0.00    -0.354 N 
ATOM     29  N   UNL A   1      47.053  29.342  27.496  1.00  0.00    -0.248 NA
ATOM     30  C   UNL A   1      48.772  30.924  27.455  1.00  0.00     0.031 C 
ATOM     31  C   UNL A   1      47.599  25.058  26.309  1.00  0.00     0.029 A 
ATOM     32  C   UNL A   1      47.435  26.392  26.661  1.00  0.00     0.049 A 
ATOM     33  H   UNL A   1      45.699  27.374  27.338  1.00  0.00     0.167 HD
ATOM     34  C   UNL A   1      48.211  28.735  27.031  1.00  0.00     0.074 A 
ATOM     35  C   UNL A   1      49.231  29.766  26.999  1.00  0.00     0.031 C 
ATOM     36  C   UNL A   1      48.416  27.448  26.652  1.00  0.00     0.037 A 
BRANCH  23  37
ATOM     37  C   UNL A   1      43.436  23.775  27.115  1.00  0.00     0.058 A 
ATOM     38  C   UNL A   1      43.346  22.828  28.148  1.00  0.00     0.135 A 
ATOM     39  C   UNL A   1      42.969  23.416  25.844  1.00  0.00     0.135 A 
ATOM     40  F   UNL A   1      43.826  23.110  29.370  1.00  0.00    -0.206 F 
ATOM     41  C   UNL A   1      42.821  21.561  27.924  1.00  0.00     0.059 A 
ATOM     42  C   UNL A   1      42.432  22.157  25.600  1.00  0.00     0.059 A 
ATOM     43  F   UNL A   1      43.075  24.275  24.819  1.00  0.00    -0.206 F 
ATOM     44  C   UNL A   1      42.373  21.232  26.644  1.00  0.00     0.060 A 
BRANCH  44  45
ATOM     45  S   UNL A   1      41.721  19.574  26.358  1.00  0.00     0.124 S 
ATOM     46  O   UNL A   1      40.291  19.838  26.245  1.00  0.00    -0.237 OA
ATOM     47  O   UNL A   1      42.394  19.184  25.123  1.00  0.00    -0.237 OA
ATOM     48  O   UNL A   1      42.131  18.839  27.551  1.00  0.00    -0.744 OA
ENDBRANCH  44  45
ENDBRANCH  23  37
BRANCH  24  49
ATOM     49  C   UNL A   1      46.984  33.117  28.309  1.00  0.00     0.058 A 
ATOM     50  C   UNL A   1      47.055  34.020  27.237  1.00  0.00     0.135 A 
ATOM     51  C   UNL A   1      47.494  33.543  29.548  1.00  0.00     0.135 A 
ATOM     52  F   UNL A   1      46.585  33.667  26.032  1.00  0.00    -0.206 F 
ATOM     53  C   UNL A   1      47.654  35.272  27.373  1.00  0.00     0.059 A 
ATOM     54  C   UNL A   1      48.079  34.796  29.714  1.00  0.00     0.059 A 
ATOM     55  F   UNL A   1      47.444  32.727  30.612  1.00  0.00    -0.206 F 
ATOM     56  C   UNL A   1      48.176  35.646  28.613  1.00  0.00     0.060 A 
BRANCH  56  57
ATOM     57  S   UNL A   1      48.992  37.251  28.774  1.00  0.00     0.124 S 
ATOM     58  O   UNL A   1      48.574  37.660  30.110  1.00  0.00    -0.237 OA
ATOM     59  O   UNL A   1      50.401  36.898  28.626  1.00  0.00    -0.237 OA
ATOM     60  O   UNL A   1      48.428  38.026  27.673  1.00  0.00    -0.744 OA
ENDBRANCH  56  57
ENDBRANCH  24  49
BRANCH  36  61
ATOM     61  C   UNL A   1      49.789  27.099  26.164  1.00  0.00     0.058 A 
ATOM     62  C   UNL A   1      50.793  26.679  27.048  1.00  0.00     0.135 A 
ATOM     63  C   UNL A   1      50.081  27.129  24.792  1.00  0.00     0.135 A 
ATOM     64  F   UNL A   1      50.560  26.640  28.370  1.00  0.00    -0.206 F 
ATOM     65  C   UNL A   1      52.055  26.322  26.589  1.00  0.00     0.059 A 
ATOM     66  C   UNL A   1      51.326  26.749  24.308  1.00  0.00     0.059 A 
ATOM     67  F   UNL A   1      49.145  27.511  23.909  1.00  0.00    -0.206 F 
ATOM     68  C   UNL A   1      52.310  26.359  25.215  1.00  0.00     0.060 A 
BRANCH  68  69
ATOM     69  S   UNL A   1      53.938  25.854  24.624  1.00  0.00     0.124 S 
ATOM     70  O   UNL A   1      53.864  24.404  24.771  1.00  0.00    -0.237 OA
ATOM     71  O   UNL A   1      53.944  26.354  23.253  1.00  0.00    -0.237 OA
ATOM     72  O   UNL A   1      54.852  26.534  25.536  1.00  0.00    -0.744 OA
ENDBRANCH  68  69
ENDBRANCH  36  61
ENDBRANCH  10  11
ENDBRANCH   3   5
ENDBRANCH   2   3
ENDBRANCH   1   2
BRANCH   1  73
ATOM     73  C   UNL A   1      35.177  33.664  27.973  1.00  0.00     0.275 C 
BRANCH  73  74
ATOM     74  O   UNL A   1      34.880  34.701  28.924  1.00  0.00    -0.457 OA
BRANCH  74  75
ATOM     75  C   UNL A   1      33.587  34.815  29.333  1.00  0.00     0.359 C 
ATOM     76  O   UNL A   1      32.609  34.550  28.682  1.00  0.00    -0.244 OA
BRANCH  75  77
ATOM     77  C   UNL A   1      33.576  35.448  30.674  1.00  0.00     0.179 A 
ATOM     78  N   UNL A   1      33.168  36.757  30.597  1.00  0.00    -0.245 NA
ATOM     79  C   UNL A   1      34.095  34.907  31.841  1.00  0.00     0.161 A 
ATOM     80  C   UNL A   1      33.411  37.543  31.663  1.00  0.00     0.132 A 
ATOM     81  N   UNL A   1      34.307  35.727  32.932  1.00  0.00    -0.247 NA
ATOM     82  C   UNL A   1      33.991  37.038  32.803  1.00  0.00     0.132 A 
BRANCH  79  83
ATOM     83  C   UNL A   1      34.598  33.509  32.109  1.00  0.00     0.276 C 
ATOM     84  O   UNL A   1      33.763  32.643  32.382  1.00  0.00    -0.267 OA
ATOM     85  N   UNL A   1      35.842  33.087  31.654  1.00  0.00    -0.320 N 
ATOM     86  H   UNL A   1      35.824  32.434  30.917  1.00  0.00     0.170 HD
BRANCH  85  87
ATOM     87  C   UNL A   1      37.121  33.459  32.100  1.00  0.00     0.045 A 
ATOM     88  C   UNL A   1      37.932  34.262  31.307  1.00  0.00     0.030 A 
ATOM     89  C   UNL A   1      37.559  33.156  33.386  1.00  0.00     0.076 A 
ATOM     90  C   UNL A   1      39.253  34.569  31.619  1.00  0.00     0.053 A 
ATOM     91  C   UNL A   1      38.848  33.536  33.732  1.00  0.00     0.167 A 
ATOM     92  C   UNL A   1      39.685  34.181  32.851  1.00  0.00     0.165 A 
ATOM     93  O   UNL A   1      39.448  33.349  34.941  1.00  0.00    -0.454 OA
ATOM     94  O   UNL A   1      40.913  34.440  33.363  1.00  0.00    -0.454 OA
ATOM     95  C   UNL A   1      40.739  33.957  34.704  1.00  0.00     0.468 C 
ENDBRANCH  85  87
ENDBRANCH  79  83
ENDBRANCH  75  77
ENDBRANCH  74  75
ENDBRANCH  73  74
ENDBRANCH   1  73
TORSDOF 16
ENDMDL
MODEL 3
REMARK VINA RESULT:     -11.0      1.602      8.949
REMARK SMILES O=C(OCCOC(=O)c1nccnc1C(=O)Nc1ccc2c(c1)OCO2)c1ccc(-c2c3nc(c(-c4c(F)cc(S(=O)(=O)[O-])cc4F)c4ccc([nH]4)c(-c4c(F)cc(S(=O)(=O)[O-])cc4F)c4nc(c(-c5c(F)cc(S(=O)(=O)[O-])cc5F)c5ccc2[nH]5)C=C4)C=C3)cc1
REMARK SMILES IDX 4 1 3 2 2 3 1 4 27 5 28 6 92 7 29 8 91 9 30 10 31 11 32 12
REMARK SMILES IDX 85 13 33 14 90 15 84 16 86 17 34 18 89 19 83 20 82 21 35 23
REMARK SMILES IDX 69 24 48 25 68 26 49 27 52 28 67 29 87 30 50 31 51 32 66 34
REMARK SMILES IDX 88 35 53 36 36 37 37 38 46 39 38 40 39 41 45 42 47 43 40 44
REMARK SMILES IDX 41 45 42 46 43 47 44 48 70 49 71 50 80 51 72 52 73 53 79 54
REMARK SMILES IDX 81 55 74 56 75 57 76 58 77 59 78 60 54 61 55 62 64 63 56 64
REMARK SMILES IDX 57 65 63 66 65 67 58 68 59 69 60 70 61 71 62 72 5 73 6 74
REMARK SMILES IDX 7 75 8 76 9 77 10 78 14 79 11 80 13 81 12 82 15 83 16 84
REMARK SMILES IDX 17 85 18 87 19 88 23 89 20 90 22 91 21 92 24 93 26 94 25 95
REMARK H PARENT 86 22 52 33 17 86
REMARK Flexibility Score: inf
ROOT
ATOM      1  C   UNL A   1      45.277  24.230  27.334  1.00  0.00     0.275 C 
ENDROOT
BRANCH   1   2
ATOM      2  O   UNL A   1      44.924  25.326  26.443  1.00  0.00    -0.458 OA
BRANCH   2   3
ATOM      3  C   UNL A   1      43.736  25.988  26.370  1.00  0.00     0.338 C 
ATOM      4  O   UNL A   1      43.190  26.242  25.307  1.00  0.00    -0.246 OA
BRANCH   3   5
ATOM      5  C   UNL A   1      43.223  26.539  27.634  1.00  0.00     0.060 A 
ATOM      6  C   UNL A   1      43.805  27.679  28.177  1.00  0.00     0.016 A 
ATOM      7  C   UNL A   1      42.053  25.996  28.183  1.00  0.00     0.016 A 
ATOM      8  C   UNL A   1      43.094  28.407  29.116  1.00  0.00     0.010 A 
ATOM      9  C   UNL A   1      41.360  26.703  29.166  1.00  0.00     0.010 A 
ATOM     10  C   UNL A   1      41.859  27.939  29.593  1.00  0.00    -0.014 A 
BRANCH  10  11
ATOM     11  C   UNL A   1      41.279  28.686  30.723  1.00  0.00     0.031 A 
ATOM     12  C   UNL A   1      42.000  28.535  32.020  1.00  0.00     0.074 A 
ATOM     13  C   UNL A   1      40.322  29.617  30.554  1.00  0.00     0.049 A 
ATOM     14  N   UNL A   1      42.017  29.346  33.036  1.00  0.00    -0.248 NA
ATOM     15  C   UNL A   1      42.921  27.389  32.128  1.00  0.00     0.031 C 
ATOM     16  C   UNL A   1      39.648  29.919  29.298  1.00  0.00     0.029 A 
ATOM     17  N   UNL A   1      39.770  30.505  31.439  1.00  0.00    -0.354 N 
ATOM     18  C   UNL A   1      43.055  28.895  33.831  1.00  0.00     0.074 A 
ATOM     19  C   UNL A   1      43.589  27.694  33.228  1.00  0.00     0.031 C 
ATOM     20  C   UNL A   1      38.717  30.868  29.500  1.00  0.00     0.029 A 
ATOM     21  C   UNL A   1      38.779  31.290  30.893  1.00  0.00     0.049 A 
ATOM     22  H   UNL A   1      40.054  30.575  32.379  1.00  0.00     0.167 HD
ATOM     23  C   UNL A   1      43.544  29.472  34.948  1.00  0.00     0.037 A 
ATOM     24  C   UNL A   1      38.034  32.258  31.460  1.00  0.00     0.037 A 
ATOM     25  C   UNL A   1      42.896  30.567  35.605  1.00  0.00     0.049 A 
ATOM     26  C   UNL A   1      38.412  32.696  32.852  1.00  0.00     0.074 A 
ATOM     27  C   UNL A   1      43.179  31.128  36.833  1.00  0.00     0.029 A 
ATOM     28  N   UNL A   1      41.786  31.232  35.098  1.00  0.00    -0.354 N 
ATOM     29  N   UNL A   1      39.420  32.291  33.592  1.00  0.00    -0.248 NA
ATOM     30  C   UNL A   1      37.592  33.743  33.472  1.00  0.00     0.031 C 
ATOM     31  C   UNL A   1      42.203  32.096  37.096  1.00  0.00     0.029 A 
ATOM     32  C   UNL A   1      41.343  32.173  36.007  1.00  0.00     0.049 A 
ATOM     33  H   UNL A   1      41.375  31.060  34.220  1.00  0.00     0.167 HD
ATOM     34  C   UNL A   1      39.380  33.061  34.746  1.00  0.00     0.074 A 
ATOM     35  C   UNL A   1      38.250  33.958  34.604  1.00  0.00     0.031 C 
ATOM     36  C   UNL A   1      40.207  33.041  35.823  1.00  0.00     0.037 A 
BRANCH  23  37
ATOM     37  C   UNL A   1      44.789  28.867  35.509  1.00  0.00     0.058 A 
ATOM     38  C   UNL A   1      46.054  29.278  35.059  1.00  0.00     0.135 A 
ATOM     39  C   UNL A   1      44.722  27.813  36.429  1.00  0.00     0.135 A 
ATOM     40  F   UNL A   1      46.164  30.251  34.140  1.00  0.00    -0.206 F 
ATOM     41  C   UNL A   1      47.216  28.654  35.499  1.00  0.00     0.059 A 
ATOM     42  C   UNL A   1      45.872  27.181  36.889  1.00  0.00     0.059 A 
ATOM     43  F   UNL A   1      43.531  27.361  36.852  1.00  0.00    -0.206 F 
ATOM     44  C   UNL A   1      47.113  27.601  36.409  1.00  0.00     0.060 A 
BRANCH  44  45
ATOM     45  S   UNL A   1      48.626  26.778  36.949  1.00  0.00     0.124 S 
ATOM     46  O   UNL A   1      49.649  27.678  36.426  1.00  0.00    -0.237 OA
ATOM     47  O   UNL A   1      48.472  26.766  38.399  1.00  0.00    -0.237 OA
ATOM     48  O   UNL A   1      48.550  25.472  36.302  1.00  0.00    -0.744 OA
ENDBRANCH  44  45
ENDBRANCH  23  37
BRANCH  24  49
ATOM     49  C   UNL A   1      36.875  32.862  30.743  1.00  0.00     0.058 A 
ATOM     50  C   UNL A   1      37.031  33.857  29.766  1.00  0.00     0.135 A 
ATOM     51  C   UNL A   1      35.563  32.494  31.088  1.00  0.00     0.135 A 
ATOM     52  F   UNL A   1      38.259  34.248  29.398  1.00  0.00    -0.206 F 
ATOM     53  C   UNL A   1      35.932  34.498  29.194  1.00  0.00     0.059 A 
ATOM     54  C   UNL A   1      34.450  33.105  30.516  1.00  0.00     0.059 A 
ATOM     55  F   UNL A   1      35.352  31.540  32.009  1.00  0.00    -0.206 F 
ATOM     56  C   UNL A   1      34.645  34.125  29.585  1.00  0.00     0.060 A 
BRANCH  56  57
ATOM     57  S   UNL A   1      33.226  34.989  28.874  1.00  0.00     0.124 S 
ATOM     58  O   UNL A   1      32.434  35.280  30.064  1.00  0.00    -0.237 OA
ATOM     59  O   UNL A   1      33.856  36.139  28.230  1.00  0.00    -0.237 OA
ATOM     60  O   UNL A   1      32.654  34.004  27.962  1.00  0.00    -0.744 OA
ENDBRANCH  56  57
ENDBRANCH  24  49
BRANCH  36  61
ATOM     61  C   UNL A   1      39.917  34.026  36.915  1.00  0.00     0.058 A 
ATOM     62  C   UNL A   1      39.116  33.682  38.014  1.00  0.00     0.135 A 
ATOM     63  C   UNL A   1      40.495  35.303  36.886  1.00  0.00     0.135 A 
ATOM     64  F   UNL A   1      38.538  32.473  38.079  1.00  0.00    -0.206 F 
ATOM     65  C   UNL A   1      38.878  34.586  39.041  1.00  0.00     0.059 A 
ATOM     66  C   UNL A   1      40.294  36.213  37.917  1.00  0.00     0.059 A 
ATOM     67  F   UNL A   1      41.280  35.669  35.860  1.00  0.00    -0.206 F 
ATOM     68  C   UNL A   1      39.474  35.849  38.984  1.00  0.00     0.060 A 
BRANCH  68  69
ATOM     69  S   UNL A   1      39.193  37.001  40.344  1.00  0.00     0.124 S 
ATOM     70  O   UNL A   1      38.459  38.069  39.673  1.00  0.00    -0.237 OA
ATOM     71  O   UNL A   1      38.423  36.194  41.286  1.00  0.00    -0.237 OA
ATOM     72  O   UNL A   1      40.544  37.342  40.780  1.00  0.00    -0.744 OA
ENDBRANCH  68  69
ENDBRANCH  36  61
ENDBRANCH  10  11
ENDBRANCH   3   5
ENDBRANCH   2   3
ENDBRANCH   1   2
BRANCH   1  73
ATOM     73  C   UNL A   1      45.378  22.808  26.738  1.00  0.00     0.275 C 
BRANCH  73  74
ATOM     74  O   UNL A   1      45.035  22.793  25.342  1.00  0.00    -0.457 OA
BRANCH  74  75
ATOM     75  C   UNL A   1      43.770  22.407  25.018  1.00  0.00     0.359 C 
ATOM     76  O   UNL A   1      42.981  23.037  24.361  1.00  0.00    -0.244 OA
BRANCH  75  77
ATOM     77  C   UNL A   1      43.475  21.137  25.724  1.00  0.00     0.179 A 
ATOM     78  N   UNL A   1      43.964  20.061  25.026  1.00  0.00    -0.245 NA
ATOM     79  C   UNL A   1      42.645  20.984  26.825  1.00  0.00     0.161 A 
ATOM     80  C   UNL A   1      43.502  18.843  25.367  1.00  0.00     0.132 A 
ATOM     81  N   UNL A   1      42.210  19.721  27.174  1.00  0.00    -0.247 NA
ATOM     82  C   UNL A   1      42.622  18.680  26.411  1.00  0.00     0.132 A 
BRANCH  79  83
ATOM     83  C   UNL A   1      42.011  22.037  27.701  1.00  0.00     0.276 C 
ATOM     84  O   UNL A   1      42.528  22.254  28.800  1.00  0.00    -0.267 OA
ATOM     85  N   UNL A   1      41.184  23.020  27.170  1.00  0.00    -0.320 N 
ATOM     86  H   UNL A   1      41.562  23.929  27.157  1.00  0.00     0.170 HD
BRANCH  85  87
ATOM     87  C   UNL A   1      39.884  22.899  26.650  1.00  0.00     0.045 A 
ATOM     88  C   UNL A   1      39.061  24.014  26.557  1.00  0.00     0.030 A 
ATOM     89  C   UNL A   1      39.434  21.705  26.094  1.00  0.00     0.076 A 
ATOM     90  C   UNL A   1      37.725  23.955  26.174  1.00  0.00     0.053 A 
ATOM     91  C   UNL A   1      38.126  21.665  25.632  1.00  0.00     0.167 A 
ATOM     92  C   UNL A   1      37.283  22.750  25.717  1.00  0.00     0.165 A 
ATOM     93  O   UNL A   1      37.511  20.604  25.041  1.00  0.00    -0.454 OA
ATOM     94  O   UNL A   1      36.038  22.506  25.242  1.00  0.00    -0.454 OA
ATOM     95  C   UNL A   1      36.204  21.161  24.768  1.00  0.00     0.468 C 
ENDBRANCH  85  87
ENDBRANCH  79  83
ENDBRANCH  75  77
ENDBRANCH  74  75
ENDBRANCH  73  74
ENDBRANCH   1  73
TORSDOF 16
ENDMDL
