MODEL 1
REMARK VINA RESULT:     -10.7      0.000      0.000
REMARK SMILES CC(=O)Nc1c(C)nn([C@H](C)C(=O)OCCOC(=O)c2ccc(-c3c4nc(c(-c5c(F)cc(S(=O)(=O)[O-])cc5F)c5ccc([nH]5)c(-c5c(F)cc(S(=O)(=O)[O-])cc5F)c5nc(c(-c6c(F)cc(S(=O)(=O)[O-])cc6F)c6ccc3[nH]6)C=C5)C=C4)cc2)c1C
REMARK SMILES IDX 16 1 15 2 14 3 12 4 13 5 10 6 11 7 9 8 5 9 6 10 86 11 7 12
REMARK SMILES IDX 8 13 87 14 4 15 1 16 2 17 3 18 17 20 18 21 19 22 20 23 21 24
REMARK SMILES IDX 85 25 22 26 84 27 23 28 24 29 25 30 78 31 26 32 83 33 77 34
REMARK SMILES IDX 79 35 27 36 82 37 76 38 75 39 28 41 62 42 41 43 61 44 42 45
REMARK SMILES IDX 45 46 60 47 80 48 43 49 44 50 59 52 81 53 46 54 29 55 30 56
REMARK SMILES IDX 39 57 31 58 32 59 38 60 40 61 33 62 34 63 35 64 36 65 37 66
REMARK SMILES IDX 63 67 64 68 73 69 65 70 66 71 72 72 74 73 67 74 68 75 69 76
REMARK SMILES IDX 70 77 71 78 47 79 48 80 57 81 49 82 50 83 56 84 58 85 51 86
REMARK SMILES IDX 52 87 53 88 54 89 55 90
REMARK H PARENT 4 19 79 40 45 51
REMARK Flexibility Score: inf
ROOT
ATOM      1  C   UNL A   1      42.178  20.598  26.241  1.00  0.00     0.275 C 
ENDROOT
BRANCH   1   2
ATOM      2  C   UNL A   1      43.569  20.497  25.634  1.00  0.00     0.274 C 
BRANCH   2   3
ATOM      3  O   UNL A   1      43.849  21.662  24.847  1.00  0.00    -0.460 OA
BRANCH   3   4
ATOM      4  C   UNL A   1      44.945  22.379  25.219  1.00  0.00     0.330 C 
ATOM      5  O   UNL A   1      46.004  21.879  25.595  1.00  0.00    -0.250 OA
BRANCH   4   6
ATOM      6  C   UNL A   1      44.741  23.877  25.107  1.00  0.00     0.214 C 
ATOM      7  C   UNL A   1      43.305  24.399  24.989  1.00  0.00     0.046 C 
BRANCH   6   8
ATOM      8  N   UNL A   1      45.440  24.524  26.206  1.00  0.00    -0.253 N 
ATOM      9  C   UNL A   1      46.665  25.877  27.412  1.00  0.00     0.085 A 
ATOM     10  C   UNL A   1      45.765  25.122  28.210  1.00  0.00     0.083 A 
ATOM     11  C   UNL A   1      46.518  25.374  26.133  1.00  0.00     0.060 A 
ATOM     12  C   UNL A   1      45.544  25.140  29.674  1.00  0.00     0.071 C 
ATOM     13  N   UNL A   1      44.980  24.351  27.459  1.00  0.00    -0.175 NA
ATOM     14  C   UNL A   1      47.321  25.521  24.890  1.00  0.00     0.069 C 
BRANCH   9  15
ATOM     15  N   UNL A   1      47.565  26.820  27.860  1.00  0.00    -0.323 N 
ATOM     16  C   UNL A   1      49.372  25.241  28.514  1.00  0.00     0.114 C 
ATOM     17  C   UNL A   1      48.755  26.618  28.501  1.00  0.00     0.221 C 
ATOM     18  O   UNL A   1      49.355  27.584  28.979  1.00  0.00    -0.275 OA
ATOM     19  H   UNL A   1      47.319  27.759  27.697  1.00  0.00     0.170 HD
ENDBRANCH   9  15
ENDBRANCH   6   8
ENDBRANCH   4   6
ENDBRANCH   3   4
ENDBRANCH   2   3
ENDBRANCH   1   2
BRANCH   1  20
ATOM     20  O   UNL A   1      41.432  21.706  25.727  1.00  0.00    -0.458 OA
BRANCH  20  21
ATOM     21  C   UNL A   1      40.265  21.956  26.363  1.00  0.00     0.338 C 
ATOM     22  O   UNL A   1      39.202  21.384  26.208  1.00  0.00    -0.246 OA
BRANCH  21  23
ATOM     23  C   UNL A   1      40.374  23.186  27.146  1.00  0.00     0.060 A 
ATOM     24  C   UNL A   1      39.542  24.256  26.799  1.00  0.00     0.016 A 
ATOM     25  C   UNL A   1      41.437  23.339  28.045  1.00  0.00     0.016 A 
ATOM     26  C   UNL A   1      39.832  25.511  27.296  1.00  0.00     0.010 A 
ATOM     27  C   UNL A   1      41.730  24.592  28.532  1.00  0.00     0.010 A 
ATOM     28  C   UNL A   1      40.952  25.674  28.125  1.00  0.00    -0.014 A 
BRANCH  28  29
ATOM     29  C   UNL A   1      41.185  26.981  28.712  1.00  0.00     0.031 A 
ATOM     30  C   UNL A   1      42.405  27.637  28.185  1.00  0.00     0.074 A 
ATOM     31  C   UNL A   1      40.302  27.604  29.515  1.00  0.00     0.049 A 
ATOM     32  N   UNL A   1      43.487  27.928  28.825  1.00  0.00    -0.248 NA
ATOM     33  C   UNL A   1      42.496  27.852  26.729  1.00  0.00     0.031 C 
ATOM     34  C   UNL A   1      38.941  27.168  29.840  1.00  0.00     0.029 A 
ATOM     35  N   UNL A   1      40.394  28.819  30.131  1.00  0.00    -0.354 N 
ATOM     36  C   UNL A   1      44.293  28.594  27.906  1.00  0.00     0.074 A 
ATOM     37  C   UNL A   1      43.731  28.339  26.609  1.00  0.00     0.031 C 
ATOM     38  C   UNL A   1      38.267  28.192  30.410  1.00  0.00     0.029 A 
ATOM     39  C   UNL A   1      39.187  29.298  30.625  1.00  0.00     0.049 A 
ATOM     40  H   UNL A   1      41.242  29.311  30.218  1.00  0.00     0.167 HD
ATOM     41  C   UNL A   1      45.176  29.543  28.320  1.00  0.00     0.037 A 
ATOM     42  C   UNL A   1      38.951  30.523  31.155  1.00  0.00     0.037 A 
ATOM     43  C   UNL A   1      45.386  29.470  29.742  1.00  0.00     0.049 A 
ATOM     44  C   UNL A   1      40.247  31.076  31.610  1.00  0.00     0.074 A 
ATOM     45  C   UNL A   1      46.107  28.681  30.611  1.00  0.00     0.029 A 
ATOM     46  N   UNL A   1      44.455  30.150  30.479  1.00  0.00    -0.354 N 
ATOM     47  N   UNL A   1      40.933  30.576  32.600  1.00  0.00    -0.248 NA
ATOM     48  C   UNL A   1      40.970  32.020  30.764  1.00  0.00     0.031 C 
ATOM     49  C   UNL A   1      45.468  28.796  31.881  1.00  0.00     0.029 A 
ATOM     50  C   UNL A   1      44.387  29.666  31.760  1.00  0.00     0.049 A 
ATOM     51  H   UNL A   1      43.907  30.892  30.135  1.00  0.00     0.167 HD
ATOM     52  C   UNL A   1      42.248  30.804  32.254  1.00  0.00     0.074 A 
ATOM     53  C   UNL A   1      42.208  31.840  31.232  1.00  0.00     0.031 C 
ATOM     54  C   UNL A   1      43.219  29.907  32.577  1.00  0.00     0.037 A 
BRANCH  41  55
ATOM     55  C   UNL A   1      45.474  30.820  27.561  1.00  0.00     0.058 A 
ATOM     56  C   UNL A   1      46.781  31.039  27.079  1.00  0.00     0.135 A 
ATOM     57  C   UNL A   1      44.628  31.952  27.561  1.00  0.00     0.135 A 
ATOM     58  F   UNL A   1      47.672  30.037  27.040  1.00  0.00    -0.206 F 
ATOM     59  C   UNL A   1      47.233  32.303  26.692  1.00  0.00     0.059 A 
ATOM     60  C   UNL A   1      45.043  33.208  27.130  1.00  0.00     0.059 A 
ATOM     61  F   UNL A   1      43.393  31.926  28.074  1.00  0.00    -0.206 F 
ATOM     62  C   UNL A   1      46.358  33.384  26.737  1.00  0.00     0.060 A 
BRANCH  62  63
ATOM     63  S   UNL A   1      46.960  35.033  26.335  1.00  0.00     0.124 S 
ATOM     64  O   UNL A   1      47.819  35.317  27.478  1.00  0.00    -0.237 OA
ATOM     65  O   UNL A   1      47.637  34.808  25.063  1.00  0.00    -0.237 OA
ATOM     66  O   UNL A   1      45.736  35.826  26.254  1.00  0.00    -0.744 OA
ENDBRANCH  62  63
ENDBRANCH  41  55
BRANCH  42  67
ATOM     67  C   UNL A   1      37.715  31.341  31.151  1.00  0.00     0.058 A 
ATOM     68  C   UNL A   1      36.778  31.242  32.194  1.00  0.00     0.135 A 
ATOM     69  C   UNL A   1      37.581  32.446  30.290  1.00  0.00     0.135 A 
ATOM     70  F   UNL A   1      36.842  30.224  33.066  1.00  0.00    -0.206 F 
ATOM     71  C   UNL A   1      35.804  32.218  32.415  1.00  0.00     0.059 A 
ATOM     72  C   UNL A   1      36.612  33.430  30.485  1.00  0.00     0.059 A 
ATOM     73  F   UNL A   1      38.453  32.648  29.290  1.00  0.00    -0.206 F 
ATOM     74  C   UNL A   1      35.748  33.324  31.570  1.00  0.00     0.060 A 
BRANCH  74  75
ATOM     75  S   UNL A   1      34.628  34.686  31.978  1.00  0.00     0.124 S 
ATOM     76  O   UNL A   1      35.492  35.562  32.762  1.00  0.00    -0.237 OA
ATOM     77  O   UNL A   1      34.250  35.179  30.657  1.00  0.00    -0.237 OA
ATOM     78  O   UNL A   1      33.558  34.032  32.725  1.00  0.00    -0.744 OA
ENDBRANCH  74  75
ENDBRANCH  42  67
BRANCH  54  79
ATOM     79  C   UNL A   1      42.969  29.022  33.760  1.00  0.00     0.058 A 
ATOM     80  C   UNL A   1      43.085  29.422  35.101  1.00  0.00     0.135 A 
ATOM     81  C   UNL A   1      42.540  27.710  33.509  1.00  0.00     0.135 A 
ATOM     82  F   UNL A   1      43.418  30.682  35.418  1.00  0.00    -0.206 F 
ATOM     83  C   UNL A   1      42.818  28.540  36.149  1.00  0.00     0.059 A 
ATOM     84  C   UNL A   1      42.241  26.824  34.537  1.00  0.00     0.059 A 
ATOM     85  F   UNL A   1      42.371  27.288  32.246  1.00  0.00    -0.206 F 
ATOM     86  C   UNL A   1      42.397  27.242  35.856  1.00  0.00     0.060 A 
BRANCH  86  87
ATOM     87  S   UNL A   1      41.984  26.121  37.211  1.00  0.00     0.124 S 
ATOM     88  O   UNL A   1      43.053  26.389  38.168  1.00  0.00    -0.237 OA
ATOM     89  O   UNL A   1      40.652  26.573  37.603  1.00  0.00    -0.237 OA
ATOM     90  O   UNL A   1      42.023  24.801  36.584  1.00  0.00    -0.744 OA
ENDBRANCH  86  87
ENDBRANCH  54  79
ENDBRANCH  28  29
ENDBRANCH  21  23
ENDBRANCH  20  21
ENDBRANCH   1  20
TORSDOF 16
ENDMDL
MODEL 2
REMARK VINA RESULT:     -10.4      3.910      6.542
REMARK SMILES CC(=O)Nc1c(C)nn([C@H](C)C(=O)OCCOC(=O)c2ccc(-c3c4nc(c(-c5c(F)cc(S(=O)(=O)[O-])cc5F)c5ccc([nH]5)c(-c5c(F)cc(S(=O)(=O)[O-])cc5F)c5nc(c(-c6c(F)cc(S(=O)(=O)[O-])cc6F)c6ccc3[nH]6)C=C5)C=C4)cc2)c1C
REMARK SMILES IDX 16 1 15 2 14 3 12 4 13 5 10 6 11 7 9 8 5 9 6 10 86 11 7 12
REMARK SMILES IDX 8 13 87 14 4 15 1 16 2 17 3 18 17 20 18 21 19 22 20 23 21 24
REMARK SMILES IDX 85 25 22 26 84 27 23 28 24 29 25 30 78 31 26 32 83 33 77 34
REMARK SMILES IDX 79 35 27 36 82 37 76 38 75 39 28 41 62 42 41 43 61 44 42 45
REMARK SMILES IDX 45 46 60 47 80 48 43 49 44 50 59 52 81 53 46 54 29 55 30 56
REMARK SMILES IDX 39 57 31 58 32 59 38 60 40 61 33 62 34 63 35 64 36 65 37 66
REMARK SMILES IDX 63 67 64 68 73 69 65 70 66 71 72 72 74 73 67 74 68 75 69 76
REMARK SMILES IDX 70 77 71 78 47 79 48 80 57 81 49 82 50 83 56 84 58 85 51 86
REMARK SMILES IDX 52 87 53 88 54 89 55 90
REMARK H PARENT 4 19 79 40 45 51
REMARK Flexibility Score: inf
ROOT
ATOM      1  C   UNL A   1      37.597  21.675  24.850  1.00  0.00     0.275 C 
ENDROOT
BRANCH   1   2
ATOM      2  C   UNL A   1      36.732  22.460  23.875  1.00  0.00     0.274 C 
BRANCH   2   3
ATOM      3  O   UNL A   1      35.573  22.971  24.546  1.00  0.00    -0.460 OA
BRANCH   3   4
ATOM      4  C   UNL A   1      34.585  23.449  23.739  1.00  0.00     0.330 C 
ATOM      5  O   UNL A   1      34.525  23.251  22.527  1.00  0.00    -0.250 OA
BRANCH   4   6
ATOM      6  C   UNL A   1      33.538  24.245  24.492  1.00  0.00     0.214 C 
ATOM      7  C   UNL A   1      33.862  24.683  25.925  1.00  0.00     0.046 C 
BRANCH   6   8
ATOM      8  N   UNL A   1      33.146  25.384  23.678  1.00  0.00    -0.253 N 
ATOM      9  C   UNL A   1      31.998  26.916  22.618  1.00  0.00     0.085 A 
ATOM     10  C   UNL A   1      33.356  27.295  22.792  1.00  0.00     0.083 A 
ATOM     11  C   UNL A   1      31.926  25.619  23.091  1.00  0.00     0.060 A 
ATOM     12  C   UNL A   1      34.058  28.534  22.388  1.00  0.00     0.071 C 
ATOM     13  N   UNL A   1      34.028  26.385  23.495  1.00  0.00    -0.175 NA
ATOM     14  C   UNL A   1      30.893  24.555  22.971  1.00  0.00     0.069 C 
BRANCH   9  15
ATOM     15  N   UNL A   1      31.013  27.657  22.002  1.00  0.00    -0.323 N 
ATOM     16  C   UNL A   1      30.600  29.243  23.873  1.00  0.00     0.114 C 
ATOM     17  C   UNL A   1      30.229  28.637  22.542  1.00  0.00     0.221 C 
ATOM     18  O   UNL A   1      29.282  29.082  21.888  1.00  0.00    -0.275 OA
ATOM     19  H   UNL A   1      30.854  27.454  21.052  1.00  0.00     0.170 HD
ENDBRANCH   9  15
ENDBRANCH   6   8
ENDBRANCH   4   6
ENDBRANCH   3   4
ENDBRANCH   2   3
ENDBRANCH   1   2
BRANCH   1  20
ATOM     20  O   UNL A   1      37.940  22.432  26.014  1.00  0.00    -0.458 OA
BRANCH  20  21
ATOM     21  C   UNL A   1      39.236  22.349  26.392  1.00  0.00     0.338 C 
ATOM     22  O   UNL A   1      39.978  21.390  26.275  1.00  0.00    -0.246 OA
BRANCH  21  23
ATOM     23  C   UNL A   1      39.606  23.522  27.181  1.00  0.00     0.060 A 
ATOM     24  C   UNL A   1      38.865  24.694  26.995  1.00  0.00     0.016 A 
ATOM     25  C   UNL A   1      40.802  23.513  27.909  1.00  0.00     0.016 A 
ATOM     26  C   UNL A   1      39.374  25.884  27.475  1.00  0.00     0.010 A 
ATOM     27  C   UNL A   1      41.312  24.702  28.378  1.00  0.00     0.010 A 
ATOM     28  C   UNL A   1      40.616  25.882  28.124  1.00  0.00    -0.014 A 
BRANCH  28  29
ATOM     29  C   UNL A   1      41.089  27.127  28.703  1.00  0.00     0.031 A 
ATOM     30  C   UNL A   1      42.382  27.572  28.130  1.00  0.00     0.074 A 
ATOM     31  C   UNL A   1      40.355  27.884  29.541  1.00  0.00     0.049 A 
ATOM     32  N   UNL A   1      43.520  27.671  28.728  1.00  0.00    -0.248 NA
ATOM     33  C   UNL A   1      42.452  27.778  26.672  1.00  0.00     0.031 C 
ATOM     34  C   UNL A   1      38.953  27.681  29.918  1.00  0.00     0.029 A 
ATOM     35  N   UNL A   1      40.674  29.061  30.154  1.00  0.00    -0.354 N 
ATOM     36  C   UNL A   1      44.392  28.198  27.779  1.00  0.00     0.074 A 
ATOM     37  C   UNL A   1      43.746  28.051  26.504  1.00  0.00     0.031 C 
ATOM     38  C   UNL A   1      38.484  28.800  30.514  1.00  0.00     0.029 A 
ATOM     39  C   UNL A   1      39.585  29.733  30.694  1.00  0.00     0.049 A 
ATOM     40  H   UNL A   1      41.596  29.403  30.208  1.00  0.00     0.167 HD
ATOM     41  C   UNL A   1      45.437  28.982  28.159  1.00  0.00     0.037 A 
ATOM     42  C   UNL A   1      39.579  30.977  31.234  1.00  0.00     0.037 A 
ATOM     43  C   UNL A   1      45.686  28.864  29.572  1.00  0.00     0.049 A 
ATOM     44  C   UNL A   1      40.966  31.299  31.639  1.00  0.00     0.074 A 
ATOM     45  C   UNL A   1      46.296  27.958  30.412  1.00  0.00     0.029 A 
ATOM     46  N   UNL A   1      44.912  29.686  30.346  1.00  0.00    -0.354 N 
ATOM     47  N   UNL A   1      41.595  30.684  32.601  1.00  0.00    -0.248 NA
ATOM     48  C   UNL A   1      41.806  32.115  30.766  1.00  0.00     0.031 C 
ATOM     49  C   UNL A   1      45.734  28.171  31.706  1.00  0.00     0.029 A 
ATOM     50  C   UNL A   1      44.811  29.210  31.627  1.00  0.00     0.049 A 
ATOM     51  H   UNL A   1      44.484  30.512  30.024  1.00  0.00     0.167 HD
ATOM     52  C   UNL A   1      42.915  30.690  32.205  1.00  0.00     0.074 A 
ATOM     53  C   UNL A   1      43.012  31.725  31.186  1.00  0.00     0.031 C 
ATOM     54  C   UNL A   1      43.733  29.639  32.489  1.00  0.00     0.037 A 
BRANCH  41  55
ATOM     55  C   UNL A   1      45.917  30.196  27.391  1.00  0.00     0.058 A 
ATOM     56  C   UNL A   1      47.303  30.385  27.208  1.00  0.00     0.135 A 
ATOM     57  C   UNL A   1      45.108  31.318  27.104  1.00  0.00     0.135 A 
ATOM     58  F   UNL A   1      48.167  29.389  27.457  1.00  0.00    -0.206 F 
ATOM     59  C   UNL A   1      47.847  31.617  26.837  1.00  0.00     0.059 A 
ATOM     60  C   UNL A   1      45.626  32.538  26.682  1.00  0.00     0.059 A 
ATOM     61  F   UNL A   1      43.787  31.325  27.318  1.00  0.00    -0.206 F 
ATOM     62  C   UNL A   1      46.998  32.691  26.592  1.00  0.00     0.060 A 
BRANCH  62  63
ATOM     63  S   UNL A   1      47.696  34.307  26.210  1.00  0.00     0.124 S 
ATOM     64  O   UNL A   1      47.372  35.058  27.417  1.00  0.00    -0.237 OA
ATOM     65  O   UNL A   1      49.105  33.990  26.010  1.00  0.00    -0.237 OA
ATOM     66  O   UNL A   1      46.973  34.708  25.005  1.00  0.00    -0.744 OA
ENDBRANCH  62  63
ENDBRANCH  41  55
BRANCH  42  67
ATOM     67  C   UNL A   1      38.500  31.991  31.279  1.00  0.00     0.058 A 
ATOM     68  C   UNL A   1      37.743  32.294  30.134  1.00  0.00     0.135 A 
ATOM     69  C   UNL A   1      37.994  32.457  32.508  1.00  0.00     0.135 A 
ATOM     70  F   UNL A   1      38.150  31.879  28.925  1.00  0.00    -0.206 F 
ATOM     71  C   UNL A   1      36.517  32.960  30.207  1.00  0.00     0.059 A 
ATOM     72  C   UNL A   1      36.777  33.130  32.605  1.00  0.00     0.059 A 
ATOM     73  F   UNL A   1      38.626  32.182  33.659  1.00  0.00    -0.206 F 
ATOM     74  C   UNL A   1      36.029  33.349  31.453  1.00  0.00     0.060 A 
BRANCH  74  75
ATOM     75  S   UNL A   1      34.353  34.021  31.569  1.00  0.00     0.124 S 
ATOM     76  O   UNL A   1      33.897  33.935  30.186  1.00  0.00    -0.237 OA
ATOM     77  O   UNL A   1      33.718  33.102  32.509  1.00  0.00    -0.237 OA
ATOM     78  O   UNL A   1      34.566  35.375  32.074  1.00  0.00    -0.744 OA
ENDBRANCH  74  75
ENDBRANCH  42  67
BRANCH  54  79
ATOM     79  C   UNL A   1      43.383  28.800  33.680  1.00  0.00     0.058 A 
ATOM     80  C   UNL A   1      43.697  29.123  35.010  1.00  0.00     0.135 A 
ATOM     81  C   UNL A   1      42.641  27.631  33.454  1.00  0.00     0.135 A 
ATOM     82  F   UNL A   1      44.338  30.262  35.310  1.00  0.00    -0.206 F 
ATOM     83  C   UNL A   1      43.320  28.294  36.068  1.00  0.00     0.059 A 
ATOM     84  C   UNL A   1      42.231  26.807  34.495  1.00  0.00     0.059 A 
ATOM     85  F   UNL A   1      42.277  27.296  32.206  1.00  0.00    -0.206 F 
ATOM     86  C   UNL A   1      42.586  27.138  35.800  1.00  0.00     0.060 A 
BRANCH  86  87
ATOM     87  S   UNL A   1      42.038  26.102  37.174  1.00  0.00     0.124 S 
ATOM     88  O   UNL A   1      40.748  26.694  37.510  1.00  0.00    -0.237 OA
ATOM     89  O   UNL A   1      41.990  24.773  36.570  1.00  0.00    -0.237 OA
ATOM     90  O   UNL A   1      43.088  26.281  38.175  1.00  0.00    -0.744 OA
ENDBRANCH  86  87
ENDBRANCH  54  79
ENDBRANCH  28  29
ENDBRANCH  21  23
ENDBRANCH  20  21
ENDBRANCH   1  20
TORSDOF 16
ENDMDL
MODEL 3
REMARK VINA RESULT:     -10.3      3.757      6.440
REMARK SMILES CC(=O)Nc1c(C)nn([C@H](C)C(=O)OCCOC(=O)c2ccc(-c3c4nc(c(-c5c(F)cc(S(=O)(=O)[O-])cc5F)c5ccc([nH]5)c(-c5c(F)cc(S(=O)(=O)[O-])cc5F)c5nc(c(-c6c(F)cc(S(=O)(=O)[O-])cc6F)c6ccc3[nH]6)C=C5)C=C4)cc2)c1C
REMARK SMILES IDX 16 1 15 2 14 3 12 4 13 5 10 6 11 7 9 8 5 9 6 10 86 11 7 12
REMARK SMILES IDX 8 13 87 14 4 15 1 16 2 17 3 18 17 20 18 21 19 22 20 23 21 24
REMARK SMILES IDX 85 25 22 26 84 27 23 28 24 29 25 30 78 31 26 32 83 33 77 34
REMARK SMILES IDX 79 35 27 36 82 37 76 38 75 39 28 41 62 42 41 43 61 44 42 45
REMARK SMILES IDX 45 46 60 47 80 48 43 49 44 50 59 52 81 53 46 54 29 55 30 56
REMARK SMILES IDX 39 57 31 58 32 59 38 60 40 61 33 62 34 63 35 64 36 65 37 66
REMARK SMILES IDX 63 67 64 68 73 69 65 70 66 71 72 72 74 73 67 74 68 75 69 76
REMARK SMILES IDX 70 77 71 78 47 79 48 80 57 81 49 82 50 83 56 84 58 85 51 86
REMARK SMILES IDX 52 87 53 88 54 89 55 90
REMARK H PARENT 4 19 79 40 45 51
REMARK Flexibility Score: inf
ROOT
ATOM      1  C   UNL A   1      37.575  21.466  25.285  1.00  0.00     0.275 C 
ENDROOT
BRANCH   1   2
ATOM      2  C   UNL A   1      36.132  21.221  25.699  1.00  0.00     0.274 C 
BRANCH   2   3
ATOM      3  O   UNL A   1      35.350  20.842  24.559  1.00  0.00    -0.460 OA
BRANCH   3   4
ATOM      4  C   UNL A   1      34.018  20.672  24.785  1.00  0.00     0.330 C 
ATOM      5  O   UNL A   1      33.544  19.792  25.502  1.00  0.00    -0.250 OA
BRANCH   4   6
ATOM      6  C   UNL A   1      33.159  21.698  24.073  1.00  0.00     0.214 C 
ATOM      7  C   UNL A   1      32.185  21.199  23.000  1.00  0.00     0.046 C 
BRANCH   6   8
ATOM      8  N   UNL A   1      32.468  22.499  25.070  1.00  0.00    -0.253 N 
ATOM      9  C   UNL A   1      31.757  24.149  26.318  1.00  0.00     0.085 A 
ATOM     10  C   UNL A   1      30.878  23.035  26.361  1.00  0.00     0.083 A 
ATOM     11  C   UNL A   1      32.841  23.722  25.574  1.00  0.00     0.060 A 
ATOM     12  C   UNL A   1      29.600  22.857  27.086  1.00  0.00     0.071 C 
ATOM     13  N   UNL A   1      31.287  22.063  25.547  1.00  0.00    -0.175 NA
ATOM     14  C   UNL A   1      34.205  24.276  25.364  1.00  0.00     0.069 C 
BRANCH   9  15
ATOM     15  N   UNL A   1      31.595  25.347  26.980  1.00  0.00    -0.323 N 
ATOM     16  C   UNL A   1      30.392  26.547  25.164  1.00  0.00     0.114 C 
ATOM     17  C   UNL A   1      31.114  26.528  26.489  1.00  0.00     0.221 C 
ATOM     18  O   UNL A   1      31.193  27.547  27.181  1.00  0.00    -0.275 OA
ATOM     19  H   UNL A   1      31.858  25.352  27.929  1.00  0.00     0.170 HD
ENDBRANCH   9  15
ENDBRANCH   6   8
ENDBRANCH   4   6
ENDBRANCH   3   4
ENDBRANCH   2   3
ENDBRANCH   1   2
BRANCH   1  20
ATOM     20  O   UNL A   1      38.131  22.635  25.893  1.00  0.00    -0.458 OA
BRANCH  20  21
ATOM     21  C   UNL A   1      39.347  22.463  26.460  1.00  0.00     0.338 C 
ATOM     22  O   UNL A   1      40.011  21.443  26.489  1.00  0.00    -0.246 OA
BRANCH  21  23
ATOM     23  C   UNL A   1      39.701  23.639  27.254  1.00  0.00     0.060 A 
ATOM     24  C   UNL A   1      38.941  24.800  27.076  1.00  0.00     0.016 A 
ATOM     25  C   UNL A   1      40.900  23.645  27.978  1.00  0.00     0.016 A 
ATOM     26  C   UNL A   1      39.433  25.996  27.560  1.00  0.00     0.010 A 
ATOM     27  C   UNL A   1      41.393  24.840  28.451  1.00  0.00     0.010 A 
ATOM     28  C   UNL A   1      40.677  26.010  28.205  1.00  0.00    -0.014 A 
BRANCH  28  29
ATOM     29  C   UNL A   1      41.133  27.260  28.789  1.00  0.00     0.031 A 
ATOM     30  C   UNL A   1      42.393  27.750  28.182  1.00  0.00     0.074 A 
ATOM     31  C   UNL A   1      40.403  27.982  29.660  1.00  0.00     0.049 A 
ATOM     32  N   UNL A   1      43.546  27.874  28.746  1.00  0.00    -0.248 NA
ATOM     33  C   UNL A   1      42.411  27.980  26.727  1.00  0.00     0.031 C 
ATOM     34  C   UNL A   1      39.020  27.733  30.078  1.00  0.00     0.029 A 
ATOM     35  N   UNL A   1      40.708  29.159  30.281  1.00  0.00    -0.354 N 
ATOM     36  C   UNL A   1      44.372  28.440  27.779  1.00  0.00     0.074 A 
ATOM     37  C   UNL A   1      43.691  28.293  26.522  1.00  0.00     0.031 C 
ATOM     38  C   UNL A   1      38.539  28.830  30.705  1.00  0.00     0.029 A 
ATOM     39  C   UNL A   1      39.618  29.792  30.865  1.00  0.00     0.049 A 
ATOM     40  H   UNL A   1      41.621  29.527  30.312  1.00  0.00     0.167 HD
ATOM     41  C   UNL A   1      45.406  29.248  28.138  1.00  0.00     0.037 A 
ATOM     42  C   UNL A   1      39.594  31.026  31.425  1.00  0.00     0.037 A 
ATOM     43  C   UNL A   1      45.703  29.116  29.541  1.00  0.00     0.049 A 
ATOM     44  C   UNL A   1      40.983  31.383  31.791  1.00  0.00     0.074 A 
ATOM     45  C   UNL A   1      46.364  28.217  30.347  1.00  0.00     0.029 A 
ATOM     46  N   UNL A   1      44.930  29.904  30.351  1.00  0.00    -0.354 N 
ATOM     47  N   UNL A   1      41.659  30.772  32.724  1.00  0.00    -0.248 NA
ATOM     48  C   UNL A   1      41.771  32.235  30.906  1.00  0.00     0.031 C 
ATOM     49  C   UNL A   1      45.838  28.394  31.661  1.00  0.00     0.029 A 
ATOM     50  C   UNL A   1      44.884  29.407  31.627  1.00  0.00     0.049 A 
ATOM     51  H   UNL A   1      44.469  30.722  30.055  1.00  0.00     0.167 HD
ATOM     52  C   UNL A   1      42.965  30.822  32.286  1.00  0.00     0.074 A 
ATOM     53  C   UNL A   1      43.000  31.875  31.281  1.00  0.00     0.031 C 
ATOM     54  C   UNL A   1      43.821  29.792  32.529  1.00  0.00     0.037 A 
BRANCH  41  55
ATOM     55  C   UNL A   1      45.827  30.486  27.374  1.00  0.00     0.058 A 
ATOM     56  C   UNL A   1      47.202  30.739  27.185  1.00  0.00     0.135 A 
ATOM     57  C   UNL A   1      44.966  31.573  27.099  1.00  0.00     0.135 A 
ATOM     58  F   UNL A   1      48.111  29.781  27.423  1.00  0.00    -0.206 F 
ATOM     59  C   UNL A   1      47.688  31.996  26.817  1.00  0.00     0.059 A 
ATOM     60  C   UNL A   1      45.426  32.817  26.681  1.00  0.00     0.059 A 
ATOM     61  F   UNL A   1      43.648  31.519  27.321  1.00  0.00    -0.206 F 
ATOM     62  C   UNL A   1      46.789  33.032  26.584  1.00  0.00     0.060 A 
BRANCH  62  63
ATOM     63  S   UNL A   1      47.412  34.680  26.207  1.00  0.00     0.124 S 
ATOM     64  O   UNL A   1      46.176  35.405  25.935  1.00  0.00    -0.237 OA
ATOM     65  O   UNL A   1      48.105  35.032  27.441  1.00  0.00    -0.237 OA
ATOM     66  O   UNL A   1      48.278  34.455  25.053  1.00  0.00    -0.744 OA
ENDBRANCH  62  63
ENDBRANCH  41  55
BRANCH  42  67
ATOM     67  C   UNL A   1      38.488  32.008  31.519  1.00  0.00     0.058 A 
ATOM     68  C   UNL A   1      37.840  32.482  30.365  1.00  0.00     0.135 A 
ATOM     69  C   UNL A   1      37.850  32.265  32.748  1.00  0.00     0.135 A 
ATOM     70  F   UNL A   1      38.376  32.270  29.153  1.00  0.00    -0.206 F 
ATOM     71  C   UNL A   1      36.595  33.113  30.417  1.00  0.00     0.059 A 
ATOM     72  C   UNL A   1      36.611  32.900  32.825  1.00  0.00     0.059 A 
ATOM     73  F   UNL A   1      38.372  31.817  33.900  1.00  0.00    -0.206 F 
ATOM     74  C   UNL A   1      35.975  33.293  31.652  1.00  0.00     0.060 A 
BRANCH  74  75
ATOM     75  S   UNL A   1      34.278  33.918  31.701  1.00  0.00     0.124 S 
ATOM     76  O   UNL A   1      33.629  32.961  32.590  1.00  0.00    -0.237 OA
ATOM     77  O   UNL A   1      34.463  35.263  32.237  1.00  0.00    -0.237 OA
ATOM     78  O   UNL A   1      33.856  33.861  30.304  1.00  0.00    -0.744 OA
ENDBRANCH  74  75
ENDBRANCH  42  67
BRANCH  54  79
ATOM     79  C   UNL A   1      43.533  28.926  33.717  1.00  0.00     0.058 A 
ATOM     80  C   UNL A   1      43.966  29.189  35.027  1.00  0.00     0.135 A 
ATOM     81  C   UNL A   1      42.729  27.794  33.515  1.00  0.00     0.135 A 
ATOM     82  F   UNL A   1      44.675  30.291  35.310  1.00  0.00    -0.206 F 
ATOM     83  C   UNL A   1      43.640  28.339  36.085  1.00  0.00     0.059 A 
ATOM     84  C   UNL A   1      42.369  26.950  34.559  1.00  0.00     0.059 A 
ATOM     85  F   UNL A   1      42.253  27.518  32.290  1.00  0.00    -0.206 F 
ATOM     86  C   UNL A   1      42.841  27.222  35.840  1.00  0.00     0.060 A 
BRANCH  86  87
ATOM     87  S   UNL A   1      42.362  26.160  37.221  1.00  0.00     0.124 S 
ATOM     88  O   UNL A   1      40.967  26.534  37.427  1.00  0.00    -0.237 OA
ATOM     89  O   UNL A   1      42.589  24.821  36.685  1.00  0.00    -0.237 OA
ATOM     90  O   UNL A   1      43.279  26.555  38.288  1.00  0.00    -0.744 OA
ENDBRANCH  86  87
ENDBRANCH  54  79
ENDBRANCH  28  29
ENDBRANCH  21  23
ENDBRANCH  20  21
ENDBRANCH   1  20
TORSDOF 16
ENDMDL
