MODEL 1
REMARK VINA RESULT:     -12.0      0.000      0.000
REMARK SMILES NC(=O)[C@H]1CN(C(=O)CSc2ccccc2C(=O)OCCOC(=O)c2ccc(-c3c4nc(c(-c5c(F)cc(S(=O)(=O)[O-])cc5F)c5ccc([nH]5)c(-c5c(F)cc(S(=O)(=O)[O-])cc5F)c5nc(c(-c6c(F)cc(S(=O)(=O)[O-])cc6F)c6ccc3[nH]6)C=C5)C=C4)cc2)c2ccccc2O1
REMARK SMILES IDX 20 1 19 2 17 3 18 4 16 5 11 6 12 7 13 8 15 9 14 10 10 11
REMARK SMILES IDX 9 12 7 13 8 14 6 15 4 16 5 17 97 18 96 19 91 20 95 21 92 22
REMARK SMILES IDX 94 23 93 24 2 25 1 26 3 29 21 30 22 31 23 32 24 33 25 34
REMARK SMILES IDX 26 35 90 36 27 37 89 38 28 39 29 40 30 41 83 42 31 43 88 44
REMARK SMILES IDX 82 45 84 46 32 47 87 48 81 49 80 50 33 52 67 53 46 54 66 55
REMARK SMILES IDX 47 56 50 57 65 58 85 59 48 60 49 61 64 63 86 64 51 65 34 66
REMARK SMILES IDX 35 67 44 68 36 69 37 70 43 71 45 72 38 73 39 74 40 75 41 76
REMARK SMILES IDX 42 77 68 78 69 79 78 80 70 81 71 82 77 83 79 84 72 85 73 86
REMARK SMILES IDX 74 87 75 88 76 89 52 90 53 91 62 92 54 93 55 94 61 95 63 96
REMARK SMILES IDX 56 97 57 98 58 99 59 100 60 101
REMARK H PARENT 1 27 1 28 84 51 50 62
REMARK Flexibility Score: inf
ROOT
ATOM      1  C   UNL A   1      33.589  29.062  25.262  1.00  0.00     0.275 C 
ENDROOT
BRANCH   1   2
ATOM      2  O   UNL A   1      32.676  29.416  24.201  1.00  0.00    -0.458 OA
BRANCH   2   3
ATOM      3  C   UNL A   1      32.437  28.472  23.255  1.00  0.00     0.339 C 
ATOM      4  O   UNL A   1      33.222  28.103  22.399  1.00  0.00    -0.246 OA
BRANCH   3   5
ATOM      5  C   UNL A   1      31.096  27.858  23.419  1.00  0.00     0.073 A 
ATOM      6  C   UNL A   1      30.883  26.519  23.797  1.00  0.00     0.022 A 
ATOM      7  C   UNL A   1      29.561  26.046  23.868  1.00  0.00     0.016 A 
ATOM      8  C   UNL A   1      28.476  26.895  23.632  1.00  0.00     0.001 A 
ATOM      9  C   UNL A   1      29.995  28.716  23.245  1.00  0.00     0.017 A 
ATOM     10  C   UNL A   1      28.691  28.235  23.336  1.00  0.00     0.001 A 
BRANCH   6  11
ATOM     11  S   UNL A   1      32.228  25.417  24.233  1.00  0.00    -0.115 SA
BRANCH  11  12
ATOM     12  C   UNL A   1      31.369  24.024  25.049  1.00  0.00     0.175 C 
BRANCH  12  13
ATOM     13  C   UNL A   1      32.081  23.467  26.277  1.00  0.00     0.237 C 
ATOM     14  O   UNL A   1      31.778  23.952  27.371  1.00  0.00    -0.274 OA
BRANCH  13  15
ATOM     15  N   UNL A   1      33.003  22.431  26.107  1.00  0.00    -0.304 N 
ATOM     16  C   UNL A   1      33.180  20.242  25.029  1.00  0.00     0.281 C 
ATOM     17  C   UNL A   1      32.699  20.999  26.260  1.00  0.00     0.181 C 
ATOM     18  O   UNL A   1      34.602  20.317  24.939  1.00  0.00    -0.477 OA
ATOM     19  C   UNL A   1      35.110  21.573  25.172  1.00  0.00     0.144 A 
ATOM     20  C   UNL A   1      34.374  22.647  25.717  1.00  0.00     0.086 A 
ATOM     21  C   UNL A   1      36.459  21.719  24.837  1.00  0.00     0.049 A 
ATOM     22  C   UNL A   1      35.040  23.864  25.912  1.00  0.00     0.030 A 
ATOM     23  C   UNL A   1      37.102  22.934  25.043  1.00  0.00     0.004 A 
ATOM     24  C   UNL A   1      36.393  24.004  25.582  1.00  0.00     0.002 A 
BRANCH  16  25
ATOM     25  C   UNL A   1      32.744  18.774  25.117  1.00  0.00     0.260 C 
ATOM     26  N   UNL A   1      32.789  18.204  26.361  1.00  0.00    -0.366 N 
ATOM     27  H   UNL A   1      32.521  17.263  26.480  1.00  0.00     0.159 HD
ATOM     28  H   UNL A   1      33.088  18.732  27.135  1.00  0.00     0.159 HD
ATOM     29  O   UNL A   1      32.365  18.093  24.169  1.00  0.00    -0.271 OA
ENDBRANCH  16  25
ENDBRANCH  13  15
ENDBRANCH  12  13
ENDBRANCH  11  12
ENDBRANCH   6  11
ENDBRANCH   3   5
ENDBRANCH   2   3
ENDBRANCH   1   2
BRANCH   1  30
ATOM     30  C   UNL A   1      32.911  29.114  26.625  1.00  0.00     0.275 C 
BRANCH  30  31
ATOM     31  O   UNL A   1      33.903  29.019  27.651  1.00  0.00    -0.458 OA
BRANCH  31  32
ATOM     32  C   UNL A   1      34.472  30.187  28.007  1.00  0.00     0.338 C 
ATOM     33  O   UNL A   1      33.936  31.279  28.144  1.00  0.00    -0.246 OA
BRANCH  32  34
ATOM     34  C   UNL A   1      35.884  29.934  28.284  1.00  0.00     0.060 A 
ATOM     35  C   UNL A   1      36.805  30.119  27.255  1.00  0.00     0.016 A 
ATOM     36  C   UNL A   1      36.287  29.461  29.529  1.00  0.00     0.016 A 
ATOM     37  C   UNL A   1      38.136  29.768  27.441  1.00  0.00     0.010 A 
ATOM     38  C   UNL A   1      37.638  29.184  29.740  1.00  0.00     0.010 A 
ATOM     39  C   UNL A   1      38.571  29.312  28.693  1.00  0.00    -0.014 A 
BRANCH  39  40
ATOM     40  C   UNL A   1      39.992  28.941  28.915  1.00  0.00     0.031 A 
ATOM     41  C   UNL A   1      40.951  29.965  29.455  1.00  0.00     0.074 A 
ATOM     42  C   UNL A   1      40.426  27.700  28.620  1.00  0.00     0.049 A 
ATOM     43  N   UNL A   1      42.257  29.935  29.496  1.00  0.00    -0.248 NA
ATOM     44  C   UNL A   1      40.360  31.195  30.007  1.00  0.00     0.031 C 
ATOM     45  C   UNL A   1      39.586  26.597  28.147  1.00  0.00     0.029 A 
ATOM     46  N   UNL A   1      41.686  27.159  28.667  1.00  0.00    -0.354 N 
ATOM     47  C   UNL A   1      42.647  31.161  30.022  1.00  0.00     0.074 A 
ATOM     48  C   UNL A   1      41.439  31.912  30.287  1.00  0.00     0.031 C 
ATOM     49  C   UNL A   1      40.348  25.506  27.973  1.00  0.00     0.029 A 
ATOM     50  C   UNL A   1      41.740  25.855  28.232  1.00  0.00     0.049 A 
ATOM     51  H   UNL A   1      42.474  27.656  28.981  1.00  0.00     0.167 HD
ATOM     52  C   UNL A   1      43.902  31.617  30.253  1.00  0.00     0.037 A 
ATOM     53  C   UNL A   1      42.796  25.049  28.013  1.00  0.00     0.037 A 
ATOM     54  C   UNL A   1      45.092  30.839  30.025  1.00  0.00     0.049 A 
ATOM     55  C   UNL A   1      44.180  25.589  28.227  1.00  0.00     0.074 A 
ATOM     56  C   UNL A   1      46.411  31.199  30.233  1.00  0.00     0.029 A 
ATOM     57  N   UNL A   1      45.103  29.535  29.551  1.00  0.00    -0.354 N 
ATOM     58  N   UNL A   1      44.543  26.775  28.654  1.00  0.00    -0.248 NA
ATOM     59  C   UNL A   1      45.300  24.697  27.900  1.00  0.00     0.031 C 
ATOM     60  C   UNL A   1      47.221  30.121  29.855  1.00  0.00     0.029 A 
ATOM     61  C   UNL A   1      46.405  29.078  29.445  1.00  0.00     0.049 A 
ATOM     62  H   UNL A   1      44.301  29.010  29.322  1.00  0.00     0.167 HD
ATOM     63  C   UNL A   1      45.932  26.773  28.650  1.00  0.00     0.074 A 
ATOM     64  C   UNL A   1      46.345  25.460  28.193  1.00  0.00     0.031 C 
ATOM     65  C   UNL A   1      46.789  27.768  28.985  1.00  0.00     0.037 A 
BRANCH  52  66
ATOM     66  C   UNL A   1      44.048  33.031  30.740  1.00  0.00     0.058 A 
ATOM     67  C   UNL A   1      44.031  34.126  29.864  1.00  0.00     0.135 A 
ATOM     68  C   UNL A   1      44.199  33.293  32.112  1.00  0.00     0.135 A 
ATOM     69  F   UNL A   1      43.907  33.932  28.541  1.00  0.00    -0.206 F 
ATOM     70  C   UNL A   1      44.192  35.431  30.326  1.00  0.00     0.059 A 
ATOM     71  C   UNL A   1      44.337  34.590  32.599  1.00  0.00     0.059 A 
ATOM     72  F   UNL A   1      44.223  32.282  32.995  1.00  0.00    -0.206 F 
ATOM     73  C   UNL A   1      44.351  35.651  31.695  1.00  0.00     0.060 A 
BRANCH  73  74
ATOM     74  S   UNL A   1      44.578  37.344  32.281  1.00  0.00     0.124 S 
ATOM     75  O   UNL A   1      43.398  37.520  33.123  1.00  0.00    -0.237 OA
ATOM     76  O   UNL A   1      45.853  37.265  32.987  1.00  0.00    -0.237 OA
ATOM     77  O   UNL A   1      44.595  38.130  31.051  1.00  0.00    -0.744 OA
ENDBRANCH  73  74
ENDBRANCH  52  66
BRANCH  53  78
ATOM     78  C   UNL A   1      42.576  23.665  27.518  1.00  0.00     0.058 A 
ATOM     79  C   UNL A   1      42.570  23.385  26.145  1.00  0.00     0.135 A 
ATOM     80  C   UNL A   1      42.412  22.589  28.406  1.00  0.00     0.135 A 
ATOM     81  F   UNL A   1      42.710  24.380  25.257  1.00  0.00    -0.206 F 
ATOM     82  C   UNL A   1      42.414  22.087  25.666  1.00  0.00     0.059 A 
ATOM     83  C   UNL A   1      42.280  21.281  27.954  1.00  0.00     0.059 A 
ATOM     84  F   UNL A   1      42.419  22.804  29.731  1.00  0.00    -0.206 F 
ATOM     85  C   UNL A   1      42.277  21.040  26.580  1.00  0.00     0.060 A 
BRANCH  85  86
ATOM     86  S   UNL A   1      42.155  19.350  25.956  1.00  0.00     0.124 S 
ATOM     87  O   UNL A   1      42.685  18.583  27.078  1.00  0.00    -0.237 OA
ATOM     88  O   UNL A   1      40.724  19.213  25.709  1.00  0.00    -0.237 OA
ATOM     89  O   UNL A   1      42.990  19.375  24.758  1.00  0.00    -0.744 OA
ENDBRANCH  85  86
ENDBRANCH  53  78
BRANCH  65  90
ATOM     90  C   UNL A   1      48.256  27.470  28.882  1.00  0.00     0.058 A 
ATOM     91  C   UNL A   1      48.991  27.809  27.737  1.00  0.00     0.135 A 
ATOM     92  C   UNL A   1      48.943  26.894  29.963  1.00  0.00     0.135 A 
ATOM     93  F   UNL A   1      48.376  28.353  26.675  1.00  0.00    -0.206 F 
ATOM     94  C   UNL A   1      50.361  27.577  27.661  1.00  0.00     0.059 A 
ATOM     95  C   UNL A   1      50.315  26.672  29.916  1.00  0.00     0.059 A 
ATOM     96  F   UNL A   1      48.282  26.559  31.082  1.00  0.00    -0.206 F 
ATOM     97  C   UNL A   1      51.014  27.011  28.758  1.00  0.00     0.060 A 
BRANCH  97  98
ATOM     98  S   UNL A   1      52.799  26.760  28.668  1.00  0.00     0.124 S 
ATOM     99  O   UNL A   1      53.095  26.274  30.011  1.00  0.00    -0.237 OA
ATOM    100  O   UNL A   1      52.926  25.778  27.596  1.00  0.00    -0.237 OA
ATOM    101  O   UNL A   1      53.312  28.090  28.354  1.00  0.00    -0.744 OA
ENDBRANCH  97  98
ENDBRANCH  65  90
ENDBRANCH  39  40
ENDBRANCH  32  34
ENDBRANCH  31  32
ENDBRANCH  30  31
ENDBRANCH   1  30
TORSDOF 19
ENDMDL
MODEL 2
REMARK VINA RESULT:     -12.0      1.957      2.597
REMARK SMILES NC(=O)[C@H]1CN(C(=O)CSc2ccccc2C(=O)OCCOC(=O)c2ccc(-c3c4nc(c(-c5c(F)cc(S(=O)(=O)[O-])cc5F)c5ccc([nH]5)c(-c5c(F)cc(S(=O)(=O)[O-])cc5F)c5nc(c(-c6c(F)cc(S(=O)(=O)[O-])cc6F)c6ccc3[nH]6)C=C5)C=C4)cc2)c2ccccc2O1
REMARK SMILES IDX 20 1 19 2 17 3 18 4 16 5 11 6 12 7 13 8 15 9 14 10 10 11
REMARK SMILES IDX 9 12 7 13 8 14 6 15 4 16 5 17 97 18 96 19 91 20 95 21 92 22
REMARK SMILES IDX 94 23 93 24 2 25 1 26 3 29 21 30 22 31 23 32 24 33 25 34
REMARK SMILES IDX 26 35 90 36 27 37 89 38 28 39 29 40 30 41 83 42 31 43 88 44
REMARK SMILES IDX 82 45 84 46 32 47 87 48 81 49 80 50 33 52 67 53 46 54 66 55
REMARK SMILES IDX 47 56 50 57 65 58 85 59 48 60 49 61 64 63 86 64 51 65 34 66
REMARK SMILES IDX 35 67 44 68 36 69 37 70 43 71 45 72 38 73 39 74 40 75 41 76
REMARK SMILES IDX 42 77 68 78 69 79 78 80 70 81 71 82 77 83 79 84 72 85 73 86
REMARK SMILES IDX 74 87 75 88 76 89 52 90 53 91 62 92 54 93 55 94 61 95 63 96
REMARK SMILES IDX 56 97 57 98 58 99 59 100 60 101
REMARK H PARENT 1 27 1 28 84 51 50 62
REMARK Flexibility Score: inf
ROOT
ATOM      1  C   UNL A   1      33.528  29.348  26.828  1.00  0.00     0.275 C 
ENDROOT
BRANCH   1   2
ATOM      2  O   UNL A   1      32.828  29.767  25.637  1.00  0.00    -0.458 OA
BRANCH   2   3
ATOM      3  C   UNL A   1      32.904  28.944  24.559  1.00  0.00     0.339 C 
ATOM      4  O   UNL A   1      33.918  28.662  23.944  1.00  0.00    -0.246 OA
BRANCH   3   5
ATOM      5  C   UNL A   1      31.587  28.342  24.235  1.00  0.00     0.073 A 
ATOM      6  C   UNL A   1      31.241  27.006  24.510  1.00  0.00     0.022 A 
ATOM      7  C   UNL A   1      29.977  26.545  24.106  1.00  0.00     0.016 A 
ATOM      8  C   UNL A   1      29.053  27.403  23.503  1.00  0.00     0.001 A 
ATOM      9  C   UNL A   1      30.626  29.210  23.684  1.00  0.00     0.017 A 
ATOM     10  C   UNL A   1      29.371  28.740  23.306  1.00  0.00     0.001 A 
BRANCH   6  11
ATOM     11  S   UNL A   1      32.335  25.892  25.392  1.00  0.00    -0.115 SA
BRANCH  11  12
ATOM     12  C   UNL A   1      31.619  24.247  25.037  1.00  0.00     0.175 C 
BRANCH  12  13
ATOM     13  C   UNL A   1      32.466  23.366  24.126  1.00  0.00     0.237 C 
ATOM     14  O   UNL A   1      32.463  23.637  22.921  1.00  0.00    -0.274 OA
BRANCH  13  15
ATOM     15  N   UNL A   1      33.215  22.333  24.695  1.00  0.00    -0.304 N 
ATOM     16  C   UNL A   1      33.340  19.889  24.687  1.00  0.00     0.281 C 
ATOM     17  C   UNL A   1      32.650  21.109  25.285  1.00  0.00     0.181 C 
ATOM     18  O   UNL A   1      34.719  19.884  25.056  1.00  0.00    -0.477 OA
ATOM     19  C   UNL A   1      35.334  21.107  24.934  1.00  0.00     0.144 A 
ATOM     20  C   UNL A   1      34.655  22.329  24.734  1.00  0.00     0.086 A 
ATOM     21  C   UNL A   1      36.726  21.064  25.042  1.00  0.00     0.049 A 
ATOM     22  C   UNL A   1      35.424  23.496  24.647  1.00  0.00     0.030 A 
ATOM     23  C   UNL A   1      37.470  22.235  24.957  1.00  0.00     0.004 A 
ATOM     24  C   UNL A   1      36.819  23.450  24.763  1.00  0.00     0.002 A 
BRANCH  16  25
ATOM     25  C   UNL A   1      32.664  18.609  25.191  1.00  0.00     0.260 C 
ATOM     26  N   UNL A   1      32.902  18.273  26.497  1.00  0.00    -0.366 N 
ATOM     27  H   UNL A   1      32.495  17.462  26.879  1.00  0.00     0.159 HD
ATOM     28  H   UNL A   1      33.479  18.843  27.055  1.00  0.00     0.159 HD
ATOM     29  O   UNL A   1      31.939  17.882  24.519  1.00  0.00    -0.271 OA
ENDBRANCH  16  25
ENDBRANCH  13  15
ENDBRANCH  12  13
ENDBRANCH  11  12
ENDBRANCH   6  11
ENDBRANCH   3   5
ENDBRANCH   2   3
ENDBRANCH   1   2
BRANCH   1  30
ATOM     30  C   UNL A   1      34.044  30.541  27.623  1.00  0.00     0.275 C 
BRANCH  30  31
ATOM     31  O   UNL A   1      35.473  30.568  27.562  1.00  0.00    -0.458 OA
BRANCH  31  32
ATOM     32  C   UNL A   1      36.095  30.675  28.752  1.00  0.00     0.338 C 
ATOM     33  O   UNL A   1      35.645  31.110  29.804  1.00  0.00    -0.246 OA
BRANCH  32  34
ATOM     34  C   UNL A   1      37.434  30.107  28.612  1.00  0.00     0.060 A 
ATOM     35  C   UNL A   1      38.194  29.913  29.763  1.00  0.00     0.016 A 
ATOM     36  C   UNL A   1      37.954  29.824  27.353  1.00  0.00     0.016 A 
ATOM     37  C   UNL A   1      39.516  29.495  29.661  1.00  0.00     0.010 A 
ATOM     38  C   UNL A   1      39.255  29.328  27.257  1.00  0.00     0.010 A 
ATOM     39  C   UNL A   1      40.056  29.180  28.406  1.00  0.00    -0.014 A 
BRANCH  39  40
ATOM     40  C   UNL A   1      41.463  28.723  28.277  1.00  0.00     0.031 A 
ATOM     41  C   UNL A   1      42.581  29.719  28.405  1.00  0.00     0.074 A 
ATOM     42  C   UNL A   1      41.738  27.428  28.029  1.00  0.00     0.049 A 
ATOM     43  N   UNL A   1      43.844  29.591  28.091  1.00  0.00    -0.248 NA
ATOM     44  C   UNL A   1      42.226  31.043  28.941  1.00  0.00     0.031 C 
ATOM     45  C   UNL A   1      40.749  26.351  27.943  1.00  0.00     0.029 A 
ATOM     46  N   UNL A   1      42.934  26.797  27.797  1.00  0.00    -0.354 N 
ATOM     47  C   UNL A   1      44.422  30.831  28.335  1.00  0.00     0.074 A 
ATOM     48  C   UNL A   1      43.373  31.698  28.826  1.00  0.00     0.031 C 
ATOM     49  C   UNL A   1      41.380  25.191  27.703  1.00  0.00     0.029 A 
ATOM     50  C   UNL A   1      42.803  25.454  27.527  1.00  0.00     0.049 A 
ATOM     51  H   UNL A   1      43.801  27.260  27.821  1.00  0.00     0.167 HD
ATOM     52  C   UNL A   1      45.712  31.207  28.158  1.00  0.00     0.037 A 
ATOM     53  C   UNL A   1      43.716  24.548  27.129  1.00  0.00     0.037 A 
ATOM     54  C   UNL A   1      46.752  30.318  27.712  1.00  0.00     0.049 A 
ATOM     55  C   UNL A   1      45.129  24.997  26.890  1.00  0.00     0.074 A 
ATOM     56  C   UNL A   1      48.092  30.592  27.506  1.00  0.00     0.029 A 
ATOM     57  N   UNL A   1      46.569  28.975  27.416  1.00  0.00    -0.354 N 
ATOM     58  N   UNL A   1      45.652  26.189  27.053  1.00  0.00    -0.248 NA
ATOM     59  C   UNL A   1      46.069  23.990  26.382  1.00  0.00     0.031 C 
ATOM     60  C   UNL A   1      48.713  29.421  27.057  1.00  0.00     0.029 A 
ATOM     61  C   UNL A   1      47.766  28.408  27.016  1.00  0.00     0.049 A 
ATOM     62  H   UNL A   1      45.711  28.494  27.481  1.00  0.00     0.167 HD
ATOM     63  C   UNL A   1      46.982  26.076  26.670  1.00  0.00     0.074 A 
ATOM     64  C   UNL A   1      47.189  24.694  26.283  1.00  0.00     0.031 C 
ATOM     65  C   UNL A   1      47.945  27.030  26.634  1.00  0.00     0.037 A 
BRANCH  52  66
ATOM     66  C   UNL A   1      46.054  32.649  28.409  1.00  0.00     0.058 A 
ATOM     67  C   UNL A   1      46.485  33.104  29.665  1.00  0.00     0.135 A 
ATOM     68  C   UNL A   1      45.956  33.590  27.370  1.00  0.00     0.135 A 
ATOM     69  F   UNL A   1      46.579  32.252  30.697  1.00  0.00    -0.206 F 
ATOM     70  C   UNL A   1      46.775  34.448  29.890  1.00  0.00     0.059 A 
ATOM     71  C   UNL A   1      46.264  34.933  27.567  1.00  0.00     0.059 A 
ATOM     72  F   UNL A   1      45.547  33.208  26.149  1.00  0.00    -0.206 F 
ATOM     73  C   UNL A   1      46.655  35.355  28.837  1.00  0.00     0.060 A 
BRANCH  73  74
ATOM     74  S   UNL A   1      47.015  37.098  29.145  1.00  0.00     0.124 S 
ATOM     75  O   UNL A   1      48.087  37.002  30.132  1.00  0.00    -0.237 OA
ATOM     76  O   UNL A   1      47.412  37.576  27.825  1.00  0.00    -0.237 OA
ATOM     77  O   UNL A   1      45.748  37.624  29.644  1.00  0.00    -0.744 OA
ENDBRANCH  73  74
ENDBRANCH  52  66
BRANCH  53  78
ATOM     78  C   UNL A   1      43.302  23.142  26.887  1.00  0.00     0.058 A 
ATOM     79  C   UNL A   1      43.209  22.634  25.584  1.00  0.00     0.135 A 
ATOM     80  C   UNL A   1      43.034  22.266  27.952  1.00  0.00     0.135 A 
ATOM     81  F   UNL A   1      43.443  23.435  24.534  1.00  0.00    -0.206 F 
ATOM     82  C   UNL A   1      42.871  21.305  25.342  1.00  0.00     0.059 A 
ATOM     83  C   UNL A   1      42.718  20.929  27.737  1.00  0.00     0.059 A 
ATOM     84  F   UNL A   1      43.118  22.702  29.219  1.00  0.00    -0.206 F 
ATOM     85  C   UNL A   1      42.634  20.459  26.427  1.00  0.00     0.060 A 
BRANCH  85  86
ATOM     86  S   UNL A   1      42.272  18.718  26.109  1.00  0.00     0.124 S 
ATOM     87  O   UNL A   1      40.858  18.772  25.754  1.00  0.00    -0.237 OA
ATOM     88  O   UNL A   1      43.192  18.404  25.021  1.00  0.00    -0.237 OA
ATOM     89  O   UNL A   1      42.579  18.075  27.384  1.00  0.00    -0.744 OA
ENDBRANCH  85  86
ENDBRANCH  53  78
BRANCH  65  90
ATOM     90  C   UNL A   1      49.308  26.609  26.172  1.00  0.00     0.058 A 
ATOM     91  C   UNL A   1      49.744  26.853  24.861  1.00  0.00     0.135 A 
ATOM     92  C   UNL A   1      50.209  26.008  27.066  1.00  0.00     0.135 A 
ATOM     93  F   UNL A   1      48.915  27.416  23.968  1.00  0.00    -0.206 F 
ATOM     94  C   UNL A   1      51.025  26.506  24.448  1.00  0.00     0.059 A 
ATOM     95  C   UNL A   1      51.501  25.670  26.679  1.00  0.00     0.059 A 
ATOM     96  F   UNL A   1      49.839  25.760  28.333  1.00  0.00    -0.206 F 
ATOM     97  C   UNL A   1      51.898  25.917  25.365  1.00  0.00     0.060 A 
BRANCH  97  98
ATOM     98  S   UNL A   1      53.575  25.516  24.832  1.00  0.00     0.124 S 
ATOM     99  O   UNL A   1      54.374  26.326  25.745  1.00  0.00    -0.237 OA
ATOM    100  O   UNL A   1      53.637  24.073  25.045  1.00  0.00    -0.237 OA
ATOM    101  O   UNL A   1      53.596  25.939  23.436  1.00  0.00    -0.744 OA
ENDBRANCH  97  98
ENDBRANCH  65  90
ENDBRANCH  39  40
ENDBRANCH  32  34
ENDBRANCH  31  32
ENDBRANCH  30  31
ENDBRANCH   1  30
TORSDOF 19
ENDMDL
MODEL 3
REMARK VINA RESULT:     -11.6      5.043     10.600
REMARK SMILES NC(=O)[C@H]1CN(C(=O)CSc2ccccc2C(=O)OCCOC(=O)c2ccc(-c3c4nc(c(-c5c(F)cc(S(=O)(=O)[O-])cc5F)c5ccc([nH]5)c(-c5c(F)cc(S(=O)(=O)[O-])cc5F)c5nc(c(-c6c(F)cc(S(=O)(=O)[O-])cc6F)c6ccc3[nH]6)C=C5)C=C4)cc2)c2ccccc2O1
REMARK SMILES IDX 20 1 19 2 17 3 18 4 16 5 11 6 12 7 13 8 15 9 14 10 10 11
REMARK SMILES IDX 9 12 7 13 8 14 6 15 4 16 5 17 97 18 96 19 91 20 95 21 92 22
REMARK SMILES IDX 94 23 93 24 2 25 1 26 3 29 21 30 22 31 23 32 24 33 25 34
REMARK SMILES IDX 26 35 90 36 27 37 89 38 28 39 29 40 30 41 83 42 31 43 88 44
REMARK SMILES IDX 82 45 84 46 32 47 87 48 81 49 80 50 33 52 67 53 46 54 66 55
REMARK SMILES IDX 47 56 50 57 65 58 85 59 48 60 49 61 64 63 86 64 51 65 34 66
REMARK SMILES IDX 35 67 44 68 36 69 37 70 43 71 45 72 38 73 39 74 40 75 41 76
REMARK SMILES IDX 42 77 68 78 69 79 78 80 70 81 71 82 77 83 79 84 72 85 73 86
REMARK SMILES IDX 74 87 75 88 76 89 52 90 53 91 62 92 54 93 55 94 61 95 63 96
REMARK SMILES IDX 56 97 57 98 58 99 59 100 60 101
REMARK H PARENT 1 27 1 28 84 51 50 62
REMARK Flexibility Score: inf
ROOT
ATOM      1  C   UNL A   1      37.046  22.550  25.796  1.00  0.00     0.275 C 
ENDROOT
BRANCH   1   2
ATOM      2  O   UNL A   1      36.197  23.507  25.126  1.00  0.00    -0.458 OA
BRANCH   2   3
ATOM      3  C   UNL A   1      35.804  23.201  23.863  1.00  0.00     0.339 C 
ATOM      4  O   UNL A   1      36.493  23.277  22.861  1.00  0.00    -0.246 OA
BRANCH   3   5
ATOM      5  C   UNL A   1      34.416  22.676  23.832  1.00  0.00     0.073 A 
ATOM      6  C   UNL A   1      33.299  23.423  23.417  1.00  0.00     0.022 A 
ATOM      7  C   UNL A   1      32.030  22.823  23.482  1.00  0.00     0.016 A 
ATOM      8  C   UNL A   1      31.879  21.493  23.889  1.00  0.00     0.001 A 
ATOM      9  C   UNL A   1      34.258  21.322  24.180  1.00  0.00     0.017 A 
ATOM     10  C   UNL A   1      32.994  20.737  24.223  1.00  0.00     0.001 A 
BRANCH   6  11
ATOM     11  S   UNL A   1      33.443  25.088  22.768  1.00  0.00    -0.115 SA
BRANCH  11  12
ATOM     12  C   UNL A   1      31.752  25.442  22.167  1.00  0.00     0.175 C 
BRANCH  12  13
ATOM     13  C   UNL A   1      31.073  26.631  22.837  1.00  0.00     0.237 C 
ATOM     14  O   UNL A   1      30.696  27.551  22.104  1.00  0.00    -0.274 OA
BRANCH  13  15
ATOM     15  N   UNL A   1      30.886  26.606  24.222  1.00  0.00    -0.304 N 
ATOM     16  C   UNL A   1      31.241  25.117  26.131  1.00  0.00     0.281 C 
ATOM     17  C   UNL A   1      30.316  25.477  24.975  1.00  0.00     0.181 C 
ATOM     18  O   UNL A   1      31.297  26.199  27.060  1.00  0.00    -0.477 OA
ATOM     19  C   UNL A   1      31.438  27.433  26.472  1.00  0.00     0.144 A 
ATOM     20  C   UNL A   1      31.273  27.687  25.092  1.00  0.00     0.086 A 
ATOM     21  C   UNL A   1      31.752  28.463  27.363  1.00  0.00     0.049 A 
ATOM     22  C   UNL A   1      31.433  29.005  24.647  1.00  0.00     0.030 A 
ATOM     23  C   UNL A   1      31.902  29.766  26.900  1.00  0.00     0.004 A 
ATOM     24  C   UNL A   1      31.739  30.036  25.545  1.00  0.00     0.002 A 
BRANCH  16  25
ATOM     25  C   UNL A   1      30.727  23.856  26.836  1.00  0.00     0.260 C 
ATOM     26  N   UNL A   1      29.368  23.703  26.887  1.00  0.00    -0.366 N 
ATOM     27  H   UNL A   1      28.978  22.912  27.327  1.00  0.00     0.159 HD
ATOM     28  H   UNL A   1      28.780  24.382  26.484  1.00  0.00     0.159 HD
ATOM     29  O   UNL A   1      31.437  22.994  27.345  1.00  0.00    -0.271 OA
ENDBRANCH  16  25
ENDBRANCH  13  15
ENDBRANCH  12  13
ENDBRANCH  11  12
ENDBRANCH   6  11
ENDBRANCH   3   5
ENDBRANCH   2   3
ENDBRANCH   1   2
BRANCH   1  30
ATOM     30  C   UNL A   1      38.514  22.946  25.711  1.00  0.00     0.275 C 
BRANCH  30  31
ATOM     31  O   UNL A   1      38.890  23.628  26.910  1.00  0.00    -0.458 OA
BRANCH  31  32
ATOM     32  C   UNL A   1      40.104  24.210  26.882  1.00  0.00     0.338 C 
ATOM     33  O   UNL A   1      41.075  23.901  26.203  1.00  0.00    -0.246 OA
BRANCH  32  34
ATOM     34  C   UNL A   1      40.071  25.364  27.776  1.00  0.00     0.060 A 
ATOM     35  C   UNL A   1      40.991  26.390  27.569  1.00  0.00     0.016 A 
ATOM     36  C   UNL A   1      39.180  25.407  28.844  1.00  0.00     0.016 A 
ATOM     37  C   UNL A   1      41.075  27.442  28.472  1.00  0.00     0.010 A 
ATOM     38  C   UNL A   1      39.211  26.505  29.705  1.00  0.00     0.010 A 
ATOM     39  C   UNL A   1      40.173  27.520  29.542  1.00  0.00    -0.014 A 
BRANCH  39  40
ATOM     40  C   UNL A   1      40.240  28.642  30.513  1.00  0.00     0.031 A 
ATOM     41  C   UNL A   1      41.264  28.610  31.613  1.00  0.00     0.074 A 
ATOM     42  C   UNL A   1      39.379  29.674  30.422  1.00  0.00     0.049 A 
ATOM     43  N   UNL A   1      41.342  29.343  32.693  1.00  0.00    -0.248 NA
ATOM     44  C   UNL A   1      42.333  27.606  31.489  1.00  0.00     0.031 C 
ATOM     45  C   UNL A   1      38.379  29.855  29.367  1.00  0.00     0.029 A 
ATOM     46  N   UNL A   1      39.203  30.765  31.236  1.00  0.00    -0.354 N 
ATOM     47  C   UNL A   1      42.430  28.853  33.405  1.00  0.00     0.074 A 
ATOM     48  C   UNL A   1      42.984  27.761  32.634  1.00  0.00     0.031 C 
ATOM     49  C   UNL A   1      37.714  31.000  29.584  1.00  0.00     0.029 A 
ATOM     50  C   UNL A   1      38.173  31.585  30.837  1.00  0.00     0.049 A 
ATOM     51  H   UNL A   1      39.759  30.943  32.027  1.00  0.00     0.167 HD
ATOM     52  C   UNL A   1      42.914  29.275  34.598  1.00  0.00     0.037 A 
ATOM     53  C   UNL A   1      37.625  32.657  31.441  1.00  0.00     0.037 A 
ATOM     54  C   UNL A   1      42.378  30.392  35.330  1.00  0.00     0.049 A 
ATOM     55  C   UNL A   1      38.142  33.079  32.786  1.00  0.00     0.074 A 
ATOM     56  C   UNL A   1      42.796  30.910  36.543  1.00  0.00     0.029 A 
ATOM     57  N   UNL A   1      41.312  31.174  34.908  1.00  0.00    -0.354 N 
ATOM     58  N   UNL A   1      39.124  32.563  33.487  1.00  0.00    -0.248 NA
ATOM     59  C   UNL A   1      37.459  34.203  33.438  1.00  0.00     0.031 C 
ATOM     60  C   UNL A   1      41.963  31.988  36.867  1.00  0.00     0.029 A 
ATOM     61  C   UNL A   1      41.048  32.162  35.840  1.00  0.00     0.049 A 
ATOM     62  H   UNL A   1      40.815  31.045  34.067  1.00  0.00     0.167 HD
ATOM     63  C   UNL A   1      39.180  33.301  34.663  1.00  0.00     0.074 A 
ATOM     64  C   UNL A   1      38.143  34.311  34.571  1.00  0.00     0.031 C 
ATOM     65  C   UNL A   1      40.008  33.153  35.726  1.00  0.00     0.037 A 
BRANCH  52  66
ATOM     66  C   UNL A   1      44.053  28.499  35.198  1.00  0.00     0.058 A 
ATOM     67  C   UNL A   1      43.843  27.368  36.000  1.00  0.00     0.135 A 
ATOM     68  C   UNL A   1      45.380  28.894  34.958  1.00  0.00     0.135 A 
ATOM     69  F   UNL A   1      42.595  26.958  36.278  1.00  0.00    -0.206 F 
ATOM     70  C   UNL A   1      44.907  26.673  36.571  1.00  0.00     0.059 A 
ATOM     71  C   UNL A   1      46.459  28.200  35.498  1.00  0.00     0.059 A 
ATOM     72  F   UNL A   1      45.638  29.970  34.198  1.00  0.00    -0.206 F 
ATOM     73  C   UNL A   1      46.211  27.102  36.319  1.00  0.00     0.060 A 
BRANCH  73  74
ATOM     74  S   UNL A   1      47.582  26.205  37.079  1.00  0.00     0.124 S 
ATOM     75  O   UNL A   1      47.201  24.819  36.819  1.00  0.00    -0.237 OA
ATOM     76  O   UNL A   1      48.734  26.696  36.330  1.00  0.00    -0.237 OA
ATOM     77  O   UNL A   1      47.525  26.620  38.478  1.00  0.00    -0.744 OA
ENDBRANCH  73  74
ENDBRANCH  52  66
BRANCH  53  78
ATOM     78  C   UNL A   1      36.491  33.367  30.794  1.00  0.00     0.058 A 
ATOM     79  C   UNL A   1      35.190  33.261  31.305  1.00  0.00     0.135 A 
ATOM     80  C   UNL A   1      36.691  34.199  29.680  1.00  0.00     0.135 A 
ATOM     81  F   UNL A   1      34.946  32.469  32.360  1.00  0.00    -0.206 F 
ATOM     82  C   UNL A   1      34.126  33.959  30.740  1.00  0.00     0.059 A 
ATOM     83  C   UNL A   1      35.649  34.926  29.114  1.00  0.00     0.059 A 
ATOM     84  F   UNL A   1      37.920  34.341  29.159  1.00  0.00    -0.206 F 
ATOM     85  C   UNL A   1      34.368  34.795  29.649  1.00  0.00     0.060 A 
BRANCH  85  86
ATOM     86  S   UNL A   1      32.999  35.757  28.970  1.00  0.00     0.124 S 
ATOM     87  O   UNL A   1      32.258  36.106  30.177  1.00  0.00    -0.237 OA
ATOM     88  O   UNL A   1      33.692  36.857  28.307  1.00  0.00    -0.237 OA
ATOM     89  O   UNL A   1      32.338  34.813  28.074  1.00  0.00    -0.744 OA
ENDBRANCH  85  86
ENDBRANCH  53  78
BRANCH  65  90
ATOM     90  C   UNL A   1      39.834  34.112  36.867  1.00  0.00     0.058 A 
ATOM     91  C   UNL A   1      40.305  35.431  36.791  1.00  0.00     0.135 A 
ATOM     92  C   UNL A   1      39.137  33.724  38.023  1.00  0.00     0.135 A 
ATOM     93  F   UNL A   1      40.984  35.844  35.710  1.00  0.00    -0.206 F 
ATOM     94  C   UNL A   1      40.100  36.333  37.829  1.00  0.00     0.059 A 
ATOM     95  C   UNL A   1      38.905  34.615  39.064  1.00  0.00     0.059 A 
ATOM     96  F   UNL A   1      38.663  32.474  38.137  1.00  0.00    -0.206 F 
ATOM     97  C   UNL A   1      39.396  35.916  38.961  1.00  0.00     0.060 A 
BRANCH  97  98
ATOM     98  S   UNL A   1      39.093  37.109  40.281  1.00  0.00     0.124 S 
ATOM     99  O   UNL A   1      40.430  37.271  40.843  1.00  0.00    -0.237 OA
ATOM    100  O   UNL A   1      38.569  38.260  39.552  1.00  0.00    -0.237 OA
ATOM    101  O   UNL A   1      38.130  36.427  41.139  1.00  0.00    -0.744 OA
ENDBRANCH  97  98
ENDBRANCH  65  90
ENDBRANCH  39  40
ENDBRANCH  32  34
ENDBRANCH  31  32
ENDBRANCH  30  31
ENDBRANCH   1  30
TORSDOF 19
ENDMDL
