MODEL 1
REMARK VINA RESULT:     -12.0      0.000      0.000
REMARK SMILES CC[C@@]1(CC(=O)OCCOC(=O)c2ccc(-c3c4nc(c(-c5c(F)cc(S(=O)(=O)[O-])cc5F)c5ccc([nH]5)c(-c5c(F)cc(S(=O)(=O)[O-])cc5F)c5nc(c(-c6c(F)cc(S(=O)(=O)[O-])cc6F)c6ccc3[nH]6)C=C5)C=C4)cc2)OC[C@H](Cc2ccccc2)c2c1[nH]c1ccccc21
REMARK SMILES IDX 8 1 7 2 5 3 6 4 4 5 3 6 79 7 90 8 80 9 89 10 91 11 81 12
REMARK SMILES IDX 97 13 92 14 96 16 93 17 95 18 94 19 2 20 1 21 82 22 83 23
REMARK SMILES IDX 84 24 88 25 85 26 87 27 86 28 9 29 10 30 11 31 12 32 13 33
REMARK SMILES IDX 14 34 78 35 15 36 77 37 16 38 17 39 18 40 71 41 19 42 76 43
REMARK SMILES IDX 70 44 72 45 20 46 75 47 69 48 68 49 21 51 55 52 34 53 54 54
REMARK SMILES IDX 35 55 38 56 53 57 73 58 36 59 37 60 52 62 74 63 39 64 22 65
REMARK SMILES IDX 23 66 32 67 24 68 25 69 31 70 33 71 26 72 27 73 28 74 29 75
REMARK SMILES IDX 30 76 56 77 57 78 66 79 58 80 59 81 65 82 67 83 60 84 61 85
REMARK SMILES IDX 62 86 63 87 64 88 40 89 41 90 50 91 42 92 43 93 49 94 51 95
REMARK SMILES IDX 44 96 45 97 46 98 47 99 48 100
REMARK H PARENT 91 15 72 50 38 61
REMARK Flexibility Score: inf
ROOT
ATOM      1  C   UNL A   1      36.312  23.270  24.277  1.00  0.00     0.274 C 
ENDROOT
BRANCH   1   2
ATOM      2  O   UNL A   1      35.546  23.184  23.060  1.00  0.00    -0.462 OA
BRANCH   2   3
ATOM      3  C   UNL A   1      34.226  23.473  23.075  1.00  0.00     0.309 C 
ATOM      4  O   UNL A   1      33.400  22.728  22.563  1.00  0.00    -0.252 OA
BRANCH   3   5
ATOM      5  C   UNL A   1      33.887  24.842  23.744  1.00  0.00     0.164 C 
BRANCH   5   6
ATOM      6  C   UNL A   1      32.849  24.920  24.945  1.00  0.00     0.118 C 
ATOM      7  O   UNL A   1      31.426  24.707  24.684  1.00  0.00    -0.368 OA
ATOM      8  C   UNL A   1      32.857  26.315  25.470  1.00  0.00     0.053 A 
ATOM      9  C   UNL A   1      30.658  25.697  23.949  1.00  0.00     0.170 C 
ATOM     10  C   UNL A   1      31.930  27.316  25.267  1.00  0.00    -0.011 A 
ATOM     11  N   UNL A   1      33.871  26.838  26.199  1.00  0.00    -0.356 N 
ATOM     12  C   UNL A   1      30.718  27.151  24.433  1.00  0.00     0.052 C 
ATOM     13  C   UNL A   1      32.376  28.463  25.957  1.00  0.00     0.003 A 
ATOM     14  C   UNL A   1      33.581  28.118  26.555  1.00  0.00     0.046 A 
ATOM     15  H   UNL A   1      34.699  26.359  26.437  1.00  0.00     0.166 HD
ATOM     16  C   UNL A   1      31.889  29.769  26.106  1.00  0.00     0.010 A 
ATOM     17  C   UNL A   1      34.331  28.989  27.328  1.00  0.00     0.026 A 
ATOM     18  C   UNL A   1      32.644  30.672  26.855  1.00  0.00     0.001 A 
ATOM     19  C   UNL A   1      33.837  30.281  27.463  1.00  0.00     0.002 A 
BRANCH   6  20
ATOM     20  C   UNL A   1      33.217  23.905  26.062  1.00  0.00     0.039 C 
ATOM     21  C   UNL A   1      32.029  23.395  26.894  1.00  0.00     0.007 C 
ENDBRANCH   6  20
BRANCH  12  22
ATOM     22  C   UNL A   1      30.757  28.121  23.215  1.00  0.00     0.046 C 
BRANCH  22  23
ATOM     23  C   UNL A   1      29.616  29.105  23.204  1.00  0.00    -0.047 A 
ATOM     24  C   UNL A   1      29.806  30.475  23.363  1.00  0.00     0.004 A 
ATOM     25  C   UNL A   1      28.321  28.646  23.038  1.00  0.00     0.004 A 
ATOM     26  C   UNL A   1      28.717  31.330  23.552  1.00  0.00     0.000 A 
ATOM     27  C   UNL A   1      27.231  29.511  23.178  1.00  0.00     0.000 A 
ATOM     28  C   UNL A   1      27.423  30.838  23.504  1.00  0.00     0.000 A 
ENDBRANCH  22  23
ENDBRANCH  12  22
ENDBRANCH   5   6
ENDBRANCH   3   5
ENDBRANCH   2   3
ENDBRANCH   1   2
BRANCH   1  29
ATOM     29  C   UNL A   1      36.967  21.912  24.562  1.00  0.00     0.275 C 
BRANCH  29  30
ATOM     30  O   UNL A   1      38.214  22.099  25.282  1.00  0.00    -0.458 OA
BRANCH  30  31
ATOM     31  C   UNL A   1      38.844  20.995  25.725  1.00  0.00     0.338 C 
ATOM     32  O   UNL A   1      38.587  19.836  25.318  1.00  0.00    -0.246 OA
BRANCH  31  33
ATOM     33  C   UNL A   1      40.148  21.371  26.368  1.00  0.00     0.060 A 
ATOM     34  C   UNL A   1      40.755  21.021  27.542  1.00  0.00     0.016 A 
ATOM     35  C   UNL A   1      40.620  22.563  25.921  1.00  0.00     0.016 A 
ATOM     36  C   UNL A   1      41.430  22.089  28.325  1.00  0.00     0.010 A 
ATOM     37  C   UNL A   1      41.490  23.438  26.591  1.00  0.00     0.010 A 
ATOM     38  C   UNL A   1      41.438  23.501  27.957  1.00  0.00    -0.014 A 
BRANCH  38  39
ATOM     39  C   UNL A   1      42.239  24.842  28.601  1.00  0.00     0.031 A 
ATOM     40  C   UNL A   1      40.890  25.847  28.395  1.00  0.00     0.074 A 
ATOM     41  C   UNL A   1      43.636  25.127  29.231  1.00  0.00     0.049 A 
ATOM     42  N   UNL A   1      40.612  26.544  27.326  1.00  0.00    -0.248 NA
ATOM     43  C   UNL A   1      39.504  25.690  29.012  1.00  0.00     0.031 C 
ATOM     44  C   UNL A   1      45.012  24.346  29.600  1.00  0.00     0.029 A 
ATOM     45  N   UNL A   1      44.277  26.387  29.675  1.00  0.00    -0.354 N 
ATOM     46  C   UNL A   1      39.531  27.378  27.687  1.00  0.00     0.074 A 
ATOM     47  C   UNL A   1      38.716  26.661  28.546  1.00  0.00     0.031 C 
ATOM     48  C   UNL A   1      45.891  25.029  30.457  1.00  0.00     0.029 A 
ATOM     49  C   UNL A   1      45.448  26.395  30.663  1.00  0.00     0.049 A 
ATOM     50  H   UNL A   1      43.940  27.244  29.326  1.00  0.00     0.167 HD
ATOM     51  C   UNL A   1      39.684  28.716  27.672  1.00  0.00     0.037 A 
ATOM     52  C   UNL A   1      46.165  27.489  31.268  1.00  0.00     0.037 A 
ATOM     53  C   UNL A   1      40.866  28.957  26.904  1.00  0.00     0.049 A 
ATOM     54  C   UNL A   1      45.608  28.684  30.588  1.00  0.00     0.074 A 
ATOM     55  C   UNL A   1      41.208  28.594  25.613  1.00  0.00     0.029 A 
ATOM     56  N   UNL A   1      41.988  28.837  27.672  1.00  0.00    -0.354 N 
ATOM     57  N   UNL A   1      45.852  28.909  29.327  1.00  0.00    -0.248 NA
ATOM     58  C   UNL A   1      44.297  29.034  31.125  1.00  0.00     0.031 C 
ATOM     59  C   UNL A   1      42.549  28.125  25.675  1.00  0.00     0.029 A 
ATOM     60  C   UNL A   1      43.052  28.435  26.930  1.00  0.00     0.049 A 
ATOM     61  H   UNL A   1      42.021  29.020  28.639  1.00  0.00     0.167 HD
ATOM     62  C   UNL A   1      44.589  28.912  28.771  1.00  0.00     0.074 A 
ATOM     63  C   UNL A   1      43.654  29.005  29.949  1.00  0.00     0.031 C 
ATOM     64  C   UNL A   1      44.359  28.414  27.505  1.00  0.00     0.037 A 
BRANCH  51  65
ATOM     65  C   UNL A   1      39.127  29.693  28.670  1.00  0.00     0.058 A 
ATOM     66  C   UNL A   1      38.015  30.400  28.208  1.00  0.00     0.135 A 
ATOM     67  C   UNL A   1      39.675  30.121  29.912  1.00  0.00     0.135 A 
ATOM     68  F   UNL A   1      37.437  30.061  27.046  1.00  0.00    -0.206 F 
ATOM     69  C   UNL A   1      37.475  31.467  28.899  1.00  0.00     0.059 A 
ATOM     70  C   UNL A   1      39.118  31.176  30.649  1.00  0.00     0.059 A 
ATOM     71  F   UNL A   1      40.782  29.568  30.432  1.00  0.00    -0.206 F 
ATOM     72  C   UNL A   1      38.022  31.847  30.119  1.00  0.00     0.060 A 
BRANCH  72  73
ATOM     73  S   UNL A   1      37.226  33.223  30.963  1.00  0.00     0.124 S 
ATOM     74  O   UNL A   1      36.077  33.475  30.101  1.00  0.00    -0.237 OA
ATOM     75  O   UNL A   1      36.925  32.628  32.262  1.00  0.00    -0.237 OA
ATOM     76  O   UNL A   1      38.252  34.259  30.975  1.00  0.00    -0.744 OA
ENDBRANCH  72  73
ENDBRANCH  51  65
BRANCH  52  77
ATOM     77  C   UNL A   1      46.795  27.774  32.715  1.00  0.00     0.058 A 
ATOM     78  C   UNL A   1      47.752  28.770  33.174  1.00  0.00     0.135 A 
ATOM     79  C   UNL A   1      46.067  27.225  33.772  1.00  0.00     0.135 A 
ATOM     80  F   UNL A   1      48.581  29.394  32.314  1.00  0.00    -0.206 F 
ATOM     81  C   UNL A   1      47.891  29.182  34.553  1.00  0.00     0.059 A 
ATOM     82  C   UNL A   1      46.164  27.634  35.118  1.00  0.00     0.059 A 
ATOM     83  F   UNL A   1      45.144  26.299  33.497  1.00  0.00    -0.206 F 
ATOM     84  C   UNL A   1      47.052  28.627  35.516  1.00  0.00     0.060 A 
BRANCH  84  85
ATOM     85  S   UNL A   1      47.038  29.203  37.259  1.00  0.00     0.124 S 
ATOM     86  O   UNL A   1      46.940  30.653  37.118  1.00  0.00    -0.237 OA
ATOM     87  O   UNL A   1      45.860  28.542  37.810  1.00  0.00    -0.237 OA
ATOM     88  O   UNL A   1      48.316  28.723  37.783  1.00  0.00    -0.744 OA
ENDBRANCH  84  85
ENDBRANCH  52  77
BRANCH  64  89
ATOM     89  C   UNL A   1      45.474  27.945  26.570  1.00  0.00     0.058 A 
ATOM     90  C   UNL A   1      45.760  26.629  26.128  1.00  0.00     0.135 A 
ATOM     91  C   UNL A   1      46.140  28.961  25.879  1.00  0.00     0.135 A 
ATOM     92  F   UNL A   1      45.023  25.587  26.526  1.00  0.00    -0.206 F 
ATOM     93  C   UNL A   1      46.753  26.341  25.175  1.00  0.00     0.059 A 
ATOM     94  C   UNL A   1      47.087  28.707  24.889  1.00  0.00     0.059 A 
ATOM     95  F   UNL A   1      45.796  30.239  26.097  1.00  0.00    -0.206 F 
ATOM     96  C   UNL A   1      47.429  27.398  24.575  1.00  0.00     0.060 A 
BRANCH  96  97
ATOM     97  S   UNL A   1      48.732  27.057  23.371  1.00  0.00     0.124 S 
ATOM     98  O   UNL A   1      48.707  28.261  22.545  1.00  0.00    -0.237 OA
ATOM     99  O   UNL A   1      49.913  26.897  24.214  1.00  0.00    -0.237 OA
ATOM    100  O   UNL A   1      48.275  25.838  22.709  1.00  0.00    -0.744 OA
ENDBRANCH  96  97
ENDBRANCH  64  89
ENDBRANCH  38  39
ENDBRANCH  31  33
ENDBRANCH  30  31
ENDBRANCH  29  30
ENDBRANCH   1  29
TORSDOF 18
ENDMDL
MODEL 2
REMARK VINA RESULT:     -12.0      4.346      9.665
REMARK SMILES CC[C@@]1(CC(=O)OCCOC(=O)c2ccc(-c3c4nc(c(-c5c(F)cc(S(=O)(=O)[O-])cc5F)c5ccc([nH]5)c(-c5c(F)cc(S(=O)(=O)[O-])cc5F)c5nc(c(-c6c(F)cc(S(=O)(=O)[O-])cc6F)c6ccc3[nH]6)C=C5)C=C4)cc2)OC[C@H](Cc2ccccc2)c2c1[nH]c1ccccc21
REMARK SMILES IDX 8 1 7 2 5 3 6 4 4 5 3 6 79 7 90 8 80 9 89 10 91 11 81 12
REMARK SMILES IDX 97 13 92 14 96 16 93 17 95 18 94 19 2 20 1 21 82 22 83 23
REMARK SMILES IDX 84 24 88 25 85 26 87 27 86 28 9 29 10 30 11 31 12 32 13 33
REMARK SMILES IDX 14 34 78 35 15 36 77 37 16 38 17 39 18 40 71 41 19 42 76 43
REMARK SMILES IDX 70 44 72 45 20 46 75 47 69 48 68 49 21 51 55 52 34 53 54 54
REMARK SMILES IDX 35 55 38 56 53 57 73 58 36 59 37 60 52 62 74 63 39 64 22 65
REMARK SMILES IDX 23 66 32 67 24 68 25 69 31 70 33 71 26 72 27 73 28 74 29 75
REMARK SMILES IDX 30 76 56 77 57 78 66 79 58 80 59 81 65 82 67 83 60 84 61 85
REMARK SMILES IDX 62 86 63 87 64 88 40 89 41 90 50 91 42 92 43 93 49 94 51 95
REMARK SMILES IDX 44 96 45 97 46 98 47 99 48 100
REMARK H PARENT 91 15 72 50 38 61
REMARK Flexibility Score: inf
ROOT
ATOM      1  C   UNL A   1      33.801  26.693  24.790  1.00  0.00     0.274 C 
ENDROOT
BRANCH   1   2
ATOM      2  O   UNL A   1      33.176  26.590  23.496  1.00  0.00    -0.462 OA
BRANCH   2   3
ATOM      3  C   UNL A   1      33.436  25.525  22.707  1.00  0.00     0.309 C 
ATOM      4  O   UNL A   1      33.599  25.646  21.499  1.00  0.00    -0.252 OA
BRANCH   3   5
ATOM      5  C   UNL A   1      33.451  24.163  23.468  1.00  0.00     0.164 C 
BRANCH   5   6
ATOM      6  C   UNL A   1      32.114  23.569  24.091  1.00  0.00     0.118 C 
ATOM      7  O   UNL A   1      31.747  23.907  25.465  1.00  0.00    -0.368 OA
ATOM      8  C   UNL A   1      32.262  22.088  24.170  1.00  0.00     0.053 A 
ATOM      9  C   UNL A   1      32.510  23.375  26.582  1.00  0.00     0.170 C 
ATOM     10  C   UNL A   1      32.528  21.308  25.276  1.00  0.00    -0.011 A 
ATOM     11  N   UNL A   1      32.225  21.270  23.092  1.00  0.00    -0.356 N 
ATOM     12  C   UNL A   1      32.735  21.859  26.635  1.00  0.00     0.052 C 
ATOM     13  C   UNL A   1      32.587  19.964  24.852  1.00  0.00     0.003 A 
ATOM     14  C   UNL A   1      32.362  19.974  23.482  1.00  0.00     0.046 A 
ATOM     15  H   UNL A   1      32.114  21.571  22.160  1.00  0.00     0.166 HD
ATOM     16  C   UNL A   1      32.839  18.743  25.493  1.00  0.00     0.010 A 
ATOM     17  C   UNL A   1      32.341  18.832  22.698  1.00  0.00     0.026 A 
ATOM     18  C   UNL A   1      32.854  17.583  24.718  1.00  0.00     0.001 A 
ATOM     19  C   UNL A   1      32.597  17.630  23.347  1.00  0.00     0.002 A 
BRANCH   6  20
ATOM     20  C   UNL A   1      30.881  23.958  23.230  1.00  0.00     0.039 C 
ATOM     21  C   UNL A   1      30.058  25.138  23.770  1.00  0.00     0.007 C 
ENDBRANCH   6  20
BRANCH  12  22
ATOM     22  C   UNL A   1      34.176  21.547  27.138  1.00  0.00     0.046 C 
BRANCH  22  23
ATOM     23  C   UNL A   1      35.250  22.069  26.220  1.00  0.00    -0.047 A 
ATOM     24  C   UNL A   1      35.743  23.368  26.304  1.00  0.00     0.004 A 
ATOM     25  C   UNL A   1      35.774  21.240  25.243  1.00  0.00     0.004 A 
ATOM     26  C   UNL A   1      36.585  23.879  25.313  1.00  0.00     0.000 A 
ATOM     27  C   UNL A   1      36.657  21.738  24.279  1.00  0.00     0.000 A 
ATOM     28  C   UNL A   1      37.009  23.072  24.270  1.00  0.00     0.000 A 
ENDBRANCH  22  23
ENDBRANCH  12  22
ENDBRANCH   5   6
ENDBRANCH   3   5
ENDBRANCH   2   3
ENDBRANCH   1   2
BRANCH   1  29
ATOM     29  C   UNL A   1      32.745  27.077  25.835  1.00  0.00     0.275 C 
BRANCH  29  30
ATOM     30  O   UNL A   1      33.286  28.062  26.754  1.00  0.00    -0.458 OA
BRANCH  30  31
ATOM     31  C   UNL A   1      33.219  29.356  26.387  1.00  0.00     0.338 C 
ATOM     32  O   UNL A   1      32.400  29.798  25.544  1.00  0.00    -0.246 OA
BRANCH  31  33
ATOM     33  C   UNL A   1      33.884  30.219  27.418  1.00  0.00     0.060 A 
ATOM     34  C   UNL A   1      34.050  31.570  27.553  1.00  0.00     0.016 A 
ATOM     35  C   UNL A   1      34.833  29.548  28.120  1.00  0.00     0.016 A 
ATOM     36  C   UNL A   1      35.374  32.069  28.011  1.00  0.00     0.010 A 
ATOM     37  C   UNL A   1      35.945  30.092  28.783  1.00  0.00     0.010 A 
ATOM     38  C   UNL A   1      36.530  31.218  28.272  1.00  0.00    -0.014 A 
BRANCH  38  39
ATOM     39  C   UNL A   1      38.057  31.539  28.919  1.00  0.00     0.031 A 
ATOM     40  C   UNL A   1      38.636  29.995  28.527  1.00  0.00     0.074 A 
ATOM     41  C   UNL A   1      38.772  32.760  29.573  1.00  0.00     0.049 A 
ATOM     42  N   UNL A   1      38.554  28.933  29.282  1.00  0.00    -0.248 NA
ATOM     43  C   UNL A   1      38.752  29.364  27.143  1.00  0.00     0.031 C 
ATOM     44  C   UNL A   1      38.472  34.307  29.967  1.00  0.00     0.029 A 
ATOM     45  N   UNL A   1      40.104  32.897  30.209  1.00  0.00    -0.354 N 
ATOM     46  C   UNL A   1      39.347  27.952  28.646  1.00  0.00     0.074 A 
ATOM     47  C   UNL A   1      39.199  28.114  27.279  1.00  0.00     0.031 C 
ATOM     48  C   UNL A   1      39.597  35.087  30.281  1.00  0.00     0.029 A 
ATOM     49  C   UNL A   1      40.784  34.259  30.378  1.00  0.00     0.049 A 
ATOM     50  H   UNL A   1      40.566  32.089  30.531  1.00  0.00     0.167 HD
ATOM     51  C   UNL A   1      40.433  27.461  29.273  1.00  0.00     0.037 A 
ATOM     52  C   UNL A   1      42.081  34.608  30.899  1.00  0.00     0.037 A 
ATOM     53  C   UNL A   1      40.281  27.828  30.646  1.00  0.00     0.049 A 
ATOM     54  C   UNL A   1      42.605  33.318  31.412  1.00  0.00     0.074 A 
ATOM     55  C   UNL A   1      39.264  27.578  31.552  1.00  0.00     0.029 A 
ATOM     56  N   UNL A   1      40.725  29.098  30.871  1.00  0.00    -0.354 N 
ATOM     57  N   UNL A   1      42.073  32.751  32.459  1.00  0.00    -0.248 NA
ATOM     58  C   UNL A   1      43.090  32.474  30.324  1.00  0.00     0.031 C 
ATOM     59  C   UNL A   1      39.035  28.803  32.236  1.00  0.00     0.029 A 
ATOM     60  C   UNL A   1      40.058  29.678  31.903  1.00  0.00     0.049 A 
ATOM     61  H   UNL A   1      41.440  29.537  30.354  1.00  0.00     0.167 HD
ATOM     62  C   UNL A   1      41.645  31.538  31.960  1.00  0.00     0.074 A 
ATOM     63  C   UNL A   1      42.327  31.413  30.621  1.00  0.00     0.031 C 
ATOM     64  C   UNL A   1      40.486  30.942  32.413  1.00  0.00     0.037 A 
BRANCH  51  65
ATOM     65  C   UNL A   1      41.757  27.128  28.643  1.00  0.00     0.058 A 
ATOM     66  C   UNL A   1      42.004  25.758  28.535  1.00  0.00     0.135 A 
ATOM     67  C   UNL A   1      42.845  27.990  28.326  1.00  0.00     0.135 A 
ATOM     68  F   UNL A   1      41.033  24.876  28.816  1.00  0.00    -0.206 F 
ATOM     69  C   UNL A   1      43.232  25.252  28.157  1.00  0.00     0.059 A 
ATOM     70  C   UNL A   1      44.088  27.498  27.901  1.00  0.00     0.059 A 
ATOM     71  F   UNL A   1      42.759  29.324  28.453  1.00  0.00    -0.206 F 
ATOM     72  C   UNL A   1      44.267  26.122  27.834  1.00  0.00     0.060 A 
BRANCH  72  73
ATOM     73  S   UNL A   1      45.817  25.369  27.316  1.00  0.00     0.124 S 
ATOM     74  O   UNL A   1      46.191  24.613  28.506  1.00  0.00    -0.237 OA
ATOM     75  O   UNL A   1      45.382  24.574  26.171  1.00  0.00    -0.237 OA
ATOM     76  O   UNL A   1      46.664  26.512  26.995  1.00  0.00    -0.744 OA
ENDBRANCH  72  73
ENDBRANCH  51  65
BRANCH  52  77
ATOM     77  C   UNL A   1      43.208  35.685  30.520  1.00  0.00     0.058 A 
ATOM     78  C   UNL A   1      43.681  36.178  29.235  1.00  0.00     0.135 A 
ATOM     79  C   UNL A   1      43.549  36.545  31.565  1.00  0.00     0.135 A 
ATOM     80  F   UNL A   1      43.487  35.476  28.101  1.00  0.00    -0.206 F 
ATOM     81  C   UNL A   1      44.373  37.435  29.057  1.00  0.00     0.059 A 
ATOM     82  C   UNL A   1      44.194  37.789  31.410  1.00  0.00     0.059 A 
ATOM     83  F   UNL A   1      43.171  36.221  32.805  1.00  0.00    -0.206 F 
ATOM     84  C   UNL A   1      44.588  38.255  30.161  1.00  0.00     0.060 A 
BRANCH  84  85
ATOM     85  S   UNL A   1      45.305  39.938  30.012  1.00  0.00     0.124 S 
ATOM     86  O   UNL A   1      46.642  39.674  29.490  1.00  0.00    -0.237 OA
ATOM     87  O   UNL A   1      44.387  40.603  29.093  1.00  0.00    -0.237 OA
ATOM     88  O   UNL A   1      45.272  40.441  31.385  1.00  0.00    -0.744 OA
ENDBRANCH  84  85
ENDBRANCH  52  77
BRANCH  64  89
ATOM     89  C   UNL A   1      39.657  31.490  33.574  1.00  0.00     0.058 A 
ATOM     90  C   UNL A   1      38.346  32.027  33.545  1.00  0.00     0.135 A 
ATOM     91  C   UNL A   1      40.153  31.204  34.848  1.00  0.00     0.135 A 
ATOM     92  F   UNL A   1      37.658  32.120  32.402  1.00  0.00    -0.206 F 
ATOM     93  C   UNL A   1      37.646  32.400  34.707  1.00  0.00     0.059 A 
ATOM     94  C   UNL A   1      39.457  31.508  36.016  1.00  0.00     0.059 A 
ATOM     95  F   UNL A   1      41.302  30.523  34.969  1.00  0.00    -0.206 F 
ATOM     96  C   UNL A   1      38.227  32.152  35.944  1.00  0.00     0.060 A 
BRANCH  96  97
ATOM     97  S   UNL A   1      37.366  32.648  37.453  1.00  0.00     0.124 S 
ATOM     98  O   UNL A   1      38.392  33.416  38.153  1.00  0.00    -0.237 OA
ATOM     99  O   UNL A   1      36.241  33.423  36.939  1.00  0.00    -0.237 OA
ATOM    100  O   UNL A   1      37.007  31.377  38.075  1.00  0.00    -0.744 OA
ENDBRANCH  96  97
ENDBRANCH  64  89
ENDBRANCH  38  39
ENDBRANCH  31  33
ENDBRANCH  30  31
ENDBRANCH  29  30
ENDBRANCH   1  29
TORSDOF 18
ENDMDL
MODEL 3
REMARK VINA RESULT:     -11.9      5.124     10.038
REMARK SMILES CC[C@@]1(CC(=O)OCCOC(=O)c2ccc(-c3c4nc(c(-c5c(F)cc(S(=O)(=O)[O-])cc5F)c5ccc([nH]5)c(-c5c(F)cc(S(=O)(=O)[O-])cc5F)c5nc(c(-c6c(F)cc(S(=O)(=O)[O-])cc6F)c6ccc3[nH]6)C=C5)C=C4)cc2)OC[C@H](Cc2ccccc2)c2c1[nH]c1ccccc21
REMARK SMILES IDX 8 1 7 2 5 3 6 4 4 5 3 6 79 7 90 8 80 9 89 10 91 11 81 12
REMARK SMILES IDX 97 13 92 14 96 16 93 17 95 18 94 19 2 20 1 21 82 22 83 23
REMARK SMILES IDX 84 24 88 25 85 26 87 27 86 28 9 29 10 30 11 31 12 32 13 33
REMARK SMILES IDX 14 34 78 35 15 36 77 37 16 38 17 39 18 40 71 41 19 42 76 43
REMARK SMILES IDX 70 44 72 45 20 46 75 47 69 48 68 49 21 51 55 52 34 53 54 54
REMARK SMILES IDX 35 55 38 56 53 57 73 58 36 59 37 60 52 62 74 63 39 64 22 65
REMARK SMILES IDX 23 66 32 67 24 68 25 69 31 70 33 71 26 72 27 73 28 74 29 75
REMARK SMILES IDX 30 76 56 77 57 78 66 79 58 80 59 81 65 82 67 83 60 84 61 85
REMARK SMILES IDX 62 86 63 87 64 88 40 89 41 90 50 91 42 92 43 93 49 94 51 95
REMARK SMILES IDX 44 96 45 97 46 98 47 99 48 100
REMARK H PARENT 91 15 72 50 38 61
REMARK Flexibility Score: inf
ROOT
ATOM      1  C   UNL A   1      46.129  23.572  24.550  1.00  0.00     0.274 C 
ENDROOT
BRANCH   1   2
ATOM      2  O   UNL A   1      45.078  22.970  25.332  1.00  0.00    -0.462 OA
BRANCH   2   3
ATOM      3  C   UNL A   1      43.787  23.234  25.038  1.00  0.00     0.309 C 
ATOM      4  O   UNL A   1      43.433  24.332  24.626  1.00  0.00    -0.252 OA
BRANCH   3   5
ATOM      5  C   UNL A   1      42.818  22.044  25.323  1.00  0.00     0.164 C 
BRANCH   5   6
ATOM      6  C   UNL A   1      42.123  21.888  26.744  1.00  0.00     0.118 C 
ATOM      7  O   UNL A   1      40.685  22.115  26.872  1.00  0.00    -0.368 OA
ATOM      8  C   UNL A   1      42.679  22.936  27.645  1.00  0.00     0.053 A 
ATOM      9  C   UNL A   1      40.139  23.456  26.747  1.00  0.00     0.170 C 
ATOM     10  C   UNL A   1      42.097  24.119  28.051  1.00  0.00    -0.011 A 
ATOM     11  N   UNL A   1      43.932  22.900  28.158  1.00  0.00    -0.356 N 
ATOM     12  C   UNL A   1      40.753  24.561  27.614  1.00  0.00     0.052 C 
ATOM     13  C   UNL A   1      43.013  24.784  28.892  1.00  0.00     0.003 A 
ATOM     14  C   UNL A   1      44.141  23.977  28.961  1.00  0.00     0.046 A 
ATOM     15  H   UNL A   1      44.595  22.195  27.975  1.00  0.00     0.166 HD
ATOM     16  C   UNL A   1      43.006  26.008  29.577  1.00  0.00     0.010 A 
ATOM     17  C   UNL A   1      45.268  24.295  29.701  1.00  0.00     0.026 A 
ATOM     18  C   UNL A   1      44.143  26.363  30.303  1.00  0.00     0.001 A 
ATOM     19  C   UNL A   1      45.248  25.512  30.371  1.00  0.00     0.002 A 
BRANCH   6  20
ATOM     20  C   UNL A   1      42.367  20.468  27.327  1.00  0.00     0.039 C 
ATOM     21  C   UNL A   1      42.566  19.362  26.280  1.00  0.00     0.007 C 
ENDBRANCH   6  20
BRANCH  12  22
ATOM     22  C   UNL A   1      40.851  25.887  26.802  1.00  0.00     0.046 C 
BRANCH  22  23
ATOM     23  C   UNL A   1      40.089  27.025  27.431  1.00  0.00    -0.047 A 
ATOM     24  C   UNL A   1      39.287  26.858  28.557  1.00  0.00     0.004 A 
ATOM     25  C   UNL A   1      40.173  28.291  26.878  1.00  0.00     0.004 A 
ATOM     26  C   UNL A   1      38.440  27.882  28.988  1.00  0.00     0.000 A 
ATOM     27  C   UNL A   1      39.360  29.330  27.341  1.00  0.00     0.000 A 
ATOM     28  C   UNL A   1      38.443  29.111  28.349  1.00  0.00     0.000 A 
ENDBRANCH  22  23
ENDBRANCH  12  22
ENDBRANCH   5   6
ENDBRANCH   3   5
ENDBRANCH   2   3
ENDBRANCH   1   2
BRANCH   1  29
ATOM     29  C   UNL A   1      46.765  24.717  25.349  1.00  0.00     0.275 C 
BRANCH  29  30
ATOM     30  O   UNL A   1      46.877  25.903  24.520  1.00  0.00    -0.458 OA
BRANCH  30  31
ATOM     31  C   UNL A   1      46.899  27.096  25.144  1.00  0.00     0.338 C 
ATOM     32  O   UNL A   1      47.626  28.055  24.788  1.00  0.00    -0.246 OA
BRANCH  31  33
ATOM     33  C   UNL A   1      45.656  27.268  25.967  1.00  0.00     0.060 A 
ATOM     34  C   UNL A   1      44.326  27.358  25.660  1.00  0.00     0.016 A 
ATOM     35  C   UNL A   1      45.909  27.841  27.172  1.00  0.00     0.016 A 
ATOM     36  C   UNL A   1      43.509  28.369  26.382  1.00  0.00     0.010 A 
ATOM     37  C   UNL A   1      45.015  28.575  27.969  1.00  0.00     0.010 A 
ATOM     38  C   UNL A   1      44.041  29.315  27.357  1.00  0.00    -0.014 A 
BRANCH  38  39
ATOM     39  C   UNL A   1      43.298  30.433  28.383  1.00  0.00     0.031 A 
ATOM     40  C   UNL A   1      43.975  31.754  27.565  1.00  0.00     0.074 A 
ATOM     41  C   UNL A   1      42.307  30.377  29.585  1.00  0.00     0.049 A 
ATOM     42  N   UNL A   1      45.130  32.304  27.825  1.00  0.00    -0.248 NA
ATOM     43  C   UNL A   1      43.786  32.145  26.102  1.00  0.00     0.031 C 
ATOM     44  C   UNL A   1      41.485  29.286  30.464  1.00  0.00     0.029 A 
ATOM     45  N   UNL A   1      41.795  31.434  30.489  1.00  0.00    -0.354 N 
ATOM     46  C   UNL A   1      45.174  33.482  27.047  1.00  0.00     0.074 A 
ATOM     47  C   UNL A   1      44.541  33.215  25.845  1.00  0.00     0.031 C 
ATOM     48  C   UNL A   1      40.464  29.801  31.278  1.00  0.00     0.029 A 
ATOM     49  C   UNL A   1      40.509  31.251  31.300  1.00  0.00     0.049 A 
ATOM     50  H   UNL A   1      42.296  32.278  30.570  1.00  0.00     0.167 HD
ATOM     51  C   UNL A   1      45.250  34.682  27.653  1.00  0.00     0.037 A 
ATOM     52  C   UNL A   1      39.808  32.157  32.175  1.00  0.00     0.037 A 
ATOM     53  C   UNL A   1      45.650  34.406  28.998  1.00  0.00     0.049 A 
ATOM     54  C   UNL A   1      40.716  33.328  32.258  1.00  0.00     0.074 A 
ATOM     55  C   UNL A   1      46.748  33.735  29.506  1.00  0.00     0.029 A 
ATOM     56  N   UNL A   1      44.577  34.081  29.776  1.00  0.00    -0.354 N 
ATOM     57  N   UNL A   1      41.862  33.241  32.874  1.00  0.00    -0.248 NA
ATOM     58  C   UNL A   1      40.622  34.156  31.059  1.00  0.00     0.031 C 
ATOM     59  C   UNL A   1      46.253  32.893  30.539  1.00  0.00     0.029 A 
ATOM     60  C   UNL A   1      44.935  33.246  30.785  1.00  0.00     0.049 A 
ATOM     61  H   UNL A   1      43.661  34.412  29.626  1.00  0.00     0.167 HD
ATOM     62  C   UNL A   1      42.765  33.538  31.875  1.00  0.00     0.074 A 
ATOM     63  C   UNL A   1      41.929  34.121  30.764  1.00  0.00     0.031 C 
ATOM     64  C   UNL A   1      43.999  32.922  31.813  1.00  0.00     0.037 A 
BRANCH  51  65
ATOM     65  C   UNL A   1      44.544  35.943  27.236  1.00  0.00     0.058 A 
ATOM     66  C   UNL A   1      45.386  37.050  27.118  1.00  0.00     0.135 A 
ATOM     67  C   UNL A   1      43.148  36.200  27.136  1.00  0.00     0.135 A 
ATOM     68  F   UNL A   1      46.716  36.895  27.201  1.00  0.00    -0.206 F 
ATOM     69  C   UNL A   1      44.907  38.331  26.928  1.00  0.00     0.059 A 
ATOM     70  C   UNL A   1      42.641  37.487  26.902  1.00  0.00     0.059 A 
ATOM     71  F   UNL A   1      42.230  35.233  27.298  1.00  0.00    -0.206 F 
ATOM     72  C   UNL A   1      43.538  38.545  26.813  1.00  0.00     0.060 A 
BRANCH  72  73
ATOM     73  S   UNL A   1      43.011  40.242  26.528  1.00  0.00     0.124 S 
ATOM     74  O   UNL A   1      41.581  40.072  26.293  1.00  0.00    -0.237 OA
ATOM     75  O   UNL A   1      43.374  40.871  27.795  1.00  0.00    -0.237 OA
ATOM     76  O   UNL A   1      43.801  40.659  25.377  1.00  0.00    -0.744 OA
ENDBRANCH  72  73
ENDBRANCH  51  65
BRANCH  52  77
ATOM     77  C   UNL A   1      38.266  32.482  32.478  1.00  0.00     0.058 A 
ATOM     78  C   UNL A   1      37.617  33.109  33.619  1.00  0.00     0.135 A 
ATOM     79  C   UNL A   1      37.453  32.494  31.344  1.00  0.00     0.135 A 
ATOM     80  F   UNL A   1      38.220  33.168  34.823  1.00  0.00    -0.206 F 
ATOM     81  C   UNL A   1      36.308  33.721  33.568  1.00  0.00     0.059 A 
ATOM     82  C   UNL A   1      36.188  33.112  31.263  1.00  0.00     0.059 A 
ATOM     83  F   UNL A   1      37.925  31.956  30.215  1.00  0.00    -0.206 F 
ATOM     84  C   UNL A   1      35.617  33.749  32.359  1.00  0.00     0.060 A 
BRANCH  84  85
ATOM     85  S   UNL A   1      34.029  34.646  32.153  1.00  0.00     0.124 S 
ATOM     86  O   UNL A   1      33.145  33.954  33.086  1.00  0.00    -0.237 OA
ATOM     87  O   UNL A   1      34.380  36.016  32.514  1.00  0.00    -0.237 OA
ATOM     88  O   UNL A   1      33.709  34.444  30.741  1.00  0.00    -0.744 OA
ENDBRANCH  84  85
ENDBRANCH  52  77
BRANCH  64  89
ATOM     89  C   UNL A   1      44.520  31.975  32.894  1.00  0.00     0.058 A 
ATOM     90  C   UNL A   1      44.738  30.577  32.811  1.00  0.00     0.135 A 
ATOM     91  C   UNL A   1      45.076  32.596  34.015  1.00  0.00     0.135 A 
ATOM     92  F   UNL A   1      44.479  29.899  31.688  1.00  0.00    -0.206 F 
ATOM     93  C   UNL A   1      45.328  29.832  33.848  1.00  0.00     0.059 A 
ATOM     94  C   UNL A   1      45.718  31.891  35.030  1.00  0.00     0.059 A 
ATOM     95  F   UNL A   1      45.085  33.936  34.087  1.00  0.00    -0.206 F 
ATOM     96  C   UNL A   1      45.799  30.505  34.969  1.00  0.00     0.060 A 
BRANCH  96  97
ATOM     97  S   UNL A   1      46.533  29.571  36.331  1.00  0.00     0.124 S 
ATOM     98  O   UNL A   1      45.829  30.115  37.489  1.00  0.00    -0.237 OA
ATOM     99  O   UNL A   1      46.205  28.191  35.986  1.00  0.00    -0.237 OA
ATOM    100  O   UNL A   1      47.951  29.909  36.250  1.00  0.00    -0.744 OA
ENDBRANCH  96  97
ENDBRANCH  64  89
ENDBRANCH  38  39
ENDBRANCH  31  33
ENDBRANCH  30  31
ENDBRANCH  29  30
ENDBRANCH   1  29
TORSDOF 18
ENDMDL
