MODEL 1
REMARK VINA RESULT:     -13.1      0.000      0.000
REMARK SMILES CC1(C)O[C@H]2CC3[C@@H]4CCC5=CC(=O)C=C[C@]5(C)[C@@]4(F)[C@H](O)C[C@@]3(C)[C@@]2(C(=O)OCCOC(=O)c2ccc(-c3c4nc(c(-c5c(F)cc(S(=O)(=O)[O-])cc5F)c5ccc([nH]5)c(-c5c(F)cc(S(=O)(=O)[O-])cc5F)c5nc(c(-c6c(F)cc(S(=O)(=O)[O-])cc6F)c6ccc3[nH]6)C=C5)C=C4)cc2)O1
REMARK SMILES IDX 31 1 30 2 29 3 27 4 28 5 26 6 1 7 2 8 3 9 4 10 101 11 5 12
REMARK SMILES IDX 6 13 24 14 7 15 23 16 25 17 8 18 21 19 9 20 19 21 10 22
REMARK SMILES IDX 17 23 20 24 11 25 16 26 18 27 12 28 15 29 13 30 14 31 22 32
REMARK SMILES IDX 32 34 33 35 34 36 35 37 36 38 100 39 37 40 99 41 38 42 39 43
REMARK SMILES IDX 40 44 93 45 41 46 98 47 92 48 94 49 42 50 97 51 91 52 90 53
REMARK SMILES IDX 43 55 77 56 56 57 76 58 57 59 60 60 75 61 95 62 58 63 59 64
REMARK SMILES IDX 74 66 96 67 61 68 44 69 45 70 54 71 46 72 47 73 53 74 55 75
REMARK SMILES IDX 48 76 49 77 50 78 51 79 52 80 78 81 79 82 88 83 80 84 81 85
REMARK SMILES IDX 87 86 89 87 82 88 83 89 84 90 85 91 86 92 62 93 63 94 72 95
REMARK SMILES IDX 64 96 65 97 71 98 73 99 66 100 67 101 68 102 69 103 70 104
REMARK H PARENT 22 33 94 54 60 65
REMARK Flexibility Score: inf
ROOT
ATOM      1  C   UNL A   1      33.361  30.136  26.527  1.00  0.00     0.275 C 
ENDROOT
BRANCH   1   2
ATOM      2  C   UNL A   1      31.858  30.038  26.745  1.00  0.00     0.274 C 
BRANCH   2   3
ATOM      3  O   UNL A   1      31.322  28.972  25.941  1.00  0.00    -0.460 OA
BRANCH   3   4
ATOM      4  C   UNL A   1      31.390  27.699  26.435  1.00  0.00     0.342 C 
ATOM      5  O   UNL A   1      31.482  27.404  27.618  1.00  0.00    -0.249 OA
BRANCH   4   6
ATOM      6  C   UNL A   1      31.458  26.707  25.275  1.00  0.00     0.200 C 
ATOM      7  C   UNL A   1      33.477  25.888  22.549  1.00  0.00     0.075 C 
ATOM      8  C   UNL A   1      33.057  26.983  23.555  1.00  0.00     0.165 C 
ATOM      9  C   UNL A   1      34.211  27.974  23.567  1.00  0.00     0.075 C 
ATOM     10  O   UNL A   1      31.848  27.597  23.107  1.00  0.00    -0.344 OA
ATOM     11  O   UNL A   1      32.857  26.470  24.896  1.00  0.00    -0.329 OA
ATOM     12  C   UNL A   1      30.787  27.088  23.926  1.00  0.00     0.166 C 
ATOM     13  C   UNL A   1      30.207  25.725  23.321  1.00  0.00     0.040 C 
ATOM     14  C   UNL A   1      30.677  25.378  25.664  1.00  0.00     0.016 C 
ATOM     15  C   UNL A   1      30.802  24.689  24.291  1.00  0.00     0.008 C 
ATOM     16  C   UNL A   1      31.194  24.532  26.825  1.00  0.00     0.046 C 
ATOM     17  C   UNL A   1      29.199  25.718  26.038  1.00  0.00     0.015 C 
ATOM     18  C   UNL A   1      31.422  23.294  24.086  1.00  0.00     0.035 C 
ATOM     19  C   UNL A   1      32.245  23.495  26.484  1.00  0.00     0.154 C 
ATOM     20  C   UNL A   1      30.876  22.426  22.970  1.00  0.00     0.012 C 
ATOM     21  C   UNL A   1      31.786  22.506  25.364  1.00  0.00     0.152 C 
ATOM     22  C   UNL A   1      32.038  21.537  22.501  1.00  0.00     0.032 C 
ATOM     23  C   UNL A   1      32.875  21.388  25.020  1.00  0.00     0.044 C 
ATOM     24  F   UNL A   1      30.639  21.893  25.801  1.00  0.00    -0.239 F 
ATOM     25  C   UNL A   1      32.661  20.735  23.625  1.00  0.00    -0.053 C 
ATOM     26  C   UNL A   1      32.931  20.286  26.079  1.00  0.00    -0.009 C 
ATOM     27  C   UNL A   1      34.302  22.019  25.011  1.00  0.00     0.024 C 
ATOM     28  C   UNL A   1      33.071  19.479  23.366  1.00  0.00     0.052 C 
ATOM     29  C   UNL A   1      33.305  19.024  25.821  1.00  0.00     0.048 C 
ATOM     30  C   UNL A   1      33.607  18.612  24.436  1.00  0.00     0.178 C 
ATOM     31  O   UNL A   1      34.208  17.577  24.188  1.00  0.00    -0.290 OA
BRANCH  19  32
ATOM     32  O   UNL A   1      32.528  22.807  27.710  1.00  0.00    -0.390 OA
ATOM     33  H   UNL A   1      32.324  23.387  28.459  1.00  0.00     0.211 HD
ENDBRANCH  19  32
ENDBRANCH   4   6
ENDBRANCH   3   4
ENDBRANCH   2   3
ENDBRANCH   1   2
BRANCH   1  34
ATOM     34  O   UNL A   1      34.012  29.659  27.715  1.00  0.00    -0.458 OA
BRANCH  34  35
ATOM     35  C   UNL A   1      34.795  30.549  28.358  1.00  0.00     0.338 C 
ATOM     36  O   UNL A   1      34.458  31.624  28.837  1.00  0.00    -0.246 OA
BRANCH  35  37
ATOM     37  C   UNL A   1      36.162  30.009  28.452  1.00  0.00     0.060 A 
ATOM     38  C   UNL A   1      36.632  29.522  29.675  1.00  0.00     0.016 A 
ATOM     39  C   UNL A   1      37.027  30.125  27.369  1.00  0.00     0.016 A 
ATOM     40  C   UNL A   1      37.976  29.215  29.844  1.00  0.00     0.010 A 
ATOM     41  C   UNL A   1      38.357  29.721  27.512  1.00  0.00     0.010 A 
ATOM     42  C   UNL A   1      38.847  29.283  28.756  1.00  0.00    -0.014 A 
BRANCH  42  43
ATOM     43  C   UNL A   1      40.278  28.931  28.918  1.00  0.00     0.031 A 
ATOM     44  C   UNL A   1      41.250  29.977  29.384  1.00  0.00     0.074 A 
ATOM     45  C   UNL A   1      40.702  27.682  28.645  1.00  0.00     0.049 A 
ATOM     46  N   UNL A   1      42.555  29.970  29.336  1.00  0.00    -0.248 NA
ATOM     47  C   UNL A   1      40.674  31.196  29.976  1.00  0.00     0.031 C 
ATOM     48  C   UNL A   1      39.845  26.554  28.270  1.00  0.00     0.029 A 
ATOM     49  N   UNL A   1      41.967  27.152  28.636  1.00  0.00    -0.354 N 
ATOM     50  C   UNL A   1      42.958  31.199  29.844  1.00  0.00     0.074 A 
ATOM     51  C   UNL A   1      41.757  31.927  30.198  1.00  0.00     0.031 C 
ATOM     52  C   UNL A   1      40.607  25.466  28.079  1.00  0.00     0.029 A 
ATOM     53  C   UNL A   1      42.008  25.841  28.225  1.00  0.00     0.049 A 
ATOM     54  H   UNL A   1      42.768  27.662  28.897  1.00  0.00     0.167 HD
ATOM     55  C   UNL A   1      44.217  31.672  29.991  1.00  0.00     0.037 A 
ATOM     56  C   UNL A   1      43.056  25.048  27.938  1.00  0.00     0.037 A 
ATOM     57  C   UNL A   1      45.400  30.919  29.661  1.00  0.00     0.049 A 
ATOM     58  C   UNL A   1      44.443  25.618  28.041  1.00  0.00     0.074 A 
ATOM     59  C   UNL A   1      46.724  31.316  29.723  1.00  0.00     0.029 A 
ATOM     60  N   UNL A   1      45.396  29.602  29.225  1.00  0.00    -0.354 N 
ATOM     61  N   UNL A   1      44.814  26.819  28.415  1.00  0.00    -0.248 NA
ATOM     62  C   UNL A   1      45.552  24.736  27.656  1.00  0.00     0.031 C 
ATOM     63  C   UNL A   1      47.521  30.242  29.306  1.00  0.00     0.029 A 
ATOM     64  C   UNL A   1      46.694  29.167  29.018  1.00  0.00     0.049 A 
ATOM     65  H   UNL A   1      44.589  29.056  29.084  1.00  0.00     0.167 HD
ATOM     66  C   UNL A   1      46.200  26.833  28.325  1.00  0.00     0.074 A 
ATOM     67  C   UNL A   1      46.602  25.515  27.875  1.00  0.00     0.031 C 
ATOM     68  C   UNL A   1      47.064  27.844  28.583  1.00  0.00     0.037 A 
BRANCH  55  69
ATOM     69  C   UNL A   1      44.380  33.078  30.496  1.00  0.00     0.058 A 
ATOM     70  C   UNL A   1      44.334  34.184  29.634  1.00  0.00     0.135 A 
ATOM     71  C   UNL A   1      44.560  33.323  31.867  1.00  0.00     0.135 A 
ATOM     72  F   UNL A   1      44.187  34.004  28.311  1.00  0.00    -0.206 F 
ATOM     73  C   UNL A   1      44.477  35.484  30.111  1.00  0.00     0.059 A 
ATOM     74  C   UNL A   1      44.684  34.615  32.370  1.00  0.00     0.059 A 
ATOM     75  F   UNL A   1      44.617  32.300  32.735  1.00  0.00    -0.206 F 
ATOM     76  C   UNL A   1      44.654  35.689  31.481  1.00  0.00     0.060 A 
BRANCH  76  77
ATOM     77  S   UNL A   1      44.834  37.380  32.088  1.00  0.00     0.124 S 
ATOM     78  O   UNL A   1      44.694  38.148  30.855  1.00  0.00    -0.237 OA
ATOM     79  O   UNL A   1      43.728  37.494  33.033  1.00  0.00    -0.237 OA
ATOM     80  O   UNL A   1      46.166  37.386  32.684  1.00  0.00    -0.744 OA
ENDBRANCH  76  77
ENDBRANCH  55  69
BRANCH  56  81
ATOM     81  C   UNL A   1      42.835  23.657  27.464  1.00  0.00     0.058 A 
ATOM     82  C   UNL A   1      42.638  22.607  28.372  1.00  0.00     0.135 A 
ATOM     83  C   UNL A   1      42.818  23.348  26.094  1.00  0.00     0.135 A 
ATOM     84  F   UNL A   1      42.654  22.852  29.691  1.00  0.00    -0.206 F 
ATOM     85  C   UNL A   1      42.451  21.298  27.943  1.00  0.00     0.059 A 
ATOM     86  C   UNL A   1      42.605  22.051  25.639  1.00  0.00     0.059 A 
ATOM     87  F   UNL A   1      42.987  24.319  25.182  1.00  0.00    -0.206 F 
ATOM     88  C   UNL A   1      42.438  21.030  26.573  1.00  0.00     0.060 A 
BRANCH  88  89
ATOM     89  S   UNL A   1      42.161  19.333  26.017  1.00  0.00     0.124 S 
ATOM     90  O   UNL A   1      40.717  19.323  25.823  1.00  0.00    -0.237 OA
ATOM     91  O   UNL A   1      42.970  19.267  24.804  1.00  0.00    -0.237 OA
ATOM     92  O   UNL A   1      42.656  18.534  27.134  1.00  0.00    -0.744 OA
ENDBRANCH  88  89
ENDBRANCH  56  81
BRANCH  68  93
ATOM     93  C   UNL A   1      48.526  27.547  28.425  1.00  0.00     0.058 A 
ATOM     94  C   UNL A   1      49.271  26.961  29.459  1.00  0.00     0.135 A 
ATOM     95  C   UNL A   1      49.177  27.823  27.213  1.00  0.00     0.135 A 
ATOM     96  F   UNL A   1      48.693  26.688  30.639  1.00  0.00    -0.206 F 
ATOM     97  C   UNL A   1      50.623  26.675  29.302  1.00  0.00     0.059 A 
ATOM     98  C   UNL A   1      50.523  27.528  27.028  1.00  0.00     0.059 A 
ATOM     99  F   UNL A   1      48.502  28.378  26.194  1.00  0.00    -0.206 F 
ATOM    100  C   UNL A   1      51.241  26.964  28.083  1.00  0.00     0.060 A 
BRANCH 100 101
ATOM    101  S   UNL A   1      52.989  26.564  27.879  1.00  0.00     0.124 S 
ATOM    102  O   UNL A   1      53.507  27.800  27.303  1.00  0.00    -0.237 OA
ATOM    103  O   UNL A   1      53.408  26.276  29.247  1.00  0.00    -0.237 OA
ATOM    104  O   UNL A   1      52.969  25.412  26.983  1.00  0.00    -0.744 OA
ENDBRANCH 100 101
ENDBRANCH  68  93
ENDBRANCH  42  43
ENDBRANCH  35  37
ENDBRANCH  34  35
ENDBRANCH   1  34
TORSDOF 15
ENDMDL
MODEL 2
REMARK VINA RESULT:     -12.7      3.910      9.936
REMARK SMILES CC1(C)O[C@H]2CC3[C@@H]4CCC5=CC(=O)C=C[C@]5(C)[C@@]4(F)[C@H](O)C[C@@]3(C)[C@@]2(C(=O)OCCOC(=O)c2ccc(-c3c4nc(c(-c5c(F)cc(S(=O)(=O)[O-])cc5F)c5ccc([nH]5)c(-c5c(F)cc(S(=O)(=O)[O-])cc5F)c5nc(c(-c6c(F)cc(S(=O)(=O)[O-])cc6F)c6ccc3[nH]6)C=C5)C=C4)cc2)O1
REMARK SMILES IDX 31 1 30 2 29 3 27 4 28 5 26 6 1 7 2 8 3 9 4 10 101 11 5 12
REMARK SMILES IDX 6 13 24 14 7 15 23 16 25 17 8 18 21 19 9 20 19 21 10 22
REMARK SMILES IDX 17 23 20 24 11 25 16 26 18 27 12 28 15 29 13 30 14 31 22 32
REMARK SMILES IDX 32 34 33 35 34 36 35 37 36 38 100 39 37 40 99 41 38 42 39 43
REMARK SMILES IDX 40 44 93 45 41 46 98 47 92 48 94 49 42 50 97 51 91 52 90 53
REMARK SMILES IDX 43 55 77 56 56 57 76 58 57 59 60 60 75 61 95 62 58 63 59 64
REMARK SMILES IDX 74 66 96 67 61 68 44 69 45 70 54 71 46 72 47 73 53 74 55 75
REMARK SMILES IDX 48 76 49 77 50 78 51 79 52 80 78 81 79 82 88 83 80 84 81 85
REMARK SMILES IDX 87 86 89 87 82 88 83 89 84 90 85 91 86 92 62 93 63 94 72 95
REMARK SMILES IDX 64 96 65 97 71 98 73 99 66 100 67 101 68 102 69 103 70 104
REMARK H PARENT 22 33 94 54 60 65
REMARK Flexibility Score: inf
ROOT
ATOM      1  C   UNL A   1      37.689  21.666  25.297  1.00  0.00     0.275 C 
ENDROOT
BRANCH   1   2
ATOM      2  C   UNL A   1      36.184  21.629  25.524  1.00  0.00     0.274 C 
BRANCH   2   3
ATOM      3  O   UNL A   1      35.503  21.701  24.259  1.00  0.00    -0.460 OA
BRANCH   3   4
ATOM      4  C   UNL A   1      35.225  22.940  23.750  1.00  0.00     0.342 C 
ATOM      5  O   UNL A   1      36.044  23.700  23.254  1.00  0.00    -0.249 OA
BRANCH   4   6
ATOM      6  C   UNL A   1      33.757  23.277  24.006  1.00  0.00     0.200 C 
ATOM      7  C   UNL A   1      31.590  24.039  26.632  1.00  0.00     0.075 C 
ATOM      8  C   UNL A   1      32.917  23.367  26.214  1.00  0.00     0.165 C 
ATOM      9  C   UNL A   1      33.752  23.315  27.484  1.00  0.00     0.075 C 
ATOM     10  O   UNL A   1      32.646  22.057  25.715  1.00  0.00    -0.344 OA
ATOM     11  O   UNL A   1      33.635  24.119  25.203  1.00  0.00    -0.329 OA
ATOM     12  C   UNL A   1      32.762  22.116  24.287  1.00  0.00     0.166 C 
ATOM     13  C   UNL A   1      31.374  22.554  23.622  1.00  0.00     0.040 C 
ATOM     14  C   UNL A   1      33.127  23.938  22.705  1.00  0.00     0.016 C 
ATOM     15  C   UNL A   1      31.678  24.009  23.223  1.00  0.00     0.008 C 
ATOM     16  C   UNL A   1      33.673  25.280  22.222  1.00  0.00     0.046 C 
ATOM     17  C   UNL A   1      33.287  22.974  21.485  1.00  0.00     0.015 C 
ATOM     18  C   UNL A   1      30.855  25.309  23.292  1.00  0.00     0.035 C 
ATOM     19  C   UNL A   1      33.044  26.518  22.828  1.00  0.00     0.154 C 
ATOM     20  C   UNL A   1      29.356  25.218  23.090  1.00  0.00     0.012 C 
ATOM     21  C   UNL A   1      31.492  26.563  22.653  1.00  0.00     0.152 C 
ATOM     22  C   UNL A   1      28.735  26.365  23.903  1.00  0.00     0.032 C 
ATOM     23  C   UNL A   1      30.823  27.881  23.260  1.00  0.00     0.044 C 
ATOM     24  F   UNL A   1      31.229  26.508  21.307  1.00  0.00    -0.239 F 
ATOM     25  C   UNL A   1      29.301  27.722  23.538  1.00  0.00    -0.053 C 
ATOM     26  C   UNL A   1      31.038  29.106  22.370  1.00  0.00    -0.009 C 
ATOM     27  C   UNL A   1      31.496  28.241  24.621  1.00  0.00     0.024 C 
ATOM     28  C   UNL A   1      28.469  28.780  23.519  1.00  0.00     0.052 C 
ATOM     29  C   UNL A   1      30.195  30.148  22.321  1.00  0.00     0.048 C 
ATOM     30  C   UNL A   1      28.935  30.114  23.088  1.00  0.00     0.178 C 
ATOM     31  O   UNL A   1      28.280  31.126  23.297  1.00  0.00    -0.290 OA
BRANCH  19  32
ATOM     32  O   UNL A   1      33.679  27.633  22.189  1.00  0.00    -0.390 OA
ATOM     33  H   UNL A   1      33.446  27.640  21.248  1.00  0.00     0.211 HD
ENDBRANCH  19  32
ENDBRANCH   4   6
ENDBRANCH   3   4
ENDBRANCH   2   3
ENDBRANCH   1   2
BRANCH   1  34
ATOM     34  O   UNL A   1      38.158  22.976  25.650  1.00  0.00    -0.458 OA
BRANCH  34  35
ATOM     35  C   UNL A   1      39.428  23.047  26.099  1.00  0.00     0.338 C 
ATOM     36  O   UNL A   1      40.331  22.245  25.902  1.00  0.00    -0.246 OA
BRANCH  35  37
ATOM     37  C   UNL A   1      39.603  24.302  26.851  1.00  0.00     0.060 A 
ATOM     38  C   UNL A   1      40.498  25.269  26.387  1.00  0.00     0.016 A 
ATOM     39  C   UNL A   1      38.996  24.454  28.092  1.00  0.00     0.016 A 
ATOM     40  C   UNL A   1      40.845  26.352  27.183  1.00  0.00     0.010 A 
ATOM     41  C   UNL A   1      39.268  25.595  28.851  1.00  0.00     0.010 A 
ATOM     42  C   UNL A   1      40.211  26.543  28.412  1.00  0.00    -0.014 A 
BRANCH  42  43
ATOM     43  C   UNL A   1      40.552  27.711  29.259  1.00  0.00     0.031 A 
ATOM     44  C   UNL A   1      41.814  27.692  30.074  1.00  0.00     0.074 A 
ATOM     45  C   UNL A   1      39.733  28.780  29.298  1.00  0.00     0.049 A 
ATOM     46  N   UNL A   1      42.165  28.463  31.067  1.00  0.00    -0.248 NA
ATOM     47  C   UNL A   1      42.807  26.660  29.728  1.00  0.00     0.031 C 
ATOM     48  C   UNL A   1      38.526  28.959  28.487  1.00  0.00     0.029 A 
ATOM     49  N   UNL A   1      39.791  29.920  30.059  1.00  0.00    -0.354 N 
ATOM     50  C   UNL A   1      43.396  27.984  31.499  1.00  0.00     0.074 A 
ATOM     51  C   UNL A   1      43.733  26.855  30.657  1.00  0.00     0.031 C 
ATOM     52  C   UNL A   1      37.965  30.140  28.786  1.00  0.00     0.029 A 
ATOM     53  C   UNL A   1      38.717  30.757  29.871  1.00  0.00     0.049 A 
ATOM     54  H   UNL A   1      40.529  30.118  30.680  1.00  0.00     0.167 HD
ATOM     55  C   UNL A   1      44.165  28.445  32.513  1.00  0.00     0.037 A 
ATOM     56  C   UNL A   1      38.347  31.865  30.540  1.00  0.00     0.037 A 
ATOM     57  C   UNL A   1      43.826  29.589  33.320  1.00  0.00     0.049 A 
ATOM     58  C   UNL A   1      39.179  32.317  31.707  1.00  0.00     0.074 A 
ATOM     59  C   UNL A   1      44.505  30.116  34.403  1.00  0.00     0.029 A 
ATOM     60  N   UNL A   1      42.717  30.396  33.112  1.00  0.00    -0.354 N 
ATOM     61  N   UNL A   1      40.284  31.793  32.182  1.00  0.00    -0.248 NA
ATOM     62  C   UNL A   1      38.700  33.492  32.445  1.00  0.00     0.031 C 
ATOM     63  C   UNL A   1      43.796  31.232  34.863  1.00  0.00     0.029 A 
ATOM     64  C   UNL A   1      42.694  31.419  34.044  1.00  0.00     0.049 A 
ATOM     65  H   UNL A   1      42.044  30.261  32.405  1.00  0.00     0.167 HD
ATOM     66  C   UNL A   1      40.641  32.584  33.267  1.00  0.00     0.074 A 
ATOM     67  C   UNL A   1      39.642  33.630  33.368  1.00  0.00     0.031 C 
ATOM     68  C   UNL A   1      41.694  32.455  34.110  1.00  0.00     0.037 A 
BRANCH  55  69
ATOM     69  C   UNL A   1      45.427  27.693  32.830  1.00  0.00     0.058 A 
ATOM     70  C   UNL A   1      45.425  26.563  33.662  1.00  0.00     0.135 A 
ATOM     71  C   UNL A   1      46.651  28.093  32.272  1.00  0.00     0.135 A 
ATOM     72  F   UNL A   1      44.285  26.151  34.241  1.00  0.00    -0.206 F 
ATOM     73  C   UNL A   1      46.597  25.866  33.944  1.00  0.00     0.059 A 
ATOM     74  C   UNL A   1      47.832  27.399  32.522  1.00  0.00     0.059 A 
ATOM     75  F   UNL A   1      46.710  29.170  31.472  1.00  0.00    -0.206 F 
ATOM     76  C   UNL A   1      47.796  26.294  33.371  1.00  0.00     0.060 A 
BRANCH  76  77
ATOM     77  S   UNL A   1      49.308  25.379  33.740  1.00  0.00     0.124 S 
ATOM     78  O   UNL A   1      50.161  26.434  34.279  1.00  0.00    -0.237 OA
ATOM     79  O   UNL A   1      48.847  24.385  34.704  1.00  0.00    -0.237 OA
ATOM     80  O   UNL A   1      49.710  24.849  32.441  1.00  0.00    -0.744 OA
ENDBRANCH  76  77
ENDBRANCH  55  69
BRANCH  56  81
ATOM     81  C   UNL A   1      37.100  32.582  30.167  1.00  0.00     0.058 A 
ATOM     82  C   UNL A   1      37.102  33.558  29.160  1.00  0.00     0.135 A 
ATOM     83  C   UNL A   1      35.881  32.308  30.810  1.00  0.00     0.135 A 
ATOM     84  F   UNL A   1      38.243  33.859  28.523  1.00  0.00    -0.206 F 
ATOM     85  C   UNL A   1      35.947  34.251  28.815  1.00  0.00     0.059 A 
ATOM     86  C   UNL A   1      34.707  32.969  30.464  1.00  0.00     0.059 A 
ATOM     87  F   UNL A   1      35.823  31.373  31.772  1.00  0.00    -0.206 F 
ATOM     88  C   UNL A   1      34.754  33.950  29.476  1.00  0.00     0.060 A 
BRANCH  88  89
ATOM     89  S   UNL A   1      33.248  34.828  29.003  1.00  0.00     0.124 S 
ATOM     90  O   UNL A   1      32.558  34.934  30.283  1.00  0.00    -0.237 OA
ATOM     91  O   UNL A   1      33.773  36.075  28.454  1.00  0.00    -0.237 OA
ATOM     92  O   UNL A   1      32.635  33.933  28.026  1.00  0.00    -0.744 OA
ENDBRANCH  88  89
ENDBRANCH  56  81
BRANCH  68  93
ATOM     93  C   UNL A   1      41.838  33.494  35.183  1.00  0.00     0.058 A 
ATOM     94  C   UNL A   1      42.519  34.698  34.950  1.00  0.00     0.135 A 
ATOM     95  C   UNL A   1      41.260  33.293  36.445  1.00  0.00     0.135 A 
ATOM     96  F   UNL A   1      43.097  34.930  33.761  1.00  0.00    -0.206 F 
ATOM     97  C   UNL A   1      42.639  35.663  35.944  1.00  0.00     0.059 A 
ATOM     98  C   UNL A   1      41.350  34.252  37.446  1.00  0.00     0.059 A 
ATOM     99  F   UNL A   1      40.593  32.158  36.710  1.00  0.00    -0.206 F 
ATOM    100  C   UNL A   1      42.052  35.431  37.190  1.00  0.00     0.060 A 
BRANCH 100 101
ATOM    101  S   UNL A   1      42.187  36.701  38.465  1.00  0.00     0.124 S 
ATOM    102  O   UNL A   1      40.823  37.217  38.510  1.00  0.00    -0.237 OA
ATOM    103  O   UNL A   1      42.614  35.932  39.630  1.00  0.00    -0.237 OA
ATOM    104  O   UNL A   1      43.189  37.615  37.926  1.00  0.00    -0.744 OA
ENDBRANCH 100 101
ENDBRANCH  68  93
ENDBRANCH  42  43
ENDBRANCH  35  37
ENDBRANCH  34  35
ENDBRANCH   1  34
TORSDOF 15
ENDMDL
MODEL 3
REMARK VINA RESULT:     -12.5      1.600      2.202
REMARK SMILES CC1(C)O[C@H]2CC3[C@@H]4CCC5=CC(=O)C=C[C@]5(C)[C@@]4(F)[C@H](O)C[C@@]3(C)[C@@]2(C(=O)OCCOC(=O)c2ccc(-c3c4nc(c(-c5c(F)cc(S(=O)(=O)[O-])cc5F)c5ccc([nH]5)c(-c5c(F)cc(S(=O)(=O)[O-])cc5F)c5nc(c(-c6c(F)cc(S(=O)(=O)[O-])cc6F)c6ccc3[nH]6)C=C5)C=C4)cc2)O1
REMARK SMILES IDX 31 1 30 2 29 3 27 4 28 5 26 6 1 7 2 8 3 9 4 10 101 11 5 12
REMARK SMILES IDX 6 13 24 14 7 15 23 16 25 17 8 18 21 19 9 20 19 21 10 22
REMARK SMILES IDX 17 23 20 24 11 25 16 26 18 27 12 28 15 29 13 30 14 31 22 32
REMARK SMILES IDX 32 34 33 35 34 36 35 37 36 38 100 39 37 40 99 41 38 42 39 43
REMARK SMILES IDX 40 44 93 45 41 46 98 47 92 48 94 49 42 50 97 51 91 52 90 53
REMARK SMILES IDX 43 55 77 56 56 57 76 58 57 59 60 60 75 61 95 62 58 63 59 64
REMARK SMILES IDX 74 66 96 67 61 68 44 69 45 70 54 71 46 72 47 73 53 74 55 75
REMARK SMILES IDX 48 76 49 77 50 78 51 79 52 80 78 81 79 82 88 83 80 84 81 85
REMARK SMILES IDX 87 86 89 87 82 88 83 89 84 90 85 91 86 92 62 93 63 94 72 95
REMARK SMILES IDX 64 96 65 97 71 98 73 99 66 100 67 101 68 102 69 103 70 104
REMARK H PARENT 22 33 94 54 60 65
REMARK Flexibility Score: inf
ROOT
ATOM      1  C   UNL A   1      34.045  29.930  27.635  1.00  0.00     0.275 C 
ENDROOT
BRANCH   1   2
ATOM      2  C   UNL A   1      33.575  29.207  26.381  1.00  0.00     0.274 C 
BRANCH   2   3
ATOM      3  O   UNL A   1      33.251  27.843  26.703  1.00  0.00    -0.460 OA
BRANCH   3   4
ATOM      4  C   UNL A   1      31.948  27.447  26.580  1.00  0.00     0.342 C 
ATOM      5  O   UNL A   1      31.048  27.725  27.360  1.00  0.00    -0.249 OA
BRANCH   4   6
ATOM      6  C   UNL A   1      31.814  26.504  25.385  1.00  0.00     0.200 C 
ATOM      7  C   UNL A   1      33.414  25.720  22.385  1.00  0.00     0.075 C 
ATOM      8  C   UNL A   1      33.183  26.787  23.478  1.00  0.00     0.165 C 
ATOM      9  C   UNL A   1      34.373  27.728  23.372  1.00  0.00     0.075 C 
ATOM     10  O   UNL A   1      31.956  27.470  23.219  1.00  0.00    -0.344 OA
ATOM     11  O   UNL A   1      33.138  26.225  24.814  1.00  0.00    -0.329 OA
ATOM     12  C   UNL A   1      30.989  26.971  24.154  1.00  0.00     0.166 C 
ATOM     13  C   UNL A   1      30.271  25.660  23.581  1.00  0.00     0.040 C 
ATOM     14  C   UNL A   1      31.030  25.193  25.825  1.00  0.00     0.016 C 
ATOM     15  C   UNL A   1      30.939  24.559  24.424  1.00  0.00     0.008 C 
ATOM     16  C   UNL A   1      31.655  24.277  26.874  1.00  0.00     0.046 C 
ATOM     17  C   UNL A   1      29.632  25.578  26.407  1.00  0.00     0.015 C 
ATOM     18  C   UNL A   1      31.461  23.150  24.086  1.00  0.00     0.035 C 
ATOM     19  C   UNL A   1      32.602  23.212  26.357  1.00  0.00     0.154 C 
ATOM     20  C   UNL A   1      30.732  22.355  23.021  1.00  0.00     0.012 C 
ATOM     21  C   UNL A   1      31.953  22.293  25.273  1.00  0.00     0.152 C 
ATOM     22  C   UNL A   1      31.778  21.439  22.367  1.00  0.00     0.032 C 
ATOM     23  C   UNL A   1      32.933  21.147  24.744  1.00  0.00     0.044 C 
ATOM     24  F   UNL A   1      30.846  21.711  25.836  1.00  0.00    -0.239 F 
ATOM     25  C   UNL A   1      32.505  20.564  23.368  1.00  0.00    -0.053 C 
ATOM     26  C   UNL A   1      33.077  19.998  25.745  1.00  0.00    -0.009 C 
ATOM     27  C   UNL A   1      34.374  21.717  24.568  1.00  0.00     0.024 C 
ATOM     28  C   UNL A   1      32.818  19.304  23.010  1.00  0.00     0.052 C 
ATOM     29  C   UNL A   1      33.353  18.734  25.392  1.00  0.00     0.048 C 
ATOM     30  C   UNL A   1      33.450  18.370  23.965  1.00  0.00     0.178 C 
ATOM     31  O   UNL A   1      33.963  17.322  23.600  1.00  0.00    -0.290 OA
BRANCH  19  32
ATOM     32  O   UNL A   1      33.012  22.461  27.507  1.00  0.00    -0.390 OA
ATOM     33  H   UNL A   1      33.970  22.551  27.627  1.00  0.00     0.211 HD
ENDBRANCH  19  32
ENDBRANCH   4   6
ENDBRANCH   3   4
ENDBRANCH   2   3
ENDBRANCH   1   2
BRANCH   1  34
ATOM     34  O   UNL A   1      35.377  29.484  27.931  1.00  0.00    -0.458 OA
BRANCH  34  35
ATOM     35  C   UNL A   1      36.017  30.146  28.916  1.00  0.00     0.338 C 
ATOM     36  O   UNL A   1      35.514  30.799  29.820  1.00  0.00    -0.246 OA
BRANCH  35  37
ATOM     37  C   UNL A   1      37.468  29.927  28.779  1.00  0.00     0.060 A 
ATOM     38  C   UNL A   1      38.026  29.751  27.510  1.00  0.00     0.016 A 
ATOM     39  C   UNL A   1      38.249  29.746  29.915  1.00  0.00     0.016 A 
ATOM     40  C   UNL A   1      39.341  29.328  27.369  1.00  0.00     0.010 A 
ATOM     41  C   UNL A   1      39.599  29.418  29.770  1.00  0.00     0.010 A 
ATOM     42  C   UNL A   1      40.151  29.185  28.497  1.00  0.00    -0.014 A 
BRANCH  42  43
ATOM     43  C   UNL A   1      41.564  28.760  28.356  1.00  0.00     0.031 A 
ATOM     44  C   UNL A   1      42.659  29.782  28.465  1.00  0.00     0.074 A 
ATOM     45  C   UNL A   1      41.862  27.466  28.129  1.00  0.00     0.049 A 
ATOM     46  N   UNL A   1      43.913  29.687  28.113  1.00  0.00    -0.248 NA
ATOM     47  C   UNL A   1      42.289  31.087  29.039  1.00  0.00     0.031 C 
ATOM     48  C   UNL A   1      40.897  26.363  28.090  1.00  0.00     0.029 A 
ATOM     49  N   UNL A   1      43.066  26.858  27.880  1.00  0.00    -0.354 N 
ATOM     50  C   UNL A   1      44.474  30.932  28.375  1.00  0.00     0.074 A 
ATOM     51  C   UNL A   1      43.422  31.765  28.920  1.00  0.00     0.031 C 
ATOM     52  C   UNL A   1      41.548  25.216  27.845  1.00  0.00     0.029 A 
ATOM     53  C   UNL A   1      42.956  25.514  27.617  1.00  0.00     0.049 A 
ATOM     54  H   UNL A   1      43.925  27.339  27.889  1.00  0.00     0.167 HD
ATOM     55  C   UNL A   1      45.749  31.337  28.170  1.00  0.00     0.037 A 
ATOM     56  C   UNL A   1      43.874  24.632  27.180  1.00  0.00     0.037 A 
ATOM     57  C   UNL A   1      46.788  30.481  27.655  1.00  0.00     0.049 A 
ATOM     58  C   UNL A   1      45.266  25.120  26.892  1.00  0.00     0.074 A 
ATOM     59  C   UNL A   1      48.102  30.797  27.361  1.00  0.00     0.029 A 
ATOM     60  N   UNL A   1      46.628  29.131  27.378  1.00  0.00    -0.354 N 
ATOM     61  N   UNL A   1      45.762  26.326  27.036  1.00  0.00    -0.248 NA
ATOM     62  C   UNL A   1      46.215  24.136  26.356  1.00  0.00     0.031 C 
ATOM     63  C   UNL A   1      48.733  29.640  26.889  1.00  0.00     0.029 A 
ATOM     64  C   UNL A   1      47.821  28.597  26.921  1.00  0.00     0.049 A 
ATOM     65  H   UNL A   1      45.790  28.626  27.491  1.00  0.00     0.167 HD
ATOM     66  C   UNL A   1      47.085  26.243  26.622  1.00  0.00     0.074 A 
ATOM     67  C   UNL A   1      47.316  24.865  26.236  1.00  0.00     0.031 C 
ATOM     68  C   UNL A   1      48.024  27.218  26.558  1.00  0.00     0.037 A 
BRANCH  55  69
ATOM     69  C   UNL A   1      46.082  32.771  28.467  1.00  0.00     0.058 A 
ATOM     70  C   UNL A   1      45.931  33.780  27.504  1.00  0.00     0.135 A 
ATOM     71  C   UNL A   1      46.536  33.145  29.742  1.00  0.00     0.135 A 
ATOM     72  F   UNL A   1      45.523  33.474  26.262  1.00  0.00    -0.206 F 
ATOM     73  C   UNL A   1      46.234  35.108  27.790  1.00  0.00     0.059 A 
ATOM     74  C   UNL A   1      46.824  34.470  30.057  1.00  0.00     0.059 A 
ATOM     75  F   UNL A   1      46.703  32.218  30.699  1.00  0.00    -0.206 F 
ATOM     76  C   UNL A   1      46.682  35.443  29.069  1.00  0.00     0.060 A 
BRANCH  76  77
ATOM     77  S   UNL A   1      47.068  37.170  29.428  1.00  0.00     0.124 S 
ATOM     78  O   UNL A   1      46.295  37.392  30.647  1.00  0.00    -0.237 OA
ATOM     79  O   UNL A   1      48.518  37.140  29.596  1.00  0.00    -0.237 OA
ATOM     80  O   UNL A   1      46.592  37.878  28.244  1.00  0.00    -0.744 OA
ENDBRANCH  76  77
ENDBRANCH  55  69
BRANCH  56  81
ATOM     81  C   UNL A   1      43.492  23.219  26.925  1.00  0.00     0.058 A 
ATOM     82  C   UNL A   1      43.369  22.730  25.616  1.00  0.00     0.135 A 
ATOM     83  C   UNL A   1      43.239  22.329  27.981  1.00  0.00     0.135 A 
ATOM     84  F   UNL A   1      43.592  23.544  24.574  1.00  0.00    -0.206 F 
ATOM     85  C   UNL A   1      42.992  21.416  25.362  1.00  0.00     0.059 A 
ATOM     86  C   UNL A   1      42.887  21.003  27.753  1.00  0.00     0.059 A 
ATOM     87  F   UNL A   1      43.357  22.743  29.253  1.00  0.00    -0.206 F 
ATOM     88  C   UNL A   1      42.751  20.560  26.439  1.00  0.00     0.060 A 
BRANCH  88  89
ATOM     89  S   UNL A   1      42.294  18.844  26.106  1.00  0.00     0.124 S 
ATOM     90  O   UNL A   1      42.580  18.213  27.388  1.00  0.00    -0.237 OA
ATOM     91  O   UNL A   1      40.883  18.961  25.752  1.00  0.00    -0.237 OA
ATOM     92  O   UNL A   1      43.178  18.473  25.005  1.00  0.00    -0.744 OA
ENDBRANCH  88  89
ENDBRANCH  56  81
BRANCH  68  93
ATOM     93  C   UNL A   1      49.393  26.814  26.095  1.00  0.00     0.058 A 
ATOM     94  C   UNL A   1      50.336  26.269  26.979  1.00  0.00     0.135 A 
ATOM     95  C   UNL A   1      49.750  26.947  24.744  1.00  0.00     0.135 A 
ATOM     96  F   UNL A   1      50.042  26.133  28.282  1.00  0.00    -0.206 F 
ATOM     97  C   UNL A   1      51.598  25.885  26.542  1.00  0.00     0.059 A 
ATOM     98  C   UNL A   1      50.999  26.551  24.282  1.00  0.00     0.059 A 
ATOM     99  F   UNL A   1      48.878  27.458  23.861  1.00  0.00    -0.206 F 
ATOM    100  C   UNL A   1      51.922  26.031  25.191  1.00  0.00     0.060 A 
BRANCH 100 101
ATOM    101  S   UNL A   1      53.553  25.503  24.626  1.00  0.00     0.124 S 
ATOM    102  O   UNL A   1      53.541  25.952  23.238  1.00  0.00    -0.237 OA
ATOM    103  O   UNL A   1      54.446  26.231  25.521  1.00  0.00    -0.237 OA
ATOM    104  O   UNL A   1      53.526  24.057  24.820  1.00  0.00    -0.744 OA
ENDBRANCH 100 101
ENDBRANCH  68  93
ENDBRANCH  42  43
ENDBRANCH  35  37
ENDBRANCH  34  35
ENDBRANCH   1  34
TORSDOF 15
ENDMDL
