MODEL 1
REMARK VINA RESULT:     -13.2      0.000      0.000
REMARK SMILES Cc1ccc(C(=O)OCCOC(=O)c2ccc(-c3c4nc(c(-c5c(F)cc(S(=O)(=O)[O-])cc5F)c5ccc([nH]5)c(-c5c(F)cc(S(=O)(=O)[O-])cc5F)c5nc(c(-c6c(F)cc(S(=O)(=O)[O-])cc6F)c6ccc3[nH]6)C=C5)C=C4)cc2)c(Oc2cccc(F)c2C(N)=O)c1
REMARK SMILES IDX 9 1 8 2 6 3 7 4 5 5 1 6 2 7 3 8 92 9 4 10 80 11 81 12 82 13
REMARK SMILES IDX 83 14 88 15 84 16 86 17 85 18 87 19 89 20 90 21 91 22 10 25
REMARK SMILES IDX 11 26 12 27 13 28 14 29 15 30 79 31 16 32 78 33 17 34 18 35
REMARK SMILES IDX 19 36 72 37 20 38 77 39 71 40 73 41 21 42 76 43 70 44 69 45
REMARK SMILES IDX 22 47 56 48 35 49 55 50 36 51 39 52 54 53 74 54 37 55 38 56
REMARK SMILES IDX 53 58 75 59 40 60 23 61 24 62 33 63 25 64 26 65 32 66 34 67
REMARK SMILES IDX 27 68 28 69 29 70 30 71 31 72 57 73 58 74 67 75 59 76 60 77
REMARK SMILES IDX 66 78 68 79 61 80 62 81 63 82 64 83 65 84 41 85 42 86 51 87
REMARK SMILES IDX 43 88 44 89 50 90 52 91 45 92 46 93 47 94 48 95 49 96
REMARK H PARENT 90 23 90 24 73 46 39 57
REMARK Flexibility Score: inf
ROOT
ATOM      1  C   UNL A   1      33.343  29.838  26.277  1.00  0.00     0.275 C 
ENDROOT
BRANCH   1   2
ATOM      2  O   UNL A   1      33.932  28.569  25.913  1.00  0.00    -0.458 OA
BRANCH   2   3
ATOM      3  C   UNL A   1      33.013  27.566  25.812  1.00  0.00     0.342 C 
ATOM      4  O   UNL A   1      32.501  27.031  26.768  1.00  0.00    -0.246 OA
BRANCH   3   5
ATOM      5  C   UNL A   1      32.856  27.061  24.417  1.00  0.00     0.102 A 
ATOM      6  C   UNL A   1      32.576  25.345  20.460  1.00  0.00     0.044 C 
ATOM      7  C   UNL A   1      32.682  25.957  21.826  1.00  0.00    -0.047 A 
ATOM      8  C   UNL A   1      31.854  27.023  22.211  1.00  0.00     0.004 A 
ATOM      9  C   UNL A   1      33.581  25.428  22.756  1.00  0.00     0.051 A 
ATOM     10  C   UNL A   1      31.954  27.590  23.492  1.00  0.00     0.020 A 
ATOM     11  C   UNL A   1      33.674  25.991  24.030  1.00  0.00     0.142 A 
BRANCH  11  12
ATOM     12  O   UNL A   1      34.511  25.442  24.964  1.00  0.00    -0.455 OA
BRANCH  12  13
ATOM     13  C   UNL A   1      34.471  24.101  25.246  1.00  0.00     0.143 A 
ATOM     14  C   UNL A   1      33.432  23.802  26.143  1.00  0.00     0.048 A 
ATOM     15  C   UNL A   1      35.315  23.073  24.807  1.00  0.00     0.117 A 
ATOM     16  C   UNL A   1      33.188  22.496  26.556  1.00  0.00     0.007 A 
ATOM     17  C   UNL A   1      35.047  21.761  25.211  1.00  0.00     0.139 A 
ATOM     18  C   UNL A   1      33.990  21.469  26.073  1.00  0.00     0.040 A 
ATOM     19  F   UNL A   1      35.828  20.744  24.816  1.00  0.00    -0.206 F 
BRANCH  15  20
ATOM     20  C   UNL A   1      36.514  23.246  23.968  1.00  0.00     0.255 C 
ATOM     21  N   UNL A   1      37.681  23.528  24.623  1.00  0.00    -0.365 N 
ATOM     22  O   UNL A   1      36.474  23.101  22.754  1.00  0.00    -0.269 OA
ATOM     23  H   UNL A   1      37.681  23.639  25.601  1.00  0.00     0.159 HD
ATOM     24  H   UNL A   1      38.519  23.619  24.117  1.00  0.00     0.159 HD
ENDBRANCH  15  20
ENDBRANCH  12  13
ENDBRANCH  11  12
ENDBRANCH   3   5
ENDBRANCH   2   3
ENDBRANCH   1   2
BRANCH   1  25
ATOM     25  C   UNL A   1      33.925  30.403  27.585  1.00  0.00     0.275 C 
BRANCH  25  26
ATOM     26  O   UNL A   1      35.081  29.714  28.099  1.00  0.00    -0.458 OA
BRANCH  26  27
ATOM     27  C   UNL A   1      36.211  30.471  28.181  1.00  0.00     0.338 C 
ATOM     28  O   UNL A   1      36.221  31.638  28.533  1.00  0.00    -0.246 OA
BRANCH  27  29
ATOM     29  C   UNL A   1      37.372  29.531  28.183  1.00  0.00     0.060 A 
ATOM     30  C   UNL A   1      38.417  29.725  27.269  1.00  0.00     0.016 A 
ATOM     31  C   UNL A   1      37.560  28.709  29.301  1.00  0.00     0.016 A 
ATOM     32  C   UNL A   1      39.682  29.197  27.528  1.00  0.00     0.010 A 
ATOM     33  C   UNL A   1      38.826  28.277  29.612  1.00  0.00     0.010 A 
ATOM     34  C   UNL A   1      39.886  28.505  28.722  1.00  0.00    -0.014 A 
BRANCH  34  35
ATOM     35  C   UNL A   1      41.052  27.678  28.997  1.00  0.00     0.031 A 
ATOM     36  C   UNL A   1      41.219  26.282  28.555  1.00  0.00     0.074 A 
ATOM     37  C   UNL A   1      42.041  28.418  29.542  1.00  0.00     0.049 A 
ATOM     38  N   UNL A   1      42.174  25.516  28.958  1.00  0.00    -0.248 NA
ATOM     39  C   UNL A   1      40.318  25.600  27.635  1.00  0.00     0.031 C 
ATOM     40  C   UNL A   1      43.457  28.154  29.688  1.00  0.00     0.029 A 
ATOM     41  N   UNL A   1      41.833  29.599  30.267  1.00  0.00    -0.354 N 
ATOM     42  C   UNL A   1      42.188  24.381  28.167  1.00  0.00     0.074 A 
ATOM     43  C   UNL A   1      40.963  24.447  27.412  1.00  0.00     0.031 C 
ATOM     44  C   UNL A   1      43.930  28.944  30.672  1.00  0.00     0.029 A 
ATOM     45  C   UNL A   1      42.781  29.611  31.283  1.00  0.00     0.049 A 
ATOM     46  H   UNL A   1      41.148  30.284  30.091  1.00  0.00     0.167 HD
ATOM     47  C   UNL A   1      43.317  23.610  28.152  1.00  0.00     0.037 A 
ATOM     48  C   UNL A   1      42.337  29.410  32.561  1.00  0.00     0.037 A 
ATOM     49  C   UNL A   1      44.246  24.090  29.175  1.00  0.00     0.049 A 
ATOM     50  C   UNL A   1      42.902  28.127  33.120  1.00  0.00     0.074 A 
ATOM     51  C   UNL A   1      45.301  24.984  29.108  1.00  0.00     0.029 A 
ATOM     52  N   UNL A   1      43.904  23.981  30.520  1.00  0.00    -0.354 N 
ATOM     53  N   UNL A   1      43.151  27.056  32.412  1.00  0.00    -0.248 NA
ATOM     54  C   UNL A   1      43.336  28.008  34.506  1.00  0.00     0.031 C 
ATOM     55  C   UNL A   1      45.501  25.516  30.406  1.00  0.00     0.029 A 
ATOM     56  C   UNL A   1      44.595  24.917  31.267  1.00  0.00     0.049 A 
ATOM     57  H   UNL A   1      43.262  23.331  30.888  1.00  0.00     0.167 HD
ATOM     58  C   UNL A   1      43.856  26.169  33.183  1.00  0.00     0.074 A 
ATOM     59  C   UNL A   1      43.913  26.795  34.495  1.00  0.00     0.031 C 
ATOM     60  C   UNL A   1      44.412  25.018  32.703  1.00  0.00     0.037 A 
BRANCH  47  61
ATOM     61  C   UNL A   1      43.722  22.678  27.017  1.00  0.00     0.058 A 
ATOM     62  C   UNL A   1      42.960  21.516  26.744  1.00  0.00     0.135 A 
ATOM     63  C   UNL A   1      44.876  22.811  26.219  1.00  0.00     0.135 A 
ATOM     64  F   UNL A   1      41.786  21.289  27.345  1.00  0.00    -0.206 F 
ATOM     65  C   UNL A   1      43.367  20.518  25.854  1.00  0.00     0.059 A 
ATOM     66  C   UNL A   1      45.321  21.810  25.340  1.00  0.00     0.059 A 
ATOM     67  F   UNL A   1      45.601  23.937  26.224  1.00  0.00    -0.206 F 
ATOM     68  C   UNL A   1      44.570  20.653  25.180  1.00  0.00     0.060 A 
BRANCH  68  69
ATOM     69  S   UNL A   1      45.112  19.315  24.098  1.00  0.00     0.124 S 
ATOM     70  O   UNL A   1      46.563  19.484  24.106  1.00  0.00    -0.237 OA
ATOM     71  O   UNL A   1      44.608  18.135  24.791  1.00  0.00    -0.237 OA
ATOM     72  O   UNL A   1      44.460  19.619  22.827  1.00  0.00    -0.744 OA
ENDBRANCH  68  69
ENDBRANCH  47  61
BRANCH  48  73
ATOM     73  C   UNL A   1      40.976  29.980  32.852  1.00  0.00     0.058 A 
ATOM     74  C   UNL A   1      40.812  31.385  32.820  1.00  0.00     0.135 A 
ATOM     75  C   UNL A   1      39.799  29.219  32.893  1.00  0.00     0.135 A 
ATOM     76  F   UNL A   1      41.892  32.186  32.788  1.00  0.00    -0.206 F 
ATOM     77  C   UNL A   1      39.563  31.998  32.722  1.00  0.00     0.059 A 
ATOM     78  C   UNL A   1      38.528  29.813  32.813  1.00  0.00     0.059 A 
ATOM     79  F   UNL A   1      39.858  27.880  32.932  1.00  0.00    -0.206 F 
ATOM     80  C   UNL A   1      38.423  31.201  32.694  1.00  0.00     0.060 A 
BRANCH  80  81
ATOM     81  S   UNL A   1      36.834  31.995  32.328  1.00  0.00     0.124 S 
ATOM     82  O   UNL A   1      36.408  32.440  33.650  1.00  0.00    -0.237 OA
ATOM     83  O   UNL A   1      37.231  33.052  31.401  1.00  0.00    -0.237 OA
ATOM     84  O   UNL A   1      36.050  30.914  31.739  1.00  0.00    -0.744 OA
ENDBRANCH  80  81
ENDBRANCH  48  73
BRANCH  60  85
ATOM     85  C   UNL A   1      44.974  23.922  33.566  1.00  0.00     0.058 A 
ATOM     86  C   UNL A   1      46.329  23.856  33.929  1.00  0.00     0.135 A 
ATOM     87  C   UNL A   1      44.116  22.990  34.197  1.00  0.00     0.135 A 
ATOM     88  F   UNL A   1      47.215  24.757  33.479  1.00  0.00    -0.206 F 
ATOM     89  C   UNL A   1      46.816  22.886  34.801  1.00  0.00     0.059 A 
ATOM     90  C   UNL A   1      44.572  22.053  35.115  1.00  0.00     0.059 A 
ATOM     91  F   UNL A   1      42.798  22.968  33.952  1.00  0.00    -0.206 F 
ATOM     92  C   UNL A   1      45.929  21.989  35.389  1.00  0.00     0.060 A 
BRANCH  92  93
ATOM     93  S   UNL A   1      46.540  20.767  36.560  1.00  0.00     0.124 S 
ATOM     94  O   UNL A   1      45.801  21.129  37.765  1.00  0.00    -0.237 OA
ATOM     95  O   UNL A   1      46.155  19.503  35.939  1.00  0.00    -0.237 OA
ATOM     96  O   UNL A   1      47.975  21.029  36.594  1.00  0.00    -0.744 OA
ENDBRANCH  92  93
ENDBRANCH  60  85
ENDBRANCH  34  35
ENDBRANCH  27  29
ENDBRANCH  26  27
ENDBRANCH  25  26
ENDBRANCH   1  25
TORSDOF 17
ENDMDL
MODEL 2
REMARK VINA RESULT:     -12.9      4.743     11.175
REMARK SMILES Cc1ccc(C(=O)OCCOC(=O)c2ccc(-c3c4nc(c(-c5c(F)cc(S(=O)(=O)[O-])cc5F)c5ccc([nH]5)c(-c5c(F)cc(S(=O)(=O)[O-])cc5F)c5nc(c(-c6c(F)cc(S(=O)(=O)[O-])cc6F)c6ccc3[nH]6)C=C5)C=C4)cc2)c(Oc2cccc(F)c2C(N)=O)c1
REMARK SMILES IDX 9 1 8 2 6 3 7 4 5 5 1 6 2 7 3 8 92 9 4 10 80 11 81 12 82 13
REMARK SMILES IDX 83 14 88 15 84 16 86 17 85 18 87 19 89 20 90 21 91 22 10 25
REMARK SMILES IDX 11 26 12 27 13 28 14 29 15 30 79 31 16 32 78 33 17 34 18 35
REMARK SMILES IDX 19 36 72 37 20 38 77 39 71 40 73 41 21 42 76 43 70 44 69 45
REMARK SMILES IDX 22 47 56 48 35 49 55 50 36 51 39 52 54 53 74 54 37 55 38 56
REMARK SMILES IDX 53 58 75 59 40 60 23 61 24 62 33 63 25 64 26 65 32 66 34 67
REMARK SMILES IDX 27 68 28 69 29 70 30 71 31 72 57 73 58 74 67 75 59 76 60 77
REMARK SMILES IDX 66 78 68 79 61 80 62 81 63 82 64 83 65 84 41 85 42 86 51 87
REMARK SMILES IDX 43 88 44 89 50 90 52 91 45 92 46 93 47 94 48 95 49 96
REMARK H PARENT 90 23 90 24 73 46 39 57
REMARK Flexibility Score: inf
ROOT
ATOM      1  C   UNL A   1      36.520  22.669  25.677  1.00  0.00     0.275 C 
ENDROOT
BRANCH   1   2
ATOM      2  O   UNL A   1      35.941  23.951  25.343  1.00  0.00    -0.458 OA
BRANCH   2   3
ATOM      3  C   UNL A   1      34.906  23.852  24.460  1.00  0.00     0.342 C 
ATOM      4  O   UNL A   1      35.002  24.122  23.285  1.00  0.00    -0.246 OA
BRANCH   3   5
ATOM      5  C   UNL A   1      33.600  23.574  25.125  1.00  0.00     0.102 A 
ATOM      6  C   UNL A   1      29.782  23.084  27.092  1.00  0.00     0.044 C 
ATOM      7  C   UNL A   1      31.116  23.243  26.423  1.00  0.00    -0.047 A 
ATOM      8  C   UNL A   1      31.714  22.179  25.731  1.00  0.00     0.004 A 
ATOM      9  C   UNL A   1      31.757  24.485  26.439  1.00  0.00     0.051 A 
ATOM     10  C   UNL A   1      32.961  22.333  25.103  1.00  0.00     0.020 A 
ATOM     11  C   UNL A   1      32.994  24.637  25.810  1.00  0.00     0.142 A 
BRANCH  11  12
ATOM     12  O   UNL A   1      33.600  25.863  25.774  1.00  0.00    -0.455 OA
BRANCH  12  13
ATOM     13  C   UNL A   1      32.961  26.951  25.236  1.00  0.00     0.143 A 
ATOM     14  C   UNL A   1      32.993  26.914  23.832  1.00  0.00     0.048 A 
ATOM     15  C   UNL A   1      32.359  28.039  25.881  1.00  0.00     0.117 A 
ATOM     16  C   UNL A   1      32.386  27.909  23.071  1.00  0.00     0.007 A 
ATOM     17  C   UNL A   1      31.733  29.020  25.106  1.00  0.00     0.139 A 
ATOM     18  C   UNL A   1      31.738  28.957  23.713  1.00  0.00     0.040 A 
ATOM     19  F   UNL A   1      31.143  30.080  25.680  1.00  0.00    -0.206 F 
BRANCH  15  20
ATOM     20  C   UNL A   1      32.353  28.278  27.335  1.00  0.00     0.255 C 
ATOM     21  N   UNL A   1      33.401  28.996  27.840  1.00  0.00    -0.365 N 
ATOM     22  O   UNL A   1      31.434  27.893  28.045  1.00  0.00    -0.269 OA
ATOM     23  H   UNL A   1      34.125  29.292  27.243  1.00  0.00     0.159 HD
ATOM     24  H   UNL A   1      33.431  29.216  28.798  1.00  0.00     0.159 HD
ENDBRANCH  15  20
ENDBRANCH  12  13
ENDBRANCH  11  12
ENDBRANCH   3   5
ENDBRANCH   2   3
ENDBRANCH   1   2
BRANCH   1  25
ATOM     25  C   UNL A   1      38.038  22.754  25.914  1.00  0.00     0.275 C 
BRANCH  25  26
ATOM     26  O   UNL A   1      38.505  23.973  26.524  1.00  0.00    -0.458 OA
BRANCH  26  27
ATOM     27  C   UNL A   1      39.785  23.928  26.991  1.00  0.00     0.338 C 
ATOM     28  O   UNL A   1      40.583  23.055  26.697  1.00  0.00    -0.246 OA
BRANCH  27  29
ATOM     29  C   UNL A   1      40.106  25.285  27.524  1.00  0.00     0.060 A 
ATOM     30  C   UNL A   1      40.363  26.334  26.629  1.00  0.00     0.016 A 
ATOM     31  C   UNL A   1      39.804  25.564  28.862  1.00  0.00     0.016 A 
ATOM     32  C   UNL A   1      40.205  27.659  27.036  1.00  0.00     0.010 A 
ATOM     33  C   UNL A   1      39.546  26.859  29.238  1.00  0.00     0.010 A 
ATOM     34  C   UNL A   1      39.759  27.910  28.333  1.00  0.00    -0.014 A 
BRANCH  34  35
ATOM     35  C   UNL A   1      39.811  29.215  28.975  1.00  0.00     0.031 A 
ATOM     36  C   UNL A   1      38.769  30.252  28.864  1.00  0.00     0.074 A 
ATOM     37  C   UNL A   1      40.845  29.278  29.839  1.00  0.00     0.049 A 
ATOM     38  N   UNL A   1      38.915  31.460  29.291  1.00  0.00    -0.248 NA
ATOM     39  C   UNL A   1      37.468  30.043  28.242  1.00  0.00     0.031 C 
ATOM     40  C   UNL A   1      41.126  30.198  30.922  1.00  0.00     0.029 A 
ATOM     41  N   UNL A   1      42.007  28.502  29.735  1.00  0.00    -0.354 N 
ATOM     42  C   UNL A   1      37.682  32.085  29.267  1.00  0.00     0.074 A 
ATOM     43  C   UNL A   1      36.831  31.185  28.532  1.00  0.00     0.031 C 
ATOM     44  C   UNL A   1      42.447  30.146  31.183  1.00  0.00     0.029 A 
ATOM     45  C   UNL A   1      43.060  29.308  30.152  1.00  0.00     0.049 A 
ATOM     46  H   UNL A   1      42.066  27.569  29.426  1.00  0.00     0.167 HD
ATOM     47  C   UNL A   1      37.512  33.221  30.010  1.00  0.00     0.037 A 
ATOM     48  C   UNL A   1      43.937  29.742  29.198  1.00  0.00     0.037 A 
ATOM     49  C   UNL A   1      38.803  33.643  30.553  1.00  0.00     0.049 A 
ATOM     50  C   UNL A   1      43.873  31.244  29.066  1.00  0.00     0.074 A 
ATOM     51  C   UNL A   1      39.417  33.384  31.767  1.00  0.00     0.029 A 
ATOM     52  N   UNL A   1      39.805  34.075  29.687  1.00  0.00    -0.354 N 
ATOM     53  N   UNL A   1      42.789  31.957  29.233  1.00  0.00    -0.248 NA
ATOM     54  C   UNL A   1      45.063  32.058  28.851  1.00  0.00     0.031 C 
ATOM     55  C   UNL A   1      40.814  33.532  31.586  1.00  0.00     0.029 A 
ATOM     56  C   UNL A   1      41.046  33.918  30.275  1.00  0.00     0.049 A 
ATOM     57  H   UNL A   1      39.651  34.440  28.785  1.00  0.00     0.167 HD
ATOM     58  C   UNL A   1      43.132  33.284  29.260  1.00  0.00     0.074 A 
ATOM     59  C   UNL A   1      44.559  33.296  28.979  1.00  0.00     0.031 C 
ATOM     60  C   UNL A   1      42.262  34.289  29.576  1.00  0.00     0.037 A 
BRANCH  47  61
ATOM     61  C   UNL A   1      36.173  33.734  30.525  1.00  0.00     0.058 A 
ATOM     62  C   UNL A   1      35.256  34.344  29.635  1.00  0.00     0.135 A 
ATOM     63  C   UNL A   1      35.760  33.740  31.872  1.00  0.00     0.135 A 
ATOM     64  F   UNL A   1      35.451  34.335  28.311  1.00  0.00    -0.206 F 
ATOM     65  C   UNL A   1      34.098  35.007  30.055  1.00  0.00     0.059 A 
ATOM     66  C   UNL A   1      34.619  34.424  32.322  1.00  0.00     0.059 A 
ATOM     67  F   UNL A   1      36.422  33.047  32.808  1.00  0.00    -0.206 F 
ATOM     68  C   UNL A   1      33.804  35.075  31.407  1.00  0.00     0.060 A 
BRANCH  68  69
ATOM     69  S   UNL A   1      32.349  36.005  31.930  1.00  0.00     0.124 S 
ATOM     70  O   UNL A   1      32.931  37.018  32.806  1.00  0.00    -0.237 OA
ATOM     71  O   UNL A   1      31.821  36.492  30.660  1.00  0.00    -0.237 OA
ATOM     72  O   UNL A   1      31.527  35.003  32.603  1.00  0.00    -0.744 OA
ENDBRANCH  68  69
ENDBRANCH  47  61
BRANCH  48  73
ATOM     73  C   UNL A   1      44.189  28.765  28.082  1.00  0.00     0.058 A 
ATOM     74  C   UNL A   1      44.909  27.582  28.372  1.00  0.00     0.135 A 
ATOM     75  C   UNL A   1      43.540  28.808  26.840  1.00  0.00     0.135 A 
ATOM     76  F   UNL A   1      45.565  27.464  29.539  1.00  0.00    -0.206 F 
ATOM     77  C   UNL A   1      44.897  26.467  27.534  1.00  0.00     0.059 A 
ATOM     78  C   UNL A   1      43.528  27.704  25.970  1.00  0.00     0.059 A 
ATOM     79  F   UNL A   1      42.840  29.893  26.478  1.00  0.00    -0.206 F 
ATOM     80  C   UNL A   1      44.182  26.527  26.343  1.00  0.00     0.060 A 
BRANCH  80  81
ATOM     81  S   UNL A   1      43.981  24.998  25.388  1.00  0.00     0.124 S 
ATOM     82  O   UNL A   1      42.809  25.304  24.575  1.00  0.00    -0.237 OA
ATOM     83  O   UNL A   1      45.249  24.923  24.667  1.00  0.00    -0.237 OA
ATOM     84  O   UNL A   1      43.790  23.983  26.420  1.00  0.00    -0.744 OA
ENDBRANCH  80  81
ENDBRANCH  48  73
BRANCH  60  85
ATOM     85  C   UNL A   1      42.547  35.752  29.378  1.00  0.00     0.058 A 
ATOM     86  C   UNL A   1      43.419  36.478  30.205  1.00  0.00     0.135 A 
ATOM     87  C   UNL A   1      42.070  36.431  28.231  1.00  0.00     0.135 A 
ATOM     88  F   UNL A   1      44.018  35.904  31.259  1.00  0.00    -0.206 F 
ATOM     89  C   UNL A   1      43.740  37.809  29.955  1.00  0.00     0.059 A 
ATOM     90  C   UNL A   1      42.426  37.739  27.932  1.00  0.00     0.059 A 
ATOM     91  F   UNL A   1      41.250  35.837  27.351  1.00  0.00    -0.206 F 
ATOM     92  C   UNL A   1      43.239  38.431  28.816  1.00  0.00     0.060 A 
BRANCH  92  93
ATOM     93  S   UNL A   1      43.693  40.134  28.454  1.00  0.00     0.124 S 
ATOM     94  O   UNL A   1      45.051  39.968  27.947  1.00  0.00    -0.237 OA
ATOM     95  O   UNL A   1      42.694  40.533  27.466  1.00  0.00    -0.237 OA
ATOM     96  O   UNL A   1      43.576  40.791  29.752  1.00  0.00    -0.744 OA
ENDBRANCH  92  93
ENDBRANCH  60  85
ENDBRANCH  34  35
ENDBRANCH  27  29
ENDBRANCH  26  27
ENDBRANCH  25  26
ENDBRANCH   1  25
TORSDOF 17
ENDMDL
MODEL 3
REMARK VINA RESULT:     -12.9      1.539      2.119
REMARK SMILES Cc1ccc(C(=O)OCCOC(=O)c2ccc(-c3c4nc(c(-c5c(F)cc(S(=O)(=O)[O-])cc5F)c5ccc([nH]5)c(-c5c(F)cc(S(=O)(=O)[O-])cc5F)c5nc(c(-c6c(F)cc(S(=O)(=O)[O-])cc6F)c6ccc3[nH]6)C=C5)C=C4)cc2)c(Oc2cccc(F)c2C(N)=O)c1
REMARK SMILES IDX 9 1 8 2 6 3 7 4 5 5 1 6 2 7 3 8 92 9 4 10 80 11 81 12 82 13
REMARK SMILES IDX 83 14 88 15 84 16 86 17 85 18 87 19 89 20 90 21 91 22 10 25
REMARK SMILES IDX 11 26 12 27 13 28 14 29 15 30 79 31 16 32 78 33 17 34 18 35
REMARK SMILES IDX 19 36 72 37 20 38 77 39 71 40 73 41 21 42 76 43 70 44 69 45
REMARK SMILES IDX 22 47 56 48 35 49 55 50 36 51 39 52 54 53 74 54 37 55 38 56
REMARK SMILES IDX 53 58 75 59 40 60 23 61 24 62 33 63 25 64 26 65 32 66 34 67
REMARK SMILES IDX 27 68 28 69 29 70 30 71 31 72 57 73 58 74 67 75 59 76 60 77
REMARK SMILES IDX 66 78 68 79 61 80 62 81 63 82 64 83 65 84 41 85 42 86 51 87
REMARK SMILES IDX 43 88 44 89 50 90 52 91 45 92 46 93 47 94 48 95 49 96
REMARK H PARENT 90 23 90 24 73 46 39 57
REMARK Flexibility Score: inf
ROOT
ATOM      1  C   UNL A   1      33.773  28.707  26.132  1.00  0.00     0.275 C 
ENDROOT
BRANCH   1   2
ATOM      2  O   UNL A   1      33.525  29.178  24.788  1.00  0.00    -0.458 OA
BRANCH   2   3
ATOM      3  C   UNL A   1      33.234  28.169  23.917  1.00  0.00     0.342 C 
ATOM      4  O   UNL A   1      34.047  27.678  23.168  1.00  0.00    -0.246 OA
BRANCH   3   5
ATOM      5  C   UNL A   1      31.774  27.873  23.839  1.00  0.00     0.102 A 
ATOM      6  C   UNL A   1      27.596  26.765  23.810  1.00  0.00     0.044 C 
ATOM      7  C   UNL A   1      29.047  27.147  23.801  1.00  0.00    -0.047 A 
ATOM      8  C   UNL A   1      29.469  28.390  23.303  1.00  0.00     0.004 A 
ATOM      9  C   UNL A   1      29.998  26.278  24.344  1.00  0.00     0.051 A 
ATOM     10  C   UNL A   1      30.828  28.745  23.299  1.00  0.00     0.020 A 
ATOM     11  C   UNL A   1      31.347  26.636  24.343  1.00  0.00     0.142 A 
BRANCH  11  12
ATOM     12  O   UNL A   1      32.275  25.815  24.924  1.00  0.00    -0.455 OA
BRANCH  12  13
ATOM     13  C   UNL A   1      32.358  24.490  24.582  1.00  0.00     0.143 A 
ATOM     14  C   UNL A   1      32.970  24.327  23.328  1.00  0.00     0.048 A 
ATOM     15  C   UNL A   1      31.896  23.362  25.271  1.00  0.00     0.117 A 
ATOM     16  C   UNL A   1      33.179  23.063  22.785  1.00  0.00     0.007 A 
ATOM     17  C   UNL A   1      32.132  22.095  24.727  1.00  0.00     0.139 A 
ATOM     18  C   UNL A   1      32.773  21.941  23.498  1.00  0.00     0.040 A 
ATOM     19  F   UNL A   1      31.708  20.986  25.352  1.00  0.00    -0.206 F 
BRANCH  15  20
ATOM     20  C   UNL A   1      31.131  23.379  26.531  1.00  0.00     0.255 C 
ATOM     21  N   UNL A   1      29.772  23.286  26.420  1.00  0.00    -0.365 N 
ATOM     22  O   UNL A   1      31.688  23.429  27.619  1.00  0.00    -0.269 OA
ATOM     23  H   UNL A   1      29.353  23.248  25.530  1.00  0.00     0.159 HD
ATOM     24  H   UNL A   1      29.213  23.257  27.229  1.00  0.00     0.159 HD
ENDBRANCH  15  20
ENDBRANCH  12  13
ENDBRANCH  11  12
ENDBRANCH   3   5
ENDBRANCH   2   3
ENDBRANCH   1   2
BRANCH   1  25
ATOM     25  C   UNL A   1      33.968  29.860  27.133  1.00  0.00     0.275 C 
BRANCH  25  26
ATOM     26  O   UNL A   1      35.071  29.709  28.048  1.00  0.00    -0.458 OA
BRANCH  26  27
ATOM     27  C   UNL A   1      36.034  30.669  27.948  1.00  0.00     0.338 C 
ATOM     28  O   UNL A   1      35.796  31.859  27.836  1.00  0.00    -0.246 OA
BRANCH  27  29
ATOM     29  C   UNL A   1      37.314  30.057  28.415  1.00  0.00     0.060 A 
ATOM     30  C   UNL A   1      37.302  29.191  29.518  1.00  0.00     0.016 A 
ATOM     31  C   UNL A   1      38.415  30.076  27.551  1.00  0.00     0.016 A 
ATOM     32  C   UNL A   1      38.329  28.264  29.694  1.00  0.00     0.010 A 
ATOM     33  C   UNL A   1      39.373  29.099  27.661  1.00  0.00     0.010 A 
ATOM     34  C   UNL A   1      39.343  28.201  28.738  1.00  0.00    -0.014 A 
BRANCH  34  35
ATOM     35  C   UNL A   1      40.599  27.491  28.927  1.00  0.00     0.031 A 
ATOM     36  C   UNL A   1      40.845  26.091  28.535  1.00  0.00     0.074 A 
ATOM     37  C   UNL A   1      41.567  28.340  29.332  1.00  0.00     0.049 A 
ATOM     38  N   UNL A   1      41.900  25.431  28.870  1.00  0.00    -0.248 NA
ATOM     39  C   UNL A   1      39.921  25.287  27.746  1.00  0.00     0.031 C 
ATOM     40  C   UNL A   1      43.009  28.204  29.343  1.00  0.00     0.029 A 
ATOM     41  N   UNL A   1      41.328  29.536  30.021  1.00  0.00    -0.354 N 
ATOM     42  C   UNL A   1      41.936  24.260  28.135  1.00  0.00     0.074 A 
ATOM     43  C   UNL A   1      40.641  24.182  27.509  1.00  0.00     0.031 C 
ATOM     44  C   UNL A   1      43.506  29.083  30.235  1.00  0.00     0.029 A 
ATOM     45  C   UNL A   1      42.368  29.683  30.932  1.00  0.00     0.049 A 
ATOM     46  H   UNL A   1      40.571  30.151  29.886  1.00  0.00     0.167 HD
ATOM     47  C   UNL A   1      43.122  23.587  28.038  1.00  0.00     0.037 A 
ATOM     48  C   UNL A   1      42.074  29.516  32.256  1.00  0.00     0.037 A 
ATOM     49  C   UNL A   1      44.102  24.199  28.935  1.00  0.00     0.049 A 
ATOM     50  C   UNL A   1      42.803  28.317  32.811  1.00  0.00     0.074 A 
ATOM     51  C   UNL A   1      45.062  25.173  28.718  1.00  0.00     0.029 A 
ATOM     52  N   UNL A   1      43.907  24.135  30.313  1.00  0.00    -0.354 N 
ATOM     53  N   UNL A   1      43.075  27.234  32.130  1.00  0.00    -0.248 NA
ATOM     54  C   UNL A   1      43.382  28.310  34.149  1.00  0.00     0.031 C 
ATOM     55  C   UNL A   1      45.342  25.790  29.963  1.00  0.00     0.029 A 
ATOM     56  C   UNL A   1      44.583  25.165  30.940  1.00  0.00     0.049 A 
ATOM     57  H   UNL A   1      43.365  23.454  30.774  1.00  0.00     0.167 HD
ATOM     58  C   UNL A   1      43.930  26.452  32.863  1.00  0.00     0.074 A 
ATOM     59  C   UNL A   1      44.062  27.151  34.133  1.00  0.00     0.031 C 
ATOM     60  C   UNL A   1      44.536  25.327  32.381  1.00  0.00     0.037 A 
BRANCH  47  61
ATOM     61  C   UNL A   1      43.494  22.632  26.910  1.00  0.00     0.058 A 
ATOM     62  C   UNL A   1      42.913  21.343  26.850  1.00  0.00     0.135 A 
ATOM     63  C   UNL A   1      44.461  22.876  25.915  1.00  0.00     0.135 A 
ATOM     64  F   UNL A   1      41.909  20.986  27.661  1.00  0.00    -0.206 F 
ATOM     65  C   UNL A   1      43.337  20.345  25.966  1.00  0.00     0.059 A 
ATOM     66  C   UNL A   1      44.926  21.883  25.037  1.00  0.00     0.059 A 
ATOM     67  F   UNL A   1      44.970  24.099  25.721  1.00  0.00    -0.206 F 
ATOM     68  C   UNL A   1      44.372  20.611  25.085  1.00  0.00     0.060 A 
BRANCH  68  69
ATOM     69  S   UNL A   1      44.956  19.284  24.011  1.00  0.00     0.124 S 
ATOM     70  O   UNL A   1      46.405  19.384  24.161  1.00  0.00    -0.237 OA
ATOM     71  O   UNL A   1      44.337  18.107  24.610  1.00  0.00    -0.237 OA
ATOM     72  O   UNL A   1      44.443  19.658  22.696  1.00  0.00    -0.744 OA
ENDBRANCH  68  69
ENDBRANCH  47  61
BRANCH  48  73
ATOM     73  C   UNL A   1      40.703  29.984  32.661  1.00  0.00     0.058 A 
ATOM     74  C   UNL A   1      40.443  31.375  32.677  1.00  0.00     0.135 A 
ATOM     75  C   UNL A   1      39.586  29.143  32.768  1.00  0.00     0.135 A 
ATOM     76  F   UNL A   1      41.460  32.248  32.586  1.00  0.00    -0.206 F 
ATOM     77  C   UNL A   1      39.152  31.901  32.688  1.00  0.00     0.059 A 
ATOM     78  C   UNL A   1      38.276  29.649  32.798  1.00  0.00     0.059 A 
ATOM     79  F   UNL A   1      39.738  27.810  32.769  1.00  0.00    -0.206 F 
ATOM     80  C   UNL A   1      38.069  31.029  32.723  1.00  0.00     0.060 A 
BRANCH  80  81
ATOM     81  S   UNL A   1      36.407  31.718  32.494  1.00  0.00     0.124 S 
ATOM     82  O   UNL A   1      36.127  32.271  33.814  1.00  0.00    -0.237 OA
ATOM     83  O   UNL A   1      36.628  32.696  31.432  1.00  0.00    -0.237 OA
ATOM     84  O   UNL A   1      35.613  30.554  32.112  1.00  0.00    -0.744 OA
ENDBRANCH  80  81
ENDBRANCH  48  73
BRANCH  60  85
ATOM     85  C   UNL A   1      45.277  24.331  33.231  1.00  0.00     0.058 A 
ATOM     86  C   UNL A   1      46.585  24.546  33.691  1.00  0.00     0.135 A 
ATOM     87  C   UNL A   1      44.615  23.192  33.748  1.00  0.00     0.135 A 
ATOM     88  F   UNL A   1      47.270  25.650  33.355  1.00  0.00    -0.206 F 
ATOM     89  C   UNL A   1      47.224  23.655  34.550  1.00  0.00     0.059 A 
ATOM     90  C   UNL A   1      45.213  22.323  34.651  1.00  0.00     0.059 A 
ATOM     91  F   UNL A   1      43.354  22.892  33.402  1.00  0.00    -0.206 F 
ATOM     92  C   UNL A   1      46.529  22.547  35.024  1.00  0.00     0.060 A 
BRANCH  92  93
ATOM     93  S   UNL A   1      47.326  21.419  36.177  1.00  0.00     0.124 S 
ATOM     94  O   UNL A   1      48.075  20.560  35.267  1.00  0.00    -0.237 OA
ATOM     95  O   UNL A   1      48.130  22.315  37.004  1.00  0.00    -0.237 OA
ATOM     96  O   UNL A   1      46.200  20.791  36.860  1.00  0.00    -0.744 OA
ENDBRANCH  92  93
ENDBRANCH  60  85
ENDBRANCH  34  35
ENDBRANCH  27  29
ENDBRANCH  26  27
ENDBRANCH  25  26
ENDBRANCH   1  25
TORSDOF 17
ENDMDL
