MODEL 1
REMARK VINA RESULT:     -11.1      0.000      0.000
REMARK SMILES CCNC(=O)c1ccc(N[C@@H]2COC[C@@]2(C)C(=O)OCCOC(=O)c2ccc(-c3c4nc(c(-c5c(F)cc(S(=O)(=O)[O-])cc5F)c5ccc([nH]5)c(-c5c(F)cc(S(=O)(=O)[O-])cc5F)c5nc(c(-c6c(F)cc(S(=O)(=O)[O-])cc6F)c6ccc3[nH]6)C=C5)C=C4)cc2)nn1
REMARK SMILES IDX 20 1 19 2 17 3 18 4 15 5 11 6 12 7 13 8 14 9 16 10 10 11
REMARK SMILES IDX 9 13 6 14 7 15 92 16 8 17 91 18 4 19 3 20 5 22 2 23 1 24
REMARK SMILES IDX 21 25 22 26 23 27 24 28 25 29 26 30 90 31 27 32 89 33 28 34
REMARK SMILES IDX 29 35 30 36 83 37 31 38 88 39 82 40 84 41 32 42 87 43 81 44
REMARK SMILES IDX 80 45 33 47 67 48 46 49 66 50 47 51 50 52 65 53 85 54 48 55
REMARK SMILES IDX 49 56 64 58 86 59 51 60 34 61 35 62 44 63 36 64 37 65 43 66
REMARK SMILES IDX 45 67 38 68 39 69 40 70 41 71 42 72 68 73 69 74 78 75 70 76
REMARK SMILES IDX 71 77 77 78 79 79 72 80 73 81 74 82 75 83 76 84 52 85 53 86
REMARK SMILES IDX 62 87 54 88 55 89 61 90 63 91 56 92 57 93 58 94 59 95 60 96
REMARK H PARENT 10 12 3 21 84 46 50 57
REMARK Flexibility Score: inf
ROOT
ATOM      1  C   UNL A   1      42.482  21.065  27.003  1.00  0.00     0.274 C 
ENDROOT
BRANCH   1   2
ATOM      2  O   UNL A   1      42.829  20.836  25.621  1.00  0.00    -0.462 OA
BRANCH   2   3
ATOM      3  C   UNL A   1      43.163  19.558  25.290  1.00  0.00     0.316 C 
ATOM      4  O   UNL A   1      42.453  18.589  25.536  1.00  0.00    -0.251 OA
BRANCH   3   5
ATOM      5  C   UNL A   1      44.547  19.445  24.675  1.00  0.00     0.111 C 
ATOM      6  C   UNL A   1      45.338  20.746  24.809  1.00  0.00     0.126 C 
ATOM      7  C   UNL A   1      46.782  20.305  24.632  1.00  0.00     0.186 C 
ATOM      8  O   UNL A   1      46.847  18.964  25.159  1.00  0.00    -0.378 OA
ATOM      9  C   UNL A   1      45.502  18.534  25.454  1.00  0.00     0.181 C 
ATOM     10  C   UNL A   1      44.372  18.892  23.256  1.00  0.00     0.028 C 
BRANCH   6  11
ATOM     11  N   UNL A   1      44.911  21.922  24.066  1.00  0.00    -0.362 N 
ATOM     12  H   UNL A   1      44.441  21.746  23.219  1.00  0.00     0.162 HD
BRANCH  11  13
ATOM     13  C   UNL A   1      45.079  23.249  24.395  1.00  0.00     0.149 A 
ATOM     14  C   UNL A   1      45.320  25.897  25.061  1.00  0.00     0.150 A 
ATOM     15  C   UNL A   1      44.072  25.312  25.145  1.00  0.00     0.040 A 
ATOM     16  N   UNL A   1      46.399  25.212  24.624  1.00  0.00    -0.143 NA
ATOM     17  C   UNL A   1      43.962  23.963  24.818  1.00  0.00     0.051 A 
ATOM     18  N   UNL A   1      46.266  23.876  24.289  1.00  0.00    -0.132 NA
BRANCH  14  19
ATOM     19  C   UNL A   1      45.517  27.332  25.371  1.00  0.00     0.271 C 
ATOM     20  N   UNL A   1      45.358  27.794  26.659  1.00  0.00    -0.351 N 
ATOM     21  H   UNL A   1      45.314  28.773  26.752  1.00  0.00     0.163 HD
ATOM     22  O   UNL A   1      45.799  28.125  24.474  1.00  0.00    -0.267 OA
BRANCH  20  23
ATOM     23  C   UNL A   1      45.244  27.048  27.904  1.00  0.00     0.113 C 
ATOM     24  C   UNL A   1      45.241  27.987  29.096  1.00  0.00     0.027 C 
ENDBRANCH  20  23
ENDBRANCH  14  19
ENDBRANCH  11  13
ENDBRANCH   6  11
ENDBRANCH   3   5
ENDBRANCH   2   3
ENDBRANCH   1   2
BRANCH   1  25
ATOM     25  C   UNL A   1      42.895  22.460  27.465  1.00  0.00     0.275 C 
BRANCH  25  26
ATOM     26  O   UNL A   1      41.781  23.127  28.082  1.00  0.00    -0.458 OA
BRANCH  26  27
ATOM     27  C   UNL A   1      41.033  23.897  27.263  1.00  0.00     0.338 C 
ATOM     28  O   UNL A   1      40.635  23.620  26.145  1.00  0.00    -0.246 OA
BRANCH  27  29
ATOM     29  C   UNL A   1      40.696  25.162  27.933  1.00  0.00     0.060 A 
ATOM     30  C   UNL A   1      41.673  26.147  28.038  1.00  0.00     0.016 A 
ATOM     31  C   UNL A   1      39.485  25.296  28.612  1.00  0.00     0.016 A 
ATOM     32  C   UNL A   1      41.494  27.212  28.916  1.00  0.00     0.010 A 
ATOM     33  C   UNL A   1      39.274  26.412  29.432  1.00  0.00     0.010 A 
ATOM     34  C   UNL A   1      40.302  27.346  29.643  1.00  0.00    -0.014 A 
BRANCH  34  35
ATOM     35  C   UNL A   1      40.209  28.385  30.708  1.00  0.00     0.031 A 
ATOM     36  C   UNL A   1      41.233  28.421  31.815  1.00  0.00     0.074 A 
ATOM     37  C   UNL A   1      39.276  29.357  30.646  1.00  0.00     0.049 A 
ATOM     38  N   UNL A   1      41.277  29.186  32.876  1.00  0.00    -0.248 NA
ATOM     39  C   UNL A   1      42.345  27.462  31.725  1.00  0.00     0.031 C 
ATOM     40  C   UNL A   1      38.248  29.483  29.612  1.00  0.00     0.029 A 
ATOM     41  N   UNL A   1      39.068  30.445  31.456  1.00  0.00    -0.354 N 
ATOM     42  C   UNL A   1      42.367  28.745  33.618  1.00  0.00     0.074 A 
ATOM     43  C   UNL A   1      42.975  27.664  32.873  1.00  0.00     0.031 C 
ATOM     44  C   UNL A   1      37.567  30.623  29.809  1.00  0.00     0.029 A 
ATOM     45  C   UNL A   1      38.064  31.275  31.017  1.00  0.00     0.049 A 
ATOM     46  H   UNL A   1      39.588  30.615  32.274  1.00  0.00     0.167 HD
ATOM     47  C   UNL A   1      42.817  29.190  34.817  1.00  0.00     0.037 A 
ATOM     48  C   UNL A   1      37.593  32.427  31.531  1.00  0.00     0.037 A 
ATOM     49  C   UNL A   1      42.270  30.315  35.525  1.00  0.00     0.049 A 
ATOM     50  C   UNL A   1      38.167  32.963  32.810  1.00  0.00     0.074 A 
ATOM     51  C   UNL A   1      42.631  30.818  36.763  1.00  0.00     0.029 A 
ATOM     52  N   UNL A   1      41.271  31.140  35.034  1.00  0.00    -0.354 N 
ATOM     53  N   UNL A   1      39.125  32.464  33.552  1.00  0.00    -0.248 NA
ATOM     54  C   UNL A   1      37.583  34.207  33.331  1.00  0.00     0.031 C 
ATOM     55  C   UNL A   1      41.849  31.954  37.018  1.00  0.00     0.029 A 
ATOM     56  C   UNL A   1      41.015  32.162  35.932  1.00  0.00     0.049 A 
ATOM     57  H   UNL A   1      40.811  31.018  34.173  1.00  0.00     0.167 HD
ATOM     58  C   UNL A   1      39.246  33.322  34.639  1.00  0.00     0.074 A 
ATOM     59  C   UNL A   1      38.290  34.392  34.438  1.00  0.00     0.031 C 
ATOM     60  C   UNL A   1      40.062  33.219  35.717  1.00  0.00     0.037 A 
BRANCH  47  61
ATOM     61  C   UNL A   1      43.925  28.404  35.453  1.00  0.00     0.058 A 
ATOM     62  C   UNL A   1      43.675  27.301  36.281  1.00  0.00     0.135 A 
ATOM     63  C   UNL A   1      45.260  28.795  35.259  1.00  0.00     0.135 A 
ATOM     64  F   UNL A   1      42.414  26.905  36.517  1.00  0.00    -0.206 F 
ATOM     65  C   UNL A   1      44.710  26.634  36.931  1.00  0.00     0.059 A 
ATOM     66  C   UNL A   1      46.310  28.134  35.885  1.00  0.00     0.059 A 
ATOM     67  F   UNL A   1      45.548  29.847  34.477  1.00  0.00    -0.206 F 
ATOM     68  C   UNL A   1      46.023  27.068  36.738  1.00  0.00     0.060 A 
BRANCH  68  69
ATOM     69  S   UNL A   1      47.366  26.242  37.618  1.00  0.00     0.124 S 
ATOM     70  O   UNL A   1      47.023  26.536  39.006  1.00  0.00    -0.237 OA
ATOM     71  O   UNL A   1      47.210  24.850  37.209  1.00  0.00    -0.237 OA
ATOM     72  O   UNL A   1      48.559  26.910  37.108  1.00  0.00    -0.744 OA
ENDBRANCH  68  69
ENDBRANCH  47  61
BRANCH  48  73
ATOM     73  C   UNL A   1      36.513  33.153  30.818  1.00  0.00     0.058 A 
ATOM     74  C   UNL A   1      35.190  33.096  31.280  1.00  0.00     0.135 A 
ATOM     75  C   UNL A   1      36.790  33.958  29.705  1.00  0.00     0.135 A 
ATOM     76  F   UNL A   1      34.882  32.336  32.341  1.00  0.00    -0.206 F 
ATOM     77  C   UNL A   1      34.177  33.823  30.668  1.00  0.00     0.059 A 
ATOM     78  C   UNL A   1      35.796  34.711  29.088  1.00  0.00     0.059 A 
ATOM     79  F   UNL A   1      38.044  34.053  29.238  1.00  0.00    -0.206 F 
ATOM     80  C   UNL A   1      34.492  34.636  29.577  1.00  0.00     0.060 A 
BRANCH  80  81
ATOM     81  S   UNL A   1      33.204  35.679  28.861  1.00  0.00     0.124 S 
ATOM     82  O   UNL A   1      33.996  36.695  28.179  1.00  0.00    -0.237 OA
ATOM     83  O   UNL A   1      32.487  34.743  28.000  1.00  0.00    -0.237 OA
ATOM     84  O   UNL A   1      32.461  36.129  30.035  1.00  0.00    -0.744 OA
ENDBRANCH  80  81
ENDBRANCH  48  73
BRANCH  60  85
ATOM     85  C   UNL A   1      39.948  34.290  36.760  1.00  0.00     0.058 A 
ATOM     86  C   UNL A   1      39.021  34.182  37.809  1.00  0.00     0.135 A 
ATOM     87  C   UNL A   1      40.779  35.419  36.725  1.00  0.00     0.135 A 
ATOM     88  F   UNL A   1      38.202  33.120  37.879  1.00  0.00    -0.206 F 
ATOM     89  C   UNL A   1      38.906  35.171  38.779  1.00  0.00     0.059 A 
ATOM     90  C   UNL A   1      40.689  36.416  37.692  1.00  0.00     0.059 A 
ATOM     91  F   UNL A   1      41.682  35.562  35.742  1.00  0.00    -0.206 F 
ATOM     92  C   UNL A   1      39.740  36.288  38.707  1.00  0.00     0.060 A 
BRANCH  92  93
ATOM     93  S   UNL A   1      39.600  37.569  39.973  1.00  0.00     0.124 S 
ATOM     94  O   UNL A   1      39.714  36.781  41.197  1.00  0.00    -0.237 OA
ATOM     95  O   UNL A   1      40.731  38.442  39.674  1.00  0.00    -0.237 OA
ATOM     96  O   UNL A   1      38.286  38.148  39.716  1.00  0.00    -0.744 OA
ENDBRANCH  92  93
ENDBRANCH  60  85
ENDBRANCH  34  35
ENDBRANCH  27  29
ENDBRANCH  26  27
ENDBRANCH  25  26
ENDBRANCH   1  25
TORSDOF 18
ENDMDL
MODEL 2
REMARK VINA RESULT:     -11.1      5.197     14.401
REMARK SMILES CCNC(=O)c1ccc(N[C@@H]2COC[C@@]2(C)C(=O)OCCOC(=O)c2ccc(-c3c4nc(c(-c5c(F)cc(S(=O)(=O)[O-])cc5F)c5ccc([nH]5)c(-c5c(F)cc(S(=O)(=O)[O-])cc5F)c5nc(c(-c6c(F)cc(S(=O)(=O)[O-])cc6F)c6ccc3[nH]6)C=C5)C=C4)cc2)nn1
REMARK SMILES IDX 20 1 19 2 17 3 18 4 15 5 11 6 12 7 13 8 14 9 16 10 10 11
REMARK SMILES IDX 9 13 6 14 7 15 92 16 8 17 91 18 4 19 3 20 5 22 2 23 1 24
REMARK SMILES IDX 21 25 22 26 23 27 24 28 25 29 26 30 90 31 27 32 89 33 28 34
REMARK SMILES IDX 29 35 30 36 83 37 31 38 88 39 82 40 84 41 32 42 87 43 81 44
REMARK SMILES IDX 80 45 33 47 67 48 46 49 66 50 47 51 50 52 65 53 85 54 48 55
REMARK SMILES IDX 49 56 64 58 86 59 51 60 34 61 35 62 44 63 36 64 37 65 43 66
REMARK SMILES IDX 45 67 38 68 39 69 40 70 41 71 42 72 68 73 69 74 78 75 70 76
REMARK SMILES IDX 71 77 77 78 79 79 72 80 73 81 74 82 75 83 76 84 52 85 53 86
REMARK SMILES IDX 62 87 54 88 55 89 61 90 63 91 56 92 57 93 58 94 59 95 60 96
REMARK H PARENT 10 12 3 21 84 46 50 57
REMARK Flexibility Score: inf
ROOT
ATOM      1  C   UNL A   1      34.509  33.730  29.424  1.00  0.00     0.274 C 
ENDROOT
BRANCH   1   2
ATOM      2  O   UNL A   1      33.795  34.171  30.598  1.00  0.00    -0.462 OA
BRANCH   2   3
ATOM      3  C   UNL A   1      33.040  35.296  30.454  1.00  0.00     0.316 C 
ATOM      4  O   UNL A   1      32.550  35.649  29.388  1.00  0.00    -0.251 OA
BRANCH   3   5
ATOM      5  C   UNL A   1      32.952  36.119  31.728  1.00  0.00     0.111 C 
ATOM      6  C   UNL A   1      34.154  35.884  32.643  1.00  0.00     0.126 C 
ATOM      7  C   UNL A   1      34.157  37.105  33.547  1.00  0.00     0.186 C 
ATOM      8  O   UNL A   1      33.624  38.183  32.750  1.00  0.00    -0.378 OA
ATOM      9  C   UNL A   1      33.140  37.625  31.511  1.00  0.00     0.181 C 
ATOM     10  C   UNL A   1      31.568  35.869  32.337  1.00  0.00     0.028 C 
BRANCH   6  11
ATOM     11  N   UNL A   1      34.324  34.589  33.283  1.00  0.00    -0.362 N 
ATOM     12  H   UNL A   1      33.495  34.090  33.465  1.00  0.00     0.162 HD
BRANCH  11  13
ATOM     13  C   UNL A   1      35.494  33.970  33.664  1.00  0.00     0.149 A 
ATOM     14  C   UNL A   1      37.855  32.752  34.337  1.00  0.00     0.150 A 
ATOM     15  C   UNL A   1      37.750  33.331  33.088  1.00  0.00     0.040 A 
ATOM     16  N   UNL A   1      36.820  32.738  35.203  1.00  0.00    -0.143 NA
ATOM     17  C   UNL A   1      36.552  33.959  32.760  1.00  0.00     0.051 A 
ATOM     18  N   UNL A   1      35.632  33.354  34.853  1.00  0.00    -0.132 NA
BRANCH  14  19
ATOM     19  C   UNL A   1      39.089  32.046  34.754  1.00  0.00     0.271 C 
ATOM     20  N   UNL A   1      40.320  32.468  34.299  1.00  0.00    -0.351 N 
ATOM     21  H   UNL A   1      41.063  31.842  34.458  1.00  0.00     0.163 HD
ATOM     22  O   UNL A   1      39.020  31.062  35.489  1.00  0.00    -0.267 OA
BRANCH  20  23
ATOM     23  C   UNL A   1      40.682  33.701  33.616  1.00  0.00     0.113 C 
ATOM     24  C   UNL A   1      42.019  33.553  32.912  1.00  0.00     0.027 C 
ENDBRANCH  20  23
ENDBRANCH  14  19
ENDBRANCH  11  13
ENDBRANCH   6  11
ENDBRANCH   3   5
ENDBRANCH   2   3
ENDBRANCH   1   2
BRANCH   1  25
ATOM     25  C   UNL A   1      34.828  32.239  29.484  1.00  0.00     0.275 C 
BRANCH  25  26
ATOM     26  O   UNL A   1      36.211  32.042  29.823  1.00  0.00    -0.458 OA
BRANCH  26  27
ATOM     27  C   UNL A   1      36.473  30.981  30.617  1.00  0.00     0.338 C 
ATOM     28  O   UNL A   1      35.899  30.663  31.644  1.00  0.00    -0.246 OA
BRANCH  27  29
ATOM     29  C   UNL A   1      37.565  30.182  30.041  1.00  0.00     0.060 A 
ATOM     30  C   UNL A   1      38.389  29.455  30.896  1.00  0.00     0.016 A 
ATOM     31  C   UNL A   1      37.884  30.299  28.688  1.00  0.00     0.016 A 
ATOM     32  C   UNL A   1      39.596  28.944  30.429  1.00  0.00     0.010 A 
ATOM     33  C   UNL A   1      39.059  29.713  28.202  1.00  0.00     0.010 A 
ATOM     34  C   UNL A   1      39.959  29.087  29.081  1.00  0.00    -0.014 A 
BRANCH  34  35
ATOM     35  C   UNL A   1      41.331  28.697  28.648  1.00  0.00     0.031 A 
ATOM     36  C   UNL A   1      42.472  29.673  28.797  1.00  0.00     0.074 A 
ATOM     37  C   UNL A   1      41.591  27.447  28.213  1.00  0.00     0.049 A 
ATOM     38  N   UNL A   1      43.715  29.558  28.404  1.00  0.00    -0.248 NA
ATOM     39  C   UNL A   1      42.173  30.951  29.463  1.00  0.00     0.031 C 
ATOM     40  C   UNL A   1      40.602  26.378  28.061  1.00  0.00     0.029 A 
ATOM     41  N   UNL A   1      42.776  26.857  27.855  1.00  0.00    -0.354 N 
ATOM     42  C   UNL A   1      44.321  30.775  28.696  1.00  0.00     0.074 A 
ATOM     43  C   UNL A   1      43.317  31.605  29.326  1.00  0.00     0.031 C 
ATOM     44  C   UNL A   1      41.232  25.246  27.711  1.00  0.00     0.029 A 
ATOM     45  C   UNL A   1      42.657  25.521  27.550  1.00  0.00     0.049 A 
ATOM     46  H   UNL A   1      43.632  27.342  27.819  1.00  0.00     0.167 HD
ATOM     47  C   UNL A   1      45.593  31.172  28.452  1.00  0.00     0.037 A 
ATOM     48  C   UNL A   1      43.587  24.621  27.178  1.00  0.00     0.037 A 
ATOM     49  C   UNL A   1      46.619  30.329  27.902  1.00  0.00     0.049 A 
ATOM     50  C   UNL A   1      45.015  25.052  27.007  1.00  0.00     0.074 A 
ATOM     51  C   UNL A   1      47.927  30.650  27.581  1.00  0.00     0.029 A 
ATOM     52  N   UNL A   1      46.461  28.979  27.630  1.00  0.00    -0.354 N 
ATOM     53  N   UNL A   1      45.541  26.239  27.183  1.00  0.00    -0.248 NA
ATOM     54  C   UNL A   1      45.970  24.025  26.568  1.00  0.00     0.031 C 
ATOM     55  C   UNL A   1      48.562  29.489  27.119  1.00  0.00     0.029 A 
ATOM     56  C   UNL A   1      47.652  28.446  27.166  1.00  0.00     0.049 A 
ATOM     57  H   UNL A   1      45.626  28.473  27.750  1.00  0.00     0.167 HD
ATOM     58  C   UNL A   1      46.885  26.109  26.857  1.00  0.00     0.074 A 
ATOM     59  C   UNL A   1      47.100  24.718  26.510  1.00  0.00     0.031 C 
ATOM     60  C   UNL A   1      47.850  27.061  26.827  1.00  0.00     0.037 A 
BRANCH  47  61
ATOM     61  C   UNL A   1      45.914  32.611  28.733  1.00  0.00     0.058 A 
ATOM     62  C   UNL A   1      46.585  33.010  29.898  1.00  0.00     0.135 A 
ATOM     63  C   UNL A   1      45.499  33.608  27.835  1.00  0.00     0.135 A 
ATOM     64  F   UNL A   1      46.977  32.095  30.798  1.00  0.00    -0.206 F 
ATOM     65  C   UNL A   1      46.800  34.355  30.183  1.00  0.00     0.059 A 
ATOM     66  C   UNL A   1      45.718  34.956  28.092  1.00  0.00     0.059 A 
ATOM     67  F   UNL A   1      44.849  33.274  26.709  1.00  0.00    -0.206 F 
ATOM     68  C   UNL A   1      46.349  35.322  29.282  1.00  0.00     0.060 A 
BRANCH  68  69
ATOM     69  S   UNL A   1      46.578  37.069  29.671  1.00  0.00     0.124 S 
ATOM     70  O   UNL A   1      45.324  37.379  30.351  1.00  0.00    -0.237 OA
ATOM     71  O   UNL A   1      47.769  37.059  30.514  1.00  0.00    -0.237 OA
ATOM     72  O   UNL A   1      46.751  37.682  28.358  1.00  0.00    -0.744 OA
ENDBRANCH  68  69
ENDBRANCH  47  61
BRANCH  48  73
ATOM     73  C   UNL A   1      43.184  23.212  26.950  1.00  0.00     0.058 A 
ATOM     74  C   UNL A   1      43.079  22.703  25.648  1.00  0.00     0.135 A 
ATOM     75  C   UNL A   1      42.955  22.337  28.021  1.00  0.00     0.135 A 
ATOM     76  F   UNL A   1      43.288  23.507  24.593  1.00  0.00    -0.206 F 
ATOM     77  C   UNL A   1      42.771  21.369  25.413  1.00  0.00     0.059 A 
ATOM     78  C   UNL A   1      42.665  20.993  27.812  1.00  0.00     0.059 A 
ATOM     79  F   UNL A   1      43.059  22.779  29.284  1.00  0.00    -0.206 F 
ATOM     80  C   UNL A   1      42.575  20.519  26.503  1.00  0.00     0.060 A 
BRANCH  80  81
ATOM     81  S   UNL A   1      42.300  18.759  26.204  1.00  0.00     0.124 S 
ATOM     82  O   UNL A   1      42.567  18.194  27.521  1.00  0.00    -0.237 OA
ATOM     83  O   UNL A   1      40.908  18.730  25.765  1.00  0.00    -0.237 OA
ATOM     84  O   UNL A   1      43.280  18.450  25.166  1.00  0.00    -0.744 OA
ENDBRANCH  80  81
ENDBRANCH  48  73
BRANCH  60  85
ATOM     85  C   UNL A   1      49.220  26.628  26.400  1.00  0.00     0.058 A 
ATOM     86  C   UNL A   1      50.127  26.084  27.323  1.00  0.00     0.135 A 
ATOM     87  C   UNL A   1      49.623  26.737  25.061  1.00  0.00     0.135 A 
ATOM     88  F   UNL A   1      49.784  25.965  28.616  1.00  0.00    -0.206 F 
ATOM     89  C   UNL A   1      51.400  25.682  26.937  1.00  0.00     0.059 A 
ATOM     90  C   UNL A   1      50.889  26.331  24.650  1.00  0.00     0.059 A 
ATOM     91  F   UNL A   1      48.788  27.248  24.143  1.00  0.00    -0.206 F 
ATOM     92  C   UNL A   1      51.775  25.817  25.598  1.00  0.00     0.060 A 
BRANCH  92  93
ATOM     93  S   UNL A   1      53.425  25.285  25.092  1.00  0.00     0.124 S 
ATOM     94  O   UNL A   1      53.337  23.841  25.284  1.00  0.00    -0.237 OA
ATOM     95  O   UNL A   1      53.498  25.737  23.706  1.00  0.00    -0.237 OA
ATOM     96  O   UNL A   1      54.301  25.992  26.021  1.00  0.00    -0.744 OA
ENDBRANCH  92  93
ENDBRANCH  60  85
ENDBRANCH  34  35
ENDBRANCH  27  29
ENDBRANCH  26  27
ENDBRANCH  25  26
ENDBRANCH   1  25
TORSDOF 18
ENDMDL
MODEL 3
REMARK VINA RESULT:     -11.0      6.692     13.446
REMARK SMILES CCNC(=O)c1ccc(N[C@@H]2COC[C@@]2(C)C(=O)OCCOC(=O)c2ccc(-c3c4nc(c(-c5c(F)cc(S(=O)(=O)[O-])cc5F)c5ccc([nH]5)c(-c5c(F)cc(S(=O)(=O)[O-])cc5F)c5nc(c(-c6c(F)cc(S(=O)(=O)[O-])cc6F)c6ccc3[nH]6)C=C5)C=C4)cc2)nn1
REMARK SMILES IDX 20 1 19 2 17 3 18 4 15 5 11 6 12 7 13 8 14 9 16 10 10 11
REMARK SMILES IDX 9 13 6 14 7 15 92 16 8 17 91 18 4 19 3 20 5 22 2 23 1 24
REMARK SMILES IDX 21 25 22 26 23 27 24 28 25 29 26 30 90 31 27 32 89 33 28 34
REMARK SMILES IDX 29 35 30 36 83 37 31 38 88 39 82 40 84 41 32 42 87 43 81 44
REMARK SMILES IDX 80 45 33 47 67 48 46 49 66 50 47 51 50 52 65 53 85 54 48 55
REMARK SMILES IDX 49 56 64 58 86 59 51 60 34 61 35 62 44 63 36 64 37 65 43 66
REMARK SMILES IDX 45 67 38 68 39 69 40 70 41 71 42 72 68 73 69 74 78 75 70 76
REMARK SMILES IDX 71 77 77 78 79 79 72 80 73 81 74 82 75 83 76 84 52 85 53 86
REMARK SMILES IDX 62 87 54 88 55 89 61 90 63 91 56 92 57 93 58 94 59 95 60 96
REMARK H PARENT 10 12 3 21 84 46 50 57
REMARK Flexibility Score: inf
ROOT
ATOM      1  C   UNL A   1      34.325  29.772  27.431  1.00  0.00     0.274 C 
ENDROOT
BRANCH   1   2
ATOM      2  O   UNL A   1      33.770  29.572  26.114  1.00  0.00    -0.462 OA
BRANCH   2   3
ATOM      3  C   UNL A   1      33.504  28.283  25.765  1.00  0.00     0.316 C 
ATOM      4  O   UNL A   1      33.930  27.314  26.382  1.00  0.00    -0.251 OA
BRANCH   3   5
ATOM      5  C   UNL A   1      32.709  28.169  24.475  1.00  0.00     0.111 C 
ATOM      6  C   UNL A   1      32.568  26.717  24.019  1.00  0.00     0.126 C 
ATOM      7  C   UNL A   1      31.375  26.753  23.078  1.00  0.00     0.186 C 
ATOM      8  O   UNL A   1      30.515  27.797  23.579  1.00  0.00    -0.378 OA
ATOM      9  C   UNL A   1      31.218  28.489  24.631  1.00  0.00     0.181 C 
ATOM     10  C   UNL A   1      33.329  29.146  23.470  1.00  0.00     0.028 C 
BRANCH   6  11
ATOM     11  N   UNL A   1      33.745  25.992  23.565  1.00  0.00    -0.362 N 
ATOM     12  H   UNL A   1      34.324  26.472  22.930  1.00  0.00     0.162 HD
BRANCH  11  13
ATOM     13  C   UNL A   1      34.154  24.723  23.910  1.00  0.00     0.149 A 
ATOM     14  C   UNL A   1      34.945  22.216  24.686  1.00  0.00     0.150 A 
ATOM     15  C   UNL A   1      34.345  23.033  25.624  1.00  0.00     0.040 A 
ATOM     16  N   UNL A   1      35.184  22.637  23.425  1.00  0.00    -0.143 NA
ATOM     17  C   UNL A   1      33.935  24.299  25.218  1.00  0.00     0.051 A 
ATOM     18  N   UNL A   1      34.782  23.905  23.044  1.00  0.00    -0.132 NA
BRANCH  14  19
ATOM     19  C   UNL A   1      35.430  20.863  25.044  1.00  0.00     0.271 C 
ATOM     20  N   UNL A   1      34.568  19.788  25.026  1.00  0.00    -0.351 N 
ATOM     21  H   UNL A   1      34.907  18.970  25.457  1.00  0.00     0.163 HD
ATOM     22  O   UNL A   1      36.600  20.695  25.385  1.00  0.00    -0.267 OA
BRANCH  20  23
ATOM     23  C   UNL A   1      33.229  19.683  24.466  1.00  0.00     0.113 C 
ATOM     24  C   UNL A   1      32.682  18.277  24.636  1.00  0.00     0.027 C 
ENDBRANCH  20  23
ENDBRANCH  14  19
ENDBRANCH  11  13
ENDBRANCH   6  11
ENDBRANCH   3   5
ENDBRANCH   2   3
ENDBRANCH   1   2
BRANCH   1  25
ATOM     25  C   UNL A   1      34.473  31.255  27.762  1.00  0.00     0.275 C 
BRANCH  25  26
ATOM     26  O   UNL A   1      35.865  31.606  27.848  1.00  0.00    -0.458 OA
BRANCH  26  27
ATOM     27  C   UNL A   1      36.465  31.330  29.026  1.00  0.00     0.338 C 
ATOM     28  O   UNL A   1      36.124  31.699  30.137  1.00  0.00    -0.246 OA
BRANCH  27  29
ATOM     29  C   UNL A   1      37.618  30.444  28.806  1.00  0.00     0.060 A 
ATOM     30  C   UNL A   1      38.536  30.267  29.838  1.00  0.00     0.016 A 
ATOM     31  C   UNL A   1      37.886  29.943  27.533  1.00  0.00     0.016 A 
ATOM     32  C   UNL A   1      39.777  29.696  29.573  1.00  0.00     0.010 A 
ATOM     33  C   UNL A   1      39.103  29.293  27.289  1.00  0.00     0.010 A 
ATOM     34  C   UNL A   1      40.086  29.222  28.290  1.00  0.00    -0.014 A 
BRANCH  34  35
ATOM     35  C   UNL A   1      41.479  28.786  27.987  1.00  0.00     0.031 A 
ATOM     36  C   UNL A   1      42.626  29.749  28.175  1.00  0.00     0.074 A 
ATOM     37  C   UNL A   1      41.745  27.511  27.639  1.00  0.00     0.049 A 
ATOM     38  N   UNL A   1      43.893  29.591  27.888  1.00  0.00    -0.248 NA
ATOM     39  C   UNL A   1      42.303  31.065  28.749  1.00  0.00     0.031 C 
ATOM     40  C   UNL A   1      40.748  26.453  27.463  1.00  0.00     0.029 A 
ATOM     41  N   UNL A   1      42.942  26.882  27.406  1.00  0.00    -0.354 N 
ATOM     42  C   UNL A   1      44.500  30.811  28.164  1.00  0.00     0.074 A 
ATOM     43  C   UNL A   1      43.468  31.691  28.669  1.00  0.00     0.031 C 
ATOM     44  C   UNL A   1      41.379  25.293  27.223  1.00  0.00     0.029 A 
ATOM     45  C   UNL A   1      42.818  25.535  27.162  1.00  0.00     0.049 A 
ATOM     46  H   UNL A   1      43.808  27.350  27.413  1.00  0.00     0.167 HD
ATOM     47  C   UNL A   1      45.796  31.173  28.002  1.00  0.00     0.037 A 
ATOM     48  C   UNL A   1      43.755  24.600  26.912  1.00  0.00     0.037 A 
ATOM     49  C   UNL A   1      46.843  30.284  27.579  1.00  0.00     0.049 A 
ATOM     50  C   UNL A   1      45.200  24.996  26.833  1.00  0.00     0.074 A 
ATOM     51  C   UNL A   1      48.179  30.565  27.347  1.00  0.00     0.029 A 
ATOM     52  N   UNL A   1      46.678  28.925  27.365  1.00  0.00    -0.354 N 
ATOM     53  N   UNL A   1      45.736  26.182  26.988  1.00  0.00    -0.248 NA
ATOM     54  C   UNL A   1      46.165  23.931  26.524  1.00  0.00     0.031 C 
ATOM     55  C   UNL A   1      48.823  29.370  26.996  1.00  0.00     0.029 A 
ATOM     56  C   UNL A   1      47.890  28.348  27.025  1.00  0.00     0.049 A 
ATOM     57  H   UNL A   1      45.825  28.441  27.444  1.00  0.00     0.167 HD
ATOM     58  C   UNL A   1      47.099  26.011  26.777  1.00  0.00     0.074 A 
ATOM     59  C   UNL A   1      47.310  24.600  26.520  1.00  0.00     0.031 C 
ATOM     60  C   UNL A   1      48.083  26.943  26.774  1.00  0.00     0.037 A 
BRANCH  47  61
ATOM     61  C   UNL A   1      46.124  32.619  28.233  1.00  0.00     0.058 A 
ATOM     62  C   UNL A   1      46.033  33.575  27.212  1.00  0.00     0.135 A 
ATOM     63  C   UNL A   1      46.580  33.040  29.493  1.00  0.00     0.135 A 
ATOM     64  F   UNL A   1      45.627  33.216  25.985  1.00  0.00    -0.206 F 
ATOM     65  C   UNL A   1      46.421  34.896  27.421  1.00  0.00     0.059 A 
ATOM     66  C   UNL A   1      46.958  34.357  29.728  1.00  0.00     0.059 A 
ATOM     67  F   UNL A   1      46.688  32.159  30.501  1.00  0.00    -0.206 F 
ATOM     68  C   UNL A   1      46.897  35.273  28.678  1.00  0.00     0.060 A 
BRANCH  68  69
ATOM     69  S   UNL A   1      47.452  36.970  28.941  1.00  0.00     0.124 S 
ATOM     70  O   UNL A   1      48.125  36.856  30.231  1.00  0.00    -0.237 OA
ATOM     71  O   UNL A   1      48.321  37.207  27.792  1.00  0.00    -0.237 OA
ATOM     72  O   UNL A   1      46.206  37.730  28.945  1.00  0.00    -0.744 OA
ENDBRANCH  68  69
ENDBRANCH  47  61
BRANCH  48  73
ATOM     73  C   UNL A   1      43.341  23.188  26.725  1.00  0.00     0.058 A 
ATOM     74  C   UNL A   1      43.350  22.606  25.449  1.00  0.00     0.135 A 
ATOM     75  C   UNL A   1      42.987  22.382  27.816  1.00  0.00     0.135 A 
ATOM     76  F   UNL A   1      43.680  23.342  24.377  1.00  0.00    -0.206 F 
ATOM     77  C   UNL A   1      43.032  21.266  25.261  1.00  0.00     0.059 A 
ATOM     78  C   UNL A   1      42.684  21.034  27.656  1.00  0.00     0.059 A 
ATOM     79  F   UNL A   1      42.978  22.895  29.056  1.00  0.00    -0.206 F 
ATOM     80  C   UNL A   1      42.710  20.485  26.374  1.00  0.00     0.060 A 
BRANCH  80  81
ATOM     81  S   UNL A   1      42.422  18.717  26.149  1.00  0.00     0.124 S 
ATOM     82  O   UNL A   1      41.024  18.699  25.737  1.00  0.00    -0.237 OA
ATOM     83  O   UNL A   1      43.397  18.370  25.119  1.00  0.00    -0.237 OA
ATOM     84  O   UNL A   1      42.704  18.171  27.474  1.00  0.00    -0.744 OA
ENDBRANCH  80  81
ENDBRANCH  48  73
BRANCH  60  85
ATOM     85  C   UNL A   1      49.473  26.464  26.480  1.00  0.00     0.058 A 
ATOM     86  C   UNL A   1      50.310  26.000  27.506  1.00  0.00     0.135 A 
ATOM     87  C   UNL A   1      49.965  26.449  25.167  1.00  0.00     0.135 A 
ATOM     88  F   UNL A   1      49.882  26.001  28.779  1.00  0.00    -0.206 F 
ATOM     89  C   UNL A   1      51.601  25.556  27.243  1.00  0.00     0.059 A 
ATOM     90  C   UNL A   1      51.250  25.999  24.879  1.00  0.00     0.059 A 
ATOM     91  F   UNL A   1      49.197  26.880  24.153  1.00  0.00    -0.206 F 
ATOM     92  C   UNL A   1      52.065  25.567  25.926  1.00  0.00     0.060 A 
BRANCH  92  93
ATOM     93  S   UNL A   1      53.738  24.981  25.581  1.00  0.00     0.124 S 
ATOM     94  O   UNL A   1      53.502  23.564  25.323  1.00  0.00    -0.237 OA
ATOM     95  O   UNL A   1      54.126  25.780  24.422  1.00  0.00    -0.237 OA
ATOM     96  O   UNL A   1      54.458  25.286  26.813  1.00  0.00    -0.744 OA
ENDBRANCH  92  93
ENDBRANCH  60  85
ENDBRANCH  34  35
ENDBRANCH  27  29
ENDBRANCH  26  27
ENDBRANCH  25  26
ENDBRANCH   1  25
TORSDOF 18
ENDMDL
