MODEL 1
REMARK VINA RESULT:     -12.1      0.000      0.000
REMARK SMILES O=C(OCCOC(=O)c1ccc2c(c1)[C@@H](C1CCOCC1)C(=O)N2)c1ccc(-c2c3nc(c(-c4c(F)cc(S(=O)(=O)[O-])cc4F)c4ccc([nH]4)c(-c4c(F)cc(S(=O)(=O)[O-])cc4F)c4nc(c(-c5c(F)cc(S(=O)(=O)[O-])cc5F)c5ccc2[nH]5)C=C4)C=C3)cc1
REMARK SMILES IDX 4 1 3 2 2 3 1 4 25 5 26 6 90 7 27 8 89 9 28 10 29 11 30 12
REMARK SMILES IDX 83 13 31 14 88 15 82 16 84 17 32 18 87 19 81 20 80 21 33 23
REMARK SMILES IDX 67 24 46 25 66 26 47 27 50 28 65 29 85 30 48 31 49 32 64 34
REMARK SMILES IDX 86 35 51 36 34 37 35 38 44 39 36 40 37 41 43 42 45 43 38 44
REMARK SMILES IDX 39 45 40 46 41 47 42 48 68 49 69 50 78 51 70 52 71 53 77 54
REMARK SMILES IDX 79 55 72 56 73 57 74 58 75 59 76 60 52 61 53 62 62 63 54 64
REMARK SMILES IDX 55 65 61 66 63 67 56 68 57 69 58 70 59 71 60 72 5 73 6 74
REMARK SMILES IDX 7 75 8 76 9 77 10 78 14 79 11 80 13 81 12 82 15 83 24 84
REMARK SMILES IDX 22 85 23 87 16 88 17 89 21 90 18 91 20 92 19 93
REMARK H PARENT 84 22 50 33 24 86
REMARK Flexibility Score: inf
ROOT
ATOM      1  C   UNL A   1      39.877  22.962  27.001  1.00  0.00     0.275 C 
ENDROOT
BRANCH   1   2
ATOM      2  O   UNL A   1      40.976  23.669  26.407  1.00  0.00    -0.458 OA
BRANCH   2   3
ATOM      3  C   UNL A   1      41.258  24.992  26.398  1.00  0.00     0.338 C 
ATOM      4  O   UNL A   1      41.929  25.432  25.464  1.00  0.00    -0.246 OA
BRANCH   3   5
ATOM      5  C   UNL A   1      40.884  25.949  27.494  1.00  0.00     0.060 A 
ATOM      6  C   UNL A   1      39.769  25.871  28.337  1.00  0.00     0.016 A 
ATOM      7  C   UNL A   1      41.777  27.010  27.711  1.00  0.00     0.016 A 
ATOM      8  C   UNL A   1      39.600  26.742  29.414  1.00  0.00     0.010 A 
ATOM      9  C   UNL A   1      41.602  27.888  28.782  1.00  0.00     0.010 A 
ATOM     10  C   UNL A   1      40.532  27.740  29.666  1.00  0.00    -0.014 A 
BRANCH  10  11
ATOM     11  C   UNL A   1      40.317  28.687  30.783  1.00  0.00     0.031 A 
ATOM     12  C   UNL A   1      41.135  28.517  32.027  1.00  0.00     0.074 A 
ATOM     13  C   UNL A   1      39.445  29.709  30.655  1.00  0.00     0.049 A 
ATOM     14  N   UNL A   1      41.149  29.251  33.105  1.00  0.00    -0.248 NA
ATOM     15  C   UNL A   1      42.075  27.383  32.056  1.00  0.00     0.031 C 
ATOM     16  C   UNL A   1      38.649  29.989  29.461  1.00  0.00     0.029 A 
ATOM     17  N   UNL A   1      39.081  30.706  31.524  1.00  0.00    -0.354 N 
ATOM     18  C   UNL A   1      42.125  28.693  33.917  1.00  0.00     0.074 A 
ATOM     19  C   UNL A   1      42.610  27.503  33.259  1.00  0.00     0.031 C 
ATOM     20  C   UNL A   1      37.861  31.055  29.681  1.00  0.00     0.029 A 
ATOM     21  C   UNL A   1      38.105  31.545  31.031  1.00  0.00     0.049 A 
ATOM     22  H   UNL A   1      39.481  30.813  32.417  1.00  0.00     0.167 HD
ATOM     23  C   UNL A   1      42.617  29.170  35.081  1.00  0.00     0.037 A 
ATOM     24  C   UNL A   1      37.486  32.596  31.604  1.00  0.00     0.037 A 
ATOM     25  C   UNL A   1      42.124  30.358  35.719  1.00  0.00     0.049 A 
ATOM     26  C   UNL A   1      37.972  33.037  32.959  1.00  0.00     0.074 A 
ATOM     27  C   UNL A   1      42.532  30.930  36.908  1.00  0.00     0.029 A 
ATOM     28  N   UNL A   1      41.105  31.155  35.215  1.00  0.00    -0.354 N 
ATOM     29  N   UNL A   1      38.932  32.521  33.693  1.00  0.00    -0.248 NA
ATOM     30  C   UNL A   1      37.332  34.219  33.547  1.00  0.00     0.031 C 
ATOM     31  C   UNL A   1      41.727  32.048  37.147  1.00  0.00     0.029 A 
ATOM     32  C   UNL A   1      40.855  32.205  36.080  1.00  0.00     0.049 A 
ATOM     33  H   UNL A   1      40.630  30.998  34.367  1.00  0.00     0.167 HD
ATOM     34  C   UNL A   1      39.038  33.340  34.809  1.00  0.00     0.074 A 
ATOM     35  C   UNL A   1      38.057  34.395  34.642  1.00  0.00     0.031 C 
ATOM     36  C   UNL A   1      39.871  33.239  35.875  1.00  0.00     0.037 A 
BRANCH  23  37
ATOM     37  C   UNL A   1      43.746  28.408  35.708  1.00  0.00     0.058 A 
ATOM     38  C   UNL A   1      45.085  28.680  35.377  1.00  0.00     0.135 A 
ATOM     39  C   UNL A   1      43.495  27.396  36.646  1.00  0.00     0.135 A 
ATOM     40  F   UNL A   1      45.378  29.612  34.456  1.00  0.00    -0.206 F 
ATOM     41  C   UNL A   1      46.133  27.963  35.942  1.00  0.00     0.059 A 
ATOM     42  C   UNL A   1      44.529  26.685  37.244  1.00  0.00     0.059 A 
ATOM     43  F   UNL A   1      42.233  27.085  36.982  1.00  0.00    -0.206 F 
ATOM     44  C   UNL A   1      45.845  26.971  36.880  1.00  0.00     0.060 A 
BRANCH  44  45
ATOM     45  S   UNL A   1      47.222  26.074  37.626  1.00  0.00     0.124 S 
ATOM     46  O   UNL A   1      47.172  26.556  39.003  1.00  0.00    -0.237 OA
ATOM     47  O   UNL A   1      46.828  24.683  37.428  1.00  0.00    -0.237 OA
ATOM     48  O   UNL A   1      48.375  26.514  36.848  1.00  0.00    -0.744 OA
ENDBRANCH  44  45
ENDBRANCH  23  37
BRANCH  24  49
ATOM     49  C   UNL A   1      36.371  33.306  30.914  1.00  0.00     0.058 A 
ATOM     50  C   UNL A   1      36.599  34.156  29.820  1.00  0.00     0.135 A 
ATOM     51  C   UNL A   1      35.047  33.183  31.369  1.00  0.00     0.135 A 
ATOM     52  F   UNL A   1      37.842  34.305  29.336  1.00  0.00    -0.206 F 
ATOM     53  C   UNL A   1      35.572  34.895  29.237  1.00  0.00     0.059 A 
ATOM     54  C   UNL A   1      33.998  33.892  30.788  1.00  0.00     0.059 A 
ATOM     55  F   UNL A   1      34.760  32.361  32.391  1.00  0.00    -0.206 F 
ATOM     56  C   UNL A   1      34.275  34.762  29.735  1.00  0.00     0.060 A 
BRANCH  56  57
ATOM     57  S   UNL A   1      32.951  35.734  28.979  1.00  0.00     0.124 S 
ATOM     58  O   UNL A   1      32.142  36.081  30.141  1.00  0.00    -0.237 OA
ATOM     59  O   UNL A   1      33.694  36.829  28.364  1.00  0.00    -0.237 OA
ATOM     60  O   UNL A   1      32.341  34.795  28.041  1.00  0.00    -0.744 OA
ENDBRANCH  56  57
ENDBRANCH  24  49
BRANCH  36  61
ATOM     61  C   UNL A   1      39.771  34.314  36.918  1.00  0.00     0.058 A 
ATOM     62  C   UNL A   1      40.441  35.538  36.780  1.00  0.00     0.135 A 
ATOM     63  C   UNL A   1      38.964  34.125  38.052  1.00  0.00     0.135 A 
ATOM     64  F   UNL A   1      41.228  35.763  35.716  1.00  0.00    -0.206 F 
ATOM     65  C   UNL A   1      40.346  36.527  37.750  1.00  0.00     0.059 A 
ATOM     66  C   UNL A   1      38.825  35.115  39.017  1.00  0.00     0.059 A 
ATOM     67  F   UNL A   1      38.292  32.976  38.223  1.00  0.00    -0.206 F 
ATOM     68  C   UNL A   1      39.535  36.306  38.865  1.00  0.00     0.060 A 
BRANCH  68  69
ATOM     69  S   UNL A   1      39.408  37.605  40.109  1.00  0.00     0.124 S 
ATOM     70  O   UNL A   1      39.089  36.832  41.306  1.00  0.00    -0.237 OA
ATOM     71  O   UNL A   1      40.739  38.202  40.074  1.00  0.00    -0.237 OA
ATOM     72  O   UNL A   1      38.332  38.454  39.605  1.00  0.00    -0.744 OA
ENDBRANCH  68  69
ENDBRANCH  36  61
ENDBRANCH  10  11
ENDBRANCH   3   5
ENDBRANCH   2   3
ENDBRANCH   1   2
BRANCH   1  73
ATOM     73  C   UNL A   1      39.265  21.863  26.122  1.00  0.00     0.275 C 
BRANCH  73  74
ATOM     74  O   UNL A   1      37.929  22.135  25.660  1.00  0.00    -0.458 OA
BRANCH  74  75
ATOM     75  C   UNL A   1      37.252  21.085  25.122  1.00  0.00     0.338 C 
ATOM     76  O   UNL A   1      37.747  20.093  24.608  1.00  0.00    -0.246 OA
BRANCH  75  77
ATOM     77  C   UNL A   1      35.790  21.271  25.311  1.00  0.00     0.060 A 
ATOM     78  C   UNL A   1      34.927  20.172  25.131  1.00  0.00     0.018 A 
ATOM     79  C   UNL A   1      35.285  22.525  25.727  1.00  0.00     0.022 A 
ATOM     80  C   UNL A   1      33.558  20.301  25.377  1.00  0.00     0.027 A 
ATOM     81  C   UNL A   1      33.915  22.651  25.942  1.00  0.00    -0.011 A 
ATOM     82  C   UNL A   1      33.094  21.532  25.788  1.00  0.00     0.045 A 
ATOM     83  C   UNL A   1      33.078  23.801  26.483  1.00  0.00     0.114 C 
ATOM     84  N   UNL A   1      31.807  21.822  26.202  1.00  0.00    -0.325 N 
ATOM     85  C   UNL A   1      31.715  23.104  26.716  1.00  0.00     0.232 C 
ATOM     86  H   UNL A   1      31.050  21.195  26.137  1.00  0.00     0.169 HD
ATOM     87  O   UNL A   1      30.729  23.583  27.253  1.00  0.00    -0.274 OA
BRANCH  83  88
ATOM     88  C   UNL A   1      32.919  25.049  25.575  1.00  0.00     0.010 C 
ATOM     89  C   UNL A   1      32.899  24.673  24.077  1.00  0.00     0.033 C 
ATOM     90  C   UNL A   1      34.023  26.104  25.755  1.00  0.00     0.033 C 
ATOM     91  C   UNL A   1      32.794  25.907  23.181  1.00  0.00     0.160 C 
ATOM     92  C   UNL A   1      33.760  27.299  24.844  1.00  0.00     0.160 C 
ATOM     93  O   UNL A   1      33.793  26.877  23.482  1.00  0.00    -0.381 OA
ENDBRANCH  83  88
ENDBRANCH  75  77
ENDBRANCH  74  75
ENDBRANCH  73  74
ENDBRANCH   1  73
TORSDOF 15
ENDMDL
MODEL 2
REMARK VINA RESULT:     -12.1      1.433      2.498
REMARK SMILES O=C(OCCOC(=O)c1ccc2c(c1)[C@@H](C1CCOCC1)C(=O)N2)c1ccc(-c2c3nc(c(-c4c(F)cc(S(=O)(=O)[O-])cc4F)c4ccc([nH]4)c(-c4c(F)cc(S(=O)(=O)[O-])cc4F)c4nc(c(-c5c(F)cc(S(=O)(=O)[O-])cc5F)c5ccc2[nH]5)C=C4)C=C3)cc1
REMARK SMILES IDX 4 1 3 2 2 3 1 4 25 5 26 6 90 7 27 8 89 9 28 10 29 11 30 12
REMARK SMILES IDX 83 13 31 14 88 15 82 16 84 17 32 18 87 19 81 20 80 21 33 23
REMARK SMILES IDX 67 24 46 25 66 26 47 27 50 28 65 29 85 30 48 31 49 32 64 34
REMARK SMILES IDX 86 35 51 36 34 37 35 38 44 39 36 40 37 41 43 42 45 43 38 44
REMARK SMILES IDX 39 45 40 46 41 47 42 48 68 49 69 50 78 51 70 52 71 53 77 54
REMARK SMILES IDX 79 55 72 56 73 57 74 58 75 59 76 60 52 61 53 62 62 63 54 64
REMARK SMILES IDX 55 65 61 66 63 67 56 68 57 69 58 70 59 71 60 72 5 73 6 74
REMARK SMILES IDX 7 75 8 76 9 77 10 78 14 79 11 80 13 81 12 82 15 83 24 84
REMARK SMILES IDX 22 85 23 87 16 88 17 89 21 90 18 91 20 92 19 93
REMARK H PARENT 84 22 50 33 24 86
REMARK Flexibility Score: inf
ROOT
ATOM      1  C   UNL A   1      42.897  22.682  25.424  1.00  0.00     0.275 C 
ENDROOT
BRANCH   1   2
ATOM      2  O   UNL A   1      42.782  23.752  26.373  1.00  0.00    -0.458 OA
BRANCH   2   3
ATOM      3  C   UNL A   1      42.371  25.029  26.200  1.00  0.00     0.338 C 
ATOM      4  O   UNL A   1      42.454  25.513  25.071  1.00  0.00    -0.246 OA
BRANCH   3   5
ATOM      5  C   UNL A   1      41.900  25.928  27.307  1.00  0.00     0.060 A 
ATOM      6  C   UNL A   1      40.773  25.749  28.118  1.00  0.00     0.016 A 
ATOM      7  C   UNL A   1      42.708  27.046  27.573  1.00  0.00     0.016 A 
ATOM      8  C   UNL A   1      40.514  26.579  29.210  1.00  0.00     0.010 A 
ATOM      9  C   UNL A   1      42.441  27.882  28.658  1.00  0.00     0.010 A 
ATOM     10  C   UNL A   1      41.364  27.635  29.510  1.00  0.00    -0.014 A 
BRANCH  10  11
ATOM     11  C   UNL A   1      41.052  28.535  30.642  1.00  0.00     0.031 A 
ATOM     12  C   UNL A   1      41.839  28.385  31.908  1.00  0.00     0.074 A 
ATOM     13  C   UNL A   1      40.120  29.503  30.511  1.00  0.00     0.049 A 
ATOM     14  N   UNL A   1      41.771  29.089  33.004  1.00  0.00    -0.248 NA
ATOM     15  C   UNL A   1      42.850  27.313  31.940  1.00  0.00     0.031 C 
ATOM     16  C   UNL A   1      39.345  29.763  29.298  1.00  0.00     0.029 A 
ATOM     17  N   UNL A   1      39.664  30.451  31.391  1.00  0.00    -0.354 N 
ATOM     18  C   UNL A   1      42.755  28.574  33.834  1.00  0.00     0.074 A 
ATOM     19  C   UNL A   1      43.337  27.436  33.163  1.00  0.00     0.031 C 
ATOM     20  C   UNL A   1      38.482  30.770  29.518  1.00  0.00     0.029 A 
ATOM     21  C   UNL A   1      38.651  31.237  30.887  1.00  0.00     0.049 A 
ATOM     22  H   UNL A   1      40.028  30.559  32.299  1.00  0.00     0.167 HD
ATOM     23  C   UNL A   1      43.178  29.050  35.025  1.00  0.00     0.037 A 
ATOM     24  C   UNL A   1      37.947  32.231  31.464  1.00  0.00     0.037 A 
ATOM     25  C   UNL A   1      42.588  30.186  35.675  1.00  0.00     0.049 A 
ATOM     26  C   UNL A   1      38.361  32.665  32.846  1.00  0.00     0.074 A 
ATOM     27  C   UNL A   1      42.920  30.751  36.891  1.00  0.00     0.029 A 
ATOM     28  N   UNL A   1      41.536  30.929  35.158  1.00  0.00    -0.354 N 
ATOM     29  N   UNL A   1      39.328  32.193  33.598  1.00  0.00    -0.248 NA
ATOM     30  C   UNL A   1      37.626  33.788  33.441  1.00  0.00     0.031 C 
ATOM     31  C   UNL A   1      42.037  31.808  37.131  1.00  0.00     0.029 A 
ATOM     32  C   UNL A   1      41.191  31.937  36.039  1.00  0.00     0.049 A 
ATOM     33  H   UNL A   1      41.099  30.765  34.290  1.00  0.00     0.167 HD
ATOM     34  C   UNL A   1      39.345  32.987  34.737  1.00  0.00     0.074 A 
ATOM     35  C   UNL A   1      38.303  33.980  34.564  1.00  0.00     0.031 C 
ATOM     36  C   UNL A   1      40.148  32.911  35.828  1.00  0.00     0.037 A 
BRANCH  23  37
ATOM     37  C   UNL A   1      44.334  28.346  35.671  1.00  0.00     0.058 A 
ATOM     38  C   UNL A   1      44.132  27.297  36.585  1.00  0.00     0.135 A 
ATOM     39  C   UNL A   1      45.654  28.718  35.380  1.00  0.00     0.135 A 
ATOM     40  F   UNL A   1      42.887  26.928  36.928  1.00  0.00    -0.206 F 
ATOM     41  C   UNL A   1      45.199  26.654  37.201  1.00  0.00     0.059 A 
ATOM     42  C   UNL A   1      46.738  28.070  35.963  1.00  0.00     0.059 A 
ATOM     43  F   UNL A   1      45.900  29.725  34.528  1.00  0.00    -0.206 F 
ATOM     44  C   UNL A   1      46.500  27.044  36.878  1.00  0.00     0.060 A 
BRANCH  44  45
ATOM     45  S   UNL A   1      47.873  26.175  37.662  1.00  0.00     0.124 S 
ATOM     46  O   UNL A   1      47.428  26.120  39.052  1.00  0.00    -0.237 OA
ATOM     47  O   UNL A   1      47.879  24.901  36.949  1.00  0.00    -0.237 OA
ATOM     48  O   UNL A   1      49.017  27.041  37.402  1.00  0.00    -0.744 OA
ENDBRANCH  44  45
ENDBRANCH  23  37
BRANCH  24  49
ATOM     49  C   UNL A   1      36.811  32.885  30.755  1.00  0.00     0.058 A 
ATOM     50  C   UNL A   1      37.015  33.913  29.821  1.00  0.00     0.135 A 
ATOM     51  C   UNL A   1      35.482  32.525  31.036  1.00  0.00     0.135 A 
ATOM     52  F   UNL A   1      38.262  34.294  29.507  1.00  0.00    -0.206 F 
ATOM     53  C   UNL A   1      35.951  34.592  29.231  1.00  0.00     0.059 A 
ATOM     54  C   UNL A   1      34.400  33.170  30.441  1.00  0.00     0.059 A 
ATOM     55  F   UNL A   1      35.222  31.527  31.897  1.00  0.00    -0.206 F 
ATOM     56  C   UNL A   1      34.646  34.218  29.555  1.00  0.00     0.060 A 
BRANCH  56  57
ATOM     57  S   UNL A   1      33.272  35.113  28.793  1.00  0.00     0.124 S 
ATOM     58  O   UNL A   1      32.664  34.073  27.972  1.00  0.00    -0.237 OA
ATOM     59  O   UNL A   1      32.505  35.539  29.959  1.00  0.00    -0.237 OA
ATOM     60  O   UNL A   1      33.938  36.187  28.062  1.00  0.00    -0.744 OA
ENDBRANCH  56  57
ENDBRANCH  24  49
BRANCH  36  61
ATOM     61  C   UNL A   1      39.945  33.948  36.893  1.00  0.00     0.058 A 
ATOM     62  C   UNL A   1      40.545  35.214  36.812  1.00  0.00     0.135 A 
ATOM     63  C   UNL A   1      39.110  33.681  37.990  1.00  0.00     0.135 A 
ATOM     64  F   UNL A   1      41.356  35.514  35.785  1.00  0.00    -0.206 F 
ATOM     65  C   UNL A   1      40.355  36.168  37.803  1.00  0.00     0.059 A 
ATOM     66  C   UNL A   1      38.876  34.634  38.973  1.00  0.00     0.059 A 
ATOM     67  F   UNL A   1      38.502  32.490  38.105  1.00  0.00    -0.206 F 
ATOM     68  C   UNL A   1      39.518  35.868  38.880  1.00  0.00     0.060 A 
BRANCH  68  69
ATOM     69  S   UNL A   1      39.267  37.123  40.150  1.00  0.00     0.124 S 
ATOM     70  O   UNL A   1      38.503  36.379  41.148  1.00  0.00    -0.237 OA
ATOM     71  O   UNL A   1      40.635  37.466  40.525  1.00  0.00    -0.237 OA
ATOM     72  O   UNL A   1      38.532  38.173  39.451  1.00  0.00    -0.744 OA
ENDBRANCH  68  69
ENDBRANCH  36  61
ENDBRANCH  10  11
ENDBRANCH   3   5
ENDBRANCH   2   3
ENDBRANCH   1   2
BRANCH   1  73
ATOM     73  C   UNL A   1      42.597  21.285  25.985  1.00  0.00     0.275 C 
BRANCH  73  74
ATOM     74  O   UNL A   1      41.386  21.194  26.760  1.00  0.00    -0.458 OA
BRANCH  74  75
ATOM     75  C   UNL A   1      40.325  20.599  26.152  1.00  0.00     0.338 C 
ATOM     76  O   UNL A   1      40.247  19.425  25.822  1.00  0.00    -0.246 OA
BRANCH  75  77
ATOM     77  C   UNL A   1      39.211  21.571  26.003  1.00  0.00     0.060 A 
ATOM     78  C   UNL A   1      39.311  22.832  26.624  1.00  0.00     0.018 A 
ATOM     79  C   UNL A   1      38.095  21.249  25.196  1.00  0.00     0.022 A 
ATOM     80  C   UNL A   1      38.313  23.791  26.437  1.00  0.00     0.027 A 
ATOM     81  C   UNL A   1      37.092  22.203  25.039  1.00  0.00    -0.011 A 
ATOM     82  C   UNL A   1      37.240  23.455  25.640  1.00  0.00     0.045 A 
ATOM     83  C   UNL A   1      35.840  22.220  24.175  1.00  0.00     0.114 C 
ATOM     84  N   UNL A   1      36.228  24.304  25.234  1.00  0.00    -0.325 N 
ATOM     85  C   UNL A   1      35.404  23.701  24.298  1.00  0.00     0.232 C 
ATOM     86  H   UNL A   1      36.106  25.221  25.570  1.00  0.00     0.169 HD
ATOM     87  O   UNL A   1      34.501  24.252  23.690  1.00  0.00    -0.274 OA
BRANCH  83  88
ATOM     88  C   UNL A   1      34.688  21.263  24.579  1.00  0.00     0.010 C 
ATOM     89  C   UNL A   1      33.464  21.409  23.649  1.00  0.00     0.033 C 
ATOM     90  C   UNL A   1      34.180  21.460  26.017  1.00  0.00     0.033 C 
ATOM     91  C   UNL A   1      32.310  20.502  24.077  1.00  0.00     0.160 C 
ATOM     92  C   UNL A   1      33.074  20.456  26.325  1.00  0.00     0.160 C 
ATOM     93  O   UNL A   1      31.970  20.678  25.450  1.00  0.00    -0.381 OA
ENDBRANCH  83  88
ENDBRANCH  75  77
ENDBRANCH  74  75
ENDBRANCH  73  74
ENDBRANCH   1  73
TORSDOF 15
ENDMDL
MODEL 3
REMARK VINA RESULT:     -11.9      6.647     12.369
REMARK SMILES O=C(OCCOC(=O)c1ccc2c(c1)[C@@H](C1CCOCC1)C(=O)N2)c1ccc(-c2c3nc(c(-c4c(F)cc(S(=O)(=O)[O-])cc4F)c4ccc([nH]4)c(-c4c(F)cc(S(=O)(=O)[O-])cc4F)c4nc(c(-c5c(F)cc(S(=O)(=O)[O-])cc5F)c5ccc2[nH]5)C=C4)C=C3)cc1
REMARK SMILES IDX 4 1 3 2 2 3 1 4 25 5 26 6 90 7 27 8 89 9 28 10 29 11 30 12
REMARK SMILES IDX 83 13 31 14 88 15 82 16 84 17 32 18 87 19 81 20 80 21 33 23
REMARK SMILES IDX 67 24 46 25 66 26 47 27 50 28 65 29 85 30 48 31 49 32 64 34
REMARK SMILES IDX 86 35 51 36 34 37 35 38 44 39 36 40 37 41 43 42 45 43 38 44
REMARK SMILES IDX 39 45 40 46 41 47 42 48 68 49 69 50 78 51 70 52 71 53 77 54
REMARK SMILES IDX 79 55 72 56 73 57 74 58 75 59 76 60 52 61 53 62 62 63 54 64
REMARK SMILES IDX 55 65 61 66 63 67 56 68 57 69 58 70 59 71 60 72 5 73 6 74
REMARK SMILES IDX 7 75 8 76 9 77 10 78 14 79 11 80 13 81 12 82 15 83 24 84
REMARK SMILES IDX 22 85 23 87 16 88 17 89 21 90 18 91 20 92 19 93
REMARK H PARENT 84 22 50 33 24 86
REMARK Flexibility Score: inf
ROOT
ATOM      1  C   UNL A   1      34.962  32.341  29.529  1.00  0.00     0.275 C 
ENDROOT
BRANCH   1   2
ATOM      2  O   UNL A   1      36.124  32.003  30.301  1.00  0.00    -0.458 OA
BRANCH   2   3
ATOM      3  C   UNL A   1      36.661  30.794  30.582  1.00  0.00     0.338 C 
ATOM      4  O   UNL A   1      36.119  30.110  31.450  1.00  0.00    -0.246 OA
BRANCH   3   5
ATOM      5  C   UNL A   1      37.926  30.262  29.970  1.00  0.00     0.060 A 
ATOM      6  C   UNL A   1      38.204  30.110  28.607  1.00  0.00     0.016 A 
ATOM      7  C   UNL A   1      38.946  29.921  30.873  1.00  0.00     0.016 A 
ATOM      8  C   UNL A   1      39.469  29.736  28.151  1.00  0.00     0.010 A 
ATOM      9  C   UNL A   1      40.208  29.536  30.417  1.00  0.00     0.010 A 
ATOM     10  C   UNL A   1      40.494  29.476  29.053  1.00  0.00    -0.014 A 
BRANCH  10  11
ATOM     11  C   UNL A   1      41.817  29.036  28.559  1.00  0.00     0.031 A 
ATOM     12  C   UNL A   1      42.910  30.055  28.448  1.00  0.00     0.074 A 
ATOM     13  C   UNL A   1      42.043  27.737  28.272  1.00  0.00     0.049 A 
ATOM     14  N   UNL A   1      44.152  29.889  28.087  1.00  0.00    -0.248 NA
ATOM     15  C   UNL A   1      42.566  31.442  28.808  1.00  0.00     0.031 C 
ATOM     16  C   UNL A   1      41.058  26.664  28.406  1.00  0.00     0.029 A 
ATOM     17  N   UNL A   1      43.163  27.089  27.817  1.00  0.00    -0.354 N 
ATOM     18  C   UNL A   1      44.744  31.136  28.218  1.00  0.00     0.074 A 
ATOM     19  C   UNL A   1      43.709  32.071  28.591  1.00  0.00     0.031 C 
ATOM     20  C   UNL A   1      41.598  25.500  28.004  1.00  0.00     0.029 A 
ATOM     21  C   UNL A   1      42.974  25.741  27.595  1.00  0.00     0.049 A 
ATOM     22  H   UNL A   1      44.022  27.544  27.663  1.00  0.00     0.167 HD
ATOM     23  C   UNL A   1      46.050  31.459  28.101  1.00  0.00     0.037 A 
ATOM     24  C   UNL A   1      43.823  24.807  27.124  1.00  0.00     0.037 A 
ATOM     25  C   UNL A   1      47.067  30.513  27.732  1.00  0.00     0.049 A 
ATOM     26  C   UNL A   1      45.251  25.221  26.884  1.00  0.00     0.074 A 
ATOM     27  C   UNL A   1      48.421  30.727  27.564  1.00  0.00     0.029 A 
ATOM     28  N   UNL A   1      46.833  29.170  27.471  1.00  0.00    -0.354 N 
ATOM     29  N   UNL A   1      45.803  26.400  27.059  1.00  0.00    -0.248 NA
ATOM     30  C   UNL A   1      46.181  24.181  26.428  1.00  0.00     0.031 C 
ATOM     31  C   UNL A   1      49.000  29.521  27.156  1.00  0.00     0.029 A 
ATOM     32  C   UNL A   1      48.015  28.544  27.122  1.00  0.00     0.049 A 
ATOM     33  H   UNL A   1      45.955  28.727  27.526  1.00  0.00     0.167 HD
ATOM     34  C   UNL A   1      47.152  26.234  26.775  1.00  0.00     0.074 A 
ATOM     35  C   UNL A   1      47.333  24.836  26.435  1.00  0.00     0.031 C 
ATOM     36  C   UNL A   1      48.155  27.147  26.795  1.00  0.00     0.037 A 
BRANCH  23  37
ATOM     37  C   UNL A   1      46.432  32.880  28.389  1.00  0.00     0.058 A 
ATOM     38  C   UNL A   1      46.800  33.290  29.683  1.00  0.00     0.135 A 
ATOM     39  C   UNL A   1      46.428  33.845  27.371  1.00  0.00     0.135 A 
ATOM     40  F   UNL A   1      46.782  32.415  30.701  1.00  0.00    -0.206 F 
ATOM     41  C   UNL A   1      47.136  34.610  29.958  1.00  0.00     0.059 A 
ATOM     42  C   UNL A   1      46.787  35.165  27.619  1.00  0.00     0.059 A 
ATOM     43  F   UNL A   1      46.066  33.508  26.123  1.00  0.00    -0.206 F 
ATOM     44  C   UNL A   1      47.132  35.539  28.917  1.00  0.00     0.060 A 
BRANCH  44  45
ATOM     45  S   UNL A   1      47.604  37.241  29.289  1.00  0.00     0.124 S 
ATOM     46  O   UNL A   1      47.137  37.379  30.666  1.00  0.00    -0.237 OA
ATOM     47  O   UNL A   1      49.052  37.206  29.113  1.00  0.00    -0.237 OA
ATOM     48  O   UNL A   1      46.872  38.021  28.296  1.00  0.00    -0.744 OA
ENDBRANCH  44  45
ENDBRANCH  23  37
BRANCH  24  49
ATOM     49  C   UNL A   1      43.369  23.411  26.864  1.00  0.00     0.058 A 
ATOM     50  C   UNL A   1      43.059  22.527  27.910  1.00  0.00     0.135 A 
ATOM     51  C   UNL A   1      43.279  22.914  25.553  1.00  0.00     0.135 A 
ATOM     52  F   UNL A   1      43.119  22.949  29.182  1.00  0.00    -0.206 F 
ATOM     53  C   UNL A   1      42.730  21.194  27.673  1.00  0.00     0.059 A 
ATOM     54  C   UNL A   1      42.927  21.593  25.287  1.00  0.00     0.059 A 
ATOM     55  F   UNL A   1      43.531  23.719  24.509  1.00  0.00    -0.206 F 
ATOM     56  C   UNL A   1      42.674  20.735  26.356  1.00  0.00     0.060 A 
BRANCH  56  57
ATOM     57  S   UNL A   1      42.256  19.001  26.059  1.00  0.00     0.124 S 
ATOM     58  O   UNL A   1      42.618  18.390  27.332  1.00  0.00    -0.237 OA
ATOM     59  O   UNL A   1      40.828  19.080  25.768  1.00  0.00    -0.237 OA
ATOM     60  O   UNL A   1      43.101  18.644  24.923  1.00  0.00    -0.744 OA
ENDBRANCH  56  57
ENDBRANCH  24  49
BRANCH  36  61
ATOM     61  C   UNL A   1      49.533  26.647  26.471  1.00  0.00     0.058 A 
ATOM     62  C   UNL A   1      50.333  26.017  27.435  1.00  0.00     0.135 A 
ATOM     63  C   UNL A   1      50.042  26.771  25.168  1.00  0.00     0.135 A 
ATOM     64  F   UNL A   1      49.893  25.880  28.696  1.00  0.00    -0.206 F 
ATOM     65  C   UNL A   1      51.608  25.560  27.129  1.00  0.00     0.059 A 
ATOM     66  C   UNL A   1      51.300  26.288  24.831  1.00  0.00     0.059 A 
ATOM     67  F   UNL A   1      49.309  27.355  24.207  1.00  0.00    -0.206 F 
ATOM     68  C   UNL A   1      52.082  25.700  25.823  1.00  0.00     0.060 A 
BRANCH  68  69
ATOM     69  S   UNL A   1      53.733  25.087  25.436  1.00  0.00     0.124 S 
ATOM     70  O   UNL A   1      53.499  23.648  25.358  1.00  0.00    -0.237 OA
ATOM     71  O   UNL A   1      54.024  25.752  24.170  1.00  0.00    -0.237 OA
ATOM     72  O   UNL A   1      54.536  25.532  26.571  1.00  0.00    -0.744 OA
ENDBRANCH  68  69
ENDBRANCH  36  61
ENDBRANCH  10  11
ENDBRANCH   3   5
ENDBRANCH   2   3
ENDBRANCH   1   2
BRANCH   1  73
ATOM     73  C   UNL A   1      34.976  31.828  28.083  1.00  0.00     0.275 C 
BRANCH  73  74
ATOM     74  O   UNL A   1      33.949  30.867  27.774  1.00  0.00    -0.458 OA
BRANCH  74  75
ATOM     75  C   UNL A   1      34.374  29.634  27.388  1.00  0.00     0.338 C 
ATOM     76  O   UNL A   1      35.343  29.034  27.827  1.00  0.00    -0.246 OA
BRANCH  75  77
ATOM     77  C   UNL A   1      33.437  29.062  26.387  1.00  0.00     0.060 A 
ATOM     78  C   UNL A   1      32.468  29.896  25.796  1.00  0.00     0.018 A 
ATOM     79  C   UNL A   1      33.562  27.709  25.993  1.00  0.00     0.022 A 
ATOM     80  C   UNL A   1      31.625  29.403  24.797  1.00  0.00     0.027 A 
ATOM     81  C   UNL A   1      32.699  27.219  25.016  1.00  0.00    -0.011 A 
ATOM     82  C   UNL A   1      31.774  28.083  24.426  1.00  0.00     0.045 A 
ATOM     83  C   UNL A   1      32.636  25.876  24.304  1.00  0.00     0.114 C 
ATOM     84  N   UNL A   1      31.130  27.453  23.378  1.00  0.00    -0.325 N 
ATOM     85  C   UNL A   1      31.632  26.180  23.165  1.00  0.00     0.232 C 
ATOM     86  H   UNL A   1      30.404  27.858  22.851  1.00  0.00     0.169 HD
ATOM     87  O   UNL A   1      31.329  25.445  22.240  1.00  0.00    -0.274 OA
BRANCH  83  88
ATOM     88  C   UNL A   1      32.177  24.652  25.140  1.00  0.00     0.010 C 
ATOM     89  C   UNL A   1      30.827  24.910  25.844  1.00  0.00     0.033 C 
ATOM     90  C   UNL A   1      33.174  24.224  26.230  1.00  0.00     0.033 C 
ATOM     91  C   UNL A   1      30.400  23.723  26.709  1.00  0.00     0.160 C 
ATOM     92  C   UNL A   1      32.646  23.000  26.972  1.00  0.00     0.160 C 
ATOM     93  O   UNL A   1      31.420  23.328  27.622  1.00  0.00    -0.381 OA
ENDBRANCH  83  88
ENDBRANCH  75  77
ENDBRANCH  74  75
ENDBRANCH  73  74
ENDBRANCH   1  73
TORSDOF 15
ENDMDL
