MODEL 1
REMARK VINA RESULT:     -11.5      0.000      0.000
REMARK SMILES C[C@H]1CC[C@@]1(C(=O)OCCOC(=O)c1ccc(-c2c3nc(c(-c4c(F)cc(S(=O)(=O)[O-])cc4F)c4ccc([nH]4)c(-c4c(F)cc(S(=O)(=O)[O-])cc4F)c4nc(c(-c5c(F)cc(S(=O)(=O)[O-])cc5F)c5ccc2[nH]5)C=C4)C=C3)cc1)c1ccc(Cl)cc1Cl
REMARK SMILES IDX 10 1 9 2 8 3 6 4 7 5 5 6 1 7 2 8 3 9 4 10 80 11 81 12 86 13
REMARK SMILES IDX 82 14 85 15 87 16 83 17 84 18 11 19 12 20 13 21 14 22 15 23
REMARK SMILES IDX 79 24 16 25 78 26 17 27 18 28 19 29 72 30 20 31 77 32 71 33
REMARK SMILES IDX 73 34 21 35 76 36 70 37 69 38 22 40 56 41 35 42 55 43 36 44
REMARK SMILES IDX 39 45 54 46 74 47 37 48 38 49 53 51 75 52 40 53 23 54 24 55
REMARK SMILES IDX 33 56 25 57 26 58 32 59 34 60 27 61 28 62 29 63 30 64 31 65
REMARK SMILES IDX 57 66 58 67 67 68 59 69 60 70 66 71 68 72 61 73 62 74 63 75
REMARK SMILES IDX 64 76 65 77 41 78 42 79 51 80 43 81 44 82 50 83 52 84 45 85
REMARK SMILES IDX 46 86 47 87 48 88 49 89
REMARK H PARENT 73 39 39 50
REMARK Flexibility Score: inf
ROOT
ATOM      1  C   UNL A   1      39.278  22.371  26.345  1.00  0.00     0.275 C 
ENDROOT
BRANCH   1   2
ATOM      2  C   UNL A   1      38.171  22.018  25.362  1.00  0.00     0.274 C 
BRANCH   2   3
ATOM      3  O   UNL A   1      37.428  23.215  25.052  1.00  0.00    -0.461 OA
BRANCH   3   4
ATOM      4  C   UNL A   1      36.450  23.130  24.109  1.00  0.00     0.317 C 
ATOM      5  O   UNL A   1      36.732  22.976  22.919  1.00  0.00    -0.251 OA
BRANCH   4   6
ATOM      6  C   UNL A   1      34.918  23.259  24.685  1.00  0.00     0.097 C 
ATOM      7  C   UNL A   1      34.053  22.705  27.357  1.00  0.00     0.009 C 
ATOM      8  C   UNL A   1      34.865  22.445  26.100  1.00  0.00     0.008 C 
ATOM      9  C   UNL A   1      34.362  21.224  25.297  1.00  0.00     0.006 C 
ATOM     10  C   UNL A   1      33.940  22.155  24.152  1.00  0.00     0.024 C 
BRANCH   6  11
ATOM     11  C   UNL A   1      34.305  24.809  24.572  1.00  0.00    -0.012 A 
ATOM     12  C   UNL A   1      34.208  25.652  25.705  1.00  0.00     0.008 A 
ATOM     13  C   UNL A   1      33.759  25.398  23.398  1.00  0.00     0.046 A 
ATOM     14  C   UNL A   1      33.746  26.975  25.670  1.00  0.00     0.021 A 
ATOM     15  C   UNL A   1      33.380  26.753  23.324  1.00  0.00     0.041 A 
ATOM     16  Cl  UNL A   1      33.333  24.449  22.007  1.00  0.00    -0.084 Cl
ATOM     17  C   UNL A   1      33.383  27.539  24.464  1.00  0.00     0.042 A 
ATOM     18  Cl  UNL A   1      32.860  29.174  24.400  1.00  0.00    -0.084 Cl
ENDBRANCH   6  11
ENDBRANCH   4   6
ENDBRANCH   3   4
ENDBRANCH   2   3
ENDBRANCH   1   2
BRANCH   1  19
ATOM     19  O   UNL A   1      39.319  23.799  26.516  1.00  0.00    -0.458 OA
BRANCH  19  20
ATOM     20  C   UNL A   1      40.543  24.331  26.716  1.00  0.00     0.338 C 
ATOM     21  O   UNL A   1      41.598  24.011  26.190  1.00  0.00    -0.246 OA
BRANCH  20  22
ATOM     22  C   UNL A   1      40.409  25.456  27.647  1.00  0.00     0.060 A 
ATOM     23  C   UNL A   1      41.348  26.487  27.594  1.00  0.00     0.016 A 
ATOM     24  C   UNL A   1      39.402  25.458  28.611  1.00  0.00     0.016 A 
ATOM     25  C   UNL A   1      41.295  27.526  28.520  1.00  0.00     0.010 A 
ATOM     26  C   UNL A   1      39.335  26.514  29.524  1.00  0.00     0.010 A 
ATOM     27  C   UNL A   1      40.291  27.547  29.497  1.00  0.00    -0.014 A 
BRANCH  27  28
ATOM     28  C   UNL A   1      40.274  28.611  30.532  1.00  0.00     0.031 A 
ATOM     29  C   UNL A   1      41.239  28.542  31.683  1.00  0.00     0.074 A 
ATOM     30  C   UNL A   1      39.408  29.637  30.440  1.00  0.00     0.049 A 
ATOM     31  N   UNL A   1      41.301  29.287  32.756  1.00  0.00    -0.248 NA
ATOM     32  C   UNL A   1      42.267  27.492  31.618  1.00  0.00     0.031 C 
ATOM     33  C   UNL A   1      38.454  29.844  29.349  1.00  0.00     0.029 A 
ATOM     34  N   UNL A   1      39.186  30.698  31.282  1.00  0.00    -0.354 N 
ATOM     35  C   UNL A   1      42.348  28.773  33.513  1.00  0.00     0.074 A 
ATOM     36  C   UNL A   1      42.892  27.652  32.776  1.00  0.00     0.031 C 
ATOM     37  C   UNL A   1      37.753  30.965  29.586  1.00  0.00     0.029 A 
ATOM     38  C   UNL A   1      38.169  31.526  30.870  1.00  0.00     0.049 A 
ATOM     39  H   UNL A   1      39.706  30.851  32.104  1.00  0.00     0.167 HD
ATOM     40  C   UNL A   1      42.811  29.197  34.714  1.00  0.00     0.037 A 
ATOM     41  C   UNL A   1      37.613  32.595  31.472  1.00  0.00     0.037 A 
ATOM     42  C   UNL A   1      42.284  30.329  35.431  1.00  0.00     0.049 A 
ATOM     43  C   UNL A   1      38.126  33.032  32.818  1.00  0.00     0.074 A 
ATOM     44  C   UNL A   1      42.683  30.836  36.655  1.00  0.00     0.029 A 
ATOM     45  N   UNL A   1      41.248  31.136  34.983  1.00  0.00    -0.354 N 
ATOM     46  N   UNL A   1      39.090  32.512  33.540  1.00  0.00    -0.248 NA
ATOM     47  C   UNL A   1      37.468  34.191  33.435  1.00  0.00     0.031 C 
ATOM     48  C   UNL A   1      41.870  31.936  36.959  1.00  0.00     0.029 A 
ATOM     49  C   UNL A   1      40.989  32.133  35.908  1.00  0.00     0.049 A 
ATOM     50  H   UNL A   1      40.767  31.016  34.132  1.00  0.00     0.167 HD
ATOM     51  C   UNL A   1      39.162  33.289  34.691  1.00  0.00     0.074 A 
ATOM     52  C   UNL A   1      38.154  34.322  34.562  1.00  0.00     0.031 C 
ATOM     53  C   UNL A   1      39.985  33.156  35.761  1.00  0.00     0.037 A 
BRANCH  40  54
ATOM     54  C   UNL A   1      43.922  28.406  35.342  1.00  0.00     0.058 A 
ATOM     55  C   UNL A   1      45.271  28.745  35.152  1.00  0.00     0.135 A 
ATOM     56  C   UNL A   1      43.631  27.302  36.159  1.00  0.00     0.135 A 
ATOM     57  F   UNL A   1      45.603  29.780  34.364  1.00  0.00    -0.206 F 
ATOM     58  C   UNL A   1      46.295  27.999  35.729  1.00  0.00     0.059 A 
ATOM     59  C   UNL A   1      44.638  26.555  36.763  1.00  0.00     0.059 A 
ATOM     60  F   UNL A   1      42.358  26.935  36.370  1.00  0.00    -0.206 F 
ATOM     61  C   UNL A   1      45.967  26.902  36.528  1.00  0.00     0.060 A 
BRANCH  61  62
ATOM     62  S   UNL A   1      47.303  25.935  37.264  1.00  0.00     0.124 S 
ATOM     63  O   UNL A   1      48.407  26.229  36.356  1.00  0.00    -0.237 OA
ATOM     64  O   UNL A   1      47.412  26.512  38.601  1.00  0.00    -0.237 OA
ATOM     65  O   UNL A   1      46.796  24.567  37.216  1.00  0.00    -0.744 OA
ENDBRANCH  61  62
ENDBRANCH  40  54
BRANCH  41  66
ATOM     66  C   UNL A   1      36.488  33.310  30.817  1.00  0.00     0.058 A 
ATOM     67  C   UNL A   1      35.177  33.188  31.297  1.00  0.00     0.135 A 
ATOM     68  C   UNL A   1      36.705  34.144  29.709  1.00  0.00     0.135 A 
ATOM     69  F   UNL A   1      34.918  32.392  32.346  1.00  0.00    -0.206 F 
ATOM     70  C   UNL A   1      34.117  33.863  30.700  1.00  0.00     0.059 A 
ATOM     71  C   UNL A   1      35.667  34.847  29.109  1.00  0.00     0.059 A 
ATOM     72  F   UNL A   1      37.945  34.301  29.218  1.00  0.00    -0.206 F 
ATOM     73  C   UNL A   1      34.373  34.694  29.606  1.00  0.00     0.060 A 
BRANCH  73  74
ATOM     74  S   UNL A   1      33.005  35.620  28.875  1.00  0.00     0.124 S 
ATOM     75  O   UNL A   1      33.716  36.652  28.130  1.00  0.00    -0.237 OA
ATOM     76  O   UNL A   1      32.334  34.601  28.073  1.00  0.00    -0.237 OA
ATOM     77  O   UNL A   1      32.255  36.080  30.040  1.00  0.00    -0.744 OA
ENDBRANCH  73  74
ENDBRANCH  41  66
BRANCH  53  78
ATOM     78  C   UNL A   1      39.848  34.167  36.862  1.00  0.00     0.058 A 
ATOM     79  C   UNL A   1      40.451  35.431  36.778  1.00  0.00     0.135 A 
ATOM     80  C   UNL A   1      39.075  33.882  37.998  1.00  0.00     0.135 A 
ATOM     81  F   UNL A   1      41.206  35.750  35.715  1.00  0.00    -0.206 F 
ATOM     82  C   UNL A   1      40.309  36.372  37.793  1.00  0.00     0.059 A 
ATOM     83  C   UNL A   1      38.903  34.813  39.016  1.00  0.00     0.059 A 
ATOM     84  F   UNL A   1      38.470  32.689  38.121  1.00  0.00    -0.206 F 
ATOM     85  C   UNL A   1      39.535  36.052  38.911  1.00  0.00     0.060 A 
BRANCH  85  86
ATOM     86  S   UNL A   1      39.336  37.286  40.213  1.00  0.00     0.124 S 
ATOM     87  O   UNL A   1      38.602  36.530  41.223  1.00  0.00    -0.237 OA
ATOM     88  O   UNL A   1      40.717  37.618  40.549  1.00  0.00    -0.237 OA
ATOM     89  O   UNL A   1      38.585  38.351  39.556  1.00  0.00    -0.744 OA
ENDBRANCH  85  86
ENDBRANCH  53  78
ENDBRANCH  27  28
ENDBRANCH  20  22
ENDBRANCH  19  20
ENDBRANCH   1  19
TORSDOF 15
ENDMDL
MODEL 2
REMARK VINA RESULT:     -11.4      6.875     12.290
REMARK SMILES C[C@H]1CC[C@@]1(C(=O)OCCOC(=O)c1ccc(-c2c3nc(c(-c4c(F)cc(S(=O)(=O)[O-])cc4F)c4ccc([nH]4)c(-c4c(F)cc(S(=O)(=O)[O-])cc4F)c4nc(c(-c5c(F)cc(S(=O)(=O)[O-])cc5F)c5ccc2[nH]5)C=C4)C=C3)cc1)c1ccc(Cl)cc1Cl
REMARK SMILES IDX 10 1 9 2 8 3 6 4 7 5 5 6 1 7 2 8 3 9 4 10 80 11 81 12 86 13
REMARK SMILES IDX 82 14 85 15 87 16 83 17 84 18 11 19 12 20 13 21 14 22 15 23
REMARK SMILES IDX 79 24 16 25 78 26 17 27 18 28 19 29 72 30 20 31 77 32 71 33
REMARK SMILES IDX 73 34 21 35 76 36 70 37 69 38 22 40 56 41 35 42 55 43 36 44
REMARK SMILES IDX 39 45 54 46 74 47 37 48 38 49 53 51 75 52 40 53 23 54 24 55
REMARK SMILES IDX 33 56 25 57 26 58 32 59 34 60 27 61 28 62 29 63 30 64 31 65
REMARK SMILES IDX 57 66 58 67 67 68 59 69 60 70 66 71 68 72 61 73 62 74 63 75
REMARK SMILES IDX 64 76 65 77 41 78 42 79 51 80 43 81 44 82 50 83 52 84 45 85
REMARK SMILES IDX 46 86 47 87 48 88 49 89
REMARK H PARENT 73 39 39 50
REMARK Flexibility Score: inf
ROOT
ATOM      1  C   UNL A   1      34.541  30.519  27.361  1.00  0.00     0.275 C 
ENDROOT
BRANCH   1   2
ATOM      2  C   UNL A   1      33.147  29.917  27.247  1.00  0.00     0.274 C 
BRANCH   2   3
ATOM      3  O   UNL A   1      33.244  28.489  27.427  1.00  0.00    -0.461 OA
BRANCH   3   4
ATOM      4  C   UNL A   1      32.133  27.741  27.183  1.00  0.00     0.317 C 
ATOM      5  O   UNL A   1      31.218  27.681  28.008  1.00  0.00    -0.251 OA
BRANCH   4   6
ATOM      6  C   UNL A   1      32.132  26.948  25.746  1.00  0.00     0.097 C 
ATOM      7  C   UNL A   1      31.281  24.252  25.293  1.00  0.00     0.009 C 
ATOM      8  C   UNL A   1      31.972  25.356  26.075  1.00  0.00     0.008 C 
ATOM      9  C   UNL A   1      33.513  25.262  26.020  1.00  0.00     0.006 C 
ATOM     10  C   UNL A   1      33.561  26.572  25.222  1.00  0.00     0.024 C 
BRANCH   6  11
ATOM     11  C   UNL A   1      31.167  27.679  24.595  1.00  0.00    -0.012 A 
ATOM     12  C   UNL A   1      29.875  27.188  24.291  1.00  0.00     0.008 A 
ATOM     13  C   UNL A   1      31.549  28.774  23.771  1.00  0.00     0.046 A 
ATOM     14  C   UNL A   1      28.999  27.781  23.370  1.00  0.00     0.021 A 
ATOM     15  C   UNL A   1      30.652  29.438  22.912  1.00  0.00     0.041 A 
ATOM     16  Cl  UNL A   1      33.207  29.266  23.609  1.00  0.00    -0.084 Cl
ATOM     17  C   UNL A   1      29.374  28.941  22.721  1.00  0.00     0.042 A 
ATOM     18  Cl  UNL A   1      28.293  29.703  21.626  1.00  0.00    -0.084 Cl
ENDBRANCH   6  11
ENDBRANCH   4   6
ENDBRANCH   3   4
ENDBRANCH   2   3
ENDBRANCH   1   2
BRANCH   1  19
ATOM     19  O   UNL A   1      35.271  29.824  28.387  1.00  0.00    -0.458 OA
BRANCH  19  20
ATOM     20  C   UNL A   1      36.167  30.566  29.074  1.00  0.00     0.338 C 
ATOM     21  O   UNL A   1      35.950  31.514  29.813  1.00  0.00    -0.246 OA
BRANCH  20  22
ATOM     22  C   UNL A   1      37.500  29.996  28.855  1.00  0.00     0.060 A 
ATOM     23  C   UNL A   1      38.309  29.735  29.962  1.00  0.00     0.016 A 
ATOM     24  C   UNL A   1      37.973  29.786  27.560  1.00  0.00     0.016 A 
ATOM     25  C   UNL A   1      39.611  29.273  29.780  1.00  0.00     0.010 A 
ATOM     26  C   UNL A   1      39.270  29.298  27.380  1.00  0.00     0.010 A 
ATOM     27  C   UNL A   1      40.105  29.055  28.488  1.00  0.00    -0.014 A 
BRANCH  27  28
ATOM     28  C   UNL A   1      41.514  28.634  28.286  1.00  0.00     0.031 A 
ATOM     29  C   UNL A   1      42.614  29.656  28.374  1.00  0.00     0.074 A 
ATOM     30  C   UNL A   1      41.811  27.346  28.033  1.00  0.00     0.049 A 
ATOM     31  N   UNL A   1      43.886  29.528  28.101  1.00  0.00    -0.248 NA
ATOM     32  C   UNL A   1      42.227  31.001  28.828  1.00  0.00     0.031 C 
ATOM     33  C   UNL A   1      40.842  26.251  27.968  1.00  0.00     0.029 A 
ATOM     34  N   UNL A   1      43.016  26.740  27.778  1.00  0.00    -0.354 N 
ATOM     35  C   UNL A   1      44.446  30.783  28.310  1.00  0.00     0.074 A 
ATOM     36  C   UNL A   1      43.374  31.659  28.733  1.00  0.00     0.031 C 
ATOM     37  C   UNL A   1      41.490  25.107  27.696  1.00  0.00     0.029 A 
ATOM     38  C   UNL A   1      42.911  25.395  27.514  1.00  0.00     0.049 A 
ATOM     39  H   UNL A   1      43.874  27.222  27.782  1.00  0.00     0.167 HD
ATOM     40  C   UNL A   1      45.736  31.169  28.161  1.00  0.00     0.037 A 
ATOM     41  C   UNL A   1      43.847  24.502  27.136  1.00  0.00     0.037 A 
ATOM     42  C   UNL A   1      46.804  30.288  27.766  1.00  0.00     0.049 A 
ATOM     43  C   UNL A   1      45.268  24.959  26.952  1.00  0.00     0.074 A 
ATOM     44  C   UNL A   1      48.144  30.584  27.584  1.00  0.00     0.029 A 
ATOM     45  N   UNL A   1      46.655  28.935  27.499  1.00  0.00    -0.354 N 
ATOM     46  N   UNL A   1      45.776  26.157  27.114  1.00  0.00    -0.248 NA
ATOM     47  C   UNL A   1      46.241  23.946  26.520  1.00  0.00     0.031 C 
ATOM     48  C   UNL A   1      48.800  29.413  27.183  1.00  0.00     0.029 A 
ATOM     49  C   UNL A   1      47.875  28.382  27.148  1.00  0.00     0.049 A 
ATOM     50  H   UNL A   1      45.805  28.439  27.551  1.00  0.00     0.167 HD
ATOM     51  C   UNL A   1      47.129  26.040  26.817  1.00  0.00     0.074 A 
ATOM     52  C   UNL A   1      47.364  24.650  26.479  1.00  0.00     0.031 C 
ATOM     53  C   UNL A   1      48.090  26.996  26.819  1.00  0.00     0.037 A 
BRANCH  40  54
ATOM     54  C   UNL A   1      46.054  32.618  28.393  1.00  0.00     0.058 A 
ATOM     55  C   UNL A   1      46.445  33.098  29.652  1.00  0.00     0.135 A 
ATOM     56  C   UNL A   1      45.978  33.538  27.334  1.00  0.00     0.135 A 
ATOM     57  F   UNL A   1      46.514  32.264  30.702  1.00  0.00    -0.206 F 
ATOM     58  C   UNL A   1      46.726  34.446  29.860  1.00  0.00     0.059 A 
ATOM     59  C   UNL A   1      46.274  34.885  27.515  1.00  0.00     0.059 A 
ATOM     60  F   UNL A   1      45.606  33.130  26.111  1.00  0.00    -0.206 F 
ATOM     61  C   UNL A   1      46.631  35.332  28.785  1.00  0.00     0.060 A 
BRANCH  61  62
ATOM     62  S   UNL A   1      46.988  37.079  29.068  1.00  0.00     0.124 S 
ATOM     63  O   UNL A   1      48.390  37.157  28.669  1.00  0.00    -0.237 OA
ATOM     64  O   UNL A   1      46.039  37.744  28.178  1.00  0.00    -0.237 OA
ATOM     65  O   UNL A   1      46.729  37.251  30.494  1.00  0.00    -0.744 OA
ENDBRANCH  61  62
ENDBRANCH  40  54
BRANCH  41  66
ATOM     66  C   UNL A   1      43.461  23.090  26.882  1.00  0.00     0.058 A 
ATOM     67  C   UNL A   1      43.412  22.577  25.579  1.00  0.00     0.135 A 
ATOM     68  C   UNL A   1      43.151  22.221  27.940  1.00  0.00     0.135 A 
ATOM     69  F   UNL A   1      43.688  23.373  24.534  1.00  0.00    -0.206 F 
ATOM     70  C   UNL A   1      43.065  21.253  25.329  1.00  0.00     0.059 A 
ATOM     71  C   UNL A   1      42.824  20.887  27.719  1.00  0.00     0.059 A 
ATOM     72  F   UNL A   1      43.193  22.662  29.207  1.00  0.00    -0.206 F 
ATOM     73  C   UNL A   1      42.775  20.414  26.407  1.00  0.00     0.060 A 
BRANCH  73  74
ATOM     74  S   UNL A   1      42.389  18.680  26.084  1.00  0.00     0.124 S 
ATOM     75  O   UNL A   1      40.989  18.760  25.688  1.00  0.00    -0.237 OA
ATOM     76  O   UNL A   1      43.335  18.344  25.023  1.00  0.00    -0.237 OA
ATOM     77  O   UNL A   1      42.651  18.036  27.368  1.00  0.00    -0.744 OA
ENDBRANCH  73  74
ENDBRANCH  41  66
BRANCH  53  78
ATOM     78  C   UNL A   1      49.487  26.567  26.471  1.00  0.00     0.058 A 
ATOM     79  C   UNL A   1      50.320  25.945  27.412  1.00  0.00     0.135 A 
ATOM     80  C   UNL A   1      49.983  26.748  25.171  1.00  0.00     0.135 A 
ATOM     81  F   UNL A   1      49.894  25.755  28.671  1.00  0.00    -0.206 F 
ATOM     82  C   UNL A   1      51.608  25.534  27.083  1.00  0.00     0.059 A 
ATOM     83  C   UNL A   1      51.259  26.328  24.813  1.00  0.00     0.059 A 
ATOM     84  F   UNL A   1      49.221  27.331  24.232  1.00  0.00    -0.206 F 
ATOM     85  C   UNL A   1      52.070  25.733  25.780  1.00  0.00     0.060 A 
BRANCH  85  86
ATOM     86  S   UNL A   1      53.733  25.177  25.352  1.00  0.00     0.124 S 
ATOM     87  O   UNL A   1      53.856  25.649  23.976  1.00  0.00    -0.237 OA
ATOM     88  O   UNL A   1      54.561  25.868  26.335  1.00  0.00    -0.237 OA
ATOM     89  O   UNL A   1      53.657  23.728  25.515  1.00  0.00    -0.744 OA
ENDBRANCH  85  86
ENDBRANCH  53  78
ENDBRANCH  27  28
ENDBRANCH  20  22
ENDBRANCH  19  20
ENDBRANCH   1  19
TORSDOF 15
ENDMDL
MODEL 3
REMARK VINA RESULT:     -11.3      6.873     12.243
REMARK SMILES C[C@H]1CC[C@@]1(C(=O)OCCOC(=O)c1ccc(-c2c3nc(c(-c4c(F)cc(S(=O)(=O)[O-])cc4F)c4ccc([nH]4)c(-c4c(F)cc(S(=O)(=O)[O-])cc4F)c4nc(c(-c5c(F)cc(S(=O)(=O)[O-])cc5F)c5ccc2[nH]5)C=C4)C=C3)cc1)c1ccc(Cl)cc1Cl
REMARK SMILES IDX 10 1 9 2 8 3 6 4 7 5 5 6 1 7 2 8 3 9 4 10 80 11 81 12 86 13
REMARK SMILES IDX 82 14 85 15 87 16 83 17 84 18 11 19 12 20 13 21 14 22 15 23
REMARK SMILES IDX 79 24 16 25 78 26 17 27 18 28 19 29 72 30 20 31 77 32 71 33
REMARK SMILES IDX 73 34 21 35 76 36 70 37 69 38 22 40 56 41 35 42 55 43 36 44
REMARK SMILES IDX 39 45 54 46 74 47 37 48 38 49 53 51 75 52 40 53 23 54 24 55
REMARK SMILES IDX 33 56 25 57 26 58 32 59 34 60 27 61 28 62 29 63 30 64 31 65
REMARK SMILES IDX 57 66 58 67 67 68 59 69 60 70 66 71 68 72 61 73 62 74 63 75
REMARK SMILES IDX 64 76 65 77 41 78 42 79 51 80 43 81 44 82 50 83 52 84 45 85
REMARK SMILES IDX 46 86 47 87 48 88 49 89
REMARK H PARENT 73 39 39 50
REMARK Flexibility Score: inf
ROOT
ATOM      1  C   UNL A   1      34.426  30.329  27.503  1.00  0.00     0.275 C 
ENDROOT
BRANCH   1   2
ATOM      2  C   UNL A   1      33.364  29.376  26.975  1.00  0.00     0.274 C 
BRANCH   2   3
ATOM      3  O   UNL A   1      33.998  28.411  26.111  1.00  0.00    -0.461 OA
BRANCH   3   4
ATOM      4  C   UNL A   1      33.276  27.924  25.064  1.00  0.00     0.317 C 
ATOM      5  O   UNL A   1      33.062  28.619  24.068  1.00  0.00    -0.251 OA
BRANCH   4   6
ATOM      6  C   UNL A   1      32.728  26.388  25.252  1.00  0.00     0.097 C 
ATOM      7  C   UNL A   1      30.511  25.195  23.887  1.00  0.00     0.009 C 
ATOM      8  C   UNL A   1      31.232  26.328  24.599  1.00  0.00     0.008 C 
ATOM      9  C   UNL A   1      30.679  26.600  26.016  1.00  0.00     0.006 C 
ATOM     10  C   UNL A   1      32.009  26.130  26.620  1.00  0.00     0.024 C 
BRANCH   6  11
ATOM     11  C   UNL A   1      33.872  25.234  24.866  1.00  0.00    -0.012 A 
ATOM     12  C   UNL A   1      34.740  24.695  25.846  1.00  0.00     0.008 A 
ATOM     13  C   UNL A   1      34.147  24.748  23.558  1.00  0.00     0.046 A 
ATOM     14  C   UNL A   1      35.689  23.693  25.596  1.00  0.00     0.021 A 
ATOM     15  C   UNL A   1      35.028  23.678  23.305  1.00  0.00     0.041 A 
ATOM     16  Cl  UNL A   1      33.565  25.559  22.136  1.00  0.00    -0.084 Cl
ATOM     17  C   UNL A   1      35.791  23.149  24.332  1.00  0.00     0.042 A 
ATOM     18  Cl  UNL A   1      36.917  21.889  24.024  1.00  0.00    -0.084 Cl
ENDBRANCH   6  11
ENDBRANCH   4   6
ENDBRANCH   3   4
ENDBRANCH   2   3
ENDBRANCH   1   2
BRANCH   1  19
ATOM     19  O   UNL A   1      35.466  29.569  28.143  1.00  0.00    -0.458 OA
BRANCH  19  20
ATOM     20  C   UNL A   1      36.160  30.216  29.103  1.00  0.00     0.338 C 
ATOM     21  O   UNL A   1      35.723  30.885  30.027  1.00  0.00    -0.246 OA
BRANCH  20  22
ATOM     22  C   UNL A   1      37.586  29.927  28.914  1.00  0.00     0.060 A 
ATOM     23  C   UNL A   1      38.065  29.730  27.618  1.00  0.00     0.016 A 
ATOM     24  C   UNL A   1      38.429  29.785  30.015  1.00  0.00     0.016 A 
ATOM     25  C   UNL A   1      39.395  29.371  27.414  1.00  0.00     0.010 A 
ATOM     26  C   UNL A   1      39.770  29.450  29.807  1.00  0.00     0.010 A 
ATOM     27  C   UNL A   1      40.259  29.223  28.507  1.00  0.00    -0.014 A 
BRANCH  27  28
ATOM     28  C   UNL A   1      41.657  28.769  28.301  1.00  0.00     0.031 A 
ATOM     29  C   UNL A   1      42.780  29.767  28.379  1.00  0.00     0.074 A 
ATOM     30  C   UNL A   1      41.923  27.473  28.053  1.00  0.00     0.049 A 
ATOM     31  N   UNL A   1      44.048  29.608  28.100  1.00  0.00    -0.248 NA
ATOM     32  C   UNL A   1      42.426  31.122  28.827  1.00  0.00     0.031 C 
ATOM     33  C   UNL A   1      40.929  26.401  27.998  1.00  0.00     0.029 A 
ATOM     34  N   UNL A   1      43.113  26.839  27.795  1.00  0.00    -0.354 N 
ATOM     35  C   UNL A   1      44.637  30.851  28.300  1.00  0.00     0.074 A 
ATOM     36  C   UNL A   1      43.588  31.753  28.724  1.00  0.00     0.031 C 
ATOM     37  C   UNL A   1      41.550  25.241  27.729  1.00  0.00     0.029 A 
ATOM     38  C   UNL A   1      42.976  25.495  27.539  1.00  0.00     0.049 A 
ATOM     39  H   UNL A   1      43.981  27.301  27.793  1.00  0.00     0.167 HD
ATOM     40  C   UNL A   1      45.935  31.206  28.143  1.00  0.00     0.037 A 
ATOM     41  C   UNL A   1      43.889  24.579  27.161  1.00  0.00     0.037 A 
ATOM     42  C   UNL A   1      46.981  30.299  27.747  1.00  0.00     0.049 A 
ATOM     43  C   UNL A   1      45.320  25.002  26.968  1.00  0.00     0.074 A 
ATOM     44  C   UNL A   1      48.326  30.564  27.558  1.00  0.00     0.029 A 
ATOM     45  N   UNL A   1      46.800  28.948  27.488  1.00  0.00    -0.354 N 
ATOM     46  N   UNL A   1      45.856  26.190  27.122  1.00  0.00    -0.248 NA
ATOM     47  C   UNL A   1      46.267  23.965  26.536  1.00  0.00     0.031 C 
ATOM     48  C   UNL A   1      48.954  29.376  27.160  1.00  0.00     0.029 A 
ATOM     49  C   UNL A   1      48.005  28.366  27.135  1.00  0.00     0.049 A 
ATOM     50  H   UNL A   1      45.939  28.473  27.547  1.00  0.00     0.167 HD
ATOM     51  C   UNL A   1      47.204  26.040  26.818  1.00  0.00     0.074 A 
ATOM     52  C   UNL A   1      47.405  24.644  26.487  1.00  0.00     0.031 C 
ATOM     53  C   UNL A   1      48.187  26.974  26.812  1.00  0.00     0.037 A 
BRANCH  40  54
ATOM     54  C   UNL A   1      46.287  32.649  28.366  1.00  0.00     0.058 A 
ATOM     55  C   UNL A   1      46.225  33.595  27.331  1.00  0.00     0.135 A 
ATOM     56  C   UNL A   1      46.677  33.094  29.640  1.00  0.00     0.135 A 
ATOM     57  F   UNL A   1      45.877  33.217  26.091  1.00  0.00    -0.206 F 
ATOM     58  C   UNL A   1      46.565  34.928  27.545  1.00  0.00     0.059 A 
ATOM     59  C   UNL A   1      47.000  34.426  29.881  1.00  0.00     0.059 A 
ATOM     60  F   UNL A   1      46.754  32.229  30.663  1.00  0.00    -0.206 F 
ATOM     61  C   UNL A   1      46.956  35.332  28.823  1.00  0.00     0.060 A 
BRANCH  61  62
ATOM     62  S   UNL A   1      47.404  37.061  29.087  1.00  0.00     0.124 S 
ATOM     63  O   UNL A   1      48.032  37.396  27.812  1.00  0.00    -0.237 OA
ATOM     64  O   UNL A   1      46.109  37.688  29.338  1.00  0.00    -0.237 OA
ATOM     65  O   UNL A   1      48.302  37.006  30.236  1.00  0.00    -0.744 OA
ENDBRANCH  61  62
ENDBRANCH  40  54
BRANCH  41  66
ATOM     66  C   UNL A   1      43.470  23.175  26.916  1.00  0.00     0.058 A 
ATOM     67  C   UNL A   1      43.387  22.662  25.614  1.00  0.00     0.135 A 
ATOM     68  C   UNL A   1      43.162  22.314  27.980  1.00  0.00     0.135 A 
ATOM     69  F   UNL A   1      43.660  23.452  24.564  1.00  0.00    -0.206 F 
ATOM     70  C   UNL A   1      43.009  21.346  25.373  1.00  0.00     0.059 A 
ATOM     71  C   UNL A   1      42.803  20.987  27.767  1.00  0.00     0.059 A 
ATOM     72  F   UNL A   1      43.235  22.755  29.246  1.00  0.00    -0.206 F 
ATOM     73  C   UNL A   1      42.721  20.514  26.457  1.00  0.00     0.060 A 
BRANCH  73  74
ATOM     74  S   UNL A   1      42.294  18.787  26.143  1.00  0.00     0.124 S 
ATOM     75  O   UNL A   1      40.888  18.896  25.772  1.00  0.00    -0.237 OA
ATOM     76  O   UNL A   1      43.214  18.431  25.067  1.00  0.00    -0.237 OA
ATOM     77  O   UNL A   1      42.564  18.140  27.424  1.00  0.00    -0.744 OA
ENDBRANCH  73  74
ENDBRANCH  41  66
BRANCH  53  78
ATOM     78  C   UNL A   1      49.571  26.512  26.459  1.00  0.00     0.058 A 
ATOM     79  C   UNL A   1      50.429  25.960  27.423  1.00  0.00     0.135 A 
ATOM     80  C   UNL A   1      50.032  26.588  25.136  1.00  0.00     0.135 A 
ATOM     81  F   UNL A   1      50.038  25.871  28.704  1.00  0.00    -0.206 F 
ATOM     82  C   UNL A   1      51.705  25.517  27.090  1.00  0.00     0.059 A 
ATOM     83  C   UNL A   1      51.296  26.135  24.776  1.00  0.00     0.059 A 
ATOM     84  F   UNL A   1      49.245  27.101  24.176  1.00  0.00    -0.206 F 
ATOM     85  C   UNL A   1      52.132  25.612  25.763  1.00  0.00     0.060 A 
BRANCH  85  86
ATOM     86  S   UNL A   1      53.780  25.015  25.334  1.00  0.00     0.124 S 
ATOM     87  O   UNL A   1      54.542  25.375  26.526  1.00  0.00    -0.237 OA
ATOM     88  O   UNL A   1      53.557  23.587  25.132  1.00  0.00    -0.237 OA
ATOM     89  O   UNL A   1      54.108  25.768  24.127  1.00  0.00    -0.744 OA
ENDBRANCH  85  86
ENDBRANCH  53  78
ENDBRANCH  27  28
ENDBRANCH  20  22
ENDBRANCH  19  20
ENDBRANCH   1  19
TORSDOF 15
ENDMDL
