MODEL 1
REMARK VINA RESULT:     -11.9      0.000      0.000
REMARK SMILES C[C@H]1Oc2ccccc2C=C1/C=C/C(=O)N[C@H](C(=O)OCCOC(=O)c1ccc(-c2c3nc(c(-c4c(F)cc(S(=O)(=O)[O-])cc4F)c4ccc([nH]4)c(-c4c(F)cc(S(=O)(=O)[O-])cc4F)c4nc(c(-c5c(F)cc(S(=O)(=O)[O-])cc5F)c5ccc2[nH]5)C=C4)C=C3)cc1)c1ccccc1
REMARK SMILES IDX 21 1 20 2 18 3 19 4 17 5 16 6 14 7 15 8 13 10 12 11 11 12
REMARK SMILES IDX 1 13 2 14 3 15 4 16 10 17 5 18 9 19 6 20 8 21 7 22 92 23
REMARK SMILES IDX 93 24 97 25 94 26 96 27 95 28 22 29 23 30 24 31 25 32 26 33
REMARK SMILES IDX 27 34 91 35 28 36 90 37 29 38 30 39 31 40 84 41 32 42 89 43
REMARK SMILES IDX 83 44 85 45 33 46 88 47 82 48 81 49 34 51 68 52 47 53 67 54
REMARK SMILES IDX 48 55 51 56 66 57 86 58 49 59 50 60 65 62 87 63 52 64 35 65
REMARK SMILES IDX 36 66 45 67 37 68 38 69 44 70 46 71 39 72 40 73 41 74 42 75
REMARK SMILES IDX 43 76 69 77 70 78 79 79 71 80 72 81 78 82 80 83 73 84 74 85
REMARK SMILES IDX 75 86 76 87 77 88 53 89 54 90 63 91 55 92 56 93 62 94 64 95
REMARK SMILES IDX 57 96 58 97 59 98 60 99 61 100
REMARK H PARENT 16 9 85 50 51 61
REMARK Flexibility Score: inf
ROOT
ATOM      1  C   UNL A   1      31.555  30.212  25.487  1.00  0.00     0.274 C 
ENDROOT
BRANCH   1   2
ATOM      2  O   UNL A   1      31.028  29.122  24.696  1.00  0.00    -0.460 OA
BRANCH   2   3
ATOM      3  C   UNL A   1      31.847  28.667  23.701  1.00  0.00     0.333 C 
ATOM      4  O   UNL A   1      32.761  29.317  23.203  1.00  0.00    -0.249 OA
BRANCH   3   5
ATOM      5  C   UNL A   1      31.459  27.249  23.229  1.00  0.00     0.223 C 
BRANCH   5   6
ATOM      6  N   UNL A   1      32.255  27.024  22.009  1.00  0.00    -0.335 N 
ATOM      7  C   UNL A   1      32.730  25.926  21.378  1.00  0.00     0.244 C 
ATOM      8  O   UNL A   1      33.203  26.039  20.249  1.00  0.00    -0.270 OA
ATOM      9  H   UNL A   1      32.496  27.862  21.551  1.00  0.00     0.165 HD
BRANCH   7  10
ATOM     10  C   UNL A   1      32.859  24.636  22.079  1.00  0.00     0.071 C 
ATOM     11  C   UNL A   1      33.888  24.246  22.842  1.00  0.00     0.013 C 
BRANCH  11  12
ATOM     12  C   UNL A   1      34.011  22.907  23.416  1.00  0.00    -0.007 C 
ATOM     13  C   UNL A   1      35.663  23.467  25.266  1.00  0.00     0.058 C 
ATOM     14  C   UNL A   1      35.343  22.561  24.073  1.00  0.00     0.200 C 
ATOM     15  O   UNL A   1      35.516  21.208  24.536  1.00  0.00    -0.485 OA
ATOM     16  C   UNL A   1      34.460  20.352  24.471  1.00  0.00     0.127 A 
ATOM     17  C   UNL A   1      33.012  22.013  23.361  1.00  0.00     0.019 C 
ATOM     18  C   UNL A   1      34.677  19.079  24.997  1.00  0.00     0.047 A 
ATOM     19  C   UNL A   1      33.225  20.685  23.918  1.00  0.00     0.017 A 
ATOM     20  C   UNL A   1      33.655  18.130  24.983  1.00  0.00     0.004 A 
ATOM     21  C   UNL A   1      32.204  19.727  23.893  1.00  0.00     0.012 A 
ATOM     22  C   UNL A   1      32.419  18.455  24.430  1.00  0.00     0.001 A 
ENDBRANCH  11  12
ENDBRANCH   7  10
ENDBRANCH   5   6
BRANCH   5  23
ATOM     23  C   UNL A   1      31.595  26.220  24.338  1.00  0.00    -0.014 A 
ATOM     24  C   UNL A   1      30.663  25.193  24.550  1.00  0.00     0.006 A 
ATOM     25  C   UNL A   1      32.698  26.300  25.211  1.00  0.00     0.006 A 
ATOM     26  C   UNL A   1      30.782  24.327  25.643  1.00  0.00     0.000 A 
ATOM     27  C   UNL A   1      32.839  25.405  26.277  1.00  0.00     0.000 A 
ATOM     28  C   UNL A   1      31.871  24.431  26.502  1.00  0.00     0.000 A 
ENDBRANCH   5  23
ENDBRANCH   3   5
ENDBRANCH   2   3
ENDBRANCH   1   2
BRANCH   1  29
ATOM     29  C   UNL A   1      32.318  29.679  26.696  1.00  0.00     0.275 C 
BRANCH  29  30
ATOM     30  O   UNL A   1      33.708  30.000  26.545  1.00  0.00    -0.458 OA
BRANCH  30  31
ATOM     31  C   UNL A   1      34.174  31.010  27.317  1.00  0.00     0.338 C 
ATOM     32  O   UNL A   1      33.597  32.048  27.593  1.00  0.00    -0.246 OA
BRANCH  31  33
ATOM     33  C   UNL A   1      35.519  30.662  27.815  1.00  0.00     0.060 A 
ATOM     34  C   UNL A   1      36.427  31.673  28.122  1.00  0.00     0.016 A 
ATOM     35  C   UNL A   1      35.848  29.335  28.080  1.00  0.00     0.016 A 
ATOM     36  C   UNL A   1      37.666  31.343  28.683  1.00  0.00     0.010 A 
ATOM     37  C   UNL A   1      37.030  29.029  28.751  1.00  0.00     0.010 A 
ATOM     38  C   UNL A   1      37.972  30.018  29.049  1.00  0.00    -0.014 A 
BRANCH  38  39
ATOM     39  C   UNL A   1      39.257  29.676  29.734  1.00  0.00     0.031 A 
ATOM     40  C   UNL A   1      39.639  30.313  31.054  1.00  0.00     0.074 A 
ATOM     41  C   UNL A   1      40.115  28.804  29.161  1.00  0.00     0.049 A 
ATOM     42  N   UNL A   1      40.693  30.091  31.802  1.00  0.00    -0.248 NA
ATOM     43  C   UNL A   1      38.760  31.370  31.581  1.00  0.00     0.031 C 
ATOM     44  C   UNL A   1      39.960  28.206  27.832  1.00  0.00     0.029 A 
ATOM     45  N   UNL A   1      41.277  28.240  29.635  1.00  0.00    -0.354 N 
ATOM     46  C   UNL A   1      40.613  30.997  32.855  1.00  0.00     0.074 A 
ATOM     47  C   UNL A   1      39.461  31.832  32.604  1.00  0.00     0.031 C 
ATOM     48  C   UNL A   1      40.922  27.290  27.642  1.00  0.00     0.029 A 
ATOM     49  C   UNL A   1      41.785  27.255  28.818  1.00  0.00     0.049 A 
ATOM     50  H   UNL A   1      41.703  28.515  30.479  1.00  0.00     0.167 HD
ATOM     51  C   UNL A   1      41.384  31.097  33.964  1.00  0.00     0.037 A 
ATOM     52  C   UNL A   1      42.802  26.392  29.009  1.00  0.00     0.037 A 
ATOM     53  C   UNL A   1      42.475  30.212  34.269  1.00  0.00     0.049 A 
ATOM     54  C   UNL A   1      43.582  26.440  30.294  1.00  0.00     0.074 A 
ATOM     55  C   UNL A   1      43.253  30.164  35.412  1.00  0.00     0.029 A 
ATOM     56  N   UNL A   1      42.924  29.199  33.436  1.00  0.00    -0.354 N 
ATOM     57  N   UNL A   1      43.433  27.246  31.317  1.00  0.00    -0.248 NA
ATOM     58  C   UNL A   1      44.662  25.455  30.456  1.00  0.00     0.031 C 
ATOM     59  C   UNL A   1      44.184  29.130  35.263  1.00  0.00     0.029 A 
ATOM     60  C   UNL A   1      43.967  28.520  34.039  1.00  0.00     0.049 A 
ATOM     61  H   UNL A   1      42.555  28.994  32.546  1.00  0.00     0.167 HD
ATOM     62  C   UNL A   1      44.391  26.861  32.247  1.00  0.00     0.074 A 
ATOM     63  C   UNL A   1      45.102  25.736  31.676  1.00  0.00     0.031 C 
ATOM     64  C   UNL A   1      44.661  27.396  33.463  1.00  0.00     0.037 A 
BRANCH  51  65
ATOM     65  C   UNL A   1      41.031  32.167  34.963  1.00  0.00     0.058 A 
ATOM     66  C   UNL A   1      41.589  33.453  34.880  1.00  0.00     0.135 A 
ATOM     67  C   UNL A   1      40.119  31.915  36.001  1.00  0.00     0.135 A 
ATOM     68  F   UNL A   1      42.476  33.744  33.916  1.00  0.00    -0.206 F 
ATOM     69  C   UNL A   1      41.291  34.439  35.815  1.00  0.00     0.059 A 
ATOM     70  C   UNL A   1      39.782  32.897  36.930  1.00  0.00     0.059 A 
ATOM     71  F   UNL A   1      39.550  30.706  36.124  1.00  0.00    -0.206 F 
ATOM     72  C   UNL A   1      40.390  34.150  36.839  1.00  0.00     0.060 A 
BRANCH  72  73
ATOM     73  S   UNL A   1      40.018  35.441  38.044  1.00  0.00     0.124 S 
ATOM     74  O   UNL A   1      41.238  35.449  38.847  1.00  0.00    -0.237 OA
ATOM     75  O   UNL A   1      39.814  36.611  37.197  1.00  0.00    -0.237 OA
ATOM     76  O   UNL A   1      38.824  34.943  38.720  1.00  0.00    -0.744 OA
ENDBRANCH  72  73
ENDBRANCH  51  65
BRANCH  52  77
ATOM     77  C   UNL A   1      43.081  25.343  27.992  1.00  0.00     0.058 A 
ATOM     78  C   UNL A   1      44.035  25.563  26.987  1.00  0.00     0.135 A 
ATOM     79  C   UNL A   1      42.435  24.099  28.019  1.00  0.00     0.135 A 
ATOM     80  F   UNL A   1      44.676  26.740  26.917  1.00  0.00    -0.206 F 
ATOM     81  C   UNL A   1      44.336  24.590  26.040  1.00  0.00     0.059 A 
ATOM     82  C   UNL A   1      42.731  23.102  27.094  1.00  0.00     0.059 A 
ATOM     83  F   UNL A   1      41.526  23.834  28.971  1.00  0.00    -0.206 F 
ATOM     84  C   UNL A   1      43.681  23.360  26.104  1.00  0.00     0.060 A 
BRANCH  84  85
ATOM     85  S   UNL A   1      44.128  22.082  24.907  1.00  0.00     0.124 S 
ATOM     86  O   UNL A   1      43.288  20.971  25.335  1.00  0.00    -0.237 OA
ATOM     87  O   UNL A   1      43.763  22.708  23.640  1.00  0.00    -0.237 OA
ATOM     88  O   UNL A   1      45.562  21.910  25.121  1.00  0.00    -0.744 OA
ENDBRANCH  84  85
ENDBRANCH  52  77
BRANCH  64  89
ATOM     89  C   UNL A   1      45.765  26.777  34.269  1.00  0.00     0.058 A 
ATOM     90  C   UNL A   1      45.511  25.734  35.172  1.00  0.00     0.135 A 
ATOM     91  C   UNL A   1      47.098  27.170  34.074  1.00  0.00     0.135 A 
ATOM     92  F   UNL A   1      44.252  25.326  35.397  1.00  0.00    -0.206 F 
ATOM     93  C   UNL A   1      46.542  25.106  35.862  1.00  0.00     0.059 A 
ATOM     94  C   UNL A   1      48.147  26.542  34.738  1.00  0.00     0.059 A 
ATOM     95  F   UNL A   1      47.393  28.158  33.214  1.00  0.00    -0.206 F 
ATOM     96  C   UNL A   1      47.858  25.513  35.634  1.00  0.00     0.060 A 
BRANCH  96  97
ATOM     97  S   UNL A   1      49.190  24.649  36.492  1.00  0.00     0.124 S 
ATOM     98  O   UNL A   1      49.445  25.543  37.617  1.00  0.00    -0.237 OA
ATOM     99  O   UNL A   1      48.569  23.372  36.827  1.00  0.00    -0.237 OA
ATOM    100  O   UNL A   1      50.251  24.579  35.491  1.00  0.00    -0.744 OA
ENDBRANCH  96  97
ENDBRANCH  64  89
ENDBRANCH  38  39
ENDBRANCH  31  33
ENDBRANCH  30  31
ENDBRANCH  29  30
ENDBRANCH   1  29
TORSDOF 18
ENDMDL
MODEL 2
REMARK VINA RESULT:     -11.9      5.119      9.326
REMARK SMILES C[C@H]1Oc2ccccc2C=C1/C=C/C(=O)N[C@H](C(=O)OCCOC(=O)c1ccc(-c2c3nc(c(-c4c(F)cc(S(=O)(=O)[O-])cc4F)c4ccc([nH]4)c(-c4c(F)cc(S(=O)(=O)[O-])cc4F)c4nc(c(-c5c(F)cc(S(=O)(=O)[O-])cc5F)c5ccc2[nH]5)C=C4)C=C3)cc1)c1ccccc1
REMARK SMILES IDX 21 1 20 2 18 3 19 4 17 5 16 6 14 7 15 8 13 10 12 11 11 12
REMARK SMILES IDX 1 13 2 14 3 15 4 16 10 17 5 18 9 19 6 20 8 21 7 22 92 23
REMARK SMILES IDX 93 24 97 25 94 26 96 27 95 28 22 29 23 30 24 31 25 32 26 33
REMARK SMILES IDX 27 34 91 35 28 36 90 37 29 38 30 39 31 40 84 41 32 42 89 43
REMARK SMILES IDX 83 44 85 45 33 46 88 47 82 48 81 49 34 51 68 52 47 53 67 54
REMARK SMILES IDX 48 55 51 56 66 57 86 58 49 59 50 60 65 62 87 63 52 64 35 65
REMARK SMILES IDX 36 66 45 67 37 68 38 69 44 70 46 71 39 72 40 73 41 74 42 75
REMARK SMILES IDX 43 76 69 77 70 78 79 79 71 80 72 81 78 82 80 83 73 84 74 85
REMARK SMILES IDX 75 86 76 87 77 88 53 89 54 90 63 91 55 92 56 93 62 94 64 95
REMARK SMILES IDX 57 96 58 97 59 98 60 99 61 100
REMARK H PARENT 16 9 85 50 51 61
REMARK Flexibility Score: inf
ROOT
ATOM      1  C   UNL A   1      33.398  30.577  27.331  1.00  0.00     0.274 C 
ENDROOT
BRANCH   1   2
ATOM      2  O   UNL A   1      33.199  29.961  26.039  1.00  0.00    -0.460 OA
BRANCH   2   3
ATOM      3  C   UNL A   1      31.980  30.181  25.463  1.00  0.00     0.333 C 
ATOM      4  O   UNL A   1      31.147  30.978  25.884  1.00  0.00    -0.249 OA
BRANCH   3   5
ATOM      5  C   UNL A   1      31.739  29.269  24.240  1.00  0.00     0.223 C 
BRANCH   5   6
ATOM      6  N   UNL A   1      33.036  29.220  23.541  1.00  0.00    -0.335 N 
ATOM      7  C   UNL A   1      33.717  28.259  22.876  1.00  0.00     0.244 C 
ATOM      8  O   UNL A   1      34.705  28.571  22.214  1.00  0.00    -0.270 OA
ATOM      9  H   UNL A   1      33.514  30.081  23.563  1.00  0.00     0.165 HD
BRANCH   7  10
ATOM     10  C   UNL A   1      33.412  26.830  23.072  1.00  0.00     0.071 C 
ATOM     11  C   UNL A   1      34.040  25.990  23.904  1.00  0.00     0.013 C 
BRANCH  11  12
ATOM     12  C   UNL A   1      33.768  24.556  23.968  1.00  0.00    -0.007 C 
ATOM     13  C   UNL A   1      33.783  24.305  26.498  1.00  0.00     0.058 C 
ATOM     14  C   UNL A   1      34.339  23.800  25.163  1.00  0.00     0.200 C 
ATOM     15  O   UNL A   1      34.178  22.370  25.175  1.00  0.00    -0.485 OA
ATOM     16  C   UNL A   1      33.437  21.785  24.195  1.00  0.00     0.127 A 
ATOM     17  C   UNL A   1      33.064  23.921  23.019  1.00  0.00     0.019 C 
ATOM     18  C   UNL A   1      33.267  20.404  24.304  1.00  0.00     0.047 A 
ATOM     19  C   UNL A   1      32.870  22.483  23.130  1.00  0.00     0.017 A 
ATOM     20  C   UNL A   1      32.519  19.712  23.353  1.00  0.00     0.004 A 
ATOM     21  C   UNL A   1      32.130  21.783  22.169  1.00  0.00     0.012 A 
ATOM     22  C   UNL A   1      31.951  20.403  22.285  1.00  0.00     0.001 A 
ENDBRANCH  11  12
ENDBRANCH   7  10
ENDBRANCH   5   6
BRANCH   5  23
ATOM     23  C   UNL A   1      31.120  27.939  24.633  1.00  0.00    -0.014 A 
ATOM     24  C   UNL A   1      31.341  27.327  25.877  1.00  0.00     0.006 A 
ATOM     25  C   UNL A   1      30.295  27.270  23.708  1.00  0.00     0.006 A 
ATOM     26  C   UNL A   1      30.826  26.056  26.156  1.00  0.00     0.000 A 
ATOM     27  C   UNL A   1      29.743  26.020  24.006  1.00  0.00     0.000 A 
ATOM     28  C   UNL A   1      30.024  25.406  25.224  1.00  0.00     0.000 A 
ENDBRANCH   5  23
ENDBRANCH   3   5
ENDBRANCH   2   3
ENDBRANCH   1   2
BRANCH   1  29
ATOM     29  C   UNL A   1      34.875  30.887  27.557  1.00  0.00     0.275 C 
BRANCH  29  30
ATOM     30  O   UNL A   1      35.488  29.769  28.214  1.00  0.00    -0.458 OA
BRANCH  30  31
ATOM     31  C   UNL A   1      36.165  30.046  29.354  1.00  0.00     0.338 C 
ATOM     32  O   UNL A   1      35.688  30.372  30.429  1.00  0.00    -0.246 OA
BRANCH  31  33
ATOM     33  C   UNL A   1      37.611  29.873  29.117  1.00  0.00     0.060 A 
ATOM     34  C   UNL A   1      38.481  29.760  30.199  1.00  0.00     0.016 A 
ATOM     35  C   UNL A   1      38.096  29.715  27.821  1.00  0.00     0.016 A 
ATOM     36  C   UNL A   1      39.838  29.502  29.971  1.00  0.00     0.010 A 
ATOM     37  C   UNL A   1      39.421  29.336  27.612  1.00  0.00     0.010 A 
ATOM     38  C   UNL A   1      40.324  29.241  28.675  1.00  0.00    -0.014 A 
BRANCH  38  39
ATOM     39  C   UNL A   1      41.754  28.872  28.439  1.00  0.00     0.031 A 
ATOM     40  C   UNL A   1      42.146  27.472  28.014  1.00  0.00     0.074 A 
ATOM     41  C   UNL A   1      42.728  29.789  28.630  1.00  0.00     0.049 A 
ATOM     42  N   UNL A   1      43.334  27.001  27.722  1.00  0.00    -0.248 NA
ATOM     43  C   UNL A   1      41.084  26.454  27.960  1.00  0.00     0.031 C 
ATOM     44  C   UNL A   1      42.532  31.140  29.166  1.00  0.00     0.029 A 
ATOM     45  N   UNL A   1      44.077  29.740  28.367  1.00  0.00    -0.354 N 
ATOM     46  C   UNL A   1      43.160  25.641  27.487  1.00  0.00     0.074 A 
ATOM     47  C   UNL A   1      41.773  25.342  27.756  1.00  0.00     0.031 C 
ATOM     48  C   UNL A   1      43.687  31.818  29.094  1.00  0.00     0.029 A 
ATOM     49  C   UNL A   1      44.717  30.946  28.541  1.00  0.00     0.049 A 
ATOM     50  H   UNL A   1      44.539  28.919  28.082  1.00  0.00     0.167 HD
ATOM     51  C   UNL A   1      44.049  24.727  27.029  1.00  0.00     0.037 A 
ATOM     52  C   UNL A   1      45.978  31.322  28.249  1.00  0.00     0.037 A 
ATOM     53  C   UNL A   1      45.406  25.034  26.668  1.00  0.00     0.049 A 
ATOM     54  C   UNL A   1      46.925  30.326  27.637  1.00  0.00     0.074 A 
ATOM     55  C   UNL A   1      46.356  24.204  26.100  1.00  0.00     0.029 A 
ATOM     56  N   UNL A   1      45.998  26.278  26.816  1.00  0.00    -0.354 N 
ATOM     57  N   UNL A   1      46.713  29.068  27.337  1.00  0.00    -0.248 NA
ATOM     58  C   UNL A   1      48.278  30.803  27.315  1.00  0.00     0.031 C 
ATOM     59  C   UNL A   1      47.529  24.943  25.918  1.00  0.00     0.029 A 
ATOM     60  C   UNL A   1      47.300  26.240  26.348  1.00  0.00     0.049 A 
ATOM     61  H   UNL A   1      45.558  27.072  27.197  1.00  0.00     0.167 HD
ATOM     62  C   UNL A   1      47.901  28.605  26.783  1.00  0.00     0.074 A 
ATOM     63  C   UNL A   1      48.822  29.723  26.769  1.00  0.00     0.031 C 
ATOM     64  C   UNL A   1      48.203  27.362  26.332  1.00  0.00     0.037 A 
BRANCH  51  65
ATOM     65  C   UNL A   1      43.558  23.317  26.832  1.00  0.00     0.058 A 
ATOM     66  C   UNL A   1      43.376  22.451  27.922  1.00  0.00     0.135 A 
ATOM     67  C   UNL A   1      43.252  22.830  25.551  1.00  0.00     0.135 A 
ATOM     68  F   UNL A   1      43.665  22.860  29.167  1.00  0.00    -0.206 F 
ATOM     69  C   UNL A   1      42.950  21.139  27.747  1.00  0.00     0.059 A 
ATOM     70  C   UNL A   1      42.794  21.528  25.355  1.00  0.00     0.059 A 
ATOM     71  F   UNL A   1      43.401  23.617  24.473  1.00  0.00    -0.206 F 
ATOM     72  C   UNL A   1      42.666  20.685  26.459  1.00  0.00     0.060 A 
BRANCH  72  73
ATOM     73  S   UNL A   1      42.118  18.977  26.252  1.00  0.00     0.124 S 
ATOM     74  O   UNL A   1      42.307  18.447  27.600  1.00  0.00    -0.237 OA
ATOM     75  O   UNL A   1      40.732  19.142  25.828  1.00  0.00    -0.237 OA
ATOM     76  O   UNL A   1      43.024  18.450  25.236  1.00  0.00    -0.744 OA
ENDBRANCH  72  73
ENDBRANCH  51  65
BRANCH  52  77
ATOM     77  C   UNL A   1      46.390  32.737  28.444  1.00  0.00     0.058 A 
ATOM     78  C   UNL A   1      46.283  33.660  27.393  1.00  0.00     0.135 A 
ATOM     79  C   UNL A   1      46.860  33.206  29.680  1.00  0.00     0.135 A 
ATOM     80  F   UNL A   1      45.843  33.259  26.190  1.00  0.00    -0.206 F 
ATOM     81  C   UNL A   1      46.634  34.997  27.555  1.00  0.00     0.059 A 
ATOM     82  C   UNL A   1      47.199  34.542  29.873  1.00  0.00     0.059 A 
ATOM     83  F   UNL A   1      46.963  32.366  30.722  1.00  0.00    -0.206 F 
ATOM     84  C   UNL A   1      47.087  35.429  28.802  1.00  0.00     0.060 A 
BRANCH  84  85
ATOM     85  S   UNL A   1      47.477  37.180  29.017  1.00  0.00     0.124 S 
ATOM     86  O   UNL A   1      48.688  37.115  29.825  1.00  0.00    -0.237 OA
ATOM     87  O   UNL A   1      47.653  37.626  27.638  1.00  0.00    -0.237 OA
ATOM     88  O   UNL A   1      46.294  37.707  29.691  1.00  0.00    -0.744 OA
ENDBRANCH  84  85
ENDBRANCH  52  77
BRANCH  64  89
ATOM     89  C   UNL A   1      49.579  27.136  25.779  1.00  0.00     0.058 A 
ATOM     90  C   UNL A   1      50.623  26.668  26.591  1.00  0.00     0.135 A 
ATOM     91  C   UNL A   1      49.835  27.306  24.409  1.00  0.00     0.135 A 
ATOM     92  F   UNL A   1      50.429  26.494  27.908  1.00  0.00    -0.206 F 
ATOM     93  C   UNL A   1      51.878  26.382  26.064  1.00  0.00     0.059 A 
ATOM     94  C   UNL A   1      51.077  27.008  23.857  1.00  0.00     0.059 A 
ATOM     95  F   UNL A   1      48.866  27.744  23.589  1.00  0.00    -0.206 F 
ATOM     96  C   UNL A   1      52.094  26.550  24.695  1.00  0.00     0.060 A 
BRANCH  96  97
ATOM     97  S   UNL A   1      53.710  26.120  24.017  1.00  0.00     0.124 S 
ATOM     98  O   UNL A   1      53.947  24.815  24.625  1.00  0.00    -0.237 OA
ATOM     99  O   UNL A   1      53.454  26.112  22.580  1.00  0.00    -0.237 OA
ATOM    100  O   UNL A   1      54.575  27.198  24.487  1.00  0.00    -0.744 OA
ENDBRANCH  96  97
ENDBRANCH  64  89
ENDBRANCH  38  39
ENDBRANCH  31  33
ENDBRANCH  30  31
ENDBRANCH  29  30
ENDBRANCH   1  29
TORSDOF 18
ENDMDL
MODEL 3
REMARK VINA RESULT:     -11.8      4.175     10.708
REMARK SMILES C[C@H]1Oc2ccccc2C=C1/C=C/C(=O)N[C@H](C(=O)OCCOC(=O)c1ccc(-c2c3nc(c(-c4c(F)cc(S(=O)(=O)[O-])cc4F)c4ccc([nH]4)c(-c4c(F)cc(S(=O)(=O)[O-])cc4F)c4nc(c(-c5c(F)cc(S(=O)(=O)[O-])cc5F)c5ccc2[nH]5)C=C4)C=C3)cc1)c1ccccc1
REMARK SMILES IDX 21 1 20 2 18 3 19 4 17 5 16 6 14 7 15 8 13 10 12 11 11 12
REMARK SMILES IDX 1 13 2 14 3 15 4 16 10 17 5 18 9 19 6 20 8 21 7 22 92 23
REMARK SMILES IDX 93 24 97 25 94 26 96 27 95 28 22 29 23 30 24 31 25 32 26 33
REMARK SMILES IDX 27 34 91 35 28 36 90 37 29 38 30 39 31 40 84 41 32 42 89 43
REMARK SMILES IDX 83 44 85 45 33 46 88 47 82 48 81 49 34 51 68 52 47 53 67 54
REMARK SMILES IDX 48 55 51 56 66 57 86 58 49 59 50 60 65 62 87 63 52 64 35 65
REMARK SMILES IDX 36 66 45 67 37 68 38 69 44 70 46 71 39 72 40 73 41 74 42 75
REMARK SMILES IDX 43 76 69 77 70 78 79 79 71 80 72 81 78 82 80 83 73 84 74 85
REMARK SMILES IDX 75 86 76 87 77 88 53 89 54 90 63 91 55 92 56 93 62 94 64 95
REMARK SMILES IDX 57 96 58 97 59 98 60 99 61 100
REMARK H PARENT 16 9 85 50 51 61
REMARK Flexibility Score: inf
ROOT
ATOM      1  C   UNL A   1      45.672  26.678  25.669  1.00  0.00     0.274 C 
ENDROOT
BRANCH   1   2
ATOM      2  O   UNL A   1      45.443  26.913  27.076  1.00  0.00    -0.460 OA
BRANCH   2   3
ATOM      3  C   UNL A   1      46.106  26.075  27.928  1.00  0.00     0.333 C 
ATOM      4  O   UNL A   1      47.284  26.203  28.251  1.00  0.00    -0.249 OA
BRANCH   3   5
ATOM      5  C   UNL A   1      45.218  24.906  28.406  1.00  0.00     0.223 C 
BRANCH   5   6
ATOM      6  N   UNL A   1      45.761  23.715  27.728  1.00  0.00    -0.335 N 
ATOM      7  C   UNL A   1      45.304  22.884  26.764  1.00  0.00     0.244 C 
ATOM      8  O   UNL A   1      46.075  22.078  26.248  1.00  0.00    -0.270 OA
ATOM      9  H   UNL A   1      46.660  23.470  28.048  1.00  0.00     0.165 HD
BRANCH   7  10
ATOM     10  C   UNL A   1      43.866  22.798  26.447  1.00  0.00     0.071 C 
ATOM     11  C   UNL A   1      42.886  22.453  27.292  1.00  0.00     0.013 C 
BRANCH  11  12
ATOM     12  C   UNL A   1      41.493  22.272  26.887  1.00  0.00    -0.007 C 
ATOM     13  C   UNL A   1      41.254  19.823  27.530  1.00  0.00     0.058 C 
ATOM     14  C   UNL A   1      41.086  20.875  26.429  1.00  0.00     0.200 C 
ATOM     15  O   UNL A   1      39.750  20.713  25.918  1.00  0.00    -0.485 OA
ATOM     16  C   UNL A   1      38.893  21.770  25.975  1.00  0.00     0.127 A 
ATOM     17  C   UNL A   1      40.610  23.281  26.900  1.00  0.00     0.019 C 
ATOM     18  C   UNL A   1      37.597  21.525  25.524  1.00  0.00     0.047 A 
ATOM     19  C   UNL A   1      39.250  23.033  26.443  1.00  0.00     0.017 A 
ATOM     20  C   UNL A   1      36.642  22.541  25.548  1.00  0.00     0.004 A 
ATOM     21  C   UNL A   1      38.294  24.055  26.453  1.00  0.00     0.012 A 
ATOM     22  C   UNL A   1      36.992  23.807  26.012  1.00  0.00     0.001 A 
ENDBRANCH  11  12
ENDBRANCH   7  10
ENDBRANCH   5   6
BRANCH   5  23
ATOM     23  C   UNL A   1      45.117  24.847  29.921  1.00  0.00    -0.014 A 
ATOM     24  C   UNL A   1      45.876  25.665  30.772  1.00  0.00     0.006 A 
ATOM     25  C   UNL A   1      44.235  23.921  30.511  1.00  0.00     0.006 A 
ATOM     26  C   UNL A   1      45.818  25.509  32.161  1.00  0.00     0.000 A 
ATOM     27  C   UNL A   1      44.144  23.797  31.901  1.00  0.00     0.000 A 
ATOM     28  C   UNL A   1      44.949  24.579  32.725  1.00  0.00     0.000 A 
ENDBRANCH   5  23
ENDBRANCH   3   5
ENDBRANCH   2   3
ENDBRANCH   1   2
BRANCH   1  29
ATOM     29  C   UNL A   1      44.463  25.997  25.034  1.00  0.00     0.275 C 
BRANCH  29  30
ATOM     30  O   UNL A   1      43.373  26.928  24.997  1.00  0.00    -0.458 OA
BRANCH  30  31
ATOM     31  C   UNL A   1      42.202  26.497  25.524  1.00  0.00     0.338 C 
ATOM     32  O   UNL A   1      41.426  25.697  25.029  1.00  0.00    -0.246 OA
BRANCH  31  33
ATOM     33  C   UNL A   1      41.994  27.136  26.838  1.00  0.00     0.060 A 
ATOM     34  C   UNL A   1      42.312  28.481  27.012  1.00  0.00     0.016 A 
ATOM     35  C   UNL A   1      41.384  26.430  27.872  1.00  0.00     0.016 A 
ATOM     36  C   UNL A   1      42.026  29.106  28.231  1.00  0.00     0.010 A 
ATOM     37  C   UNL A   1      40.991  27.093  29.033  1.00  0.00     0.010 A 
ATOM     38  C   UNL A   1      41.319  28.435  29.248  1.00  0.00    -0.014 A 
BRANCH  38  39
ATOM     39  C   UNL A   1      40.929  29.129  30.514  1.00  0.00     0.031 A 
ATOM     40  C   UNL A   1      41.743  28.971  31.782  1.00  0.00     0.074 A 
ATOM     41  C   UNL A   1      39.815  29.893  30.549  1.00  0.00     0.049 A 
ATOM     42  N   UNL A   1      41.568  29.540  32.950  1.00  0.00    -0.248 NA
ATOM     43  C   UNL A   1      42.863  28.016  31.758  1.00  0.00     0.031 C 
ATOM     44  C   UNL A   1      38.850  30.041  29.455  1.00  0.00     0.029 A 
ATOM     45  N   UNL A   1      39.318  30.718  31.531  1.00  0.00    -0.354 N 
ATOM     46  C   UNL A   1      42.528  28.987  33.793  1.00  0.00     0.074 A 
ATOM     47  C   UNL A   1      43.222  27.975  33.031  1.00  0.00     0.031 C 
ATOM     48  C   UNL A   1      37.944  30.974  29.786  1.00  0.00     0.029 A 
ATOM     49  C   UNL A   1      38.238  31.470  31.126  1.00  0.00     0.049 A 
ATOM     50  H   UNL A   1      39.699  30.765  32.438  1.00  0.00     0.167 HD
ATOM     51  C   UNL A   1      42.853  29.323  35.064  1.00  0.00     0.037 A 
ATOM     52  C   UNL A   1      37.584  32.473  31.743  1.00  0.00     0.037 A 
ATOM     53  C   UNL A   1      42.231  30.392  35.797  1.00  0.00     0.049 A 
ATOM     54  C   UNL A   1      38.026  32.913  33.112  1.00  0.00     0.074 A 
ATOM     55  C   UNL A   1      42.555  30.879  37.051  1.00  0.00     0.029 A 
ATOM     56  N   UNL A   1      41.174  31.158  35.331  1.00  0.00    -0.354 N 
ATOM     57  N   UNL A   1      38.995  32.437  33.855  1.00  0.00    -0.248 NA
ATOM     58  C   UNL A   1      37.291  34.031  33.723  1.00  0.00     0.031 C 
ATOM     59  C   UNL A   1      41.683  31.932  37.349  1.00  0.00     0.029 A 
ATOM     60  C   UNL A   1      40.835  32.115  36.270  1.00  0.00     0.049 A 
ATOM     61  H   UNL A   1      40.732  31.039  34.459  1.00  0.00     0.167 HD
ATOM     62  C   UNL A   1      38.994  33.203  35.015  1.00  0.00     0.074 A 
ATOM     63  C   UNL A   1      37.942  34.187  34.869  1.00  0.00     0.031 C 
ATOM     64  C   UNL A   1      39.791  33.095  36.107  1.00  0.00     0.037 A 
BRANCH  51  65
ATOM     65  C   UNL A   1      43.977  28.566  35.719  1.00  0.00     0.058 A 
ATOM     66  C   UNL A   1      45.314  28.964  35.557  1.00  0.00     0.135 A 
ATOM     67  C   UNL A   1      43.721  27.445  36.526  1.00  0.00     0.135 A 
ATOM     68  F   UNL A   1      45.617  30.020  34.787  1.00  0.00    -0.206 F 
ATOM     69  C   UNL A   1      46.361  28.254  36.135  1.00  0.00     0.059 A 
ATOM     70  C   UNL A   1      44.752  26.737  37.139  1.00  0.00     0.059 A 
ATOM     71  F   UNL A   1      42.461  27.025  36.720  1.00  0.00    -0.206 F 
ATOM     72  C   UNL A   1      46.070  27.139  36.921  1.00  0.00     0.060 A 
BRANCH  72  73
ATOM     73  S   UNL A   1      47.443  26.228  37.659  1.00  0.00     0.124 S 
ATOM     74  O   UNL A   1      46.882  24.883  37.753  1.00  0.00    -0.237 OA
ATOM     75  O   UNL A   1      48.502  26.403  36.671  1.00  0.00    -0.237 OA
ATOM     76  O   UNL A   1      47.658  26.909  38.932  1.00  0.00    -0.744 OA
ENDBRANCH  72  73
ENDBRANCH  51  65
BRANCH  52  77
ATOM     77  C   UNL A   1      36.500  33.197  31.028  1.00  0.00     0.058 A 
ATOM     78  C   UNL A   1      35.161  33.035  31.417  1.00  0.00     0.135 A 
ATOM     79  C   UNL A   1      36.772  34.082  29.976  1.00  0.00     0.135 A 
ATOM     80  F   UNL A   1      34.850  32.195  32.416  1.00  0.00    -0.206 F 
ATOM     81  C   UNL A   1      34.129  33.720  30.784  1.00  0.00     0.059 A 
ATOM     82  C   UNL A   1      35.759  34.794  29.339  1.00  0.00     0.059 A 
ATOM     83  F   UNL A   1      38.038  34.285  29.578  1.00  0.00    -0.206 F 
ATOM     84  C   UNL A   1      34.438  34.602  29.748  1.00  0.00     0.060 A 
BRANCH  84  85
ATOM     85  S   UNL A   1      33.095  35.533  28.979  1.00  0.00     0.124 S 
ATOM     86  O   UNL A   1      32.348  35.989  30.144  1.00  0.00    -0.237 OA
ATOM     87  O   UNL A   1      33.820  36.564  28.242  1.00  0.00    -0.237 OA
ATOM     88  O   UNL A   1      32.427  34.535  28.149  1.00  0.00    -0.744 OA
ENDBRANCH  84  85
ENDBRANCH  52  77
BRANCH  64  89
ATOM     89  C   UNL A   1      39.568  34.063  37.232  1.00  0.00     0.058 A 
ATOM     90  C   UNL A   1      38.877  33.685  38.392  1.00  0.00     0.135 A 
ATOM     91  C   UNL A   1      40.124  35.351  37.186  1.00  0.00     0.135 A 
ATOM     92  F   UNL A   1      38.322  32.465  38.482  1.00  0.00    -0.206 F 
ATOM     93  C   UNL A   1      38.737  34.555  39.469  1.00  0.00     0.059 A 
ATOM     94  C   UNL A   1      40.014  36.231  38.259  1.00  0.00     0.059 A 
ATOM     95  F   UNL A   1      40.802  35.757  36.100  1.00  0.00    -0.206 F 
ATOM     96  C   UNL A   1      39.314  35.824  39.394  1.00  0.00     0.060 A 
BRANCH  96  97
ATOM     97  S   UNL A   1      39.175  36.920  40.821  1.00  0.00     0.124 S 
ATOM     98  O   UNL A   1      40.554  36.963  41.296  1.00  0.00    -0.237 OA
ATOM     99  O   UNL A   1      38.674  38.153  40.221  1.00  0.00    -0.237 OA
ATOM    100  O   UNL A   1      38.231  36.227  41.693  1.00  0.00    -0.744 OA
ENDBRANCH  96  97
ENDBRANCH  64  89
ENDBRANCH  38  39
ENDBRANCH  31  33
ENDBRANCH  30  31
ENDBRANCH  29  30
ENDBRANCH   1  29
TORSDOF 18
ENDMDL
