MODEL 1
REMARK VINA RESULT:     -11.6      0.000      0.000
REMARK SMILES [NH3+][C@H](Cn1nnc2ccccc21)C(=O)OCCOC(=O)c1ccc(-c2c3nc(c(-c4c(F)cc(S(=O)(=O)[O-])cc4F)c4ccc([nH]4)c(-c4c(F)cc(S(=O)(=O)[O-])cc4F)c4nc(c(-c5c(F)cc(S(=O)(=O)[O-])cc5F)c5ccc2[nH]5)C=C4)C=C3)cc1
REMARK SMILES IDX 17 1 16 2 15 3 13 4 14 5 2 6 1 7 3 11 4 12 5 13 12 14 6 15
REMARK SMILES IDX 7 16 11 17 8 18 10 19 9 20 18 21 19 22 20 23 21 24 22 25
REMARK SMILES IDX 86 26 23 27 85 28 24 29 25 30 26 31 79 32 27 33 84 34 78 35
REMARK SMILES IDX 80 36 28 37 83 38 77 39 76 40 29 42 63 43 42 44 62 45 43 46
REMARK SMILES IDX 46 47 61 48 81 49 44 50 45 51 60 53 82 54 47 55 30 56 31 57
REMARK SMILES IDX 40 58 32 59 33 60 39 61 41 62 34 63 35 64 36 65 37 66 38 67
REMARK SMILES IDX 64 68 65 69 74 70 66 71 67 72 73 73 75 74 68 75 69 76 70 77
REMARK SMILES IDX 71 78 72 79 48 80 49 81 58 82 50 83 51 84 57 85 59 86 52 87
REMARK SMILES IDX 53 88 54 89 55 90 56 91
REMARK H PARENT 1 8 1 9 1 10 80 41 46 52
REMARK Flexibility Score: inf
ROOT
ATOM      1  C   UNL A   1      40.980  20.210  26.700  1.00  0.00     0.275 C 
ENDROOT
BRANCH   1   2
ATOM      2  C   UNL A   1      42.378  20.384  26.099  1.00  0.00     0.274 C 
BRANCH   2   3
ATOM      3  O   UNL A   1      42.784  19.139  25.490  1.00  0.00    -0.458 OA
BRANCH   3   4
ATOM      4  C   UNL A   1      44.114  19.004  25.229  1.00  0.00     0.366 C 
ATOM      5  O   UNL A   1      44.767  18.016  25.541  1.00  0.00    -0.245 OA
BRANCH   4   6
ATOM      6  C   UNL A   1      44.657  20.188  24.403  1.00  0.00     0.313 C 
BRANCH   6   7
ATOM      7  N   UNL A   1      44.700  19.825  22.985  1.00  0.00    -0.344 N 
ATOM      8  H   UNL A   1      45.011  18.857  22.891  1.00  0.00     0.345 HD
ATOM      9  H   UNL A   1      45.350  20.440  22.496  1.00  0.00     0.345 HD
ATOM     10  H   UNL A   1      43.768  19.924  22.580  1.00  0.00     0.345 HD
ENDBRANCH   6   7
BRANCH   6  11
ATOM     11  C   UNL A   1      45.831  20.984  25.002  1.00  0.00     0.224 C 
BRANCH  11  12
ATOM     12  N   UNL A   1      45.627  22.417  24.911  1.00  0.00    -0.238 N 
ATOM     13  N   UNL A   1      46.188  23.101  23.894  1.00  0.00    -0.066 NA
ATOM     14  C   UNL A   1      45.429  23.214  26.012  1.00  0.00     0.089 A 
ATOM     15  N   UNL A   1      46.531  24.294  24.367  1.00  0.00    -0.130 NA
ATOM     16  C   UNL A   1      46.151  24.355  25.683  1.00  0.00     0.113 A 
ATOM     17  C   UNL A   1      44.940  22.936  27.291  1.00  0.00     0.030 A 
ATOM     18  C   UNL A   1      46.456  25.277  26.690  1.00  0.00     0.032 A 
ATOM     19  C   UNL A   1      45.279  23.850  28.288  1.00  0.00     0.002 A 
ATOM     20  C   UNL A   1      46.031  24.993  27.998  1.00  0.00     0.002 A 
ENDBRANCH  11  12
ENDBRANCH   6  11
ENDBRANCH   4   6
ENDBRANCH   3   4
ENDBRANCH   2   3
ENDBRANCH   1   2
BRANCH   1  21
ATOM     21  O   UNL A   1      40.600  21.418  27.381  1.00  0.00    -0.458 OA
BRANCH  21  22
ATOM     22  C   UNL A   1      39.757  22.256  26.716  1.00  0.00     0.338 C 
ATOM     23  O   UNL A   1      38.634  21.997  26.339  1.00  0.00    -0.246 OA
BRANCH  22  24
ATOM     24  C   UNL A   1      40.293  23.639  26.870  1.00  0.00     0.060 A 
ATOM     25  C   UNL A   1      41.488  23.884  27.552  1.00  0.00     0.016 A 
ATOM     26  C   UNL A   1      39.401  24.684  26.631  1.00  0.00     0.016 A 
ATOM     27  C   UNL A   1      41.662  25.099  28.215  1.00  0.00     0.010 A 
ATOM     28  C   UNL A   1      39.565  25.883  27.328  1.00  0.00     0.010 A 
ATOM     29  C   UNL A   1      40.642  26.056  28.208  1.00  0.00    -0.014 A 
BRANCH  29  30
ATOM     30  C   UNL A   1      40.873  27.367  28.832  1.00  0.00     0.031 A 
ATOM     31  C   UNL A   1      42.043  28.003  28.192  1.00  0.00     0.074 A 
ATOM     32  C   UNL A   1      40.199  28.036  29.800  1.00  0.00     0.049 A 
ATOM     33  N   UNL A   1      43.249  27.964  28.650  1.00  0.00    -0.248 NA
ATOM     34  C   UNL A   1      41.934  28.479  26.806  1.00  0.00     0.031 C 
ATOM     35  C   UNL A   1      38.959  27.695  30.483  1.00  0.00     0.029 A 
ATOM     36  N   UNL A   1      40.492  29.254  30.361  1.00  0.00    -0.354 N 
ATOM     37  C   UNL A   1      44.009  28.640  27.712  1.00  0.00     0.074 A 
ATOM     38  C   UNL A   1      43.218  28.686  26.512  1.00  0.00     0.031 C 
ATOM     39  C   UNL A   1      38.456  28.777  31.131  1.00  0.00     0.029 A 
ATOM     40  C   UNL A   1      39.461  29.826  31.112  1.00  0.00     0.049 A 
ATOM     41  H   UNL A   1      41.365  29.694  30.242  1.00  0.00     0.167 HD
ATOM     42  C   UNL A   1      45.090  29.367  28.096  1.00  0.00     0.037 A 
ATOM     43  C   UNL A   1      39.461  31.024  31.762  1.00  0.00     0.037 A 
ATOM     44  C   UNL A   1      45.510  29.013  29.432  1.00  0.00     0.049 A 
ATOM     45  C   UNL A   1      40.883  31.351  32.023  1.00  0.00     0.074 A 
ATOM     46  C   UNL A   1      45.924  27.850  30.052  1.00  0.00     0.029 A 
ATOM     47  N   UNL A   1      45.163  29.872  30.446  1.00  0.00    -0.354 N 
ATOM     48  N   UNL A   1      41.638  30.692  32.856  1.00  0.00    -0.248 NA
ATOM     49  C   UNL A   1      41.583  32.148  31.032  1.00  0.00     0.031 C 
ATOM     50  C   UNL A   1      45.389  27.911  31.373  1.00  0.00     0.029 A 
ATOM     51  C   UNL A   1      44.727  29.130  31.513  1.00  0.00     0.049 A 
ATOM     52  H   UNL A   1      45.218  30.855  30.412  1.00  0.00     0.167 HD
ATOM     53  C   UNL A   1      42.869  30.623  32.224  1.00  0.00     0.074 A 
ATOM     54  C   UNL A   1      42.801  31.617  31.154  1.00  0.00     0.031 C 
ATOM     55  C   UNL A   1      43.716  29.578  32.451  1.00  0.00     0.037 A 
BRANCH  42  56
ATOM     56  C   UNL A   1      45.489  30.657  27.426  1.00  0.00     0.058 A 
ATOM     57  C   UNL A   1      46.816  30.814  26.990  1.00  0.00     0.135 A 
ATOM     58  C   UNL A   1      44.704  31.835  27.427  1.00  0.00     0.135 A 
ATOM     59  F   UNL A   1      47.658  29.768  26.972  1.00  0.00    -0.206 F 
ATOM     60  C   UNL A   1      47.341  32.056  26.633  1.00  0.00     0.059 A 
ATOM     61  C   UNL A   1      45.185  33.068  27.015  1.00  0.00     0.059 A 
ATOM     62  F   UNL A   1      43.461  31.880  27.918  1.00  0.00    -0.206 F 
ATOM     63  C   UNL A   1      46.516  33.178  26.656  1.00  0.00     0.060 A 
BRANCH  63  64
ATOM     64  S   UNL A   1      47.206  34.792  26.270  1.00  0.00     0.124 S 
ATOM     65  O   UNL A   1      45.999  35.576  26.039  1.00  0.00    -0.237 OA
ATOM     66  O   UNL A   1      47.948  35.097  27.489  1.00  0.00    -0.237 OA
ATOM     67  O   UNL A   1      48.029  34.532  25.092  1.00  0.00    -0.744 OA
ENDBRANCH  63  64
ENDBRANCH  42  56
BRANCH  43  68
ATOM     68  C   UNL A   1      38.396  32.067  31.892  1.00  0.00     0.058 A 
ATOM     69  C   UNL A   1      37.910  32.756  30.758  1.00  0.00     0.135 A 
ATOM     70  C   UNL A   1      37.606  32.169  33.051  1.00  0.00     0.135 A 
ATOM     71  F   UNL A   1      38.591  32.720  29.602  1.00  0.00    -0.206 F 
ATOM     72  C   UNL A   1      36.680  33.427  30.749  1.00  0.00     0.059 A 
ATOM     73  C   UNL A   1      36.375  32.835  33.068  1.00  0.00     0.059 A 
ATOM     74  F   UNL A   1      37.965  31.541  34.180  1.00  0.00    -0.206 F 
ATOM     75  C   UNL A   1      35.901  33.434  31.903  1.00  0.00     0.060 A 
BRANCH  75  76
ATOM     76  S   UNL A   1      34.228  34.129  31.840  1.00  0.00     0.124 S 
ATOM     77  O   UNL A   1      33.842  33.871  30.457  1.00  0.00    -0.237 OA
ATOM     78  O   UNL A   1      33.528  33.343  32.852  1.00  0.00    -0.237 OA
ATOM     79  O   UNL A   1      34.430  35.536  32.178  1.00  0.00    -0.744 OA
ENDBRANCH  75  76
ENDBRANCH  43  68
BRANCH  55  80
ATOM     80  C   UNL A   1      43.469  28.700  33.655  1.00  0.00     0.058 A 
ATOM     81  C   UNL A   1      43.926  28.965  34.960  1.00  0.00     0.135 A 
ATOM     82  C   UNL A   1      42.594  27.614  33.496  1.00  0.00     0.135 A 
ATOM     83  F   UNL A   1      44.703  30.028  35.217  1.00  0.00    -0.206 F 
ATOM     84  C   UNL A   1      43.541  28.175  36.049  1.00  0.00     0.059 A 
ATOM     85  C   UNL A   1      42.175  26.833  34.570  1.00  0.00     0.059 A 
ATOM     86  F   UNL A   1      42.087  27.333  32.284  1.00  0.00    -0.206 F 
ATOM     87  C   UNL A   1      42.656  27.116  35.845  1.00  0.00     0.060 A 
BRANCH  87  88
ATOM     88  S   UNL A   1      42.082  26.153  37.263  1.00  0.00     0.124 S 
ATOM     89  O   UNL A   1      40.753  26.710  37.499  1.00  0.00    -0.237 OA
ATOM     90  O   UNL A   1      42.114  24.786  36.753  1.00  0.00    -0.237 OA
ATOM     91  O   UNL A   1      43.071  26.444  38.299  1.00  0.00    -0.744 OA
ENDBRANCH  87  88
ENDBRANCH  55  80
ENDBRANCH  29  30
ENDBRANCH  22  24
ENDBRANCH  21  22
ENDBRANCH   1  21
TORSDOF 17
ENDMDL
MODEL 2
REMARK VINA RESULT:     -11.2      3.030     11.945
REMARK SMILES [NH3+][C@H](Cn1nnc2ccccc21)C(=O)OCCOC(=O)c1ccc(-c2c3nc(c(-c4c(F)cc(S(=O)(=O)[O-])cc4F)c4ccc([nH]4)c(-c4c(F)cc(S(=O)(=O)[O-])cc4F)c4nc(c(-c5c(F)cc(S(=O)(=O)[O-])cc5F)c5ccc2[nH]5)C=C4)C=C3)cc1
REMARK SMILES IDX 17 1 16 2 15 3 13 4 14 5 2 6 1 7 3 11 4 12 5 13 12 14 6 15
REMARK SMILES IDX 7 16 11 17 8 18 10 19 9 20 18 21 19 22 20 23 21 24 22 25
REMARK SMILES IDX 86 26 23 27 85 28 24 29 25 30 26 31 79 32 27 33 84 34 78 35
REMARK SMILES IDX 80 36 28 37 83 38 77 39 76 40 29 42 63 43 42 44 62 45 43 46
REMARK SMILES IDX 46 47 61 48 81 49 44 50 45 51 60 53 82 54 47 55 30 56 31 57
REMARK SMILES IDX 40 58 32 59 33 60 39 61 41 62 34 63 35 64 36 65 37 66 38 67
REMARK SMILES IDX 64 68 65 69 74 70 66 71 67 72 73 73 75 74 68 75 69 76 70 77
REMARK SMILES IDX 71 78 72 79 48 80 49 81 58 82 50 83 51 84 57 85 59 86 52 87
REMARK SMILES IDX 53 88 54 89 55 90 56 91
REMARK H PARENT 1 8 1 9 1 10 80 41 46 52
REMARK Flexibility Score: inf
ROOT
ATOM      1  C   UNL A   1      34.527  34.183  28.124  1.00  0.00     0.275 C 
ENDROOT
BRANCH   1   2
ATOM      2  C   UNL A   1      33.316  34.950  28.662  1.00  0.00     0.274 C 
BRANCH   2   3
ATOM      3  O   UNL A   1      33.136  34.622  30.055  1.00  0.00    -0.458 OA
BRANCH   3   4
ATOM      4  C   UNL A   1      33.061  35.675  30.915  1.00  0.00     0.366 C 
ATOM      5  O   UNL A   1      32.197  36.541  30.851  1.00  0.00    -0.245 OA
BRANCH   4   6
ATOM      6  C   UNL A   1      34.120  35.577  32.033  1.00  0.00     0.313 C 
BRANCH   6   7
ATOM      7  N   UNL A   1      34.479  36.920  32.494  1.00  0.00    -0.344 N 
ATOM      8  H   UNL A   1      34.410  37.577  31.716  1.00  0.00     0.345 HD
ATOM      9  H   UNL A   1      35.435  36.913  32.848  1.00  0.00     0.345 HD
ATOM     10  H   UNL A   1      33.842  37.206  33.238  1.00  0.00     0.345 HD
ENDBRANCH   6   7
BRANCH   6  11
ATOM     11  C   UNL A   1      35.233  34.529  31.857  1.00  0.00     0.224 C 
BRANCH  11  12
ATOM     12  N   UNL A   1      35.769  34.078  33.127  1.00  0.00    -0.238 N 
ATOM     13  N   UNL A   1      36.309  34.978  33.974  1.00  0.00    -0.066 NA
ATOM     14  C   UNL A   1      36.301  32.825  33.310  1.00  0.00     0.089 A 
ATOM     15  N   UNL A   1      37.320  34.377  34.591  1.00  0.00    -0.130 NA
ATOM     16  C   UNL A   1      37.386  33.084  34.139  1.00  0.00     0.113 A 
ATOM     17  C   UNL A   1      36.095  31.616  32.640  1.00  0.00     0.030 A 
ATOM     18  C   UNL A   1      38.369  32.100  34.294  1.00  0.00     0.032 A 
ATOM     19  C   UNL A   1      37.100  30.660  32.781  1.00  0.00     0.002 A 
ATOM     20  C   UNL A   1      38.221  30.899  33.584  1.00  0.00     0.002 A 
ENDBRANCH  11  12
ENDBRANCH   6  11
ENDBRANCH   4   6
ENDBRANCH   3   4
ENDBRANCH   2   3
ENDBRANCH   1   2
BRANCH   1  21
ATOM     21  O   UNL A   1      34.841  33.100  29.017  1.00  0.00    -0.458 OA
BRANCH  21  22
ATOM     22  C   UNL A   1      34.940  31.859  28.463  1.00  0.00     0.338 C 
ATOM     23  O   UNL A   1      34.355  31.462  27.477  1.00  0.00    -0.246 OA
BRANCH  22  24
ATOM     24  C   UNL A   1      36.154  31.212  29.036  1.00  0.00     0.060 A 
ATOM     25  C   UNL A   1      37.360  31.908  29.159  1.00  0.00     0.016 A 
ATOM     26  C   UNL A   1      36.144  29.818  29.108  1.00  0.00     0.016 A 
ATOM     27  C   UNL A   1      38.565  31.209  29.087  1.00  0.00     0.010 A 
ATOM     28  C   UNL A   1      37.354  29.130  28.999  1.00  0.00     0.010 A 
ATOM     29  C   UNL A   1      38.564  29.826  28.880  1.00  0.00    -0.014 A 
BRANCH  29  30
ATOM     30  C   UNL A   1      39.836  29.089  28.898  1.00  0.00     0.031 A 
ATOM     31  C   UNL A   1      40.231  28.849  30.301  1.00  0.00     0.074 A 
ATOM     32  C   UNL A   1      40.612  28.605  27.897  1.00  0.00     0.049 A 
ATOM     33  N   UNL A   1      41.051  29.584  30.976  1.00  0.00    -0.248 NA
ATOM     34  C   UNL A   1      39.459  27.898  31.112  1.00  0.00     0.031 C 
ATOM     35  C   UNL A   1      40.382  28.588  26.459  1.00  0.00     0.029 A 
ATOM     36  N   UNL A   1      41.814  27.948  27.987  1.00  0.00    -0.354 N 
ATOM     37  C   UNL A   1      41.079  29.019  32.238  1.00  0.00     0.074 A 
ATOM     38  C   UNL A   1      39.911  28.187  32.333  1.00  0.00     0.031 C 
ATOM     39  C   UNL A   1      41.231  27.724  25.848  1.00  0.00     0.029 A 
ATOM     40  C   UNL A   1      42.229  27.303  26.817  1.00  0.00     0.049 A 
ATOM     41  H   UNL A   1      42.345  27.930  28.816  1.00  0.00     0.167 HD
ATOM     42  C   UNL A   1      42.219  29.046  32.978  1.00  0.00     0.037 A 
ATOM     43  C   UNL A   1      43.358  26.567  26.621  1.00  0.00     0.037 A 
ATOM     44  C   UNL A   1      43.155  30.016  32.462  1.00  0.00     0.049 A 
ATOM     45  C   UNL A   1      44.331  27.025  27.639  1.00  0.00     0.074 A 
ATOM     46  C   UNL A   1      43.128  31.379  32.238  1.00  0.00     0.029 A 
ATOM     47  N   UNL A   1      44.209  29.538  31.721  1.00  0.00    -0.354 N 
ATOM     48  N   UNL A   1      44.882  28.206  27.638  1.00  0.00    -0.248 NA
ATOM     49  C   UNL A   1      44.365  26.315  28.906  1.00  0.00     0.031 C 
ATOM     50  C   UNL A   1      43.877  31.584  31.042  1.00  0.00     0.029 A 
ATOM     51  C   UNL A   1      44.373  30.347  30.627  1.00  0.00     0.049 A 
ATOM     52  H   UNL A   1      44.753  28.746  31.939  1.00  0.00     0.167 HD
ATOM     53  C   UNL A   1      44.918  28.571  28.974  1.00  0.00     0.074 A 
ATOM     54  C   UNL A   1      44.676  27.332  29.711  1.00  0.00     0.031 C 
ATOM     55  C   UNL A   1      44.860  29.884  29.343  1.00  0.00     0.037 A 
BRANCH  42  56
ATOM     56  C   UNL A   1      42.626  27.919  33.893  1.00  0.00     0.058 A 
ATOM     57  C   UNL A   1      42.645  28.145  35.281  1.00  0.00     0.135 A 
ATOM     58  C   UNL A   1      43.245  26.721  33.462  1.00  0.00     0.135 A 
ATOM     59  F   UNL A   1      42.109  29.261  35.800  1.00  0.00    -0.206 F 
ATOM     60  C   UNL A   1      43.277  27.273  36.169  1.00  0.00     0.059 A 
ATOM     61  C   UNL A   1      43.822  25.809  34.332  1.00  0.00     0.059 A 
ATOM     62  F   UNL A   1      43.413  26.414  32.171  1.00  0.00    -0.206 F 
ATOM     63  C   UNL A   1      43.868  26.111  35.680  1.00  0.00     0.060 A 
BRANCH  63  64
ATOM     64  S   UNL A   1      44.748  25.025  36.809  1.00  0.00     0.124 S 
ATOM     65  O   UNL A   1      44.456  23.715  36.239  1.00  0.00    -0.237 OA
ATOM     66  O   UNL A   1      46.121  25.496  36.666  1.00  0.00    -0.237 OA
ATOM     67  O   UNL A   1      44.127  25.307  38.100  1.00  0.00    -0.744 OA
ENDBRANCH  63  64
ENDBRANCH  42  56
BRANCH  43  68
ATOM     68  C   UNL A   1      43.576  25.293  25.866  1.00  0.00     0.058 A 
ATOM     69  C   UNL A   1      44.832  24.993  25.293  1.00  0.00     0.135 A 
ATOM     70  C   UNL A   1      42.685  24.210  25.981  1.00  0.00     0.135 A 
ATOM     71  F   UNL A   1      45.754  25.957  25.141  1.00  0.00    -0.206 F 
ATOM     72  C   UNL A   1      45.211  23.692  24.937  1.00  0.00     0.059 A 
ATOM     73  C   UNL A   1      43.040  22.902  25.630  1.00  0.00     0.059 A 
ATOM     74  F   UNL A   1      41.472  24.378  26.526  1.00  0.00    -0.206 F 
ATOM     75  C   UNL A   1      44.317  22.644  25.139  1.00  0.00     0.060 A 
BRANCH  75  76
ATOM     76  S   UNL A   1      44.871  20.939  24.866  1.00  0.00     0.124 S 
ATOM     77  O   UNL A   1      46.252  20.989  25.332  1.00  0.00    -0.237 OA
ATOM     78  O   UNL A   1      43.947  20.176  25.698  1.00  0.00    -0.237 OA
ATOM     79  O   UNL A   1      44.707  20.755  23.426  1.00  0.00    -0.744 OA
ENDBRANCH  75  76
ENDBRANCH  43  68
BRANCH  55  80
ATOM     80  C   UNL A   1      45.128  30.938  28.295  1.00  0.00     0.058 A 
ATOM     81  C   UNL A   1      44.196  31.390  27.342  1.00  0.00     0.135 A 
ATOM     82  C   UNL A   1      46.349  31.627  28.367  1.00  0.00     0.135 A 
ATOM     83  F   UNL A   1      42.976  30.842  27.255  1.00  0.00    -0.206 F 
ATOM     84  C   UNL A   1      44.476  32.465  26.492  1.00  0.00     0.059 A 
ATOM     85  C   UNL A   1      46.637  32.718  27.552  1.00  0.00     0.059 A 
ATOM     86  F   UNL A   1      47.266  31.274  29.284  1.00  0.00    -0.206 F 
ATOM     87  C   UNL A   1      45.697  33.130  26.611  1.00  0.00     0.060 A 
BRANCH  87  88
ATOM     88  S   UNL A   1      46.024  34.580  25.581  1.00  0.00     0.124 S 
ATOM     89  O   UNL A   1      45.571  35.674  26.434  1.00  0.00    -0.237 OA
ATOM     90  O   UNL A   1      47.466  34.498  25.367  1.00  0.00    -0.237 OA
ATOM     91  O   UNL A   1      45.213  34.343  24.389  1.00  0.00    -0.744 OA
ENDBRANCH  87  88
ENDBRANCH  55  80
ENDBRANCH  29  30
ENDBRANCH  22  24
ENDBRANCH  21  22
ENDBRANCH   1  21
TORSDOF 17
ENDMDL
MODEL 3
REMARK VINA RESULT:     -10.7      3.321     11.592
REMARK SMILES [NH3+][C@H](Cn1nnc2ccccc21)C(=O)OCCOC(=O)c1ccc(-c2c3nc(c(-c4c(F)cc(S(=O)(=O)[O-])cc4F)c4ccc([nH]4)c(-c4c(F)cc(S(=O)(=O)[O-])cc4F)c4nc(c(-c5c(F)cc(S(=O)(=O)[O-])cc5F)c5ccc2[nH]5)C=C4)C=C3)cc1
REMARK SMILES IDX 17 1 16 2 15 3 13 4 14 5 2 6 1 7 3 11 4 12 5 13 12 14 6 15
REMARK SMILES IDX 7 16 11 17 8 18 10 19 9 20 18 21 19 22 20 23 21 24 22 25
REMARK SMILES IDX 86 26 23 27 85 28 24 29 25 30 26 31 79 32 27 33 84 34 78 35
REMARK SMILES IDX 80 36 28 37 83 38 77 39 76 40 29 42 63 43 42 44 62 45 43 46
REMARK SMILES IDX 46 47 61 48 81 49 44 50 45 51 60 53 82 54 47 55 30 56 31 57
REMARK SMILES IDX 40 58 32 59 33 60 39 61 41 62 34 63 35 64 36 65 37 66 38 67
REMARK SMILES IDX 64 68 65 69 74 70 66 71 67 72 73 73 75 74 68 75 69 76 70 77
REMARK SMILES IDX 71 78 72 79 48 80 49 81 58 82 50 83 51 84 57 85 59 86 52 87
REMARK SMILES IDX 53 88 54 89 55 90 56 91
REMARK H PARENT 1 8 1 9 1 10 80 41 46 52
REMARK Flexibility Score: inf
ROOT
ATOM      1  C   UNL A   1      33.814  36.319  32.685  1.00  0.00     0.275 C 
ENDROOT
BRANCH   1   2
ATOM      2  C   UNL A   1      32.559  36.093  31.836  1.00  0.00     0.274 C 
BRANCH   2   3
ATOM      3  O   UNL A   1      32.785  34.972  30.956  1.00  0.00    -0.458 OA
BRANCH   3   4
ATOM      4  C   UNL A   1      32.994  35.272  29.644  1.00  0.00     0.366 C 
ATOM      5  O   UNL A   1      32.479  36.229  29.078  1.00  0.00    -0.245 OA
BRANCH   4   6
ATOM      6  C   UNL A   1      34.036  34.333  29.002  1.00  0.00     0.313 C 
BRANCH   6   7
ATOM      7  N   UNL A   1      35.301  35.048  28.818  1.00  0.00    -0.344 N 
ATOM      8  H   UNL A   1      35.233  35.973  29.243  1.00  0.00     0.345 HD
ATOM      9  H   UNL A   1      35.495  35.145  27.821  1.00  0.00     0.345 HD
ATOM     10  H   UNL A   1      36.055  34.524  29.262  1.00  0.00     0.345 HD
ENDBRANCH   6   7
BRANCH   6  11
ATOM     11  C   UNL A   1      33.543  33.394  27.886  1.00  0.00     0.224 C 
BRANCH  11  12
ATOM     12  N   UNL A   1      33.906  32.011  28.131  1.00  0.00    -0.238 N 
ATOM     13  N   UNL A   1      35.159  31.717  28.533  1.00  0.00    -0.066 NA
ATOM     14  C   UNL A   1      33.326  30.958  27.466  1.00  0.00     0.089 A 
ATOM     15  N   UNL A   1      35.482  30.550  27.987  1.00  0.00    -0.130 NA
ATOM     16  C   UNL A   1      34.406  30.108  27.262  1.00  0.00     0.113 A 
ATOM     17  C   UNL A   1      32.088  30.822  26.833  1.00  0.00     0.030 A 
ATOM     18  C   UNL A   1      34.281  29.067  26.336  1.00  0.00     0.032 A 
ATOM     19  C   UNL A   1      31.992  29.799  25.891  1.00  0.00     0.002 A 
ATOM     20  C   UNL A   1      33.070  28.943  25.638  1.00  0.00     0.002 A 
ENDBRANCH  11  12
ENDBRANCH   6  11
ENDBRANCH   4   6
ENDBRANCH   3   4
ENDBRANCH   2   3
ENDBRANCH   1   2
BRANCH   1  21
ATOM     21  O   UNL A   1      34.935  35.669  32.060  1.00  0.00    -0.458 OA
BRANCH  21  22
ATOM     22  C   UNL A   1      35.820  35.047  32.888  1.00  0.00     0.338 C 
ATOM     23  O   UNL A   1      35.794  35.048  34.101  1.00  0.00    -0.246 OA
BRANCH  22  24
ATOM     24  C   UNL A   1      36.585  34.068  32.065  1.00  0.00     0.060 A 
ATOM     25  C   UNL A   1      36.138  32.755  31.894  1.00  0.00     0.016 A 
ATOM     26  C   UNL A   1      37.911  34.394  31.778  1.00  0.00     0.016 A 
ATOM     27  C   UNL A   1      37.067  31.734  31.696  1.00  0.00     0.010 A 
ATOM     28  C   UNL A   1      38.839  33.363  31.617  1.00  0.00     0.010 A 
ATOM     29  C   UNL A   1      38.435  32.023  31.682  1.00  0.00    -0.014 A 
BRANCH  29  30
ATOM     30  C   UNL A   1      39.400  30.954  31.381  1.00  0.00     0.031 A 
ATOM     31  C   UNL A   1      40.104  30.579  32.624  1.00  0.00     0.074 A 
ATOM     32  C   UNL A   1      39.683  30.294  30.231  1.00  0.00     0.049 A 
ATOM     33  N   UNL A   1      41.255  31.034  32.989  1.00  0.00    -0.248 NA
ATOM     34  C   UNL A   1      39.369  29.867  33.679  1.00  0.00     0.031 C 
ATOM     35  C   UNL A   1      39.049  30.377  28.923  1.00  0.00     0.029 A 
ATOM     36  N   UNL A   1      40.626  29.321  30.013  1.00  0.00    -0.354 N 
ATOM     37  C   UNL A   1      41.493  30.455  34.223  1.00  0.00     0.074 A 
ATOM     38  C   UNL A   1      40.219  29.987  34.699  1.00  0.00     0.031 C 
ATOM     39  C   UNL A   1      39.407  29.322  28.148  1.00  0.00     0.029 A 
ATOM     40  C   UNL A   1      40.485  28.613  28.815  1.00  0.00     0.049 A 
ATOM     41  H   UNL A   1      41.350  29.133  30.655  1.00  0.00     0.167 HD
ATOM     42  C   UNL A   1      42.758  30.140  34.603  1.00  0.00     0.037 A 
ATOM     43  C   UNL A   1      41.256  27.591  28.349  1.00  0.00     0.037 A 
ATOM     44  C   UNL A   1      43.735  30.816  33.782  1.00  0.00     0.049 A 
ATOM     45  C   UNL A   1      42.572  27.729  29.016  1.00  0.00     0.074 A 
ATOM     46  C   UNL A   1      44.024  32.136  33.492  1.00  0.00     0.029 A 
ATOM     47  N   UNL A   1      44.350  30.076  32.801  1.00  0.00    -0.354 N 
ATOM     48  N   UNL A   1      43.404  28.705  28.785  1.00  0.00    -0.248 NA
ATOM     49  C   UNL A   1      42.774  27.009  30.261  1.00  0.00     0.031 C 
ATOM     50  C   UNL A   1      44.418  32.147  32.121  1.00  0.00     0.029 A 
ATOM     51  C   UNL A   1      44.406  30.832  31.658  1.00  0.00     0.049 A 
ATOM     52  H   UNL A   1      44.692  29.158  32.902  1.00  0.00     0.167 HD
ATOM     53  C   UNL A   1      43.928  29.013  30.030  1.00  0.00     0.074 A 
ATOM     54  C   UNL A   1      43.578  27.877  30.880  1.00  0.00     0.031 C 
ATOM     55  C   UNL A   1      44.349  30.279  30.320  1.00  0.00     0.037 A 
BRANCH  42  56
ATOM     56  C   UNL A   1      43.085  28.923  35.430  1.00  0.00     0.058 A 
ATOM     57  C   UNL A   1      43.862  29.080  36.592  1.00  0.00     0.135 A 
ATOM     58  C   UNL A   1      42.894  27.587  35.000  1.00  0.00     0.135 A 
ATOM     59  F   UNL A   1      44.128  30.303  37.076  1.00  0.00    -0.206 F 
ATOM     60  C   UNL A   1      44.449  27.997  37.246  1.00  0.00     0.059 A 
ATOM     61  C   UNL A   1      43.415  26.492  35.672  1.00  0.00     0.059 A 
ATOM     62  F   UNL A   1      42.279  27.274  33.854  1.00  0.00    -0.206 F 
ATOM     63  C   UNL A   1      44.223  26.707  36.772  1.00  0.00     0.060 A 
BRANCH  63  64
ATOM     64  S   UNL A   1      45.039  25.317  37.566  1.00  0.00     0.124 S 
ATOM     65  O   UNL A   1      44.444  24.189  36.860  1.00  0.00    -0.237 OA
ATOM     66  O   UNL A   1      46.442  25.589  37.274  1.00  0.00    -0.237 OA
ATOM     67  O   UNL A   1      44.657  25.460  38.968  1.00  0.00    -0.744 OA
ENDBRANCH  63  64
ENDBRANCH  42  56
BRANCH  43  68
ATOM     68  C   UNL A   1      40.882  26.325  27.643  1.00  0.00     0.058 A 
ATOM     69  C   UNL A   1      41.743  25.743  26.687  1.00  0.00     0.135 A 
ATOM     70  C   UNL A   1      39.855  25.493  28.125  1.00  0.00     0.135 A 
ATOM     71  F   UNL A   1      42.756  26.455  26.167  1.00  0.00    -0.206 F 
ATOM     72  C   UNL A   1      41.647  24.399  26.299  1.00  0.00     0.059 A 
ATOM     73  C   UNL A   1      39.738  24.149  27.751  1.00  0.00     0.059 A 
ATOM     74  F   UNL A   1      38.990  25.938  29.048  1.00  0.00    -0.206 F 
ATOM     75  C   UNL A   1      40.658  23.599  26.863  1.00  0.00     0.060 A 
BRANCH  75  76
ATOM     76  S   UNL A   1      40.653  21.819  26.516  1.00  0.00     0.124 S 
ATOM     77  O   UNL A   1      41.837  21.668  25.678  1.00  0.00    -0.237 OA
ATOM     78  O   UNL A   1      40.743  21.243  27.853  1.00  0.00    -0.237 OA
ATOM     79  O   UNL A   1      39.377  21.610  25.835  1.00  0.00    -0.744 OA
ENDBRANCH  75  76
ENDBRANCH  43  68
BRANCH  55  80
ATOM     80  C   UNL A   1      44.581  31.238  29.176  1.00  0.00     0.058 A 
ATOM     81  C   UNL A   1      45.737  31.280  28.374  1.00  0.00     0.135 A 
ATOM     82  C   UNL A   1      43.507  32.054  28.787  1.00  0.00     0.135 A 
ATOM     83  F   UNL A   1      46.782  30.479  28.627  1.00  0.00    -0.206 F 
ATOM     84  C   UNL A   1      45.822  32.107  27.249  1.00  0.00     0.059 A 
ATOM     85  C   UNL A   1      43.559  32.861  27.654  1.00  0.00     0.059 A 
ATOM     86  F   UNL A   1      42.358  32.029  29.484  1.00  0.00    -0.206 F 
ATOM     87  C   UNL A   1      44.723  32.888  26.891  1.00  0.00     0.060 A 
BRANCH  87  88
ATOM     88  S   UNL A   1      44.794  33.883  25.383  1.00  0.00     0.124 S 
ATOM     89  O   UNL A   1      44.287  32.957  24.375  1.00  0.00    -0.237 OA
ATOM     90  O   UNL A   1      43.921  35.009  25.705  1.00  0.00    -0.237 OA
ATOM     91  O   UNL A   1      46.210  34.222  25.262  1.00  0.00    -0.744 OA
ENDBRANCH  87  88
ENDBRANCH  55  80
ENDBRANCH  29  30
ENDBRANCH  22  24
ENDBRANCH  21  22
ENDBRANCH   1  21
TORSDOF 17
ENDMDL
