MODEL 1
REMARK VINA RESULT:     -12.9      0.000      0.000
REMARK SMILES COc1ccc(-n2c(SCc3cn(-c4ccc(C(=O)OCCOC(=O)c5ccc(-c6c7nc(c(-c8c(F)cc(S(=O)(=O)[O-])cc8F)c8ccc([nH]8)c(-c8c(F)cc(S(=O)(=O)[O-])cc8F)c8nc(c(-c9c(F)cc(S(=O)(=O)[O-])cc9F)c9ccc6[nH]9)C=C8)C=C7)cc5)cc4)nn3)nc3ccccc3c2=O)cc1
REMARK SMILES IDX 20 1 18 2 19 3 17 4 14 5 15 6 93 7 16 8 92 9 13 10 11 11
REMARK SMILES IDX 12 12 95 13 94 14 10 15 9 16 8 17 7 18 103 19 96 20 102 21
REMARK SMILES IDX 104 22 97 23 101 24 98 25 100 26 99 27 6 28 3 29 4 30 106 31
REMARK SMILES IDX 5 32 105 33 2 34 1 35 21 36 22 37 23 38 24 39 25 40 26 41
REMARK SMILES IDX 27 42 91 43 28 44 90 45 29 46 30 47 31 48 84 49 32 50 89 51
REMARK SMILES IDX 83 52 85 53 33 54 88 55 82 56 81 57 34 59 68 60 47 61 67 62
REMARK SMILES IDX 48 63 51 64 66 65 86 66 49 67 50 68 65 70 87 71 52 72 35 73
REMARK SMILES IDX 36 74 45 75 37 76 38 77 44 78 46 79 39 80 40 81 41 82 42 83
REMARK SMILES IDX 43 84 69 85 70 86 79 87 71 88 72 89 78 90 80 91 73 92 74 93
REMARK SMILES IDX 75 94 76 95 77 96 53 97 54 98 63 99 55 100 56 101 62 102
REMARK SMILES IDX 64 103 57 104 58 105 59 106 60 107 61 108
REMARK H PARENT 85 58 51 69
REMARK Flexibility Score: inf
ROOT
ATOM      1  O   UNL A   1      42.430  20.072  25.918  1.00  0.00    -0.458 OA
ENDROOT
BRANCH   1   2
ATOM      2  C   UNL A   1      41.424  19.999  26.823  1.00  0.00     0.338 C 
ATOM      3  O   UNL A   1      41.440  19.375  27.875  1.00  0.00    -0.246 OA
BRANCH   2   4
ATOM      4  C   UNL A   1      40.310  20.897  26.430  1.00  0.00     0.060 A 
ATOM      5  C   UNL A   1      38.136  22.467  25.732  1.00  0.00     0.066 A 
ATOM      6  C   UNL A   1      38.203  21.153  25.262  1.00  0.00     0.029 A 
ATOM      7  C   UNL A   1      39.128  23.003  26.557  1.00  0.00     0.029 A 
ATOM      8  C   UNL A   1      39.282  20.360  25.639  1.00  0.00     0.018 A 
ATOM      9  C   UNL A   1      40.231  22.220  26.885  1.00  0.00     0.018 A 
BRANCH   5  10
ATOM     10  N   UNL A   1      37.147  23.313  25.224  1.00  0.00    -0.220 N 
ATOM     11  C   UNL A   1      35.268  24.395  25.143  1.00  0.00     0.093 A 
ATOM     12  C   UNL A   1      36.256  23.995  26.009  1.00  0.00     0.141 A 
ATOM     13  N   UNL A   1      35.613  24.010  23.874  1.00  0.00    -0.134 NA
ATOM     14  N   UNL A   1      36.727  23.295  23.946  1.00  0.00    -0.062 NA
BRANCH  11  15
ATOM     15  C   UNL A   1      33.953  25.015  25.377  1.00  0.00     0.138 C 
BRANCH  15  16
ATOM     16  S   UNL A   1      32.842  24.121  26.440  1.00  0.00    -0.081 SA
BRANCH  16  17
ATOM     17  C   UNL A   1      31.800  23.101  25.415  1.00  0.00     0.176 A 
ATOM     18  N   UNL A   1      32.448  22.372  24.430  1.00  0.00    -0.255 N 
ATOM     19  C   UNL A   1      32.292  22.784  23.112  1.00  0.00     0.266 A 
ATOM     20  N   UNL A   1      30.646  23.644  25.171  1.00  0.00    -0.223 NA
ATOM     21  C   UNL A   1      31.624  24.108  22.991  1.00  0.00     0.066 A 
ATOM     22  O   UNL A   1      32.676  22.196  22.107  1.00  0.00    -0.268 OA
ATOM     23  C   UNL A   1      30.736  24.452  24.021  1.00  0.00     0.079 A 
ATOM     24  C   UNL A   1      32.041  25.056  22.060  1.00  0.00     0.016 A 
ATOM     25  C   UNL A   1      30.203  25.738  24.076  1.00  0.00     0.029 A 
ATOM     26  C   UNL A   1      31.571  26.366  22.178  1.00  0.00     0.001 A 
ATOM     27  C   UNL A   1      30.641  26.702  23.170  1.00  0.00     0.002 A 
BRANCH  18  28
ATOM     28  C   UNL A   1      32.984  21.100  24.746  1.00  0.00     0.052 A 
ATOM     29  C   UNL A   1      34.147  18.588  24.476  1.00  0.00     0.119 A 
ATOM     30  C   UNL A   1      34.939  19.670  24.852  1.00  0.00     0.048 A 
ATOM     31  C   UNL A   1      32.760  18.723  24.420  1.00  0.00     0.048 A 
ATOM     32  C   UNL A   1      34.361  20.938  24.962  1.00  0.00     0.030 A 
ATOM     33  C   UNL A   1      32.172  19.978  24.583  1.00  0.00     0.030 A 
BRANCH  29  34
ATOM     34  O   UNL A   1      34.760  17.400  24.183  1.00  0.00    -0.497 OA
ATOM     35  C   UNL A   1      33.986  16.627  23.253  1.00  0.00     0.278 C 
ENDBRANCH  29  34
ENDBRANCH  18  28
ENDBRANCH  16  17
ENDBRANCH  15  16
ENDBRANCH  11  15
ENDBRANCH   5  10
ENDBRANCH   2   4
ENDBRANCH   1   2
BRANCH   1  36
ATOM     36  C   UNL A   1      43.168  18.859  25.715  1.00  0.00     0.275 C 
BRANCH  36  37
ATOM     37  C   UNL A   1      44.151  19.016  24.563  1.00  0.00     0.275 C 
BRANCH  37  38
ATOM     38  O   UNL A   1      44.254  20.377  24.141  1.00  0.00    -0.458 OA
BRANCH  38  39
ATOM     39  C   UNL A   1      45.460  20.945  24.374  1.00  0.00     0.338 C 
ATOM     40  O   UNL A   1      46.532  20.378  24.493  1.00  0.00    -0.246 OA
BRANCH  39  41
ATOM     41  C   UNL A   1      45.269  22.356  24.717  1.00  0.00     0.060 A 
ATOM     42  C   UNL A   1      46.333  23.031  25.324  1.00  0.00     0.016 A 
ATOM     43  C   UNL A   1      43.969  22.879  24.706  1.00  0.00     0.016 A 
ATOM     44  C   UNL A   1      46.059  24.174  26.048  1.00  0.00     0.010 A 
ATOM     45  C   UNL A   1      43.694  24.003  25.445  1.00  0.00     0.010 A 
ATOM     46  C   UNL A   1      44.730  24.600  26.158  1.00  0.00    -0.014 A 
BRANCH  46  47
ATOM     47  C   UNL A   1      44.445  25.767  26.965  1.00  0.00     0.031 A 
ATOM     48  C   UNL A   1      45.412  26.869  26.754  1.00  0.00     0.074 A 
ATOM     49  C   UNL A   1      43.319  25.886  27.693  1.00  0.00     0.049 A 
ATOM     50  N   UNL A   1      46.284  27.328  27.587  1.00  0.00    -0.248 NA
ATOM     51  C   UNL A   1      45.544  27.406  25.388  1.00  0.00     0.031 C 
ATOM     52  C   UNL A   1      42.153  24.997  27.708  1.00  0.00     0.029 A 
ATOM     53  N   UNL A   1      42.932  26.906  28.499  1.00  0.00    -0.354 N 
ATOM     54  C   UNL A   1      46.920  28.369  26.920  1.00  0.00     0.074 A 
ATOM     55  C   UNL A   1      46.582  28.229  25.528  1.00  0.00     0.031 C 
ATOM     56  C   UNL A   1      41.117  25.638  28.294  1.00  0.00     0.029 A 
ATOM     57  C   UNL A   1      41.577  26.921  28.800  1.00  0.00     0.049 A 
ATOM     58  H   UNL A   1      43.562  27.581  28.843  1.00  0.00     0.167 HD
ATOM     59  C   UNL A   1      47.465  29.416  27.596  1.00  0.00     0.037 A 
ATOM     60  C   UNL A   1      40.891  27.961  29.341  1.00  0.00     0.037 A 
ATOM     61  C   UNL A   1      47.615  29.116  28.997  1.00  0.00     0.049 A 
ATOM     62  C   UNL A   1      41.893  28.865  29.975  1.00  0.00     0.074 A 
ATOM     63  C   UNL A   1      48.303  28.155  29.712  1.00  0.00     0.029 A 
ATOM     64  N   UNL A   1      46.683  29.637  29.860  1.00  0.00    -0.354 N 
ATOM     65  N   UNL A   1      42.607  28.544  31.020  1.00  0.00    -0.248 NA
ATOM     66  C   UNL A   1      42.432  29.951  29.167  1.00  0.00     0.031 C 
ATOM     67  C   UNL A   1      47.447  27.822  30.801  1.00  0.00     0.029 A 
ATOM     68  C   UNL A   1      46.315  28.636  30.723  1.00  0.00     0.049 A 
ATOM     69  H   UNL A   1      46.340  30.560  29.860  1.00  0.00     0.167 HD
ATOM     70  C   UNL A   1      43.866  29.074  30.770  1.00  0.00     0.074 A 
ATOM     71  C   UNL A   1      43.673  30.003  29.659  1.00  0.00     0.031 C 
ATOM     72  C   UNL A   1      44.991  28.502  31.292  1.00  0.00     0.037 A 
BRANCH  59  73
ATOM     73  C   UNL A   1      47.509  30.826  27.066  1.00  0.00     0.058 A 
ATOM     74  C   UNL A   1      48.728  31.531  27.085  1.00  0.00     0.135 A 
ATOM     75  C   UNL A   1      46.357  31.601  26.799  1.00  0.00     0.135 A 
ATOM     76  F   UNL A   1      49.882  30.895  27.345  1.00  0.00    -0.206 F 
ATOM     77  C   UNL A   1      48.790  32.915  26.918  1.00  0.00     0.059 A 
ATOM     78  C   UNL A   1      46.404  32.970  26.569  1.00  0.00     0.059 A 
ATOM     79  F   UNL A   1      45.121  31.091  26.851  1.00  0.00    -0.206 F 
ATOM     80  C   UNL A   1      47.619  33.625  26.673  1.00  0.00     0.060 A 
BRANCH  80  81
ATOM     81  S   UNL A   1      47.678  35.421  26.559  1.00  0.00     0.124 S 
ATOM     82  O   UNL A   1      48.362  35.607  25.286  1.00  0.00    -0.237 OA
ATOM     83  O   UNL A   1      46.262  35.772  26.584  1.00  0.00    -0.237 OA
ATOM     84  O   UNL A   1      48.435  35.806  27.746  1.00  0.00    -0.744 OA
ENDBRANCH  80  81
ENDBRANCH  59  73
BRANCH  60  85
ATOM     85  C   UNL A   1      39.501  28.401  29.030  1.00  0.00     0.058 A 
ATOM     86  C   UNL A   1      38.506  28.427  30.024  1.00  0.00     0.135 A 
ATOM     87  C   UNL A   1      39.188  29.068  27.828  1.00  0.00     0.135 A 
ATOM     88  F   UNL A   1      38.723  27.837  31.211  1.00  0.00    -0.206 F 
ATOM     89  C   UNL A   1      37.299  29.115  29.857  1.00  0.00     0.059 A 
ATOM     90  C   UNL A   1      37.988  29.749  27.633  1.00  0.00     0.059 A 
ATOM     91  F   UNL A   1      40.082  29.162  26.832  1.00  0.00    -0.206 F 
ATOM     92  C   UNL A   1      37.057  29.793  28.663  1.00  0.00     0.060 A 
BRANCH  92  93
ATOM     93  S   UNL A   1      35.587  30.835  28.506  1.00  0.00     0.124 S 
ATOM     94  O   UNL A   1      36.057  31.887  27.610  1.00  0.00    -0.237 OA
ATOM     95  O   UNL A   1      34.609  29.908  27.945  1.00  0.00    -0.237 OA
ATOM     96  O   UNL A   1      35.323  31.258  29.880  1.00  0.00    -0.744 OA
ENDBRANCH  92  93
ENDBRANCH  60  85
BRANCH  72  97
ATOM     97  C   UNL A   1      44.834  27.485  32.392  1.00  0.00     0.058 A 
ATOM     98  C   UNL A   1      44.701  27.797  33.757  1.00  0.00     0.135 A 
ATOM     99  C   UNL A   1      44.649  26.144  32.022  1.00  0.00     0.135 A 
ATOM    100  F   UNL A   1      44.758  29.066  34.183  1.00  0.00    -0.206 F 
ATOM    101  C   UNL A   1      44.437  26.814  34.713  1.00  0.00     0.059 A 
ATOM    102  C   UNL A   1      44.353  25.153  32.953  1.00  0.00     0.059 A 
ATOM    103  F   UNL A   1      44.702  25.791  30.727  1.00  0.00    -0.206 F 
ATOM    104  C   UNL A   1      44.261  25.494  34.300  1.00  0.00     0.060 A 
BRANCH 104 105
ATOM    105  S   UNL A   1      43.844  24.234  35.525  1.00  0.00     0.124 S 
ATOM    106  O   UNL A   1      45.067  24.156  36.315  1.00  0.00    -0.237 OA
ATOM    107  O   UNL A   1      42.688  24.818  36.201  1.00  0.00    -0.237 OA
ATOM    108  O   UNL A   1      43.548  23.054  34.715  1.00  0.00    -0.744 OA
ENDBRANCH 104 105
ENDBRANCH  72  97
ENDBRANCH  46  47
ENDBRANCH  39  41
ENDBRANCH  38  39
ENDBRANCH  37  38
ENDBRANCH  36  37
ENDBRANCH   1  36
TORSDOF 20
ENDMDL
MODEL 2
REMARK VINA RESULT:     -12.8      2.410      4.342
REMARK SMILES COc1ccc(-n2c(SCc3cn(-c4ccc(C(=O)OCCOC(=O)c5ccc(-c6c7nc(c(-c8c(F)cc(S(=O)(=O)[O-])cc8F)c8ccc([nH]8)c(-c8c(F)cc(S(=O)(=O)[O-])cc8F)c8nc(c(-c9c(F)cc(S(=O)(=O)[O-])cc9F)c9ccc6[nH]9)C=C8)C=C7)cc5)cc4)nn3)nc3ccccc3c2=O)cc1
REMARK SMILES IDX 20 1 18 2 19 3 17 4 14 5 15 6 93 7 16 8 92 9 13 10 11 11
REMARK SMILES IDX 12 12 95 13 94 14 10 15 9 16 8 17 7 18 103 19 96 20 102 21
REMARK SMILES IDX 104 22 97 23 101 24 98 25 100 26 99 27 6 28 3 29 4 30 106 31
REMARK SMILES IDX 5 32 105 33 2 34 1 35 21 36 22 37 23 38 24 39 25 40 26 41
REMARK SMILES IDX 27 42 91 43 28 44 90 45 29 46 30 47 31 48 84 49 32 50 89 51
REMARK SMILES IDX 83 52 85 53 33 54 88 55 82 56 81 57 34 59 68 60 47 61 67 62
REMARK SMILES IDX 48 63 51 64 66 65 86 66 49 67 50 68 65 70 87 71 52 72 35 73
REMARK SMILES IDX 36 74 45 75 37 76 38 77 44 78 46 79 39 80 40 81 41 82 42 83
REMARK SMILES IDX 43 84 69 85 70 86 79 87 71 88 72 89 78 90 80 91 73 92 74 93
REMARK SMILES IDX 75 94 76 95 77 96 53 97 54 98 63 99 55 100 56 101 62 102
REMARK SMILES IDX 64 103 57 104 58 105 59 106 60 107 61 108
REMARK H PARENT 85 58 51 69
REMARK Flexibility Score: inf
ROOT
ATOM      1  O   UNL A   1      42.477  20.924  27.013  1.00  0.00    -0.458 OA
ENDROOT
BRANCH   1   2
ATOM      2  C   UNL A   1      41.284  20.373  27.344  1.00  0.00     0.338 C 
ATOM      3  O   UNL A   1      41.097  19.494  28.174  1.00  0.00    -0.246 OA
BRANCH   2   4
ATOM      4  C   UNL A   1      40.179  21.074  26.643  1.00  0.00     0.060 A 
ATOM      5  C   UNL A   1      38.027  22.273  25.375  1.00  0.00     0.066 A 
ATOM      6  C   UNL A   1      38.273  20.916  25.156  1.00  0.00     0.029 A 
ATOM      7  C   UNL A   1      38.828  23.036  26.228  1.00  0.00     0.029 A 
ATOM      8  C   UNL A   1      39.337  20.312  25.818  1.00  0.00     0.018 A 
ATOM      9  C   UNL A   1      39.923  22.437  26.844  1.00  0.00     0.018 A 
BRANCH   5  10
ATOM     10  N   UNL A   1      37.068  22.917  24.590  1.00  0.00    -0.220 N 
ATOM     11  C   UNL A   1      35.347  24.152  24.120  1.00  0.00     0.093 A 
ATOM     12  C   UNL A   1      36.423  24.064  24.970  1.00  0.00     0.141 A 
ATOM     13  N   UNL A   1      35.407  23.116  23.226  1.00  0.00    -0.134 NA
ATOM     14  N   UNL A   1      36.423  22.334  23.564  1.00  0.00    -0.062 NA
BRANCH  11  15
ATOM     15  C   UNL A   1      34.178  25.049  24.109  1.00  0.00     0.138 C 
BRANCH  15  16
ATOM     16  S   UNL A   1      33.018  24.809  22.783  1.00  0.00    -0.081 SA
BRANCH  16  17
ATOM     17  C   UNL A   1      31.439  24.399  23.500  1.00  0.00     0.176 A 
ATOM     18  N   UNL A   1      31.078  25.126  24.624  1.00  0.00    -0.255 N 
ATOM     19  C   UNL A   1      31.112  24.477  25.853  1.00  0.00     0.266 A 
ATOM     20  N   UNL A   1      31.166  23.131  23.430  1.00  0.00    -0.223 NA
ATOM     21  C   UNL A   1      31.765  23.142  25.789  1.00  0.00     0.066 A 
ATOM     22  O   UNL A   1      30.709  24.912  26.926  1.00  0.00    -0.268 OA
ATOM     23  C   UNL A   1      31.686  22.470  24.559  1.00  0.00     0.079 A 
ATOM     24  C   UNL A   1      32.621  22.696  26.793  1.00  0.00     0.016 A 
ATOM     25  C   UNL A   1      32.414  21.299  24.361  1.00  0.00     0.029 A 
ATOM     26  C   UNL A   1      33.414  21.572  26.551  1.00  0.00     0.001 A 
ATOM     27  C   UNL A   1      33.298  20.866  25.348  1.00  0.00     0.002 A 
BRANCH  18  28
ATOM     28  C   UNL A   1      30.420  26.370  24.466  1.00  0.00     0.052 A 
ATOM     29  C   UNL A   1      29.533  28.760  23.357  1.00  0.00     0.119 A 
ATOM     30  C   UNL A   1      28.697  27.647  23.335  1.00  0.00     0.048 A 
ATOM     31  C   UNL A   1      30.719  28.731  24.089  1.00  0.00     0.048 A 
ATOM     32  C   UNL A   1      29.152  26.437  23.869  1.00  0.00     0.030 A 
ATOM     33  C   UNL A   1      31.152  27.539  24.671  1.00  0.00     0.030 A 
BRANCH  29  34
ATOM     34  O   UNL A   1      29.153  29.876  22.660  1.00  0.00    -0.497 OA
ATOM     35  C   UNL A   1      27.729  29.924  22.485  1.00  0.00     0.278 C 
ENDBRANCH  29  34
ENDBRANCH  18  28
ENDBRANCH  16  17
ENDBRANCH  15  16
ENDBRANCH  11  15
ENDBRANCH   5  10
ENDBRANCH   2   4
ENDBRANCH   1   2
BRANCH   1  36
ATOM     36  C   UNL A   1      43.194  20.262  25.963  1.00  0.00     0.275 C 
BRANCH  36  37
ATOM     37  C   UNL A   1      43.857  21.277  25.043  1.00  0.00     0.275 C 
BRANCH  37  38
ATOM     38  O   UNL A   1      43.001  22.392  24.785  1.00  0.00    -0.458 OA
BRANCH  38  39
ATOM     39  C   UNL A   1      43.623  23.593  24.806  1.00  0.00     0.338 C 
ATOM     40  O   UNL A   1      44.670  23.890  24.258  1.00  0.00    -0.246 OA
BRANCH  39  41
ATOM     41  C   UNL A   1      42.981  24.452  25.803  1.00  0.00     0.060 A 
ATOM     42  C   UNL A   1      42.107  25.443  25.347  1.00  0.00     0.016 A 
ATOM     43  C   UNL A   1      43.483  24.451  27.112  1.00  0.00     0.016 A 
ATOM     44  C   UNL A   1      41.847  26.520  26.169  1.00  0.00     0.010 A 
ATOM     45  C   UNL A   1      43.242  25.535  27.920  1.00  0.00     0.010 A 
ATOM     46  C   UNL A   1      42.479  26.585  27.417  1.00  0.00    -0.014 A 
BRANCH  46  47
ATOM     47  C   UNL A   1      42.245  27.744  28.250  1.00  0.00     0.031 A 
ATOM     48  C   UNL A   1      43.334  28.745  28.171  1.00  0.00     0.074 A 
ATOM     49  C   UNL A   1      41.077  27.953  28.886  1.00  0.00     0.049 A 
ATOM     50  N   UNL A   1      44.172  29.077  29.095  1.00  0.00    -0.248 NA
ATOM     51  C   UNL A   1      43.640  29.315  26.848  1.00  0.00     0.031 C 
ATOM     52  C   UNL A   1      39.830  27.193  28.763  1.00  0.00     0.029 A 
ATOM     53  N   UNL A   1      40.728  28.978  29.704  1.00  0.00    -0.354 N 
ATOM     54  C   UNL A   1      44.967  30.070  28.533  1.00  0.00     0.074 A 
ATOM     55  C   UNL A   1      44.740  30.019  27.112  1.00  0.00     0.031 C 
ATOM     56  C   UNL A   1      38.817  27.918  29.289  1.00  0.00     0.029 A 
ATOM     57  C   UNL A   1      39.360  29.125  29.891  1.00  0.00     0.049 A 
ATOM     58  H   UNL A   1      41.390  29.569  30.130  1.00  0.00     0.167 HD
ATOM     59  C   UNL A   1      45.554  31.027  29.299  1.00  0.00     0.037 A 
ATOM     60  C   UNL A   1      38.738  30.210  30.420  1.00  0.00     0.037 A 
ATOM     61  C   UNL A   1      45.550  30.662  30.692  1.00  0.00     0.049 A 
ATOM     62  C   UNL A   1      39.767  30.979  31.177  1.00  0.00     0.074 A 
ATOM     63  C   UNL A   1      46.071  29.607  31.417  1.00  0.00     0.029 A 
ATOM     64  N   UNL A   1      44.603  31.245  31.498  1.00  0.00    -0.354 N 
ATOM     65  N   UNL A   1      40.351  30.546  32.262  1.00  0.00    -0.248 NA
ATOM     66  C   UNL A   1      40.484  32.031  30.468  1.00  0.00     0.031 C 
ATOM     67  C   UNL A   1      45.092  29.326  32.414  1.00  0.00     0.029 A 
ATOM     68  C   UNL A   1      44.061  30.257  32.280  1.00  0.00     0.049 A 
ATOM     69  H   UNL A   1      44.357  32.198  31.512  1.00  0.00     0.167 HD
ATOM     70  C   UNL A   1      41.675  30.949  32.143  1.00  0.00     0.074 A 
ATOM     71  C   UNL A   1      41.675  31.934  31.064  1.00  0.00     0.031 C 
ATOM     72  C   UNL A   1      42.685  30.242  32.730  1.00  0.00     0.037 A 
BRANCH  59  73
ATOM     73  C   UNL A   1      45.788  32.445  28.840  1.00  0.00     0.058 A 
ATOM     74  C   UNL A   1      47.072  33.007  28.971  1.00  0.00     0.135 A 
ATOM     75  C   UNL A   1      44.749  33.354  28.537  1.00  0.00     0.135 A 
ATOM     76  F   UNL A   1      48.129  32.236  29.274  1.00  0.00    -0.206 F 
ATOM     77  C   UNL A   1      47.296  34.381  28.875  1.00  0.00     0.059 A 
ATOM     78  C   UNL A   1      44.961  34.716  28.376  1.00  0.00     0.059 A 
ATOM     79  F   UNL A   1      43.464  32.983  28.486  1.00  0.00    -0.206 F 
ATOM     80  C   UNL A   1      46.229  35.227  28.589  1.00  0.00     0.060 A 
BRANCH  80  81
ATOM     81  S   UNL A   1      46.492  37.008  28.565  1.00  0.00     0.124 S 
ATOM     82  O   UNL A   1      45.626  37.443  29.654  1.00  0.00    -0.237 OA
ATOM     83  O   UNL A   1      47.927  37.104  28.809  1.00  0.00    -0.237 OA
ATOM     84  O   UNL A   1      46.063  37.391  27.224  1.00  0.00    -0.744 OA
ENDBRANCH  80  81
ENDBRANCH  59  73
BRANCH  60  85
ATOM     85  C   UNL A   1      37.434  30.806  30.016  1.00  0.00     0.058 A 
ATOM     86  C   UNL A   1      36.626  31.488  30.944  1.00  0.00     0.135 A 
ATOM     87  C   UNL A   1      37.082  30.964  28.660  1.00  0.00     0.135 A 
ATOM     88  F   UNL A   1      36.897  31.414  32.256  1.00  0.00    -0.206 F 
ATOM     89  C   UNL A   1      35.568  32.316  30.549  1.00  0.00     0.059 A 
ATOM     90  C   UNL A   1      36.025  31.772  28.243  1.00  0.00     0.059 A 
ATOM     91  F   UNL A   1      37.815  30.411  27.682  1.00  0.00    -0.206 F 
ATOM     92  C   UNL A   1      35.288  32.469  29.192  1.00  0.00     0.060 A 
BRANCH  92  93
ATOM     93  S   UNL A   1      34.049  33.676  28.663  1.00  0.00     0.124 S 
ATOM     94  O   UNL A   1      33.196  32.872  27.794  1.00  0.00    -0.237 OA
ATOM     95  O   UNL A   1      33.459  34.088  29.933  1.00  0.00    -0.237 OA
ATOM     96  O   UNL A   1      34.840  34.701  27.987  1.00  0.00    -0.744 OA
ENDBRANCH  92  93
ENDBRANCH  60  85
BRANCH  72  97
ATOM     97  C   UNL A   1      42.329  29.206  33.765  1.00  0.00     0.058 A 
ATOM     98  C   UNL A   1      42.028  27.863  33.480  1.00  0.00     0.135 A 
ATOM     99  C   UNL A   1      42.459  29.560  35.116  1.00  0.00     0.135 A 
ATOM    100  F   UNL A   1      41.989  27.418  32.216  1.00  0.00    -0.206 F 
ATOM    101  C   UNL A   1      41.825  26.924  34.494  1.00  0.00     0.059 A 
ATOM    102  C   UNL A   1      42.294  28.636  36.143  1.00  0.00     0.059 A 
ATOM    103  F   UNL A   1      42.807  30.814  35.453  1.00  0.00    -0.206 F 
ATOM    104  C   UNL A   1      41.964  27.320  35.824  1.00  0.00     0.060 A 
BRANCH 104 105
ATOM    105  S   UNL A   1      41.778  26.092  37.134  1.00  0.00     0.124 S 
ATOM    106  O   UNL A   1      40.415  26.335  37.592  1.00  0.00    -0.237 OA
ATOM    107  O   UNL A   1      41.993  24.834  36.424  1.00  0.00    -0.237 OA
ATOM    108  O   UNL A   1      42.828  26.446  38.086  1.00  0.00    -0.744 OA
ENDBRANCH 104 105
ENDBRANCH  72  97
ENDBRANCH  46  47
ENDBRANCH  39  41
ENDBRANCH  38  39
ENDBRANCH  37  38
ENDBRANCH  36  37
ENDBRANCH   1  36
TORSDOF 20
ENDMDL
MODEL 3
REMARK VINA RESULT:     -12.5      2.904      9.319
REMARK SMILES COc1ccc(-n2c(SCc3cn(-c4ccc(C(=O)OCCOC(=O)c5ccc(-c6c7nc(c(-c8c(F)cc(S(=O)(=O)[O-])cc8F)c8ccc([nH]8)c(-c8c(F)cc(S(=O)(=O)[O-])cc8F)c8nc(c(-c9c(F)cc(S(=O)(=O)[O-])cc9F)c9ccc6[nH]9)C=C8)C=C7)cc5)cc4)nn3)nc3ccccc3c2=O)cc1
REMARK SMILES IDX 20 1 18 2 19 3 17 4 14 5 15 6 93 7 16 8 92 9 13 10 11 11
REMARK SMILES IDX 12 12 95 13 94 14 10 15 9 16 8 17 7 18 103 19 96 20 102 21
REMARK SMILES IDX 104 22 97 23 101 24 98 25 100 26 99 27 6 28 3 29 4 30 106 31
REMARK SMILES IDX 5 32 105 33 2 34 1 35 21 36 22 37 23 38 24 39 25 40 26 41
REMARK SMILES IDX 27 42 91 43 28 44 90 45 29 46 30 47 31 48 84 49 32 50 89 51
REMARK SMILES IDX 83 52 85 53 33 54 88 55 82 56 81 57 34 59 68 60 47 61 67 62
REMARK SMILES IDX 48 63 51 64 66 65 86 66 49 67 50 68 65 70 87 71 52 72 35 73
REMARK SMILES IDX 36 74 45 75 37 76 38 77 44 78 46 79 39 80 40 81 41 82 42 83
REMARK SMILES IDX 43 84 69 85 70 86 79 87 71 88 72 89 78 90 80 91 73 92 74 93
REMARK SMILES IDX 75 94 76 95 77 96 53 97 54 98 63 99 55 100 56 101 62 102
REMARK SMILES IDX 64 103 57 104 58 105 59 106 60 107 61 108
REMARK H PARENT 85 58 51 69
REMARK Flexibility Score: inf
ROOT
ATOM      1  O   UNL A   1      33.611  32.014  27.896  1.00  0.00    -0.458 OA
ENDROOT
BRANCH   1   2
ATOM      2  C   UNL A   1      34.228  30.820  27.726  1.00  0.00     0.338 C 
ATOM      3  O   UNL A   1      35.314  30.494  28.186  1.00  0.00    -0.246 OA
BRANCH   2   4
ATOM      4  C   UNL A   1      33.341  29.880  26.996  1.00  0.00     0.060 A 
ATOM      5  C   UNL A   1      31.670  28.049  25.759  1.00  0.00     0.066 A 
ATOM      6  C   UNL A   1      32.720  27.580  26.552  1.00  0.00     0.029 A 
ATOM      7  C   UNL A   1      31.433  29.414  25.586  1.00  0.00     0.029 A 
ATOM      8  C   UNL A   1      33.538  28.504  27.195  1.00  0.00     0.018 A 
ATOM      9  C   UNL A   1      32.289  30.332  26.189  1.00  0.00     0.018 A 
BRANCH   5  10
ATOM     10  N   UNL A   1      30.954  27.133  24.984  1.00  0.00    -0.220 N 
ATOM     11  C   UNL A   1      30.473  25.247  24.024  1.00  0.00     0.093 A 
ATOM     12  C   UNL A   1      31.001  25.777  25.176  1.00  0.00     0.141 A 
ATOM     13  N   UNL A   1      30.068  26.275  23.212  1.00  0.00    -0.134 NA
ATOM     14  N   UNL A   1      30.426  27.418  23.781  1.00  0.00    -0.062 NA
BRANCH  11  15
ATOM     15  C   UNL A   1      30.398  23.863  23.528  1.00  0.00     0.138 C 
BRANCH  15  16
ATOM     16  S   UNL A   1      31.112  22.615  24.574  1.00  0.00    -0.081 SA
BRANCH  16  17
ATOM     17  C   UNL A   1      32.496  21.898  23.710  1.00  0.00     0.176 A 
ATOM     18  N   UNL A   1      33.259  20.995  24.434  1.00  0.00    -0.255 N 
ATOM     19  C   UNL A   1      34.521  21.403  24.853  1.00  0.00     0.266 A 
ATOM     20  N   UNL A   1      33.072  22.732  22.898  1.00  0.00    -0.223 NA
ATOM     21  C   UNL A   1      34.761  22.856  24.646  1.00  0.00     0.066 A 
ATOM     22  O   UNL A   1      35.380  20.708  25.384  1.00  0.00    -0.268 OA
ATOM     23  C   UNL A   1      34.064  23.457  23.586  1.00  0.00     0.079 A 
ATOM     24  C   UNL A   1      35.428  23.630  25.592  1.00  0.00     0.016 A 
ATOM     25  C   UNL A   1      34.097  24.841  23.431  1.00  0.00     0.029 A 
ATOM     26  C   UNL A   1      35.380  25.021  25.478  1.00  0.00     0.001 A 
ATOM     27  C   UNL A   1      34.733  25.624  24.392  1.00  0.00     0.002 A 
BRANCH  18  28
ATOM     28  C   UNL A   1      32.876  19.632  24.470  1.00  0.00     0.052 A 
ATOM     29  C   UNL A   1      33.012  16.855  24.487  1.00  0.00     0.119 A 
ATOM     30  C   UNL A   1      32.870  17.538  25.692  1.00  0.00     0.048 A 
ATOM     31  C   UNL A   1      32.899  17.539  23.277  1.00  0.00     0.048 A 
ATOM     32  C   UNL A   1      32.828  18.935  25.687  1.00  0.00     0.030 A 
ATOM     33  C   UNL A   1      32.802  18.932  23.268  1.00  0.00     0.030 A 
BRANCH  29  34
ATOM     34  O   UNL A   1      33.248  15.508  24.523  1.00  0.00    -0.497 OA
ATOM     35  C   UNL A   1      32.422  14.858  25.501  1.00  0.00     0.278 C 
ENDBRANCH  29  34
ENDBRANCH  18  28
ENDBRANCH  16  17
ENDBRANCH  15  16
ENDBRANCH  11  15
ENDBRANCH   5  10
ENDBRANCH   2   4
ENDBRANCH   1   2
BRANCH   1  36
ATOM     36  C   UNL A   1      34.468  33.164  27.853  1.00  0.00     0.275 C 
BRANCH  36  37
ATOM     37  C   UNL A   1      34.230  34.054  29.064  1.00  0.00     0.275 C 
BRANCH  37  38
ATOM     38  O   UNL A   1      34.168  33.295  30.272  1.00  0.00    -0.458 OA
BRANCH  38  39
ATOM     39  C   UNL A   1      34.781  33.874  31.330  1.00  0.00     0.338 C 
ATOM     40  O   UNL A   1      34.536  34.963  31.819  1.00  0.00    -0.246 OA
BRANCH  39  41
ATOM     41  C   UNL A   1      35.978  33.103  31.675  1.00  0.00     0.060 A 
ATOM     42  C   UNL A   1      37.218  33.743  31.581  1.00  0.00     0.016 A 
ATOM     43  C   UNL A   1      35.870  31.710  31.784  1.00  0.00     0.016 A 
ATOM     44  C   UNL A   1      38.351  32.967  31.456  1.00  0.00     0.010 A 
ATOM     45  C   UNL A   1      36.996  30.939  31.636  1.00  0.00     0.010 A 
ATOM     46  C   UNL A   1      38.214  31.574  31.411  1.00  0.00    -0.014 A 
BRANCH  46  47
ATOM     47  C   UNL A   1      39.401  30.769  31.224  1.00  0.00     0.031 A 
ATOM     48  C   UNL A   1      40.147  30.534  32.482  1.00  0.00     0.074 A 
ATOM     49  C   UNL A   1      39.688  30.163  30.056  1.00  0.00     0.049 A 
ATOM     50  N   UNL A   1      41.311  30.985  32.808  1.00  0.00    -0.248 NA
ATOM     51  C   UNL A   1      39.433  29.861  33.580  1.00  0.00     0.031 C 
ATOM     52  C   UNL A   1      38.850  30.065  28.858  1.00  0.00     0.029 A 
ATOM     53  N   UNL A   1      40.763  29.400  29.737  1.00  0.00    -0.354 N 
ATOM     54  C   UNL A   1      41.571  30.459  34.068  1.00  0.00     0.074 A 
ATOM     55  C   UNL A   1      40.316  29.967  34.573  1.00  0.00     0.031 C 
ATOM     56  C   UNL A   1      39.345  29.101  28.050  1.00  0.00     0.029 A 
ATOM     57  C   UNL A   1      40.592  28.606  28.611  1.00  0.00     0.049 A 
ATOM     58  H   UNL A   1      41.596  29.407  30.262  1.00  0.00     0.167 HD
ATOM     59  C   UNL A   1      42.843  30.234  34.495  1.00  0.00     0.037 A 
ATOM     60  C   UNL A   1      41.382  27.565  28.240  1.00  0.00     0.037 A 
ATOM     61  C   UNL A   1      43.803  30.926  33.674  1.00  0.00     0.049 A 
ATOM     62  C   UNL A   1      42.680  27.724  28.956  1.00  0.00     0.074 A 
ATOM     63  C   UNL A   1      44.027  32.251  33.355  1.00  0.00     0.029 A 
ATOM     64  N   UNL A   1      44.477  30.190  32.730  1.00  0.00    -0.354 N 
ATOM     65  N   UNL A   1      43.525  28.694  28.730  1.00  0.00    -0.248 NA
ATOM     66  C   UNL A   1      42.827  27.066  30.247  1.00  0.00     0.031 C 
ATOM     67  C   UNL A   1      44.422  32.241  31.987  1.00  0.00     0.029 A 
ATOM     68  C   UNL A   1      44.473  30.911  31.563  1.00  0.00     0.049 A 
ATOM     69  H   UNL A   1      44.888  29.305  32.866  1.00  0.00     0.167 HD
ATOM     70  C   UNL A   1      44.010  29.046  29.982  1.00  0.00     0.074 A 
ATOM     71  C   UNL A   1      43.613  27.952  30.865  1.00  0.00     0.031 C 
ATOM     72  C   UNL A   1      44.435  30.317  30.244  1.00  0.00     0.037 A 
BRANCH  59  73
ATOM     73  C   UNL A   1      43.234  29.101  35.409  1.00  0.00     0.058 A 
ATOM     74  C   UNL A   1      43.905  29.389  36.614  1.00  0.00     0.135 A 
ATOM     75  C   UNL A   1      43.225  27.741  35.024  1.00  0.00     0.135 A 
ATOM     76  F   UNL A   1      43.988  30.651  37.065  1.00  0.00    -0.206 F 
ATOM     77  C   UNL A   1      44.573  28.408  37.346  1.00  0.00     0.059 A 
ATOM     78  C   UNL A   1      43.832  26.740  35.770  1.00  0.00     0.059 A 
ATOM     79  F   UNL A   1      42.718  27.331  33.855  1.00  0.00    -0.206 F 
ATOM     80  C   UNL A   1      44.540  27.088  36.906  1.00  0.00     0.060 A 
BRANCH  80  81
ATOM     81  S   UNL A   1      45.486  25.836  37.789  1.00  0.00     0.124 S 
ATOM     82  O   UNL A   1      46.817  26.428  37.793  1.00  0.00    -0.237 OA
ATOM     83  O   UNL A   1      44.800  25.791  39.076  1.00  0.00    -0.237 OA
ATOM     84  O   UNL A   1      45.324  24.647  36.958  1.00  0.00    -0.744 OA
ENDBRANCH  80  81
ENDBRANCH  59  73
BRANCH  60  85
ATOM     85  C   UNL A   1      40.966  26.278  27.616  1.00  0.00     0.058 A 
ATOM     86  C   UNL A   1      41.725  25.689  26.588  1.00  0.00     0.135 A 
ATOM     87  C   UNL A   1      39.977  25.459  28.197  1.00  0.00     0.135 A 
ATOM     88  F   UNL A   1      42.704  26.385  25.988  1.00  0.00    -0.206 F 
ATOM     89  C   UNL A   1      41.550  24.356  26.198  1.00  0.00     0.059 A 
ATOM     90  C   UNL A   1      39.775  24.133  27.817  1.00  0.00     0.059 A 
ATOM     91  F   UNL A   1      39.233  25.891  29.226  1.00  0.00    -0.206 F 
ATOM     92  C   UNL A   1      40.584  23.578  26.835  1.00  0.00     0.060 A 
BRANCH  92  93
ATOM     93  S   UNL A   1      40.475  21.809  26.470  1.00  0.00     0.124 S 
ATOM     94  O   UNL A   1      40.552  21.221  27.803  1.00  0.00    -0.237 OA
ATOM     95  O   UNL A   1      39.181  21.711  25.803  1.00  0.00    -0.237 OA
ATOM     96  O   UNL A   1      41.634  21.568  25.613  1.00  0.00    -0.744 OA
ENDBRANCH  92  93
ENDBRANCH  60  85
BRANCH  72  97
ATOM     97  C   UNL A   1      44.669  31.250  29.083  1.00  0.00     0.058 A 
ATOM     98  C   UNL A   1      43.745  32.208  28.629  1.00  0.00     0.135 A 
ATOM     99  C   UNL A   1      45.950  31.276  28.513  1.00  0.00     0.135 A 
ATOM    100  F   UNL A   1      42.535  32.320  29.193  1.00  0.00    -0.206 F 
ATOM    101  C   UNL A   1      44.070  33.124  27.626  1.00  0.00     0.059 A 
ATOM    102  C   UNL A   1      46.307  32.200  27.535  1.00  0.00     0.059 A 
ATOM    103  F   UNL A   1      46.897  30.427  28.946  1.00  0.00    -0.206 F 
ATOM    104  C   UNL A   1      45.356  33.114  27.087  1.00  0.00     0.060 A 
BRANCH 104 105
ATOM    105  S   UNL A   1      45.801  34.346  25.845  1.00  0.00     0.124 S 
ATOM    106  O   UNL A   1      47.230  34.110  25.676  1.00  0.00    -0.237 OA
ATOM    107  O   UNL A   1      44.959  33.973  24.710  1.00  0.00    -0.237 OA
ATOM    108  O   UNL A   1      45.448  35.614  26.479  1.00  0.00    -0.744 OA
ENDBRANCH 104 105
ENDBRANCH  72  97
ENDBRANCH  46  47
ENDBRANCH  39  41
ENDBRANCH  38  39
ENDBRANCH  37  38
ENDBRANCH  36  37
ENDBRANCH   1  36
TORSDOF 20
ENDMDL
