MODEL 1
REMARK VINA RESULT:     -11.4      0.000      0.000
REMARK SMILES C/C(=N\NC(N)=S)c1nnn(-c2ccc(C(=O)OCCOC(=O)c3ccc(-c4c5nc(c(-c6c(F)cc(S(=O)(=O)[O-])cc6F)c6ccc([nH]6)c(-c6c(F)cc(S(=O)(=O)[O-])cc6F)c6nc(c(-c7c(F)cc(S(=O)(=O)[O-])cc7F)c7ccc4[nH]7)C=C6)C=C5)cc3)cc2)c1C
REMARK SMILES IDX 19 1 18 2 16 3 17 4 15 5 12 6 13 7 91 8 14 9 90 10 11 11
REMARK SMILES IDX 8 12 9 13 92 14 10 15 93 16 2 17 1 18 3 19 4 20 5 22 7 23
REMARK SMILES IDX 6 24 20 27 21 28 22 29 23 30 24 31 25 32 89 33 26 34 88 35
REMARK SMILES IDX 27 36 28 37 29 38 82 39 30 40 87 41 81 42 83 43 31 44 86 45
REMARK SMILES IDX 80 46 79 47 32 49 66 50 45 51 65 52 46 53 49 54 64 55 84 56
REMARK SMILES IDX 47 57 48 58 63 60 85 61 50 62 33 63 34 64 43 65 35 66 36 67
REMARK SMILES IDX 42 68 44 69 37 70 38 71 39 72 40 73 41 74 67 75 68 76 77 77
REMARK SMILES IDX 69 78 70 79 76 80 78 81 71 82 72 83 73 84 74 85 75 86 51 87
REMARK SMILES IDX 52 88 61 89 53 90 54 91 60 92 62 93 55 94 56 95 57 96 58 97
REMARK SMILES IDX 59 98
REMARK H PARENT 4 21 6 25 6 26 83 48 49 59
REMARK Flexibility Score: inf
ROOT
ATOM      1  C   UNL A   1      42.723  18.525  26.397  1.00  0.00     0.275 C 
ENDROOT
BRANCH   1   2
ATOM      2  O   UNL A   1      41.611  19.226  25.818  1.00  0.00    -0.458 OA
BRANCH   2   3
ATOM      3  C   UNL A   1      41.298  20.429  26.379  1.00  0.00     0.338 C 
ATOM      4  O   UNL A   1      42.024  21.127  27.046  1.00  0.00    -0.246 OA
BRANCH   3   5
ATOM      5  C   UNL A   1      39.903  20.802  26.009  1.00  0.00     0.060 A 
ATOM      6  C   UNL A   1      37.443  21.573  24.991  1.00  0.00     0.067 A 
ATOM      7  C   UNL A   1      37.852  20.248  24.825  1.00  0.00     0.029 A 
ATOM      8  C   UNL A   1      38.173  22.462  25.788  1.00  0.00     0.029 A 
ATOM      9  C   UNL A   1      39.105  19.872  25.320  1.00  0.00     0.018 A 
ATOM     10  C   UNL A   1      39.400  22.073  26.304  1.00  0.00     0.018 A 
BRANCH   6  11
ATOM     11  N   UNL A   1      36.419  22.096  24.182  1.00  0.00    -0.217 N 
ATOM     12  C   UNL A   1      34.480  22.704  23.404  1.00  0.00     0.132 A 
ATOM     13  N   UNL A   1      35.463  23.290  22.651  1.00  0.00    -0.128 NA
ATOM     14  C   UNL A   1      35.057  21.974  24.423  1.00  0.00     0.071 A 
ATOM     15  N   UNL A   1      36.636  22.991  23.196  1.00  0.00    -0.061 NA
ATOM     16  C   UNL A   1      34.470  21.337  25.626  1.00  0.00     0.069 C 
BRANCH  12  17
ATOM     17  C   UNL A   1      33.074  23.028  23.240  1.00  0.00     0.087 C 
ATOM     18  C   UNL A   1      32.186  21.911  22.758  1.00  0.00     0.071 C 
ATOM     19  N   UNL A   1      32.739  24.243  23.558  1.00  0.00    -0.176 NA
BRANCH  19  20
ATOM     20  N   UNL A   1      31.445  24.668  23.531  1.00  0.00    -0.254 N 
ATOM     21  H   UNL A   1      30.946  24.466  22.706  1.00  0.00     0.193 HD
BRANCH  20  22
ATOM     22  C   UNL A   1      30.739  25.344  24.506  1.00  0.00     0.184 C 
ATOM     23  S   UNL A   1      31.257  25.975  25.954  1.00  0.00    -0.040 S 
BRANCH  22  24
ATOM     24  N   UNL A   1      29.418  25.486  24.175  1.00  0.00    -0.375 N 
ATOM     25  H   UNL A   1      28.941  26.319  24.397  1.00  0.00     0.159 HD
ATOM     26  H   UNL A   1      28.944  24.756  23.714  1.00  0.00     0.159 HD
ENDBRANCH  22  24
ENDBRANCH  20  22
ENDBRANCH  19  20
ENDBRANCH  12  17
ENDBRANCH   6  11
ENDBRANCH   3   5
ENDBRANCH   2   3
ENDBRANCH   1   2
BRANCH   1  27
ATOM     27  C   UNL A   1      43.881  18.437  25.414  1.00  0.00     0.275 C 
BRANCH  27  28
ATOM     28  O   UNL A   1      44.639  19.642  25.417  1.00  0.00    -0.458 OA
BRANCH  28  29
ATOM     29  C   UNL A   1      44.554  20.375  24.284  1.00  0.00     0.338 C 
ATOM     30  O   UNL A   1      44.488  19.958  23.139  1.00  0.00    -0.246 OA
BRANCH  29  31
ATOM     31  C   UNL A   1      44.767  21.785  24.611  1.00  0.00     0.060 A 
ATOM     32  C   UNL A   1      45.741  22.074  25.572  1.00  0.00     0.016 A 
ATOM     33  C   UNL A   1      43.807  22.727  24.214  1.00  0.00     0.016 A 
ATOM     34  C   UNL A   1      45.620  23.244  26.285  1.00  0.00     0.010 A 
ATOM     35  C   UNL A   1      43.683  23.887  24.934  1.00  0.00     0.010 A 
ATOM     36  C   UNL A   1      44.536  24.086  26.016  1.00  0.00    -0.014 A 
BRANCH  36  37
ATOM     37  C   UNL A   1      44.342  25.236  26.869  1.00  0.00     0.031 A 
ATOM     38  C   UNL A   1      45.400  26.260  26.712  1.00  0.00     0.074 A 
ATOM     39  C   UNL A   1      43.233  25.385  27.619  1.00  0.00     0.049 A 
ATOM     40  N   UNL A   1      46.277  26.639  27.578  1.00  0.00    -0.248 NA
ATOM     41  C   UNL A   1      45.620  26.795  25.357  1.00  0.00     0.031 C 
ATOM     42  C   UNL A   1      42.007  24.582  27.606  1.00  0.00     0.029 A 
ATOM     43  N   UNL A   1      42.932  26.379  28.489  1.00  0.00    -0.354 N 
ATOM     44  C   UNL A   1      47.026  27.624  26.941  1.00  0.00     0.074 A 
ATOM     45  C   UNL A   1      46.712  27.536  25.540  1.00  0.00     0.031 C 
ATOM     46  C   UNL A   1      41.024  25.263  28.240  1.00  0.00     0.029 A 
ATOM     47  C   UNL A   1      41.586  26.474  28.813  1.00  0.00     0.049 A 
ATOM     48  H   UNL A   1      43.613  26.984  28.862  1.00  0.00     0.167 HD
ATOM     49  C   UNL A   1      47.664  28.597  27.645  1.00  0.00     0.037 A 
ATOM     50  C   UNL A   1      40.991  27.533  29.419  1.00  0.00     0.037 A 
ATOM     51  C   UNL A   1      47.813  28.229  29.029  1.00  0.00     0.049 A 
ATOM     52  C   UNL A   1      42.076  28.314  30.082  1.00  0.00     0.074 A 
ATOM     53  C   UNL A   1      48.450  27.192  29.685  1.00  0.00     0.029 A 
ATOM     54  N   UNL A   1      46.925  28.760  29.935  1.00  0.00    -0.354 N 
ATOM     55  N   UNL A   1      42.789  27.866  31.083  1.00  0.00    -0.248 NA
ATOM     56  C   UNL A   1      42.688  29.395  29.321  1.00  0.00     0.031 C 
ATOM     57  C   UNL A   1      47.581  26.848  30.758  1.00  0.00     0.029 A 
ATOM     58  C   UNL A   1      46.500  27.731  30.737  1.00  0.00     0.049 A 
ATOM     59  H   UNL A   1      46.647  29.702  29.996  1.00  0.00     0.167 HD
ATOM     60  C   UNL A   1      44.081  28.312  30.835  1.00  0.00     0.074 A 
ATOM     61  C   UNL A   1      43.943  29.306  29.772  1.00  0.00     0.031 C 
ATOM     62  C   UNL A   1      45.172  27.640  31.306  1.00  0.00     0.037 A 
BRANCH  49  63
ATOM     63  C   UNL A   1      47.823  30.014  27.156  1.00  0.00     0.058 A 
ATOM     64  C   UNL A   1      49.091  30.624  27.208  1.00  0.00     0.135 A 
ATOM     65  C   UNL A   1      46.736  30.880  26.902  1.00  0.00     0.135 A 
ATOM     66  F   UNL A   1      50.191  29.896  27.455  1.00  0.00    -0.206 F 
ATOM     67  C   UNL A   1      49.258  32.004  27.085  1.00  0.00     0.059 A 
ATOM     68  C   UNL A   1      46.886  32.248  26.718  1.00  0.00     0.059 A 
ATOM     69  F   UNL A   1      45.464  30.465  26.919  1.00  0.00    -0.206 F 
ATOM     70  C   UNL A   1      48.144  32.808  26.857  1.00  0.00     0.060 A 
BRANCH  70  71
ATOM     71  S   UNL A   1      48.335  34.597  26.815  1.00  0.00     0.124 S 
ATOM     72  O   UNL A   1      48.076  34.948  28.207  1.00  0.00    -0.237 OA
ATOM     73  O   UNL A   1      49.714  34.743  26.362  1.00  0.00    -0.237 OA
ATOM     74  O   UNL A   1      47.318  35.020  25.856  1.00  0.00    -0.744 OA
ENDBRANCH  70  71
ENDBRANCH  49  63
BRANCH  50  75
ATOM     75  C   UNL A   1      39.653  28.111  29.111  1.00  0.00     0.058 A 
ATOM     76  C   UNL A   1      38.653  28.203  30.094  1.00  0.00     0.135 A 
ATOM     77  C   UNL A   1      39.418  28.832  27.922  1.00  0.00     0.135 A 
ATOM     78  F   UNL A   1      38.804  27.572  31.269  1.00  0.00    -0.206 F 
ATOM     79  C   UNL A   1      37.509  28.995  29.927  1.00  0.00     0.059 A 
ATOM     80  C   UNL A   1      38.282  29.617  27.727  1.00  0.00     0.059 A 
ATOM     81  F   UNL A   1      40.331  28.871  26.940  1.00  0.00    -0.206 F 
ATOM     82  C   UNL A   1      37.341  29.714  28.743  1.00  0.00     0.060 A 
BRANCH  82  83
ATOM     83  S   UNL A   1      35.955  30.866  28.585  1.00  0.00     0.124 S 
ATOM     84  O   UNL A   1      36.583  32.003  27.920  1.00  0.00    -0.237 OA
ATOM     85  O   UNL A   1      35.008  30.101  27.782  1.00  0.00    -0.237 OA
ATOM     86  O   UNL A   1      35.549  31.100  29.968  1.00  0.00    -0.744 OA
ENDBRANCH  82  83
ENDBRANCH  50  75
BRANCH  62  87
ATOM     87  C   UNL A   1      44.968  26.548  32.325  1.00  0.00     0.058 A 
ATOM     88  C   UNL A   1      44.642  25.218  32.004  1.00  0.00     0.135 A 
ATOM     89  C   UNL A   1      45.335  26.816  33.652  1.00  0.00     0.135 A 
ATOM     90  F   UNL A   1      44.371  24.860  30.741  1.00  0.00    -0.206 F 
ATOM     91  C   UNL A   1      44.669  24.203  32.964  1.00  0.00     0.059 A 
ATOM     92  C   UNL A   1      45.397  25.816  34.618  1.00  0.00     0.059 A 
ATOM     93  F   UNL A   1      45.713  28.055  34.005  1.00  0.00    -0.206 F 
ATOM     94  C   UNL A   1      45.060  24.510  34.268  1.00  0.00     0.060 A 
BRANCH  94  95
ATOM     95  S   UNL A   1      45.218  23.180  35.481  1.00  0.00     0.124 S 
ATOM     96  O   UNL A   1      44.464  22.101  34.853  1.00  0.00    -0.237 OA
ATOM     97  O   UNL A   1      46.664  22.985  35.552  1.00  0.00    -0.237 OA
ATOM     98  O   UNL A   1      44.616  23.744  36.686  1.00  0.00    -0.744 OA
ENDBRANCH  94  95
ENDBRANCH  62  87
ENDBRANCH  36  37
ENDBRANCH  29  31
ENDBRANCH  28  29
ENDBRANCH  27  28
ENDBRANCH   1  27
TORSDOF 19
ENDMDL
MODEL 2
REMARK VINA RESULT:     -11.3      3.332      4.963
REMARK SMILES C/C(=N\NC(N)=S)c1nnn(-c2ccc(C(=O)OCCOC(=O)c3ccc(-c4c5nc(c(-c6c(F)cc(S(=O)(=O)[O-])cc6F)c6ccc([nH]6)c(-c6c(F)cc(S(=O)(=O)[O-])cc6F)c6nc(c(-c7c(F)cc(S(=O)(=O)[O-])cc7F)c7ccc4[nH]7)C=C6)C=C5)cc3)cc2)c1C
REMARK SMILES IDX 19 1 18 2 16 3 17 4 15 5 12 6 13 7 91 8 14 9 90 10 11 11
REMARK SMILES IDX 8 12 9 13 92 14 10 15 93 16 2 17 1 18 3 19 4 20 5 22 7 23
REMARK SMILES IDX 6 24 20 27 21 28 22 29 23 30 24 31 25 32 89 33 26 34 88 35
REMARK SMILES IDX 27 36 28 37 29 38 82 39 30 40 87 41 81 42 83 43 31 44 86 45
REMARK SMILES IDX 80 46 79 47 32 49 66 50 45 51 65 52 46 53 49 54 64 55 84 56
REMARK SMILES IDX 47 57 48 58 63 60 85 61 50 62 33 63 34 64 43 65 35 66 36 67
REMARK SMILES IDX 42 68 44 69 37 70 38 71 39 72 40 73 41 74 67 75 68 76 77 77
REMARK SMILES IDX 69 78 70 79 76 80 78 81 71 82 72 83 73 84 74 85 75 86 51 87
REMARK SMILES IDX 52 88 61 89 53 90 54 91 60 92 62 93 55 94 56 95 57 96 58 97
REMARK SMILES IDX 59 98
REMARK H PARENT 4 21 6 25 6 26 83 48 49 59
REMARK Flexibility Score: inf
ROOT
ATOM      1  C   UNL A   1      36.704  21.250  25.701  1.00  0.00     0.275 C 
ENDROOT
BRANCH   1   2
ATOM      2  O   UNL A   1      36.042  20.740  24.534  1.00  0.00    -0.458 OA
BRANCH   2   3
ATOM      3  C   UNL A   1      34.834  20.140  24.738  1.00  0.00     0.338 C 
ATOM      4  O   UNL A   1      34.595  18.957  24.678  1.00  0.00    -0.246 OA
BRANCH   3   5
ATOM      5  C   UNL A   1      33.822  21.171  25.104  1.00  0.00     0.060 A 
ATOM      6  C   UNL A   1      32.165  23.329  25.632  1.00  0.00     0.067 A 
ATOM      7  C   UNL A   1      32.054  22.685  24.398  1.00  0.00     0.029 A 
ATOM      8  C   UNL A   1      32.976  22.813  26.649  1.00  0.00     0.029 A 
ATOM      9  C   UNL A   1      32.909  21.611  24.129  1.00  0.00     0.018 A 
ATOM     10  C   UNL A   1      33.799  21.728  26.386  1.00  0.00     0.018 A 
BRANCH   6  11
ATOM     11  N   UNL A   1      31.644  24.626  25.794  1.00  0.00    -0.217 N 
ATOM     12  C   UNL A   1      31.263  26.759  25.603  1.00  0.00     0.132 A 
ATOM     13  N   UNL A   1      30.249  26.190  26.328  1.00  0.00    -0.128 NA
ATOM     14  C   UNL A   1      32.145  25.777  25.203  1.00  0.00     0.071 A 
ATOM     15  N   UNL A   1      30.442  24.877  26.352  1.00  0.00    -0.061 NA
ATOM     16  C   UNL A   1      33.270  25.805  24.237  1.00  0.00     0.069 C 
BRANCH  12  17
ATOM     17  C   UNL A   1      31.230  28.144  25.169  1.00  0.00     0.087 C 
ATOM     18  C   UNL A   1      32.213  29.073  25.832  1.00  0.00     0.071 C 
ATOM     19  N   UNL A   1      30.371  28.416  24.232  1.00  0.00    -0.176 NA
BRANCH  19  20
ATOM     20  N   UNL A   1      30.282  29.654  23.669  1.00  0.00    -0.254 N 
ATOM     21  H   UNL A   1      30.496  30.410  24.263  1.00  0.00     0.193 HD
BRANCH  20  22
ATOM     22  C   UNL A   1      29.931  29.990  22.377  1.00  0.00     0.184 C 
ATOM     23  S   UNL A   1      28.448  30.394  21.745  1.00  0.00    -0.040 S 
BRANCH  22  24
ATOM     24  N   UNL A   1      31.009  29.971  21.533  1.00  0.00    -0.375 N 
ATOM     25  H   UNL A   1      30.894  30.198  20.582  1.00  0.00     0.159 HD
ATOM     26  H   UNL A   1      31.900  29.732  21.877  1.00  0.00     0.159 HD
ENDBRANCH  22  24
ENDBRANCH  20  22
ENDBRANCH  19  20
ENDBRANCH  12  17
ENDBRANCH   6  11
ENDBRANCH   3   5
ENDBRANCH   2   3
ENDBRANCH   1   2
BRANCH   1  27
ATOM     27  C   UNL A   1      38.085  21.782  25.353  1.00  0.00     0.275 C 
BRANCH  27  28
ATOM     28  O   UNL A   1      38.453  22.844  26.229  1.00  0.00    -0.458 OA
BRANCH  28  29
ATOM     29  C   UNL A   1      39.654  22.698  26.833  1.00  0.00     0.338 C 
ATOM     30  O   UNL A   1      40.111  21.680  27.330  1.00  0.00    -0.246 OA
BRANCH  29  31
ATOM     31  C   UNL A   1      40.267  24.016  27.002  1.00  0.00     0.060 A 
ATOM     32  C   UNL A   1      41.400  24.088  27.818  1.00  0.00     0.016 A 
ATOM     33  C   UNL A   1      39.541  25.155  26.629  1.00  0.00     0.016 A 
ATOM     34  C   UNL A   1      41.682  25.288  28.429  1.00  0.00     0.010 A 
ATOM     35  C   UNL A   1      39.817  26.347  27.248  1.00  0.00     0.010 A 
ATOM     36  C   UNL A   1      40.828  26.373  28.204  1.00  0.00    -0.014 A 
BRANCH  36  37
ATOM     37  C   UNL A   1      41.052  27.582  28.964  1.00  0.00     0.031 A 
ATOM     38  C   UNL A   1      42.175  28.394  28.442  1.00  0.00     0.074 A 
ATOM     39  C   UNL A   1      40.224  27.962  29.956  1.00  0.00     0.049 A 
ATOM     40  N   UNL A   1      43.301  28.658  29.012  1.00  0.00    -0.248 NA
ATOM     41  C   UNL A   1      42.101  28.812  27.031  1.00  0.00     0.031 C 
ATOM     42  C   UNL A   1      38.930  27.387  30.336  1.00  0.00     0.029 A 
ATOM     43  N   UNL A   1      40.327  29.037  30.774  1.00  0.00    -0.354 N 
ATOM     44  C   UNL A   1      43.994  29.462  28.112  1.00  0.00     0.074 A 
ATOM     45  C   UNL A   1      43.303  29.358  26.855  1.00  0.00     0.031 C 
ATOM     46  C   UNL A   1      38.273  28.262  31.133  1.00  0.00     0.029 A 
ATOM     47  C   UNL A   1      39.150  29.384  31.422  1.00  0.00     0.049 A 
ATOM     48  H   UNL A   1      41.169  29.532  30.899  1.00  0.00     0.167 HD
ATOM     49  C   UNL A   1      44.942  30.342  28.531  1.00  0.00     0.037 A 
ATOM     50  C   UNL A   1      38.914  30.561  32.056  1.00  0.00     0.037 A 
ATOM     51  C   UNL A   1      45.399  30.027  29.858  1.00  0.00     0.049 A 
ATOM     52  C   UNL A   1      40.245  31.172  32.339  1.00  0.00     0.074 A 
ATOM     53  C   UNL A   1      46.020  28.929  30.425  1.00  0.00     0.029 A 
ATOM     54  N   UNL A   1      44.883  30.751  30.906  1.00  0.00    -0.354 N 
ATOM     55  N   UNL A   1      41.122  30.659  33.161  1.00  0.00    -0.248 NA
ATOM     56  C   UNL A   1      40.790  32.088  31.345  1.00  0.00     0.031 C 
ATOM     57  C   UNL A   1      45.430  28.799  31.715  1.00  0.00     0.029 A 
ATOM     58  C   UNL A   1      44.535  29.856  31.887  1.00  0.00     0.049 A 
ATOM     59  H   UNL A   1      44.781  31.729  30.946  1.00  0.00     0.167 HD
ATOM     60  C   UNL A   1      42.353  30.857  32.547  1.00  0.00     0.074 A 
ATOM     61  C   UNL A   1      42.089  31.803  31.465  1.00  0.00     0.031 C 
ATOM     62  C   UNL A   1      43.412  30.029  32.784  1.00  0.00     0.037 A 
BRANCH  49  63
ATOM     63  C   UNL A   1      45.181  31.682  27.883  1.00  0.00     0.058 A 
ATOM     64  C   UNL A   1      46.413  31.931  27.247  1.00  0.00     0.135 A 
ATOM     65  C   UNL A   1      44.365  32.815  28.102  1.00  0.00     0.135 A 
ATOM     66  F   UNL A   1      47.271  30.929  27.001  1.00  0.00    -0.206 F 
ATOM     67  C   UNL A   1      46.831  33.221  26.917  1.00  0.00     0.059 A 
ATOM     68  C   UNL A   1      44.736  34.099  27.728  1.00  0.00     0.059 A 
ATOM     69  F   UNL A   1      43.211  32.752  28.779  1.00  0.00    -0.206 F 
ATOM     70  C   UNL A   1      45.990  34.299  27.178  1.00  0.00     0.060 A 
BRANCH  70  71
ATOM     71  S   UNL A   1      46.570  35.973  26.863  1.00  0.00     0.124 S 
ATOM     72  O   UNL A   1      45.324  36.652  26.526  1.00  0.00    -0.237 OA
ATOM     73  O   UNL A   1      47.170  36.332  28.144  1.00  0.00    -0.237 OA
ATOM     74  O   UNL A   1      47.514  35.800  25.762  1.00  0.00    -0.744 OA
ENDBRANCH  70  71
ENDBRANCH  49  63
BRANCH  50  75
ATOM     75  C   UNL A   1      37.649  31.348  32.048  1.00  0.00     0.058 A 
ATOM     76  C   UNL A   1      37.026  31.742  33.245  1.00  0.00     0.135 A 
ATOM     77  C   UNL A   1      37.170  31.963  30.872  1.00  0.00     0.135 A 
ATOM     78  F   UNL A   1      37.434  31.230  34.416  1.00  0.00    -0.206 F 
ATOM     79  C   UNL A   1      36.019  32.716  33.279  1.00  0.00     0.059 A 
ATOM     80  C   UNL A   1      36.162  32.926  30.879  1.00  0.00     0.059 A 
ATOM     81  F   UNL A   1      37.732  31.714  29.679  1.00  0.00    -0.206 F 
ATOM     82  C   UNL A   1      35.606  33.316  32.090  1.00  0.00     0.060 A 
BRANCH  82  83
ATOM     83  S   UNL A   1      34.429  34.689  32.142  1.00  0.00     0.124 S 
ATOM     84  O   UNL A   1      33.290  34.084  32.824  1.00  0.00    -0.237 OA
ATOM     85  O   UNL A   1      35.164  35.697  32.897  1.00  0.00    -0.237 OA
ATOM     86  O   UNL A   1      34.213  35.005  30.732  1.00  0.00    -0.744 OA
ENDBRANCH  82  83
ENDBRANCH  50  75
BRANCH  62  87
ATOM     87  C   UNL A   1      43.324  29.045  33.922  1.00  0.00     0.058 A 
ATOM     88  C   UNL A   1      43.560  29.371  35.270  1.00  0.00     0.135 A 
ATOM     89  C   UNL A   1      42.764  27.786  33.656  1.00  0.00     0.135 A 
ATOM     90  F   UNL A   1      44.005  30.587  35.617  1.00  0.00    -0.206 F 
ATOM     91  C   UNL A   1      43.263  28.480  36.304  1.00  0.00     0.059 A 
ATOM     92  C   UNL A   1      42.434  26.894  34.671  1.00  0.00     0.059 A 
ATOM     93  F   UNL A   1      42.462  27.441  32.393  1.00  0.00    -0.206 F 
ATOM     94  C   UNL A   1      42.689  27.246  35.995  1.00  0.00     0.060 A 
BRANCH  94  95
ATOM     95  S   UNL A   1      42.187  26.143  37.336  1.00  0.00     0.124 S 
ATOM     96  O   UNL A   1      40.819  26.579  37.596  1.00  0.00    -0.237 OA
ATOM     97  O   UNL A   1      42.327  24.821  36.731  1.00  0.00    -0.237 OA
ATOM     98  O   UNL A   1      43.148  26.436  38.396  1.00  0.00    -0.744 OA
ENDBRANCH  94  95
ENDBRANCH  62  87
ENDBRANCH  36  37
ENDBRANCH  29  31
ENDBRANCH  28  29
ENDBRANCH  27  28
ENDBRANCH   1  27
TORSDOF 19
ENDMDL
MODEL 3
REMARK VINA RESULT:     -11.3      3.121      4.224
REMARK SMILES C/C(=N\NC(N)=S)c1nnn(-c2ccc(C(=O)OCCOC(=O)c3ccc(-c4c5nc(c(-c6c(F)cc(S(=O)(=O)[O-])cc6F)c6ccc([nH]6)c(-c6c(F)cc(S(=O)(=O)[O-])cc6F)c6nc(c(-c7c(F)cc(S(=O)(=O)[O-])cc7F)c7ccc4[nH]7)C=C6)C=C5)cc3)cc2)c1C
REMARK SMILES IDX 19 1 18 2 16 3 17 4 15 5 12 6 13 7 91 8 14 9 90 10 11 11
REMARK SMILES IDX 8 12 9 13 92 14 10 15 93 16 2 17 1 18 3 19 4 20 5 22 7 23
REMARK SMILES IDX 6 24 20 27 21 28 22 29 23 30 24 31 25 32 89 33 26 34 88 35
REMARK SMILES IDX 27 36 28 37 29 38 82 39 30 40 87 41 81 42 83 43 31 44 86 45
REMARK SMILES IDX 80 46 79 47 32 49 66 50 45 51 65 52 46 53 49 54 64 55 84 56
REMARK SMILES IDX 47 57 48 58 63 60 85 61 50 62 33 63 34 64 43 65 35 66 36 67
REMARK SMILES IDX 42 68 44 69 37 70 38 71 39 72 40 73 41 74 67 75 68 76 77 77
REMARK SMILES IDX 69 78 70 79 76 80 78 81 71 82 72 83 73 84 74 85 75 86 51 87
REMARK SMILES IDX 52 88 61 89 53 90 54 91 60 92 62 93 55 94 56 95 57 96 58 97
REMARK SMILES IDX 59 98
REMARK H PARENT 4 21 6 25 6 26 83 48 49 59
REMARK Flexibility Score: inf
ROOT
ATOM      1  C   UNL A   1      39.650  21.486  26.369  1.00  0.00     0.275 C 
ENDROOT
BRANCH   1   2
ATOM      2  O   UNL A   1      38.317  21.839  25.969  1.00  0.00    -0.458 OA
BRANCH   2   3
ATOM      3  C   UNL A   1      37.680  20.956  25.148  1.00  0.00     0.338 C 
ATOM      4  O   UNL A   1      37.896  19.771  25.053  1.00  0.00    -0.246 OA
BRANCH   3   5
ATOM      5  C   UNL A   1      36.611  21.665  24.389  1.00  0.00     0.060 A 
ATOM      6  C   UNL A   1      34.691  23.268  23.194  1.00  0.00     0.067 A 
ATOM      7  C   UNL A   1      36.005  23.334  22.726  1.00  0.00     0.029 A 
ATOM      8  C   UNL A   1      34.304  22.308  24.134  1.00  0.00     0.029 A 
ATOM      9  C   UNL A   1      36.974  22.540  23.350  1.00  0.00     0.018 A 
ATOM     10  C   UNL A   1      35.264  21.500  24.726  1.00  0.00     0.018 A 
BRANCH   6  11
ATOM     11  N   UNL A   1      33.791  24.308  22.899  1.00  0.00    -0.217 N 
ATOM     12  C   UNL A   1      32.632  26.147  22.976  1.00  0.00     0.132 A 
ATOM     13  N   UNL A   1      32.493  25.587  21.733  1.00  0.00    -0.128 NA
ATOM     14  C   UNL A   1      33.497  25.381  23.729  1.00  0.00     0.071 A 
ATOM     15  N   UNL A   1      33.281  24.521  21.669  1.00  0.00    -0.061 NA
ATOM     16  C   UNL A   1      34.154  25.641  25.032  1.00  0.00     0.069 C 
BRANCH  12  17
ATOM     17  C   UNL A   1      32.106  27.461  23.302  1.00  0.00     0.087 C 
ATOM     18  C   UNL A   1      33.123  28.519  23.642  1.00  0.00     0.071 C 
ATOM     19  N   UNL A   1      30.813  27.579  23.232  1.00  0.00    -0.176 NA
BRANCH  19  20
ATOM     20  N   UNL A   1      30.184  28.771  23.433  1.00  0.00    -0.254 N 
ATOM     21  H   UNL A   1      30.113  29.064  24.371  1.00  0.00     0.193 HD
BRANCH  20  22
ATOM     22  C   UNL A   1      29.631  29.622  22.498  1.00  0.00     0.184 C 
ATOM     23  S   UNL A   1      28.069  30.171  22.347  1.00  0.00    -0.040 S 
BRANCH  22  24
ATOM     24  N   UNL A   1      30.556  30.046  21.581  1.00  0.00    -0.375 N 
ATOM     25  H   UNL A   1      31.201  29.406  21.201  1.00  0.00     0.159 HD
ATOM     26  H   UNL A   1      30.576  30.989  21.302  1.00  0.00     0.159 HD
ENDBRANCH  22  24
ENDBRANCH  20  22
ENDBRANCH  19  20
ENDBRANCH  12  17
ENDBRANCH   6  11
ENDBRANCH   3   5
ENDBRANCH   2   3
ENDBRANCH   1   2
BRANCH   1  27
ATOM     27  C   UNL A   1      40.370  22.680  26.975  1.00  0.00     0.275 C 
BRANCH  27  28
ATOM     28  O   UNL A   1      41.783  22.518  26.885  1.00  0.00    -0.458 OA
BRANCH  28  29
ATOM     29  C   UNL A   1      42.366  23.143  25.838  1.00  0.00     0.338 C 
ATOM     30  O   UNL A   1      42.797  22.628  24.819  1.00  0.00    -0.246 OA
BRANCH  29  31
ATOM     31  C   UNL A   1      42.608  24.542  26.192  1.00  0.00     0.060 A 
ATOM     32  C   UNL A   1      43.399  24.784  27.319  1.00  0.00     0.016 A 
ATOM     33  C   UNL A   1      41.806  25.537  25.614  1.00  0.00     0.016 A 
ATOM     34  C   UNL A   1      43.224  25.972  27.990  1.00  0.00     0.010 A 
ATOM     35  C   UNL A   1      41.626  26.716  26.291  1.00  0.00     0.010 A 
ATOM     36  C   UNL A   1      42.270  26.878  27.514  1.00  0.00    -0.014 A 
BRANCH  36  37
ATOM     37  C   UNL A   1      41.995  28.054  28.309  1.00  0.00     0.031 A 
ATOM     38  C   UNL A   1      43.081  29.059  28.251  1.00  0.00     0.074 A 
ATOM     39  C   UNL A   1      40.808  28.237  28.917  1.00  0.00     0.049 A 
ATOM     40  N   UNL A   1      43.856  29.450  29.205  1.00  0.00    -0.248 NA
ATOM     41  C   UNL A   1      43.467  29.553  26.918  1.00  0.00     0.031 C 
ATOM     42  C   UNL A   1      39.579  27.451  28.780  1.00  0.00     0.029 A 
ATOM     43  N   UNL A   1      40.422  29.259  29.720  1.00  0.00    -0.354 N 
ATOM     44  C   UNL A   1      44.690  30.407  28.636  1.00  0.00     0.074 A 
ATOM     45  C   UNL A   1      44.542  30.285  27.211  1.00  0.00     0.031 C 
ATOM     46  C   UNL A   1      38.539  28.162  29.276  1.00  0.00     0.029 A 
ATOM     47  C   UNL A   1      39.049  29.381  29.879  1.00  0.00     0.049 A 
ATOM     48  H   UNL A   1      41.064  29.865  30.155  1.00  0.00     0.167 HD
ATOM     49  C   UNL A   1      45.257  31.390  29.386  1.00  0.00     0.037 A 
ATOM     50  C   UNL A   1      38.404  30.464  30.383  1.00  0.00     0.037 A 
ATOM     51  C   UNL A   1      45.235  31.060  30.786  1.00  0.00     0.049 A 
ATOM     52  C   UNL A   1      39.416  31.248  31.150  1.00  0.00     0.074 A 
ATOM     53  C   UNL A   1      45.773  30.033  31.539  1.00  0.00     0.029 A 
ATOM     54  N   UNL A   1      44.256  31.627  31.566  1.00  0.00    -0.354 N 
ATOM     55  N   UNL A   1      39.998  30.819  32.239  1.00  0.00    -0.248 NA
ATOM     56  C   UNL A   1      40.131  32.300  30.439  1.00  0.00     0.031 C 
ATOM     57  C   UNL A   1      44.778  29.729  32.511  1.00  0.00     0.029 A 
ATOM     58  C   UNL A   1      43.722  30.626  32.339  1.00  0.00     0.049 A 
ATOM     59  H   UNL A   1      43.987  32.573  31.570  1.00  0.00     0.167 HD
ATOM     60  C   UNL A   1      41.318  31.241  32.134  1.00  0.00     0.074 A 
ATOM     61  C   UNL A   1      41.322  32.207  31.037  1.00  0.00     0.031 C 
ATOM     62  C   UNL A   1      42.334  30.568  32.749  1.00  0.00     0.037 A 
BRANCH  49  63
ATOM     63  C   UNL A   1      45.495  32.791  28.882  1.00  0.00     0.058 A 
ATOM     64  C   UNL A   1      46.766  33.376  29.043  1.00  0.00     0.135 A 
ATOM     65  C   UNL A   1      44.459  33.674  28.504  1.00  0.00     0.135 A 
ATOM     66  F   UNL A   1      47.820  32.631  29.412  1.00  0.00    -0.206 F 
ATOM     67  C   UNL A   1      46.976  34.748  28.906  1.00  0.00     0.059 A 
ATOM     68  C   UNL A   1      44.657  35.034  28.304  1.00  0.00     0.059 A 
ATOM     69  F   UNL A   1      43.181  33.286  28.406  1.00  0.00    -0.206 F 
ATOM     70  C   UNL A   1      45.909  35.570  28.552  1.00  0.00     0.060 A 
BRANCH  70  71
ATOM     71  S   UNL A   1      46.145  37.353  28.488  1.00  0.00     0.124 S 
ATOM     72  O   UNL A   1      45.485  37.775  29.718  1.00  0.00    -0.237 OA
ATOM     73  O   UNL A   1      47.599  37.465  28.469  1.00  0.00    -0.237 OA
ATOM     74  O   UNL A   1      45.475  37.735  27.248  1.00  0.00    -0.744 OA
ENDBRANCH  70  71
ENDBRANCH  49  63
BRANCH  50  75
ATOM     75  C   UNL A   1      37.122  31.051  29.904  1.00  0.00     0.058 A 
ATOM     76  C   UNL A   1      36.206  31.633  30.797  1.00  0.00     0.135 A 
ATOM     77  C   UNL A   1      36.889  31.296  28.535  1.00  0.00     0.135 A 
ATOM     78  F   UNL A   1      36.363  31.475  32.121  1.00  0.00    -0.206 F 
ATOM     79  C   UNL A   1      35.148  32.443  30.363  1.00  0.00     0.059 A 
ATOM     80  C   UNL A   1      35.838  32.090  28.077  1.00  0.00     0.059 A 
ATOM     81  F   UNL A   1      37.734  30.846  27.595  1.00  0.00    -0.206 F 
ATOM     82  C   UNL A   1      34.984  32.681  28.998  1.00  0.00     0.060 A 
BRANCH  82  83
ATOM     83  S   UNL A   1      33.728  33.857  28.439  1.00  0.00     0.124 S 
ATOM     84  O   UNL A   1      34.521  34.793  27.651  1.00  0.00    -0.237 OA
ATOM     85  O   UNL A   1      32.817  33.001  27.687  1.00  0.00    -0.237 OA
ATOM     86  O   UNL A   1      33.187  34.394  29.686  1.00  0.00    -0.744 OA
ENDBRANCH  82  83
ENDBRANCH  50  75
BRANCH  62  87
ATOM     87  C   UNL A   1      41.994  29.508  33.764  1.00  0.00     0.058 A 
ATOM     88  C   UNL A   1      41.756  28.157  33.448  1.00  0.00     0.135 A 
ATOM     89  C   UNL A   1      42.134  29.833  35.121  1.00  0.00     0.135 A 
ATOM     90  F   UNL A   1      41.701  27.747  32.173  1.00  0.00    -0.206 F 
ATOM     91  C   UNL A   1      41.651  27.179  34.439  1.00  0.00     0.059 A 
ATOM     92  C   UNL A   1      42.062  28.871  36.123  1.00  0.00     0.059 A 
ATOM     93  F   UNL A   1      42.420  31.095  35.481  1.00  0.00    -0.206 F 
ATOM     94  C   UNL A   1      41.817  27.544  35.776  1.00  0.00     0.060 A 
BRANCH  94  95
ATOM     95  S   UNL A   1      41.809  26.263  37.051  1.00  0.00     0.124 S 
ATOM     96  O   UNL A   1      41.907  25.041  36.258  1.00  0.00    -0.237 OA
ATOM     97  O   UNL A   1      42.986  26.598  37.848  1.00  0.00    -0.237 OA
ATOM     98  O   UNL A   1      40.531  26.465  37.730  1.00  0.00    -0.744 OA
ENDBRANCH  94  95
ENDBRANCH  62  87
ENDBRANCH  36  37
ENDBRANCH  29  31
ENDBRANCH  28  29
ENDBRANCH  27  28
ENDBRANCH   1  27
TORSDOF 19
ENDMDL
