MODEL 1
REMARK VINA RESULT:     -12.0      0.000      0.000
REMARK SMILES Cc1ccn2c([C@H]3C[C@@H]3C(=O)OCCOC(=O)c3ccc(-c4c5nc(c(-c6c(F)cc(S(=O)(=O)[O-])cc6F)c6ccc([nH]6)c(-c6c(F)cc(S(=O)(=O)[O-])cc6F)c6nc(c(-c7c(F)cc(S(=O)(=O)[O-])cc7F)c7ccc4[nH]7)C=C6)C=C5)cc3)nnc2c1
REMARK SMILES IDX 14 1 13 2 12 3 10 4 11 5 9 6 7 7 8 8 6 9 1 10 2 11 3 12
REMARK SMILES IDX 87 13 4 14 86 15 5 16 85 17 84 18 15 19 16 20 17 21 18 22
REMARK SMILES IDX 19 23 83 24 20 25 82 26 21 27 22 28 23 29 76 30 24 31 81 32
REMARK SMILES IDX 75 33 77 34 25 35 80 36 74 37 73 38 26 40 60 41 39 42 59 43
REMARK SMILES IDX 40 44 43 45 58 46 78 47 41 48 42 49 57 51 79 52 44 53 27 54
REMARK SMILES IDX 28 55 37 56 29 57 30 58 36 59 38 60 31 61 32 62 33 63 34 64
REMARK SMILES IDX 35 65 61 66 62 67 71 68 63 69 64 70 70 71 72 72 65 73 66 74
REMARK SMILES IDX 67 75 68 76 69 77 45 78 46 79 55 80 47 81 48 82 54 83 56 84
REMARK SMILES IDX 49 85 50 86 51 87 52 88 53 89
REMARK H PARENT 77 39 43 50
REMARK Flexibility Score: inf
ROOT
ATOM      1  C   UNL A   1      33.684  33.864  28.260  1.00  0.00     0.275 C 
ENDROOT
BRANCH   1   2
ATOM      2  C   UNL A   1      33.713  35.097  29.160  1.00  0.00     0.274 C 
BRANCH   2   3
ATOM      3  O   UNL A   1      32.594  35.105  30.059  1.00  0.00    -0.462 OA
BRANCH   3   4
ATOM      4  C   UNL A   1      32.798  35.842  31.181  1.00  0.00     0.309 C 
ATOM      5  O   UNL A   1      32.146  36.823  31.517  1.00  0.00    -0.252 OA
BRANCH   4   6
ATOM      6  C   UNL A   1      34.011  35.474  31.907  1.00  0.00     0.110 C 
ATOM      7  C   UNL A   1      33.938  34.421  32.989  1.00  0.00     0.073 C 
ATOM      8  C   UNL A   1      34.439  35.795  33.307  1.00  0.00     0.028 C 
BRANCH   7   9
ATOM      9  C   UNL A   1      34.832  33.248  32.701  1.00  0.00     0.141 A 
ATOM     10  C   UNL A   1      39.363  31.101  35.039  1.00  0.00     0.044 C 
ATOM     11  C   UNL A   1      38.080  31.642  34.502  1.00  0.00    -0.046 A 
ATOM     12  C   UNL A   1      37.573  32.882  35.092  1.00  0.00     0.022 A 
ATOM     13  C   UNL A   1      37.438  31.039  33.477  1.00  0.00     0.053 A 
ATOM     14  C   UNL A   1      36.474  33.446  34.572  1.00  0.00     0.095 A 
ATOM     15  C   UNL A   1      36.303  31.662  32.903  1.00  0.00     0.161 A 
ATOM     16  N   UNL A   1      35.869  32.838  33.481  1.00  0.00    -0.286 N 
ATOM     17  N   UNL A   1      35.577  31.392  31.842  1.00  0.00    -0.130 NA
ATOM     18  N   UNL A   1      34.683  32.422  31.686  1.00  0.00    -0.134 NA
ENDBRANCH   7   9
ENDBRANCH   4   6
ENDBRANCH   3   4
ENDBRANCH   2   3
ENDBRANCH   1   2
BRANCH   1  19
ATOM     19  O   UNL A   1      34.925  33.152  28.381  1.00  0.00    -0.458 OA
BRANCH  19  20
ATOM     20  C   UNL A   1      34.836  31.801  28.278  1.00  0.00     0.338 C 
ATOM     21  O   UNL A   1      33.823  31.157  28.057  1.00  0.00    -0.246 OA
BRANCH  20  22
ATOM     22  C   UNL A   1      36.210  31.260  28.137  1.00  0.00     0.060 A 
ATOM     23  C   UNL A   1      36.455  29.994  27.598  1.00  0.00     0.016 A 
ATOM     24  C   UNL A   1      37.231  31.954  28.800  1.00  0.00     0.016 A 
ATOM     25  C   UNL A   1      37.676  29.372  27.851  1.00  0.00     0.010 A 
ATOM     26  C   UNL A   1      38.445  31.324  29.060  1.00  0.00     0.010 A 
ATOM     27  C   UNL A   1      38.647  30.010  28.639  1.00  0.00    -0.014 A 
BRANCH  27  28
ATOM     28  C   UNL A   1      39.964  29.378  28.790  1.00  0.00     0.031 A 
ATOM     29  C   UNL A   1      40.326  29.206  30.221  1.00  0.00     0.074 A 
ATOM     30  C   UNL A   1      40.736  28.862  27.807  1.00  0.00     0.049 A 
ATOM     31  N   UNL A   1      41.271  29.806  30.865  1.00  0.00    -0.248 NA
ATOM     32  C   UNL A   1      39.423  28.417  31.075  1.00  0.00     0.031 C 
ATOM     33  C   UNL A   1      40.448  28.781  26.385  1.00  0.00     0.029 A 
ATOM     34  N   UNL A   1      41.954  28.242  27.879  1.00  0.00    -0.354 N 
ATOM     35  C   UNL A   1      41.224  29.295  32.157  1.00  0.00     0.074 A 
ATOM     36  C   UNL A   1      39.974  28.592  32.276  1.00  0.00     0.031 C 
ATOM     37  C   UNL A   1      41.319  27.962  25.756  1.00  0.00     0.029 A 
ATOM     38  C   UNL A   1      42.339  27.577  26.708  1.00  0.00     0.049 A 
ATOM     39  H   UNL A   1      42.515  28.262  28.688  1.00  0.00     0.167 HD
ATOM     40  C   UNL A   1      42.329  29.280  32.949  1.00  0.00     0.037 A 
ATOM     41  C   UNL A   1      43.447  26.815  26.502  1.00  0.00     0.037 A 
ATOM     42  C   UNL A   1      43.343  30.176  32.457  1.00  0.00     0.049 A 
ATOM     43  C   UNL A   1      44.422  27.230  27.534  1.00  0.00     0.074 A 
ATOM     44  C   UNL A   1      43.464  31.542  32.308  1.00  0.00     0.029 A 
ATOM     45  N   UNL A   1      44.314  29.617  31.669  1.00  0.00    -0.354 N 
ATOM     46  N   UNL A   1      44.991  28.402  27.569  1.00  0.00    -0.248 NA
ATOM     47  C   UNL A   1      44.439  26.483  28.780  1.00  0.00     0.031 C 
ATOM     48  C   UNL A   1      44.236  31.726  31.122  1.00  0.00     0.029 A 
ATOM     49  C   UNL A   1      44.593  30.469  30.634  1.00  0.00     0.049 A 
ATOM     50  H   UNL A   1      44.741  28.743  31.823  1.00  0.00     0.167 HD
ATOM     51  C   UNL A   1      45.051  28.720  28.916  1.00  0.00     0.074 A 
ATOM     52  C   UNL A   1      44.792  27.462  29.613  1.00  0.00     0.031 C 
ATOM     53  C   UNL A   1      45.030  30.023  29.326  1.00  0.00     0.037 A 
BRANCH  40  54
ATOM     54  C   UNL A   1      42.636  28.163  33.914  1.00  0.00     0.058 A 
ATOM     55  C   UNL A   1      42.690  28.427  35.295  1.00  0.00     0.135 A 
ATOM     56  C   UNL A   1      43.143  26.905  33.512  1.00  0.00     0.135 A 
ATOM     57  F   UNL A   1      42.273  29.607  35.781  1.00  0.00    -0.206 F 
ATOM     58  C   UNL A   1      43.230  27.519  36.208  1.00  0.00     0.059 A 
ATOM     59  C   UNL A   1      43.636  25.965  34.408  1.00  0.00     0.059 A 
ATOM     60  F   UNL A   1      43.272  26.568  32.222  1.00  0.00    -0.206 F 
ATOM     61  C   UNL A   1      43.701  26.289  35.752  1.00  0.00     0.060 A 
BRANCH  61  62
ATOM     62  S   UNL A   1      44.440  25.136  36.921  1.00  0.00     0.124 S 
ATOM     63  O   UNL A   1      44.258  23.862  36.235  1.00  0.00    -0.237 OA
ATOM     64  O   UNL A   1      45.813  25.629  36.999  1.00  0.00    -0.237 OA
ATOM     65  O   UNL A   1      43.645  25.324  38.130  1.00  0.00    -0.744 OA
ENDBRANCH  61  62
ENDBRANCH  40  54
BRANCH  41  66
ATOM     66  C   UNL A   1      43.554  25.486  25.825  1.00  0.00     0.058 A 
ATOM     67  C   UNL A   1      44.711  25.150  25.089  1.00  0.00     0.135 A 
ATOM     68  C   UNL A   1      42.709  24.412  26.163  1.00  0.00     0.135 A 
ATOM     69  F   UNL A   1      45.575  26.108  24.717  1.00  0.00    -0.206 F 
ATOM     70  C   UNL A   1      45.062  23.826  24.800  1.00  0.00     0.059 A 
ATOM     71  C   UNL A   1      43.035  23.082  25.879  1.00  0.00     0.059 A 
ATOM     72  F   UNL A   1      41.588  24.612  26.871  1.00  0.00    -0.206 F 
ATOM     73  C   UNL A   1      44.232  22.794  25.232  1.00  0.00     0.060 A 
BRANCH  73  74
ATOM     74  S   UNL A   1      44.794  21.079  25.067  1.00  0.00     0.124 S 
ATOM     75  O   UNL A   1      44.725  20.872  23.625  1.00  0.00    -0.237 OA
ATOM     76  O   UNL A   1      46.135  21.138  25.639  1.00  0.00    -0.237 OA
ATOM     77  O   UNL A   1      43.819  20.326  25.852  1.00  0.00    -0.744 OA
ENDBRANCH  73  74
ENDBRANCH  41  66
BRANCH  53  78
ATOM     78  C   UNL A   1      45.319  31.091  28.300  1.00  0.00     0.058 A 
ATOM     79  C   UNL A   1      44.383  31.626  27.395  1.00  0.00     0.135 A 
ATOM     80  C   UNL A   1      46.586  31.691  28.335  1.00  0.00     0.135 A 
ATOM     81  F   UNL A   1      43.127  31.159  27.350  1.00  0.00    -0.206 F 
ATOM     82  C   UNL A   1      44.706  32.694  26.549  1.00  0.00     0.059 A 
ATOM     83  C   UNL A   1      46.920  32.772  27.525  1.00  0.00     0.059 A 
ATOM     84  F   UNL A   1      47.510  31.257  29.210  1.00  0.00    -0.206 F 
ATOM     85  C   UNL A   1      45.978  33.265  26.626  1.00  0.00     0.060 A 
BRANCH  85  86
ATOM     86  S   UNL A   1      46.382  34.693  25.594  1.00  0.00     0.124 S 
ATOM     87  O   UNL A   1      45.526  34.490  24.431  1.00  0.00    -0.237 OA
ATOM     88  O   UNL A   1      46.029  35.820  26.454  1.00  0.00    -0.237 OA
ATOM     89  O   UNL A   1      47.814  34.541  25.344  1.00  0.00    -0.744 OA
ENDBRANCH  85  86
ENDBRANCH  53  78
ENDBRANCH  27  28
ENDBRANCH  20  22
ENDBRANCH  19  20
ENDBRANCH   1  19
TORSDOF 15
ENDMDL
MODEL 2
REMARK VINA RESULT:     -11.9      2.828     12.018
REMARK SMILES Cc1ccn2c([C@H]3C[C@@H]3C(=O)OCCOC(=O)c3ccc(-c4c5nc(c(-c6c(F)cc(S(=O)(=O)[O-])cc6F)c6ccc([nH]6)c(-c6c(F)cc(S(=O)(=O)[O-])cc6F)c6nc(c(-c7c(F)cc(S(=O)(=O)[O-])cc7F)c7ccc4[nH]7)C=C6)C=C5)cc3)nnc2c1
REMARK SMILES IDX 14 1 13 2 12 3 10 4 11 5 9 6 7 7 8 8 6 9 1 10 2 11 3 12
REMARK SMILES IDX 87 13 4 14 86 15 5 16 85 17 84 18 15 19 16 20 17 21 18 22
REMARK SMILES IDX 19 23 83 24 20 25 82 26 21 27 22 28 23 29 76 30 24 31 81 32
REMARK SMILES IDX 75 33 77 34 25 35 80 36 74 37 73 38 26 40 60 41 39 42 59 43
REMARK SMILES IDX 40 44 43 45 58 46 78 47 41 48 42 49 57 51 79 52 44 53 27 54
REMARK SMILES IDX 28 55 37 56 29 57 30 58 36 59 38 60 31 61 32 62 33 63 34 64
REMARK SMILES IDX 35 65 61 66 62 67 71 68 63 69 64 70 70 71 72 72 65 73 66 74
REMARK SMILES IDX 67 75 68 76 69 77 45 78 46 79 55 80 47 81 48 82 54 83 56 84
REMARK SMILES IDX 49 85 50 86 51 87 52 88 53 89
REMARK H PARENT 77 39 43 50
REMARK Flexibility Score: inf
ROOT
ATOM      1  C   UNL A   1      40.964  20.169  26.756  1.00  0.00     0.275 C 
ENDROOT
BRANCH   1   2
ATOM      2  C   UNL A   1      42.248  19.381  26.511  1.00  0.00     0.274 C 
BRANCH   2   3
ATOM      3  O   UNL A   1      42.621  19.422  25.125  1.00  0.00    -0.462 OA
BRANCH   3   4
ATOM      4  C   UNL A   1      43.955  19.280  24.913  1.00  0.00     0.309 C 
ATOM      5  O   UNL A   1      44.520  18.237  24.603  1.00  0.00    -0.252 OA
BRANCH   4   6
ATOM      6  C   UNL A   1      44.731  20.468  25.261  1.00  0.00     0.110 C 
ATOM      7  C   UNL A   1      45.009  21.510  24.202  1.00  0.00     0.073 C 
ATOM      8  C   UNL A   1      46.141  20.842  24.918  1.00  0.00     0.028 C 
BRANCH   7   9
ATOM      9  C   UNL A   1      44.461  22.859  24.574  1.00  0.00     0.141 A 
ATOM     10  C   UNL A   1      46.526  27.420  26.926  1.00  0.00     0.044 C 
ATOM     11  C   UNL A   1      46.034  26.215  26.196  1.00  0.00    -0.046 A 
ATOM     12  C   UNL A   1      46.941  25.070  26.099  1.00  0.00     0.022 A 
ATOM     13  C   UNL A   1      44.782  26.164  25.690  1.00  0.00     0.053 A 
ATOM     14  C   UNL A   1      46.498  23.938  25.532  1.00  0.00     0.095 A 
ATOM     15  C   UNL A   1      44.305  24.953  25.133  1.00  0.00     0.161 A 
ATOM     16  N   UNL A   1      45.188  23.893  25.075  1.00  0.00    -0.286 N 
ATOM     17  N   UNL A   1      43.124  24.572  24.702  1.00  0.00    -0.130 NA
ATOM     18  N   UNL A   1      43.211  23.235  24.399  1.00  0.00    -0.134 NA
ENDBRANCH   7   9
ENDBRANCH   4   6
ENDBRANCH   3   4
ENDBRANCH   2   3
ENDBRANCH   1   2
BRANCH   1  19
ATOM     19  O   UNL A   1      41.231  21.574  26.626  1.00  0.00    -0.458 OA
BRANCH  19  20
ATOM     20  C   UNL A   1      40.141  22.361  26.432  1.00  0.00     0.338 C 
ATOM     21  O   UNL A   1      39.011  21.980  26.175  1.00  0.00    -0.246 OA
BRANCH  20  22
ATOM     22  C   UNL A   1      40.468  23.724  26.917  1.00  0.00     0.060 A 
ATOM     23  C   UNL A   1      41.566  23.971  27.746  1.00  0.00     0.016 A 
ATOM     24  C   UNL A   1      39.491  24.710  26.727  1.00  0.00     0.016 A 
ATOM     25  C   UNL A   1      41.604  25.149  28.490  1.00  0.00     0.010 A 
ATOM     26  C   UNL A   1      39.528  25.879  27.482  1.00  0.00     0.010 A 
ATOM     27  C   UNL A   1      40.551  26.074  28.408  1.00  0.00    -0.014 A 
BRANCH  27  28
ATOM     28  C   UNL A   1      40.677  27.354  29.116  1.00  0.00     0.031 A 
ATOM     29  C   UNL A   1      41.777  28.182  28.556  1.00  0.00     0.074 A 
ATOM     30  C   UNL A   1      39.847  27.845  30.064  1.00  0.00     0.049 A 
ATOM     31  N   UNL A   1      42.885  28.504  29.136  1.00  0.00    -0.248 NA
ATOM     32  C   UNL A   1      41.719  28.538  27.129  1.00  0.00     0.031 C 
ATOM     33  C   UNL A   1      38.629  27.250  30.589  1.00  0.00     0.029 A 
ATOM     34  N   UNL A   1      39.891  29.032  30.744  1.00  0.00    -0.354 N 
ATOM     35  C   UNL A   1      43.567  29.298  28.222  1.00  0.00     0.074 A 
ATOM     36  C   UNL A   1      42.897  29.139  26.959  1.00  0.00     0.031 C 
ATOM     37  C   UNL A   1      37.923  28.144  31.315  1.00  0.00     0.029 A 
ATOM     38  C   UNL A   1      38.721  29.345  31.446  1.00  0.00     0.049 A 
ATOM     39  H   UNL A   1      40.682  29.619  30.740  1.00  0.00     0.167 HD
ATOM     40  C   UNL A   1      44.480  30.219  28.632  1.00  0.00     0.037 A 
ATOM     41  C   UNL A   1      38.439  30.478  32.144  1.00  0.00     0.037 A 
ATOM     42  C   UNL A   1      44.908  29.971  29.984  1.00  0.00     0.049 A 
ATOM     43  C   UNL A   1      39.746  31.088  32.472  1.00  0.00     0.074 A 
ATOM     44  C   UNL A   1      45.616  28.978  30.628  1.00  0.00     0.029 A 
ATOM     45  N   UNL A   1      44.259  30.676  30.963  1.00  0.00    -0.354 N 
ATOM     46  N   UNL A   1      40.611  30.560  33.292  1.00  0.00    -0.248 NA
ATOM     47  C   UNL A   1      40.275  32.079  31.551  1.00  0.00     0.031 C 
ATOM     48  C   UNL A   1      45.033  28.879  31.927  1.00  0.00     0.029 A 
ATOM     49  C   UNL A   1      44.036  29.850  32.033  1.00  0.00     0.049 A 
ATOM     50  H   UNL A   1      43.995  31.623  30.905  1.00  0.00     0.167 HD
ATOM     51  C   UNL A   1      41.843  30.820  32.715  1.00  0.00     0.074 A 
ATOM     52  C   UNL A   1      41.578  31.843  31.705  1.00  0.00     0.031 C 
ATOM     53  C   UNL A   1      42.902  29.984  32.925  1.00  0.00     0.037 A 
BRANCH  40  54
ATOM     54  C   UNL A   1      44.662  31.556  27.957  1.00  0.00     0.058 A 
ATOM     55  C   UNL A   1      45.846  31.823  27.246  1.00  0.00     0.135 A 
ATOM     56  C   UNL A   1      43.835  32.674  28.212  1.00  0.00     0.135 A 
ATOM     57  F   UNL A   1      46.723  30.841  26.985  1.00  0.00    -0.206 F 
ATOM     58  C   UNL A   1      46.195  33.112  26.837  1.00  0.00     0.059 A 
ATOM     59  C   UNL A   1      44.136  33.956  27.769  1.00  0.00     0.059 A 
ATOM     60  F   UNL A   1      42.744  32.593  28.984  1.00  0.00    -0.206 F 
ATOM     61  C   UNL A   1      45.332  34.172  27.105  1.00  0.00     0.060 A 
BRANCH  61  62
ATOM     62  S   UNL A   1      45.802  35.842  26.620  1.00  0.00     0.124 S 
ATOM     63  O   UNL A   1      46.406  35.612  25.313  1.00  0.00    -0.237 OA
ATOM     64  O   UNL A   1      44.512  36.526  26.618  1.00  0.00    -0.237 OA
ATOM     65  O   UNL A   1      46.719  36.255  27.678  1.00  0.00    -0.744 OA
ENDBRANCH  61  62
ENDBRANCH  40  54
BRANCH  41  66
ATOM     66  C   UNL A   1      37.185  31.293  32.136  1.00  0.00     0.058 A 
ATOM     67  C   UNL A   1      36.712  31.888  33.326  1.00  0.00     0.135 A 
ATOM     68  C   UNL A   1      36.629  31.787  30.940  1.00  0.00     0.135 A 
ATOM     69  F   UNL A   1      37.181  31.479  34.516  1.00  0.00    -0.206 F 
ATOM     70  C   UNL A   1      35.827  32.973  33.326  1.00  0.00     0.059 A 
ATOM     71  C   UNL A   1      35.739  32.864  30.916  1.00  0.00     0.059 A 
ATOM     72  F   UNL A   1      37.013  31.303  29.750  1.00  0.00    -0.206 F 
ATOM     73  C   UNL A   1      35.373  33.478  32.109  1.00  0.00     0.060 A 
BRANCH  73  74
ATOM     74  S   UNL A   1      34.420  35.018  32.093  1.00  0.00     0.124 S 
ATOM     75  O   UNL A   1      33.161  34.606  32.704  1.00  0.00    -0.237 OA
ATOM     76  O   UNL A   1      35.255  35.907  32.893  1.00  0.00    -0.237 OA
ATOM     77  O   UNL A   1      34.342  35.353  30.673  1.00  0.00    -0.744 OA
ENDBRANCH  73  74
ENDBRANCH  41  66
BRANCH  53  78
ATOM     78  C   UNL A   1      42.815  29.007  34.071  1.00  0.00     0.058 A 
ATOM     79  C   UNL A   1      43.058  29.314  35.424  1.00  0.00     0.135 A 
ATOM     80  C   UNL A   1      42.329  27.723  33.787  1.00  0.00     0.135 A 
ATOM     81  F   UNL A   1      43.453  30.542  35.790  1.00  0.00    -0.206 F 
ATOM     82  C   UNL A   1      42.846  28.374  36.440  1.00  0.00     0.059 A 
ATOM     83  C   UNL A   1      42.083  26.783  34.783  1.00  0.00     0.059 A 
ATOM     84  F   UNL A   1      42.034  27.383  32.520  1.00  0.00    -0.206 F 
ATOM     85  C   UNL A   1      42.352  27.111  36.109  1.00  0.00     0.060 A 
BRANCH  85  86
ATOM     86  S   UNL A   1      42.003  25.914  37.419  1.00  0.00     0.124 S 
ATOM     87  O   UNL A   1      40.603  26.185  37.724  1.00  0.00    -0.237 OA
ATOM     88  O   UNL A   1      42.275  24.637  36.765  1.00  0.00    -0.237 OA
ATOM     89  O   UNL A   1      42.949  26.274  38.473  1.00  0.00    -0.744 OA
ENDBRANCH  85  86
ENDBRANCH  53  78
ENDBRANCH  27  28
ENDBRANCH  20  22
ENDBRANCH  19  20
ENDBRANCH   1  19
TORSDOF 15
ENDMDL
MODEL 3
REMARK VINA RESULT:     -11.7      3.300     11.871
REMARK SMILES Cc1ccn2c([C@H]3C[C@@H]3C(=O)OCCOC(=O)c3ccc(-c4c5nc(c(-c6c(F)cc(S(=O)(=O)[O-])cc6F)c6ccc([nH]6)c(-c6c(F)cc(S(=O)(=O)[O-])cc6F)c6nc(c(-c7c(F)cc(S(=O)(=O)[O-])cc7F)c7ccc4[nH]7)C=C6)C=C5)cc3)nnc2c1
REMARK SMILES IDX 14 1 13 2 12 3 10 4 11 5 9 6 7 7 8 8 6 9 1 10 2 11 3 12
REMARK SMILES IDX 87 13 4 14 86 15 5 16 85 17 84 18 15 19 16 20 17 21 18 22
REMARK SMILES IDX 19 23 83 24 20 25 82 26 21 27 22 28 23 29 76 30 24 31 81 32
REMARK SMILES IDX 75 33 77 34 25 35 80 36 74 37 73 38 26 40 60 41 39 42 59 43
REMARK SMILES IDX 40 44 43 45 58 46 78 47 41 48 42 49 57 51 79 52 44 53 27 54
REMARK SMILES IDX 28 55 37 56 29 57 30 58 36 59 38 60 31 61 32 62 33 63 34 64
REMARK SMILES IDX 35 65 61 66 62 67 71 68 63 69 64 70 70 71 72 72 65 73 66 74
REMARK SMILES IDX 67 75 68 76 69 77 45 78 46 79 55 80 47 81 48 82 54 83 56 84
REMARK SMILES IDX 49 85 50 86 51 87 52 88 53 89
REMARK H PARENT 77 39 43 50
REMARK Flexibility Score: inf
ROOT
ATOM      1  C   UNL A   1      45.678  22.709  24.720  1.00  0.00     0.275 C 
ENDROOT
BRANCH   1   2
ATOM      2  C   UNL A   1      45.517  21.390  25.472  1.00  0.00     0.274 C 
BRANCH   2   3
ATOM      3  O   UNL A   1      44.705  20.470  24.728  1.00  0.00    -0.462 OA
BRANCH   3   4
ATOM      4  C   UNL A   1      44.748  19.197  25.198  1.00  0.00     0.309 C 
ATOM      5  O   UNL A   1      45.740  18.477  25.218  1.00  0.00    -0.252 OA
BRANCH   4   6
ATOM      6  C   UNL A   1      43.433  18.656  25.538  1.00  0.00     0.110 C 
ATOM      7  C   UNL A   1      42.722  19.156  26.774  1.00  0.00     0.073 C 
ATOM      8  C   UNL A   1      43.027  17.700  26.617  1.00  0.00     0.028 C 
BRANCH   7   9
ATOM      9  C   UNL A   1      41.391  19.774  26.452  1.00  0.00     0.141 A 
ATOM     10  C   UNL A   1      38.903  24.572  27.635  1.00  0.00     0.044 C 
ATOM     11  C   UNL A   1      39.647  23.338  27.246  1.00  0.00    -0.046 A 
ATOM     12  C   UNL A   1      40.959  23.121  27.858  1.00  0.00     0.022 A 
ATOM     13  C   UNL A   1      39.108  22.431  26.400  1.00  0.00     0.053 A 
ATOM     14  C   UNL A   1      41.612  21.979  27.603  1.00  0.00     0.095 A 
ATOM     15  C   UNL A   1      39.783  21.208  26.169  1.00  0.00     0.161 A 
ATOM     16  N   UNL A   1      41.010  21.039  26.779  1.00  0.00    -0.286 N 
ATOM     17  N   UNL A   1      39.450  20.112  25.527  1.00  0.00    -0.130 NA
ATOM     18  N   UNL A   1      40.442  19.190  25.751  1.00  0.00    -0.134 NA
ENDBRANCH   7   9
ENDBRANCH   4   6
ENDBRANCH   3   4
ENDBRANCH   2   3
ENDBRANCH   1   2
BRANCH   1  19
ATOM     19  O   UNL A   1      44.929  23.737  25.387  1.00  0.00    -0.458 OA
BRANCH  19  20
ATOM     20  C   UNL A   1      43.636  23.865  24.996  1.00  0.00     0.338 C 
ATOM     21  O   UNL A   1      43.027  23.114  24.252  1.00  0.00    -0.246 OA
BRANCH  20  22
ATOM     22  C   UNL A   1      42.986  24.862  25.880  1.00  0.00     0.060 A 
ATOM     23  C   UNL A   1      41.934  25.669  25.438  1.00  0.00     0.016 A 
ATOM     24  C   UNL A   1      43.633  25.148  27.090  1.00  0.00     0.016 A 
ATOM     25  C   UNL A   1      41.632  26.837  26.136  1.00  0.00     0.010 A 
ATOM     26  C   UNL A   1      43.335  26.321  27.778  1.00  0.00     0.010 A 
ATOM     27  C   UNL A   1      42.377  27.198  27.270  1.00  0.00    -0.014 A 
BRANCH  27  28
ATOM     28  C   UNL A   1      41.960  28.371  28.047  1.00  0.00     0.031 A 
ATOM     29  C   UNL A   1      42.959  29.468  27.959  1.00  0.00     0.074 A 
ATOM     30  C   UNL A   1      40.773  28.557  28.667  1.00  0.00     0.049 A 
ATOM     31  N   UNL A   1      43.705  29.924  28.910  1.00  0.00    -0.248 NA
ATOM     32  C   UNL A   1      43.296  29.993  26.625  1.00  0.00     0.031 C 
ATOM     33  C   UNL A   1      39.623  27.668  28.694  1.00  0.00     0.029 A 
ATOM     34  N   UNL A   1      40.311  29.628  29.384  1.00  0.00    -0.354 N 
ATOM     35  C   UNL A   1      44.447  30.952  28.341  1.00  0.00     0.074 A 
ATOM     36  C   UNL A   1      44.290  30.833  26.916  1.00  0.00     0.031 C 
ATOM     37  C   UNL A   1      38.529  28.298  29.173  1.00  0.00     0.029 A 
ATOM     38  C   UNL A   1      38.936  29.606  29.644  1.00  0.00     0.049 A 
ATOM     39  H   UNL A   1      40.899  30.355  29.693  1.00  0.00     0.167 HD
ATOM     40  C   UNL A   1      44.931  31.973  29.098  1.00  0.00     0.037 A 
ATOM     41  C   UNL A   1      38.183  30.557  30.261  1.00  0.00     0.037 A 
ATOM     42  C   UNL A   1      44.933  31.637  30.497  1.00  0.00     0.049 A 
ATOM     43  C   UNL A   1      39.128  31.365  31.062  1.00  0.00     0.074 A 
ATOM     44  C   UNL A   1      45.597  30.727  31.293  1.00  0.00     0.029 A 
ATOM     45  N   UNL A   1      43.850  32.062  31.222  1.00  0.00    -0.354 N 
ATOM     46  N   UNL A   1      39.770  30.914  32.104  1.00  0.00    -0.248 NA
ATOM     47  C   UNL A   1      39.686  32.555  30.444  1.00  0.00     0.031 C 
ATOM     48  C   UNL A   1      44.657  30.343  32.295  1.00  0.00     0.029 A 
ATOM     49  C   UNL A   1      43.484  31.073  32.097  1.00  0.00     0.049 A 
ATOM     50  H   UNL A   1      43.408  32.937  31.128  1.00  0.00     0.167 HD
ATOM     51  C   UNL A   1      41.027  31.489  32.014  1.00  0.00     0.074 A 
ATOM     52  C   UNL A   1      40.882  32.564  31.034  1.00  0.00     0.031 C 
ATOM     53  C   UNL A   1      42.120  30.860  32.537  1.00  0.00     0.037 A 
BRANCH  40  54
ATOM     54  C   UNL A   1      45.011  33.397  28.607  1.00  0.00     0.058 A 
ATOM     55  C   UNL A   1      46.261  34.037  28.522  1.00  0.00     0.135 A 
ATOM     56  C   UNL A   1      43.882  34.238  28.476  1.00  0.00     0.135 A 
ATOM     57  F   UNL A   1      47.398  33.340  28.674  1.00  0.00    -0.206 F 
ATOM     58  C   UNL A   1      46.381  35.417  28.343  1.00  0.00     0.059 A 
ATOM     59  C   UNL A   1      43.978  35.604  28.243  1.00  0.00     0.059 A 
ATOM     60  F   UNL A   1      42.634  33.790  28.660  1.00  0.00    -0.206 F 
ATOM     61  C   UNL A   1      45.231  36.192  28.205  1.00  0.00     0.060 A 
BRANCH  61  62
ATOM     62  S   UNL A   1      45.382  37.977  28.021  1.00  0.00     0.124 S 
ATOM     63  O   UNL A   1      45.289  38.426  29.405  1.00  0.00    -0.237 OA
ATOM     64  O   UNL A   1      46.696  38.102  27.395  1.00  0.00    -0.237 OA
ATOM     65  O   UNL A   1      44.253  38.325  27.164  1.00  0.00    -0.744 OA
ENDBRANCH  61  62
ENDBRANCH  40  54
BRANCH  41  66
ATOM     66  C   UNL A   1      36.850  31.100  29.856  1.00  0.00     0.058 A 
ATOM     67  C   UNL A   1      36.002  31.696  30.814  1.00  0.00     0.135 A 
ATOM     68  C   UNL A   1      36.533  31.360  28.509  1.00  0.00     0.135 A 
ATOM     69  F   UNL A   1      36.222  31.502  32.124  1.00  0.00    -0.206 F 
ATOM     70  C   UNL A   1      34.972  32.578  30.463  1.00  0.00     0.059 A 
ATOM     71  C   UNL A   1      35.505  32.231  28.135  1.00  0.00     0.059 A 
ATOM     72  F   UNL A   1      37.277  30.854  27.515  1.00  0.00    -0.206 F 
ATOM     73  C   UNL A   1      34.754  32.867  29.118  1.00  0.00     0.060 A 
BRANCH  73  74
ATOM     74  S   UNL A   1      33.585  34.177  28.672  1.00  0.00     0.124 S 
ATOM     75  O   UNL A   1      33.061  34.575  29.974  1.00  0.00    -0.237 OA
ATOM     76  O   UNL A   1      34.448  35.149  28.010  1.00  0.00    -0.237 OA
ATOM     77  O   UNL A   1      32.632  33.497  27.798  1.00  0.00    -0.744 OA
ENDBRANCH  73  74
ENDBRANCH  41  66
BRANCH  53  78
ATOM     78  C   UNL A   1      41.887  29.740  33.522  1.00  0.00     0.058 A 
ATOM     79  C   UNL A   1      41.676  28.390  33.186  1.00  0.00     0.135 A 
ATOM     80  C   UNL A   1      42.018  30.045  34.885  1.00  0.00     0.135 A 
ATOM     81  F   UNL A   1      41.613  28.002  31.904  1.00  0.00    -0.206 F 
ATOM     82  C   UNL A   1      41.577  27.395  34.167  1.00  0.00     0.059 A 
ATOM     83  C   UNL A   1      41.952  29.069  35.875  1.00  0.00     0.059 A 
ATOM     84  F   UNL A   1      42.266  31.309  35.268  1.00  0.00    -0.206 F 
ATOM     85  C   UNL A   1      41.723  27.745  35.511  1.00  0.00     0.060 A 
BRANCH  85  86
ATOM     86  S   UNL A   1      41.674  26.460  36.782  1.00  0.00     0.124 S 
ATOM     87  O   UNL A   1      41.724  25.236  35.990  1.00  0.00    -0.237 OA
ATOM     88  O   UNL A   1      42.863  26.751  37.577  1.00  0.00    -0.237 OA
ATOM     89  O   UNL A   1      40.406  26.704  37.467  1.00  0.00    -0.744 OA
ENDBRANCH  85  86
ENDBRANCH  53  78
ENDBRANCH  27  28
ENDBRANCH  20  22
ENDBRANCH  19  20
ENDBRANCH   1  19
TORSDOF 15
ENDMDL
