MODEL 1
REMARK VINA RESULT:     -11.2      0.000      0.000
REMARK SMILES CC[C@@H](O)C[NH+]1CC(n2cc(C(=O)OCCOC(=O)c3ccc(-c4c5nc(c(-c6c(F)cc(S(=O)(=O)[O-])cc6F)c6ccc([nH]6)c(-c6c(F)cc(S(=O)(=O)[O-])cc6F)c6nc(c(-c7c(F)cc(S(=O)(=O)[O-])cc7F)c7ccc4[nH]7)C=C6)C=C5)cc3)nn2)C1
REMARK SMILES IDX 15 1 14 2 12 3 13 4 11 5 9 6 10 7 87 8 86 9 8 10 6 11 7 12
REMARK SMILES IDX 88 13 5 15 3 16 2 17 1 18 4 19 16 21 17 22 18 23 19 24 20 25
REMARK SMILES IDX 21 26 85 27 22 28 84 29 23 30 24 31 25 32 78 33 26 34 83 35
REMARK SMILES IDX 77 36 79 37 27 38 82 39 76 40 75 41 28 43 62 44 41 45 61 46
REMARK SMILES IDX 42 47 45 48 60 49 80 50 43 51 44 52 59 54 81 55 46 56 29 57
REMARK SMILES IDX 30 58 39 59 31 60 32 61 38 62 40 63 33 64 34 65 35 66 36 67
REMARK SMILES IDX 37 68 63 69 64 70 73 71 65 72 66 73 72 74 74 75 67 76 68 77
REMARK SMILES IDX 69 78 70 79 71 80 47 81 48 82 57 83 49 84 50 85 56 86 58 87
REMARK SMILES IDX 51 88 52 89 53 90 54 91 55 92
REMARK H PARENT 6 14 4 20 79 42 45 53
REMARK Flexibility Score: inf
ROOT
ATOM      1  C   UNL A   1      41.677  20.122  26.121  1.00  0.00     0.275 C 
ENDROOT
BRANCH   1   2
ATOM      2  O   UNL A   1      41.841  18.742  25.755  1.00  0.00    -0.457 OA
BRANCH   2   3
ATOM      3  C   UNL A   1      43.040  18.170  26.096  1.00  0.00     0.360 C 
ATOM      4  O   UNL A   1      43.145  17.159  26.786  1.00  0.00    -0.244 OA
BRANCH   3   5
ATOM      5  C   UNL A   1      44.175  18.879  25.529  1.00  0.00     0.190 A 
ATOM      6  N   UNL A   1      45.526  20.365  24.706  1.00  0.00    -0.237 N 
ATOM      7  C   UNL A   1      44.223  20.184  25.077  1.00  0.00     0.147 A 
ATOM      8  N   UNL A   1      46.241  19.242  24.884  1.00  0.00    -0.066 NA
ATOM      9  N   UNL A   1      45.418  18.312  25.355  1.00  0.00    -0.123 NA
BRANCH   6  10
ATOM     10  C   UNL A   1      46.085  21.669  24.526  1.00  0.00     0.218 C 
ATOM     11  N   UNL A   1      45.527  23.692  24.697  1.00  0.00    -0.329 N 
ATOM     12  C   UNL A   1      46.011  22.672  25.697  1.00  0.00     0.296 C 
ATOM     13  C   UNL A   1      45.000  22.566  23.901  1.00  0.00     0.296 C 
ATOM     14  H   UNL A   1      46.140  24.396  24.288  1.00  0.00     0.348 HD
BRANCH  11  15
ATOM     15  C   UNL A   1      44.442  24.509  25.272  1.00  0.00     0.294 C 
BRANCH  15  16
ATOM     16  C   UNL A   1      44.738  26.031  25.434  1.00  0.00     0.169 C 
BRANCH  16  17
ATOM     17  C   UNL A   1      46.176  26.422  25.050  1.00  0.00     0.034 C 
ATOM     18  C   UNL A   1      46.515  27.894  25.220  1.00  0.00     0.007 C 
ENDBRANCH  16  17
BRANCH  16  19
ATOM     19  O   UNL A   1      43.825  26.740  24.584  1.00  0.00    -0.387 OA
ATOM     20  H   UNL A   1      42.914  26.530  24.842  1.00  0.00     0.211 HD
ENDBRANCH  16  19
ENDBRANCH  15  16
ENDBRANCH  11  15
ENDBRANCH   6  10
ENDBRANCH   3   5
ENDBRANCH   2   3
ENDBRANCH   1   2
BRANCH   1  21
ATOM     21  C   UNL A   1      40.366  20.328  26.865  1.00  0.00     0.275 C 
BRANCH  21  22
ATOM     22  O   UNL A   1      40.300  21.636  27.434  1.00  0.00    -0.458 OA
BRANCH  22  23
ATOM     23  C   UNL A   1      39.593  22.535  26.710  1.00  0.00     0.338 C 
ATOM     24  O   UNL A   1      38.796  22.292  25.819  1.00  0.00    -0.246 OA
BRANCH  23  25
ATOM     25  C   UNL A   1      40.108  23.878  26.981  1.00  0.00     0.060 A 
ATOM     26  C   UNL A   1      41.369  23.981  27.577  1.00  0.00     0.016 A 
ATOM     27  C   UNL A   1      39.221  24.962  26.923  1.00  0.00     0.016 A 
ATOM     28  C   UNL A   1      41.674  25.137  28.268  1.00  0.00     0.010 A 
ATOM     29  C   UNL A   1      39.516  26.098  27.631  1.00  0.00     0.010 A 
ATOM     30  C   UNL A   1      40.708  26.144  28.351  1.00  0.00    -0.014 A 
BRANCH  30  31
ATOM     31  C   UNL A   1      41.017  27.349  29.094  1.00  0.00     0.031 A 
ATOM     32  C   UNL A   1      42.141  28.102  28.487  1.00  0.00     0.074 A 
ATOM     33  C   UNL A   1      40.231  27.784  30.099  1.00  0.00     0.049 A 
ATOM     34  N   UNL A   1      43.314  28.313  28.984  1.00  0.00    -0.248 NA
ATOM     35  C   UNL A   1      42.018  28.487  27.067  1.00  0.00     0.031 C 
ATOM     36  C   UNL A   1      38.948  27.227  30.543  1.00  0.00     0.029 A 
ATOM     37  N   UNL A   1      40.356  28.893  30.872  1.00  0.00    -0.354 N 
ATOM     38  C   UNL A   1      43.977  29.088  28.036  1.00  0.00     0.074 A 
ATOM     39  C   UNL A   1      43.240  28.950  26.811  1.00  0.00     0.031 C 
ATOM     40  C   UNL A   1      38.317  28.130  31.330  1.00  0.00     0.029 A 
ATOM     41  C   UNL A   1      39.196  29.264  31.547  1.00  0.00     0.049 A 
ATOM     42  H   UNL A   1      41.201  29.395  30.951  1.00  0.00     0.167 HD
ATOM     43  C   UNL A   1      44.888  30.023  28.417  1.00  0.00     0.037 A 
ATOM     44  C   UNL A   1      38.969  30.457  32.160  1.00  0.00     0.037 A 
ATOM     45  C   UNL A   1      45.363  29.759  29.753  1.00  0.00     0.049 A 
ATOM     46  C   UNL A   1      40.300  31.084  32.389  1.00  0.00     0.074 A 
ATOM     47  C   UNL A   1      46.004  28.698  30.362  1.00  0.00     0.029 A 
ATOM     48  N   UNL A   1      44.835  30.518  30.770  1.00  0.00    -0.354 N 
ATOM     49  N   UNL A   1      41.202  30.595  33.197  1.00  0.00    -0.248 NA
ATOM     50  C   UNL A   1      40.810  31.975  31.357  1.00  0.00     0.031 C 
ATOM     51  C   UNL A   1      45.436  28.621  31.668  1.00  0.00     0.029 A 
ATOM     52  C   UNL A   1      44.538  29.679  31.814  1.00  0.00     0.049 A 
ATOM     53  H   UNL A   1      44.695  31.492  30.753  1.00  0.00     0.167 HD
ATOM     54  C   UNL A   1      42.407  30.758  32.529  1.00  0.00     0.074 A 
ATOM     55  C   UNL A   1      42.111  31.682  31.435  1.00  0.00     0.031 C 
ATOM     56  C   UNL A   1      43.454  29.907  32.746  1.00  0.00     0.037 A 
BRANCH  43  57
ATOM     57  C   UNL A   1      45.015  31.382  27.764  1.00  0.00     0.058 A 
ATOM     58  C   UNL A   1      46.226  31.719  27.126  1.00  0.00     0.135 A 
ATOM     59  C   UNL A   1      44.127  32.462  27.983  1.00  0.00     0.135 A 
ATOM     60  F   UNL A   1      47.148  30.777  26.868  1.00  0.00    -0.206 F 
ATOM     61  C   UNL A   1      46.567  33.036  26.815  1.00  0.00     0.059 A 
ATOM     62  C   UNL A   1      44.424  33.772  27.629  1.00  0.00     0.059 A 
ATOM     63  F   UNL A   1      42.968  32.331  28.635  1.00  0.00    -0.206 F 
ATOM     64  C   UNL A   1      45.662  34.057  27.088  1.00  0.00     0.060 A 
BRANCH  64  65
ATOM     65  S   UNL A   1      46.135  35.766  26.785  1.00  0.00     0.124 S 
ATOM     66  O   UNL A   1      44.865  36.456  26.978  1.00  0.00    -0.237 OA
ATOM     67  O   UNL A   1      47.146  35.985  27.814  1.00  0.00    -0.237 OA
ATOM     68  O   UNL A   1      46.638  35.738  25.415  1.00  0.00    -0.744 OA
ENDBRANCH  64  65
ENDBRANCH  43  57
BRANCH  44  69
ATOM     69  C   UNL A   1      37.701  31.243  32.193  1.00  0.00     0.058 A 
ATOM     70  C   UNL A   1      37.121  31.655  33.408  1.00  0.00     0.135 A 
ATOM     71  C   UNL A   1      37.183  31.849  31.029  1.00  0.00     0.135 A 
ATOM     72  F   UNL A   1      37.567  31.154  34.570  1.00  0.00    -0.206 F 
ATOM     73  C   UNL A   1      36.122  32.637  33.468  1.00  0.00     0.059 A 
ATOM     74  C   UNL A   1      36.183  32.819  31.063  1.00  0.00     0.059 A 
ATOM     75  F   UNL A   1      37.700  31.582  29.821  1.00  0.00    -0.206 F 
ATOM     76  C   UNL A   1      35.671  33.228  32.289  1.00  0.00     0.060 A 
BRANCH  76  77
ATOM     77  S   UNL A   1      34.501  34.606  32.364  1.00  0.00     0.124 S 
ATOM     78  O   UNL A   1      35.256  35.605  33.112  1.00  0.00    -0.237 OA
ATOM     79  O   UNL A   1      34.276  34.900  30.953  1.00  0.00    -0.237 OA
ATOM     80  O   UNL A   1      33.354  34.038  33.069  1.00  0.00    -0.744 OA
ENDBRANCH  76  77
ENDBRANCH  44  69
BRANCH  56  81
ATOM     81  C   UNL A   1      43.391  28.988  33.941  1.00  0.00     0.058 A 
ATOM     82  C   UNL A   1      43.680  29.368  35.265  1.00  0.00     0.135 A 
ATOM     83  C   UNL A   1      42.863  27.703  33.746  1.00  0.00     0.135 A 
ATOM     84  F   UNL A   1      44.091  30.611  35.552  1.00  0.00    -0.206 F 
ATOM     85  C   UNL A   1      43.488  28.493  36.338  1.00  0.00     0.059 A 
ATOM     86  C   UNL A   1      42.634  26.828  34.803  1.00  0.00     0.059 A 
ATOM     87  F   UNL A   1      42.510  27.302  32.514  1.00  0.00    -0.206 F 
ATOM     88  C   UNL A   1      42.962  27.224  36.097  1.00  0.00     0.060 A 
BRANCH  88  89
ATOM     89  S   UNL A   1      42.651  26.115  37.487  1.00  0.00     0.124 S 
ATOM     90  O   UNL A   1      43.539  26.651  38.513  1.00  0.00    -0.237 OA
ATOM     91  O   UNL A   1      41.222  26.298  37.727  1.00  0.00    -0.237 OA
ATOM     92  O   UNL A   1      43.021  24.801  36.967  1.00  0.00    -0.744 OA
ENDBRANCH  88  89
ENDBRANCH  56  81
ENDBRANCH  30  31
ENDBRANCH  23  25
ENDBRANCH  22  23
ENDBRANCH  21  22
ENDBRANCH   1  21
TORSDOF 19
ENDMDL
MODEL 2
REMARK VINA RESULT:     -11.2      3.341      5.537
REMARK SMILES CC[C@@H](O)C[NH+]1CC(n2cc(C(=O)OCCOC(=O)c3ccc(-c4c5nc(c(-c6c(F)cc(S(=O)(=O)[O-])cc6F)c6ccc([nH]6)c(-c6c(F)cc(S(=O)(=O)[O-])cc6F)c6nc(c(-c7c(F)cc(S(=O)(=O)[O-])cc7F)c7ccc4[nH]7)C=C6)C=C5)cc3)nn2)C1
REMARK SMILES IDX 15 1 14 2 12 3 13 4 11 5 9 6 10 7 87 8 86 9 8 10 6 11 7 12
REMARK SMILES IDX 88 13 5 15 3 16 2 17 1 18 4 19 16 21 17 22 18 23 19 24 20 25
REMARK SMILES IDX 21 26 85 27 22 28 84 29 23 30 24 31 25 32 78 33 26 34 83 35
REMARK SMILES IDX 77 36 79 37 27 38 82 39 76 40 75 41 28 43 62 44 41 45 61 46
REMARK SMILES IDX 42 47 45 48 60 49 80 50 43 51 44 52 59 54 81 55 46 56 29 57
REMARK SMILES IDX 30 58 39 59 31 60 32 61 38 62 40 63 33 64 34 65 35 66 36 67
REMARK SMILES IDX 37 68 63 69 64 70 73 71 65 72 66 73 72 74 74 75 67 76 68 77
REMARK SMILES IDX 69 78 70 79 71 80 47 81 48 82 57 83 49 84 50 85 56 86 58 87
REMARK SMILES IDX 51 88 52 89 53 90 54 91 55 92
REMARK H PARENT 6 14 4 20 79 42 45 53
REMARK Flexibility Score: inf
ROOT
ATOM      1  C   UNL A   1      42.015  19.539  26.835  1.00  0.00     0.275 C 
ENDROOT
BRANCH   1   2
ATOM      2  O   UNL A   1      40.903  20.259  26.277  1.00  0.00    -0.457 OA
BRANCH   2   3
ATOM      3  C   UNL A   1      40.442  21.316  27.020  1.00  0.00     0.360 C 
ATOM      4  O   UNL A   1      40.929  21.663  28.093  1.00  0.00    -0.244 OA
BRANCH   3   5
ATOM      5  C   UNL A   1      39.328  21.999  26.383  1.00  0.00     0.190 A 
ATOM      6  N   UNL A   1      37.573  22.521  25.218  1.00  0.00    -0.237 N 
ATOM      7  C   UNL A   1      38.462  21.504  25.427  1.00  0.00     0.147 A 
ATOM      8  N   UNL A   1      37.878  23.592  25.968  1.00  0.00    -0.066 NA
ATOM      9  N   UNL A   1      38.972  23.300  26.661  1.00  0.00    -0.123 NA
BRANCH   6  10
ATOM     10  C   UNL A   1      36.312  22.301  24.581  1.00  0.00     0.218 C 
ATOM     11  N   UNL A   1      34.551  21.180  24.852  1.00  0.00    -0.329 N 
ATOM     12  C   UNL A   1      35.024  22.499  25.408  1.00  0.00     0.296 C 
ATOM     13  C   UNL A   1      35.972  20.805  24.709  1.00  0.00     0.296 C 
ATOM     14  H   UNL A   1      33.898  21.113  24.072  1.00  0.00     0.348 HD
BRANCH  11  15
ATOM     15  C   UNL A   1      33.880  20.385  25.898  1.00  0.00     0.294 C 
BRANCH  15  16
ATOM     16  C   UNL A   1      32.708  19.472  25.424  1.00  0.00     0.169 C 
BRANCH  16  17
ATOM     17  C   UNL A   1      32.964  18.802  24.062  1.00  0.00     0.034 C 
ATOM     18  C   UNL A   1      34.017  17.705  24.068  1.00  0.00     0.007 C 
ENDBRANCH  16  17
BRANCH  16  19
ATOM     19  O   UNL A   1      32.532  18.449  26.414  1.00  0.00    -0.387 OA
ATOM     20  H   UNL A   1      33.187  18.567  27.121  1.00  0.00     0.211 HD
ENDBRANCH  16  19
ENDBRANCH  15  16
ENDBRANCH  11  15
ENDBRANCH   6  10
ENDBRANCH   3   5
ENDBRANCH   2   3
ENDBRANCH   1   2
BRANCH   1  21
ATOM     21  C   UNL A   1      42.999  19.141  25.745  1.00  0.00     0.275 C 
BRANCH  21  22
ATOM     22  O   UNL A   1      44.152  19.980  25.763  1.00  0.00    -0.458 OA
BRANCH  22  23
ATOM     23  C   UNL A   1      44.323  20.736  24.654  1.00  0.00     0.338 C 
ATOM     24  O   UNL A   1      44.545  20.334  23.523  1.00  0.00    -0.246 OA
BRANCH  23  25
ATOM     25  C   UNL A   1      44.452  22.140  25.045  1.00  0.00     0.060 A 
ATOM     26  C   UNL A   1      45.399  22.456  26.025  1.00  0.00     0.016 A 
ATOM     27  C   UNL A   1      43.445  23.038  24.667  1.00  0.00     0.016 A 
ATOM     28  C   UNL A   1      45.231  23.620  26.747  1.00  0.00     0.010 A 
ATOM     29  C   UNL A   1      43.265  24.180  25.403  1.00  0.00     0.010 A 
ATOM     30  C   UNL A   1      44.118  24.422  26.477  1.00  0.00    -0.014 A 
BRANCH  30  31
ATOM     31  C   UNL A   1      43.927  25.633  27.249  1.00  0.00     0.031 A 
ATOM     32  C   UNL A   1      44.989  26.634  26.984  1.00  0.00     0.074 A 
ATOM     33  C   UNL A   1      42.806  25.849  27.965  1.00  0.00     0.049 A 
ATOM     34  N   UNL A   1      45.890  27.070  27.801  1.00  0.00    -0.248 NA
ATOM     35  C   UNL A   1      45.209  27.042  25.583  1.00  0.00     0.031 C 
ATOM     36  C   UNL A   1      41.601  25.013  28.022  1.00  0.00     0.029 A 
ATOM     37  N   UNL A   1      42.455  26.927  28.714  1.00  0.00    -0.354 N 
ATOM     38  C   UNL A   1      46.618  28.007  27.073  1.00  0.00     0.074 A 
ATOM     39  C   UNL A   1      46.323  27.766  25.689  1.00  0.00     0.031 C 
ATOM     40  C   UNL A   1      40.587  25.727  28.565  1.00  0.00     0.029 A 
ATOM     41  C   UNL A   1      41.097  27.013  29.005  1.00  0.00     0.049 A 
ATOM     42  H   UNL A   1      43.110  27.593  29.027  1.00  0.00     0.167 HD
ATOM     43  C   UNL A   1      47.152  29.098  27.685  1.00  0.00     0.037 A 
ATOM     44  C   UNL A   1      40.447  28.103  29.495  1.00  0.00     0.037 A 
ATOM     45  C   UNL A   1      47.258  28.887  29.107  1.00  0.00     0.049 A 
ATOM     46  C   UNL A   1      41.483  28.990  30.093  1.00  0.00     0.074 A 
ATOM     47  C   UNL A   1      47.905  27.963  29.904  1.00  0.00     0.029 A 
ATOM     48  N   UNL A   1      46.304  29.472  29.904  1.00  0.00    -0.354 N 
ATOM     49  N   UNL A   1      42.190  28.671  31.143  1.00  0.00    -0.248 NA
ATOM     50  C   UNL A   1      42.069  30.011  29.236  1.00  0.00     0.031 C 
ATOM     51  C   UNL A   1      47.009  27.712  30.985  1.00  0.00     0.029 A 
ATOM     52  C   UNL A   1      45.901  28.547  30.833  1.00  0.00     0.049 A 
ATOM     53  H   UNL A   1      45.968  30.394  29.822  1.00  0.00     0.167 HD
ATOM     54  C   UNL A   1      43.474  29.115  30.858  1.00  0.00     0.074 A 
ATOM     55  C   UNL A   1      43.320  30.000  29.704  1.00  0.00     0.031 C 
ATOM     56  C   UNL A   1      44.568  28.499  31.396  1.00  0.00     0.037 A 
BRANCH  43  57
ATOM     57  C   UNL A   1      47.169  30.479  27.065  1.00  0.00     0.058 A 
ATOM     58  C   UNL A   1      48.372  31.213  27.074  1.00  0.00     0.135 A 
ATOM     59  C   UNL A   1      46.011  31.222  26.733  1.00  0.00     0.135 A 
ATOM     60  F   UNL A   1      49.536  30.614  27.377  1.00  0.00    -0.206 F 
ATOM     61  C   UNL A   1      48.409  32.591  26.859  1.00  0.00     0.059 A 
ATOM     62  C   UNL A   1      46.035  32.584  26.462  1.00  0.00     0.059 A 
ATOM     63  F   UNL A   1      44.781  30.699  26.746  1.00  0.00    -0.206 F 
ATOM     64  C   UNL A   1      47.229  33.269  26.571  1.00  0.00     0.060 A 
BRANCH  64  65
ATOM     65  S   UNL A   1      47.253  35.060  26.396  1.00  0.00     0.124 S 
ATOM     66  O   UNL A   1      47.542  35.480  27.762  1.00  0.00    -0.237 OA
ATOM     67  O   UNL A   1      48.325  35.252  25.425  1.00  0.00    -0.237 OA
ATOM     68  O   UNL A   1      45.912  35.367  25.910  1.00  0.00    -0.744 OA
ENDBRANCH  64  65
ENDBRANCH  43  57
BRANCH  44  69
ATOM     69  C   UNL A   1      39.087  28.598  29.131  1.00  0.00     0.058 A 
ATOM     70  C   UNL A   1      38.069  28.727  30.095  1.00  0.00     0.135 A 
ATOM     71  C   UNL A   1      38.840  29.222  27.891  1.00  0.00     0.135 A 
ATOM     72  F   UNL A   1      38.224  28.190  31.315  1.00  0.00    -0.206 F 
ATOM     73  C   UNL A   1      36.899  29.465  29.858  1.00  0.00     0.059 A 
ATOM     74  C   UNL A   1      37.681  29.952  27.628  1.00  0.00     0.059 A 
ATOM     75  F   UNL A   1      39.764  29.220  26.919  1.00  0.00    -0.206 F 
ATOM     76  C   UNL A   1      36.723  30.091  28.625  1.00  0.00     0.060 A 
BRANCH  76  77
ATOM     77  S   UNL A   1      35.299  31.175  28.363  1.00  0.00     0.124 S 
ATOM     78  O   UNL A   1      34.968  31.576  29.725  1.00  0.00    -0.237 OA
ATOM     79  O   UNL A   1      35.856  32.218  27.508  1.00  0.00    -0.237 OA
ATOM     80  O   UNL A   1      34.322  30.301  27.717  1.00  0.00    -0.744 OA
ENDBRANCH  76  77
ENDBRANCH  44  69
BRANCH  56  81
ATOM     81  C   UNL A   1      44.357  27.540  32.540  1.00  0.00     0.058 A 
ATOM     82  C   UNL A   1      44.147  27.917  33.880  1.00  0.00     0.135 A 
ATOM     83  C   UNL A   1      44.208  26.180  32.230  1.00  0.00     0.135 A 
ATOM     84  F   UNL A   1      44.170  29.207  34.245  1.00  0.00    -0.206 F 
ATOM     85  C   UNL A   1      43.843  26.978  34.869  1.00  0.00     0.059 A 
ATOM     86  C   UNL A   1      43.873  25.233  33.191  1.00  0.00     0.059 A 
ATOM     87  F   UNL A   1      44.336  25.764  30.959  1.00  0.00    -0.206 F 
ATOM     88  C   UNL A   1      43.706  25.636  34.514  1.00  0.00     0.060 A 
BRANCH  88  89
ATOM     89  S   UNL A   1      43.247  24.428  35.775  1.00  0.00     0.124 S 
ATOM     90  O   UNL A   1      43.909  23.219  35.298  1.00  0.00    -0.237 OA
ATOM     91  O   UNL A   1      43.799  25.015  36.993  1.00  0.00    -0.237 OA
ATOM     92  O   UNL A   1      41.788  24.405  35.713  1.00  0.00    -0.744 OA
ENDBRANCH  88  89
ENDBRANCH  56  81
ENDBRANCH  30  31
ENDBRANCH  23  25
ENDBRANCH  22  23
ENDBRANCH  21  22
ENDBRANCH   1  21
TORSDOF 19
ENDMDL
MODEL 3
REMARK VINA RESULT:     -11.0      4.599     11.184
REMARK SMILES CC[C@@H](O)C[NH+]1CC(n2cc(C(=O)OCCOC(=O)c3ccc(-c4c5nc(c(-c6c(F)cc(S(=O)(=O)[O-])cc6F)c6ccc([nH]6)c(-c6c(F)cc(S(=O)(=O)[O-])cc6F)c6nc(c(-c7c(F)cc(S(=O)(=O)[O-])cc7F)c7ccc4[nH]7)C=C6)C=C5)cc3)nn2)C1
REMARK SMILES IDX 15 1 14 2 12 3 13 4 11 5 9 6 10 7 87 8 86 9 8 10 6 11 7 12
REMARK SMILES IDX 88 13 5 15 3 16 2 17 1 18 4 19 16 21 17 22 18 23 19 24 20 25
REMARK SMILES IDX 21 26 85 27 22 28 84 29 23 30 24 31 25 32 78 33 26 34 83 35
REMARK SMILES IDX 77 36 79 37 27 38 82 39 76 40 75 41 28 43 62 44 41 45 61 46
REMARK SMILES IDX 42 47 45 48 60 49 80 50 43 51 44 52 59 54 81 55 46 56 29 57
REMARK SMILES IDX 30 58 39 59 31 60 32 61 38 62 40 63 33 64 34 65 35 66 36 67
REMARK SMILES IDX 37 68 63 69 64 70 73 71 65 72 66 73 72 74 74 75 67 76 68 77
REMARK SMILES IDX 69 78 70 79 71 80 47 81 48 82 57 83 49 84 50 85 56 86 58 87
REMARK SMILES IDX 51 88 52 89 53 90 54 91 55 92
REMARK H PARENT 6 14 4 20 79 42 45 53
REMARK Flexibility Score: inf
ROOT
ATOM      1  C   UNL A   1      32.085  29.618  27.029  1.00  0.00     0.275 C 
ENDROOT
BRANCH   1   2
ATOM      2  O   UNL A   1      31.822  29.008  25.755  1.00  0.00    -0.457 OA
BRANCH   2   3
ATOM      3  C   UNL A   1      32.593  27.918  25.442  1.00  0.00     0.360 C 
ATOM      4  O   UNL A   1      33.698  27.992  24.910  1.00  0.00    -0.244 OA
BRANCH   3   5
ATOM      5  C   UNL A   1      31.970  26.665  25.834  1.00  0.00     0.190 A 
ATOM      6  N   UNL A   1      31.553  24.603  26.367  1.00  0.00    -0.237 N 
ATOM      7  C   UNL A   1      32.543  25.408  25.878  1.00  0.00     0.147 A 
ATOM      8  N   UNL A   1      30.426  25.299  26.586  1.00  0.00    -0.066 NA
ATOM      9  N   UNL A   1      30.656  26.558  26.229  1.00  0.00    -0.123 NA
BRANCH   6  10
ATOM     10  C   UNL A   1      31.832  23.309  26.908  1.00  0.00     0.218 C 
ATOM     11  N   UNL A   1      32.169  21.335  26.257  1.00  0.00    -0.329 N 
ATOM     12  C   UNL A   1      33.065  22.541  26.387  1.00  0.00     0.296 C 
ATOM     13  C   UNL A   1      31.041  22.273  26.088  1.00  0.00     0.296 C 
ATOM     14  H   UNL A   1      32.146  20.589  26.951  1.00  0.00     0.348 HD
BRANCH  11  15
ATOM     15  C   UNL A   1      32.461  20.603  25.011  1.00  0.00     0.294 C 
BRANCH  15  16
ATOM     16  C   UNL A   1      32.624  19.057  25.142  1.00  0.00     0.169 C 
BRANCH  16  17
ATOM     17  C   UNL A   1      33.767  18.486  24.283  1.00  0.00     0.034 C 
ATOM     18  C   UNL A   1      34.254  17.104  24.690  1.00  0.00     0.007 C 
ENDBRANCH  16  17
BRANCH  16  19
ATOM     19  O   UNL A   1      32.896  18.769  26.520  1.00  0.00    -0.387 OA
ATOM     20  H   UNL A   1      32.484  19.446  27.080  1.00  0.00     0.211 HD
ENDBRANCH  16  19
ENDBRANCH  15  16
ENDBRANCH  11  15
ENDBRANCH   6  10
ENDBRANCH   3   5
ENDBRANCH   2   3
ENDBRANCH   1   2
BRANCH   1  21
ATOM     21  C   UNL A   1      33.106  30.737  26.888  1.00  0.00     0.275 C 
BRANCH  21  22
ATOM     22  O   UNL A   1      34.385  30.330  27.373  1.00  0.00    -0.458 OA
BRANCH  22  23
ATOM     23  C   UNL A   1      35.169  31.336  27.824  1.00  0.00     0.338 C 
ATOM     24  O   UNL A   1      35.067  32.521  27.550  1.00  0.00    -0.246 OA
BRANCH  23  25
ATOM     25  C   UNL A   1      36.333  30.768  28.505  1.00  0.00     0.060 A 
ATOM     26  C   UNL A   1      37.258  31.658  29.060  1.00  0.00     0.016 A 
ATOM     27  C   UNL A   1      36.630  29.412  28.311  1.00  0.00     0.016 A 
ATOM     28  C   UNL A   1      38.548  31.216  29.269  1.00  0.00     0.010 A 
ATOM     29  C   UNL A   1      37.919  28.983  28.495  1.00  0.00     0.010 A 
ATOM     30  C   UNL A   1      38.877  29.907  28.905  1.00  0.00    -0.014 A 
BRANCH  30  31
ATOM     31  C   UNL A   1      40.236  29.447  29.103  1.00  0.00     0.031 A 
ATOM     32  C   UNL A   1      40.597  29.381  30.540  1.00  0.00     0.074 A 
ATOM     33  C   UNL A   1      40.980  28.973  28.083  1.00  0.00     0.049 A 
ATOM     34  N   UNL A   1      41.471  30.091  31.172  1.00  0.00    -0.248 NA
ATOM     35  C   UNL A   1      39.733  28.575  31.425  1.00  0.00     0.031 C 
ATOM     36  C   UNL A   1      40.563  28.747  26.695  1.00  0.00     0.029 A 
ATOM     37  N   UNL A   1      42.247  28.482  28.096  1.00  0.00    -0.354 N 
ATOM     38  C   UNL A   1      41.441  29.624  32.483  1.00  0.00     0.074 A 
ATOM     39  C   UNL A   1      40.214  28.892  32.626  1.00  0.00     0.031 C 
ATOM     40  C   UNL A   1      41.471  27.956  26.078  1.00  0.00     0.029 A 
ATOM     41  C   UNL A   1      42.586  27.725  26.979  1.00  0.00     0.049 A 
ATOM     42  H   UNL A   1      42.875  28.649  28.837  1.00  0.00     0.167 HD
ATOM     43  C   UNL A   1      42.571  29.610  33.240  1.00  0.00     0.037 A 
ATOM     44  C   UNL A   1      43.668  26.909  26.858  1.00  0.00     0.037 A 
ATOM     45  C   UNL A   1      43.559  30.513  32.703  1.00  0.00     0.049 A 
ATOM     46  C   UNL A   1      44.640  27.326  27.906  1.00  0.00     0.074 A 
ATOM     47  C   UNL A   1      43.593  31.869  32.444  1.00  0.00     0.029 A 
ATOM     48  N   UNL A   1      44.586  29.962  31.975  1.00  0.00    -0.354 N 
ATOM     49  N   UNL A   1      45.244  28.483  27.916  1.00  0.00    -0.248 NA
ATOM     50  C   UNL A   1      44.567  26.654  29.196  1.00  0.00     0.031 C 
ATOM     51  C   UNL A   1      44.329  31.997  31.230  1.00  0.00     0.029 A 
ATOM     52  C   UNL A   1      44.768  30.727  30.852  1.00  0.00     0.049 A 
ATOM     53  H   UNL A   1      45.101  29.159  32.218  1.00  0.00     0.167 HD
ATOM     54  C   UNL A   1      45.237  28.880  29.246  1.00  0.00     0.074 A 
ATOM     55  C   UNL A   1      44.877  27.677  29.996  1.00  0.00     0.031 C 
ATOM     56  C   UNL A   1      45.238  30.203  29.587  1.00  0.00     0.037 A 
BRANCH  43  57
ATOM     57  C   UNL A   1      42.929  28.484  34.187  1.00  0.00     0.058 A 
ATOM     58  C   UNL A   1      43.233  28.795  35.528  1.00  0.00     0.135 A 
ATOM     59  C   UNL A   1      43.270  27.172  33.779  1.00  0.00     0.135 A 
ATOM     60  F   UNL A   1      42.957  30.011  36.027  1.00  0.00    -0.206 F 
ATOM     61  C   UNL A   1      43.903  27.906  36.368  1.00  0.00     0.059 A 
ATOM     62  C   UNL A   1      43.887  26.253  34.617  1.00  0.00     0.059 A 
ATOM     63  F   UNL A   1      43.115  26.737  32.525  1.00  0.00    -0.206 F 
ATOM     64  C   UNL A   1      44.241  26.642  35.895  1.00  0.00     0.060 A 
BRANCH  64  65
ATOM     65  S   UNL A   1      45.196  25.529  36.937  1.00  0.00     0.124 S 
ATOM     66  O   UNL A   1      45.699  24.574  35.956  1.00  0.00    -0.237 OA
ATOM     67  O   UNL A   1      46.183  26.433  37.517  1.00  0.00    -0.237 OA
ATOM     68  O   UNL A   1      44.202  25.010  37.872  1.00  0.00    -0.744 OA
ENDBRANCH  64  65
ENDBRANCH  43  57
BRANCH  44  69
ATOM     69  C   UNL A   1      43.742  25.579  26.185  1.00  0.00     0.058 A 
ATOM     70  C   UNL A   1      44.760  25.278  25.261  1.00  0.00     0.135 A 
ATOM     71  C   UNL A   1      42.985  24.482  26.644  1.00  0.00     0.135 A 
ATOM     72  F   UNL A   1      45.551  26.254  24.788  1.00  0.00    -0.206 F 
ATOM     73  C   UNL A   1      45.038  23.965  24.851  1.00  0.00     0.059 A 
ATOM     74  C   UNL A   1      43.236  23.169  26.243  1.00  0.00     0.059 A 
ATOM     75  F   UNL A   1      42.030  24.638  27.573  1.00  0.00    -0.206 F 
ATOM     76  C   UNL A   1      44.280  22.913  25.363  1.00  0.00     0.060 A 
BRANCH  76  77
ATOM     77  S   UNL A   1      44.730  21.206  24.969  1.00  0.00     0.124 S 
ATOM     78  O   UNL A   1      46.097  21.128  25.474  1.00  0.00    -0.237 OA
ATOM     79  O   UNL A   1      43.732  20.443  25.710  1.00  0.00    -0.237 OA
ATOM     80  O   UNL A   1      44.600  21.148  23.515  1.00  0.00    -0.744 OA
ENDBRANCH  76  77
ENDBRANCH  44  69
BRANCH  56  81
ATOM     81  C   UNL A   1      45.560  31.215  28.517  1.00  0.00     0.058 A 
ATOM     82  C   UNL A   1      44.630  31.745  27.603  1.00  0.00     0.135 A 
ATOM     83  C   UNL A   1      46.843  31.784  28.525  1.00  0.00     0.135 A 
ATOM     84  F   UNL A   1      43.356  31.331  27.597  1.00  0.00    -0.206 F 
ATOM     85  C   UNL A   1      44.975  32.767  26.714  1.00  0.00     0.059 A 
ATOM     86  C   UNL A   1      47.197  32.823  27.671  1.00  0.00     0.059 A 
ATOM     87  F   UNL A   1      47.758  31.364  29.413  1.00  0.00    -0.206 F 
ATOM     88  C   UNL A   1      46.262  33.302  26.757  1.00  0.00     0.060 A 
BRANCH  88  89
ATOM     89  S   UNL A   1      46.692  34.666  25.655  1.00  0.00     0.124 S 
ATOM     90  O   UNL A   1      46.576  35.822  26.537  1.00  0.00    -0.237 OA
ATOM     91  O   UNL A   1      48.047  34.322  25.235  1.00  0.00    -0.237 OA
ATOM     92  O   UNL A   1      45.684  34.584  24.601  1.00  0.00    -0.744 OA
ENDBRANCH  88  89
ENDBRANCH  56  81
ENDBRANCH  30  31
ENDBRANCH  23  25
ENDBRANCH  22  23
ENDBRANCH  21  22
ENDBRANCH   1  21
TORSDOF 19
ENDMDL
