MODEL 1
REMARK VINA RESULT:     -11.7      0.000      0.000
REMARK SMILES Cc1ccc(Cl)c(Nc2ccccc2C(=O)NCC(=O)OCCOC(=O)c2ccc(-c3c4nc(c(-c5c(F)cc(S(=O)(=O)[O-])cc5F)c5ccc([nH]5)c(-c5c(F)cc(S(=O)(=O)[O-])cc5F)c5nc(c(-c6c(F)cc(S(=O)(=O)[O-])cc6F)c6ccc3[nH]6)C=C5)C=C4)cc2)c1Cl
REMARK SMILES IDX 22 1 21 2 19 3 20 4 18 5 17 6 15 7 16 8 14 10 9 11 10 12
REMARK SMILES IDX 11 13 13 14 12 15 8 16 7 18 1 19 2 20 3 21 93 22 4 23 94 24
REMARK SMILES IDX 5 25 6 26 23 27 24 28 25 29 26 30 27 31 28 32 92 33 29 34
REMARK SMILES IDX 91 35 30 36 31 37 32 38 85 39 33 40 90 41 84 42 86 43 34 44
REMARK SMILES IDX 89 45 83 46 82 47 35 49 69 50 48 51 68 52 49 53 52 54 67 55
REMARK SMILES IDX 87 56 50 57 51 58 66 60 88 61 53 62 36 63 37 64 46 65 38 66
REMARK SMILES IDX 39 67 45 68 47 69 40 70 41 71 42 72 43 73 44 74 70 75 71 76
REMARK SMILES IDX 80 77 72 78 73 79 79 80 81 81 74 82 75 83 76 84 77 85 78 86
REMARK SMILES IDX 54 87 55 88 64 89 56 90 57 91 63 92 65 93 58 94 59 95 60 96
REMARK SMILES IDX 61 97 62 98
REMARK H PARENT 17 9 8 17 86 48 52 59
REMARK Flexibility Score: inf
ROOT
ATOM      1  C   UNL A   1      32.347  30.071  26.260  1.00  0.00     0.274 C 
ENDROOT
BRANCH   1   2
ATOM      2  O   UNL A   1      32.001  28.713  26.592  1.00  0.00    -0.461 OA
BRANCH   2   3
ATOM      3  C   UNL A   1      32.918  27.810  26.164  1.00  0.00     0.325 C 
ATOM      4  O   UNL A   1      34.029  28.100  25.724  1.00  0.00    -0.250 OA
BRANCH   3   5
ATOM      5  C   UNL A   1      32.544  26.370  26.434  1.00  0.00     0.239 C 
BRANCH   5   6
ATOM      6  N   UNL A   1      31.189  25.885  26.550  1.00  0.00    -0.341 N 
ATOM      7  C   UNL A   1      30.676  24.637  26.285  1.00  0.00     0.253 C 
ATOM      8  O   UNL A   1      29.565  24.377  26.755  1.00  0.00    -0.269 OA
ATOM      9  H   UNL A   1      30.534  26.548  26.866  1.00  0.00     0.164 HD
BRANCH   7  10
ATOM     10  C   UNL A   1      31.282  23.668  25.314  1.00  0.00     0.063 A 
ATOM     11  C   UNL A   1      31.254  23.666  23.903  1.00  0.00     0.051 A 
ATOM     12  C   UNL A   1      31.803  22.546  23.232  1.00  0.00     0.027 A 
ATOM     13  C   UNL A   1      32.443  21.508  23.908  1.00  0.00     0.002 A 
ATOM     14  C   UNL A   1      31.968  22.620  25.977  1.00  0.00     0.016 A 
ATOM     15  C   UNL A   1      32.553  21.562  25.287  1.00  0.00     0.001 A 
BRANCH  11  16
ATOM     16  N   UNL A   1      30.847  24.708  23.042  1.00  0.00    -0.352 N 
ATOM     17  H   UNL A   1      30.314  24.388  22.279  1.00  0.00     0.167 HD
BRANCH  16  18
ATOM     18  C   UNL A   1      31.036  26.112  23.030  1.00  0.00     0.077 A 
ATOM     19  C   UNL A   1      29.171  29.468  23.184  1.00  0.00     0.046 C 
ATOM     20  C   UNL A   1      30.254  28.438  23.011  1.00  0.00    -0.030 A 
ATOM     21  C   UNL A   1      31.539  28.872  22.664  1.00  0.00     0.006 A 
ATOM     22  C   UNL A   1      30.014  27.063  23.224  1.00  0.00     0.069 A 
ATOM     23  C   UNL A   1      32.581  27.960  22.560  1.00  0.00     0.023 A 
ATOM     24  Cl  UNL A   1      28.482  26.588  23.900  1.00  0.00    -0.082 Cl
ATOM     25  C   UNL A   1      32.332  26.602  22.732  1.00  0.00     0.066 A 
ATOM     26  Cl  UNL A   1      33.670  25.512  22.539  1.00  0.00    -0.082 Cl
ENDBRANCH  16  18
ENDBRANCH  11  16
ENDBRANCH   7  10
ENDBRANCH   5   6
ENDBRANCH   3   5
ENDBRANCH   2   3
ENDBRANCH   1   2
BRANCH   1  27
ATOM     27  C   UNL A   1      32.856  30.823  27.491  1.00  0.00     0.275 C 
BRANCH  27  28
ATOM     28  O   UNL A   1      34.281  31.047  27.435  1.00  0.00    -0.458 OA
BRANCH  28  29
ATOM     29  C   UNL A   1      34.892  31.226  28.630  1.00  0.00     0.338 C 
ATOM     30  O   UNL A   1      34.490  31.919  29.557  1.00  0.00    -0.246 OA
BRANCH  29  31
ATOM     31  C   UNL A   1      36.170  30.492  28.701  1.00  0.00     0.060 A 
ATOM     32  C   UNL A   1      36.731  30.129  29.924  1.00  0.00     0.016 A 
ATOM     33  C   UNL A   1      36.890  30.279  27.522  1.00  0.00     0.016 A 
ATOM     34  C   UNL A   1      38.045  29.639  29.964  1.00  0.00     0.010 A 
ATOM     35  C   UNL A   1      38.172  29.715  27.569  1.00  0.00     0.010 A 
ATOM     36  C   UNL A   1      38.801  29.434  28.795  1.00  0.00    -0.014 A 
BRANCH  36  37
ATOM     37  C   UNL A   1      40.243  29.001  28.830  1.00  0.00     0.031 A 
ATOM     38  C   UNL A   1      41.329  29.980  29.242  1.00  0.00     0.074 A 
ATOM     39  C   UNL A   1      40.632  27.748  28.509  1.00  0.00     0.049 A 
ATOM     40  N   UNL A   1      42.626  29.906  29.068  1.00  0.00    -0.248 NA
ATOM     41  C   UNL A   1      40.892  31.208  29.923  1.00  0.00     0.031 C 
ATOM     42  C   UNL A   1      39.747  26.647  28.137  1.00  0.00     0.029 A 
ATOM     43  N   UNL A   1      41.891  27.189  28.447  1.00  0.00    -0.354 N 
ATOM     44  C   UNL A   1      43.146  31.119  29.515  1.00  0.00     0.074 A 
ATOM     45  C   UNL A   1      42.024  31.895  30.000  1.00  0.00     0.031 C 
ATOM     46  C   UNL A   1      40.476  25.538  27.944  1.00  0.00     0.029 A 
ATOM     47  C   UNL A   1      41.894  25.870  28.059  1.00  0.00     0.049 A 
ATOM     48  H   UNL A   1      42.712  27.689  28.661  1.00  0.00     0.167 HD
ATOM     49  C   UNL A   1      44.431  31.553  29.509  1.00  0.00     0.037 A 
ATOM     50  C   UNL A   1      42.903  25.026  27.762  1.00  0.00     0.037 A 
ATOM     51  C   UNL A   1      45.569  30.750  29.137  1.00  0.00     0.049 A 
ATOM     52  C   UNL A   1      44.326  25.506  27.789  1.00  0.00     0.074 A 
ATOM     53  C   UNL A   1      46.909  31.104  29.134  1.00  0.00     0.029 A 
ATOM     54  N   UNL A   1      45.510  29.426  28.733  1.00  0.00    -0.354 N 
ATOM     55  N   UNL A   1      44.786  26.695  28.091  1.00  0.00    -0.248 NA
ATOM     56  C   UNL A   1      45.363  24.540  27.396  1.00  0.00     0.031 C 
ATOM     57  C   UNL A   1      47.658  29.999  28.710  1.00  0.00     0.029 A 
ATOM     58  C   UNL A   1      46.787  28.948  28.480  1.00  0.00     0.049 A 
ATOM     59  H   UNL A   1      44.682  28.900  28.641  1.00  0.00     0.167 HD
ATOM     60  C   UNL A   1      46.164  26.625  27.911  1.00  0.00     0.074 A 
ATOM     61  C   UNL A   1      46.466  25.269  27.502  1.00  0.00     0.031 C 
ATOM     62  C   UNL A   1      47.089  27.604  28.060  1.00  0.00     0.037 A 
BRANCH  49  63
ATOM     63  C   UNL A   1      44.683  32.994  29.869  1.00  0.00     0.058 A 
ATOM     64  C   UNL A   1      45.025  33.400  31.167  1.00  0.00     0.135 A 
ATOM     65  C   UNL A   1      44.608  33.982  28.871  1.00  0.00     0.135 A 
ATOM     66  F   UNL A   1      45.098  32.500  32.159  1.00  0.00    -0.206 F 
ATOM     67  C   UNL A   1      45.251  34.740  31.472  1.00  0.00     0.059 A 
ATOM     68  C   UNL A   1      44.854  35.323  29.147  1.00  0.00     0.059 A 
ATOM     69  F   UNL A   1      44.292  33.646  27.611  1.00  0.00    -0.206 F 
ATOM     70  C   UNL A   1      45.155  35.695  30.457  1.00  0.00     0.060 A 
BRANCH  70  71
ATOM     71  S   UNL A   1      45.432  37.433  30.862  1.00  0.00     0.124 S 
ATOM     72  O   UNL A   1      44.077  37.968  30.778  1.00  0.00    -0.237 OA
ATOM     73  O   UNL A   1      46.001  37.358  32.205  1.00  0.00    -0.237 OA
ATOM     74  O   UNL A   1      46.351  37.882  29.821  1.00  0.00    -0.744 OA
ENDBRANCH  70  71
ENDBRANCH  49  63
BRANCH  50  75
ATOM     75  C   UNL A   1      42.580  23.635  27.343  1.00  0.00     0.058 A 
ATOM     76  C   UNL A   1      42.519  23.286  25.987  1.00  0.00     0.135 A 
ATOM     77  C   UNL A   1      42.404  22.617  28.293  1.00  0.00     0.135 A 
ATOM     78  F   UNL A   1      42.656  24.230  25.042  1.00  0.00    -0.206 F 
ATOM     79  C   UNL A   1      42.324  21.969  25.586  1.00  0.00     0.059 A 
ATOM     80  C   UNL A   1      42.236  21.290  27.917  1.00  0.00     0.059 A 
ATOM     81  F   UNL A   1      42.458  22.905  29.603  1.00  0.00    -0.206 F 
ATOM     82  C   UNL A   1      42.203  20.974  26.560  1.00  0.00     0.060 A 
BRANCH  82  83
ATOM     83  S   UNL A   1      42.098  19.248  26.040  1.00  0.00     0.124 S 
ATOM     84  O   UNL A   1      42.532  18.551  27.244  1.00  0.00    -0.237 OA
ATOM     85  O   UNL A   1      40.687  19.111  25.695  1.00  0.00    -0.237 OA
ATOM     86  O   UNL A   1      43.017  19.189  24.906  1.00  0.00    -0.744 OA
ENDBRANCH  82  83
ENDBRANCH  50  75
BRANCH  62  87
ATOM     87  C   UNL A   1      48.524  27.249  27.786  1.00  0.00     0.058 A 
ATOM     88  C   UNL A   1      49.069  27.355  26.496  1.00  0.00     0.135 A 
ATOM     89  C   UNL A   1      49.371  26.832  28.825  1.00  0.00     0.135 A 
ATOM     90  F   UNL A   1      48.301  27.743  25.468  1.00  0.00    -0.206 F 
ATOM     91  C   UNL A   1      50.401  27.038  26.242  1.00  0.00     0.059 A 
ATOM     92  C   UNL A   1      50.710  26.526  28.597  1.00  0.00     0.059 A 
ATOM     93  F   UNL A   1      48.900  26.722  30.076  1.00  0.00    -0.206 F 
ATOM     94  C   UNL A   1      51.212  26.620  27.299  1.00  0.00     0.060 A 
BRANCH  94  95
ATOM     95  S   UNL A   1      52.943  26.225  26.964  1.00  0.00     0.124 S 
ATOM     96  O   UNL A   1      52.848  24.834  26.533  1.00  0.00    -0.237 OA
ATOM     97  O   UNL A   1      53.291  27.188  25.923  1.00  0.00    -0.237 OA
ATOM     98  O   UNL A   1      53.596  26.441  28.251  1.00  0.00    -0.744 OA
ENDBRANCH  94  95
ENDBRANCH  62  87
ENDBRANCH  36  37
ENDBRANCH  29  31
ENDBRANCH  28  29
ENDBRANCH  27  28
ENDBRANCH   1  27
TORSDOF 18
ENDMDL
MODEL 2
REMARK VINA RESULT:     -11.7      1.722      3.327
REMARK SMILES Cc1ccc(Cl)c(Nc2ccccc2C(=O)NCC(=O)OCCOC(=O)c2ccc(-c3c4nc(c(-c5c(F)cc(S(=O)(=O)[O-])cc5F)c5ccc([nH]5)c(-c5c(F)cc(S(=O)(=O)[O-])cc5F)c5nc(c(-c6c(F)cc(S(=O)(=O)[O-])cc6F)c6ccc3[nH]6)C=C5)C=C4)cc2)c1Cl
REMARK SMILES IDX 22 1 21 2 19 3 20 4 18 5 17 6 15 7 16 8 14 10 9 11 10 12
REMARK SMILES IDX 11 13 13 14 12 15 8 16 7 18 1 19 2 20 3 21 93 22 4 23 94 24
REMARK SMILES IDX 5 25 6 26 23 27 24 28 25 29 26 30 27 31 28 32 92 33 29 34
REMARK SMILES IDX 91 35 30 36 31 37 32 38 85 39 33 40 90 41 84 42 86 43 34 44
REMARK SMILES IDX 89 45 83 46 82 47 35 49 69 50 48 51 68 52 49 53 52 54 67 55
REMARK SMILES IDX 87 56 50 57 51 58 66 60 88 61 53 62 36 63 37 64 46 65 38 66
REMARK SMILES IDX 39 67 45 68 47 69 40 70 41 71 42 72 43 73 44 74 70 75 71 76
REMARK SMILES IDX 80 77 72 78 73 79 79 80 81 81 74 82 75 83 76 84 77 85 78 86
REMARK SMILES IDX 54 87 55 88 64 89 56 90 57 91 63 92 65 93 58 94 59 95 60 96
REMARK SMILES IDX 61 97 62 98
REMARK H PARENT 17 9 8 17 86 48 52 59
REMARK Flexibility Score: inf
ROOT
ATOM      1  C   UNL A   1      32.888  31.340  26.869  1.00  0.00     0.274 C 
ENDROOT
BRANCH   1   2
ATOM      2  O   UNL A   1      32.130  30.251  27.427  1.00  0.00    -0.461 OA
BRANCH   2   3
ATOM      3  C   UNL A   1      31.847  29.281  26.523  1.00  0.00     0.325 C 
ATOM      4  O   UNL A   1      31.623  29.482  25.331  1.00  0.00    -0.250 OA
BRANCH   3   5
ATOM      5  C   UNL A   1      32.002  27.873  27.054  1.00  0.00     0.239 C 
BRANCH   5   6
ATOM      6  N   UNL A   1      31.028  26.821  26.877  1.00  0.00    -0.341 N 
ATOM      7  C   UNL A   1      31.099  25.677  26.116  1.00  0.00     0.253 C 
ATOM      8  O   UNL A   1      30.284  24.786  26.370  1.00  0.00    -0.269 OA
ATOM      9  H   UNL A   1      30.189  26.941  27.376  1.00  0.00     0.164 HD
BRANCH   7  10
ATOM     10  C   UNL A   1      31.955  25.531  24.894  1.00  0.00     0.063 A 
ATOM     11  C   UNL A   1      33.202  24.890  24.735  1.00  0.00     0.051 A 
ATOM     12  C   UNL A   1      33.858  25.019  23.487  1.00  0.00     0.027 A 
ATOM     13  C   UNL A   1      33.275  25.668  22.398  1.00  0.00     0.002 A 
ATOM     14  C   UNL A   1      31.367  26.154  23.764  1.00  0.00     0.016 A 
ATOM     15  C   UNL A   1      32.009  26.210  22.530  1.00  0.00     0.001 A 
BRANCH  11  16
ATOM     16  N   UNL A   1      33.850  24.020  25.638  1.00  0.00    -0.352 N 
ATOM     17  H   UNL A   1      33.917  24.391  26.547  1.00  0.00     0.167 HD
BRANCH  16  18
ATOM     18  C   UNL A   1      34.429  22.732  25.526  1.00  0.00     0.077 A 
ATOM     19  C   UNL A   1      37.762  20.892  25.003  1.00  0.00     0.046 C 
ATOM     20  C   UNL A   1      36.292  21.182  25.138  1.00  0.00    -0.030 A 
ATOM     21  C   UNL A   1      35.387  20.123  25.000  1.00  0.00     0.006 A 
ATOM     22  C   UNL A   1      35.812  22.477  25.432  1.00  0.00     0.069 A 
ATOM     23  C   UNL A   1      34.027  20.336  25.182  1.00  0.00     0.023 A 
ATOM     24  Cl  UNL A   1      36.968  23.710  25.849  1.00  0.00    -0.082 Cl
ATOM     25  C   UNL A   1      33.555  21.620  25.433  1.00  0.00     0.066 A 
ATOM     26  Cl  UNL A   1      31.840  21.824  25.602  1.00  0.00    -0.082 Cl
ENDBRANCH  16  18
ENDBRANCH  11  16
ENDBRANCH   7  10
ENDBRANCH   5   6
ENDBRANCH   3   5
ENDBRANCH   2   3
ENDBRANCH   1   2
BRANCH   1  27
ATOM     27  C   UNL A   1      33.986  31.795  27.833  1.00  0.00     0.275 C 
BRANCH  27  28
ATOM     28  O   UNL A   1      35.054  30.829  27.929  1.00  0.00    -0.458 OA
BRANCH  28  29
ATOM     29  C   UNL A   1      35.795  30.886  29.060  1.00  0.00     0.338 C 
ATOM     30  O   UNL A   1      35.512  31.493  30.086  1.00  0.00    -0.246 OA
BRANCH  29  31
ATOM     31  C   UNL A   1      37.056  30.133  28.922  1.00  0.00     0.060 A 
ATOM     32  C   UNL A   1      37.740  29.652  30.036  1.00  0.00     0.016 A 
ATOM     33  C   UNL A   1      37.638  30.023  27.655  1.00  0.00     0.016 A 
ATOM     34  C   UNL A   1      39.039  29.145  29.885  1.00  0.00     0.010 A 
ATOM     35  C   UNL A   1      38.905  29.441  27.507  1.00  0.00     0.010 A 
ATOM     36  C   UNL A   1      39.658  29.040  28.625  1.00  0.00    -0.014 A 
BRANCH  36  37
ATOM     37  C   UNL A   1      41.085  28.589  28.460  1.00  0.00     0.031 A 
ATOM     38  C   UNL A   1      42.228  29.574  28.635  1.00  0.00     0.074 A 
ATOM     39  C   UNL A   1      41.412  27.313  28.159  1.00  0.00     0.049 A 
ATOM     40  N   UNL A   1      43.481  29.471  28.264  1.00  0.00    -0.248 NA
ATOM     41  C   UNL A   1      41.910  30.847  29.299  1.00  0.00     0.031 C 
ATOM     42  C   UNL A   1      40.474  26.205  28.000  1.00  0.00     0.029 A 
ATOM     43  N   UNL A   1      42.642  26.733  27.935  1.00  0.00    -0.354 N 
ATOM     44  C   UNL A   1      44.070  30.700  28.548  1.00  0.00     0.074 A 
ATOM     45  C   UNL A   1      43.043  31.521  29.154  1.00  0.00     0.031 C 
ATOM     46  C   UNL A   1      41.158  25.076  27.764  1.00  0.00     0.029 A 
ATOM     47  C   UNL A   1      42.577  25.392  27.634  1.00  0.00     0.049 A 
ATOM     48  H   UNL A   1      43.490  27.232  27.986  1.00  0.00     0.167 HD
ATOM     49  C   UNL A   1      45.341  31.114  28.314  1.00  0.00     0.037 A 
ATOM     50  C   UNL A   1      43.523  24.517  27.235  1.00  0.00     0.037 A 
ATOM     51  C   UNL A   1      46.402  30.273  27.818  1.00  0.00     0.049 A 
ATOM     52  C   UNL A   1      44.934  24.977  27.008  1.00  0.00     0.074 A 
ATOM     53  C   UNL A   1      47.727  30.606  27.583  1.00  0.00     0.029 A 
ATOM     54  N   UNL A   1      46.273  28.928  27.511  1.00  0.00    -0.354 N 
ATOM     55  N   UNL A   1      45.442  26.175  27.160  1.00  0.00    -0.248 NA
ATOM     56  C   UNL A   1      45.891  23.973  26.518  1.00  0.00     0.031 C 
ATOM     57  C   UNL A   1      48.394  29.467  27.115  1.00  0.00     0.029 A 
ATOM     58  C   UNL A   1      47.492  28.417  27.091  1.00  0.00     0.049 A 
ATOM     59  H   UNL A   1      45.438  28.411  27.583  1.00  0.00     0.167 HD
ATOM     60  C   UNL A   1      46.775  26.073  26.770  1.00  0.00     0.074 A 
ATOM     61  C   UNL A   1      47.001  24.691  26.404  1.00  0.00     0.031 C 
ATOM     62  C   UNL A   1      47.717  27.046  26.712  1.00  0.00     0.037 A 
BRANCH  49  63
ATOM     63  C   UNL A   1      45.654  32.570  28.540  1.00  0.00     0.058 A 
ATOM     64  C   UNL A   1      45.390  33.558  27.581  1.00  0.00     0.135 A 
ATOM     65  C   UNL A   1      46.204  32.979  29.768  1.00  0.00     0.135 A 
ATOM     66  F   UNL A   1      44.876  33.220  26.387  1.00  0.00    -0.206 F 
ATOM     67  C   UNL A   1      45.692  34.897  27.815  1.00  0.00     0.059 A 
ATOM     68  C   UNL A   1      46.491  34.315  30.034  1.00  0.00     0.059 A 
ATOM     69  F   UNL A   1      46.469  32.076  30.724  1.00  0.00    -0.206 F 
ATOM     70  C   UNL A   1      46.249  35.264  29.042  1.00  0.00     0.060 A 
BRANCH  70  71
ATOM     71  S   UNL A   1      46.654  37.000  29.334  1.00  0.00     0.124 S 
ATOM     72  O   UNL A   1      47.809  36.881  30.219  1.00  0.00    -0.237 OA
ATOM     73  O   UNL A   1      46.935  37.489  27.988  1.00  0.00    -0.237 OA
ATOM     74  O   UNL A   1      45.442  37.532  29.950  1.00  0.00    -0.744 OA
ENDBRANCH  70  71
ENDBRANCH  49  63
BRANCH  50  75
ATOM     75  C   UNL A   1      43.130  23.109  26.958  1.00  0.00     0.058 A 
ATOM     76  C   UNL A   1      43.054  22.626  25.644  1.00  0.00     0.135 A 
ATOM     77  C   UNL A   1      42.900  22.204  28.006  1.00  0.00     0.135 A 
ATOM     78  F   UNL A   1      43.241  23.459  24.609  1.00  0.00    -0.206 F 
ATOM     79  C   UNL A   1      42.793  21.286  25.379  1.00  0.00     0.059 A 
ATOM     80  C   UNL A   1      42.666  20.856  27.767  1.00  0.00     0.059 A 
ATOM     81  F   UNL A   1      42.966  22.622  29.280  1.00  0.00    -0.206 F 
ATOM     82  C   UNL A   1      42.619  20.404  26.449  1.00  0.00     0.060 A 
BRANCH  82  83
ATOM     83  S   UNL A   1      42.428  18.641  26.108  1.00  0.00     0.124 S 
ATOM     84  O   UNL A   1      41.017  18.562  25.751  1.00  0.00    -0.237 OA
ATOM     85  O   UNL A   1      43.377  18.429  25.020  1.00  0.00    -0.237 OA
ATOM     86  O   UNL A   1      42.798  18.018  27.377  1.00  0.00    -0.744 OA
ENDBRANCH  82  83
ENDBRANCH  50  75
BRANCH  62  87
ATOM     87  C   UNL A   1      49.089  26.654  26.238  1.00  0.00     0.058 A 
ATOM     88  C   UNL A   1      49.476  26.824  24.899  1.00  0.00     0.135 A 
ATOM     89  C   UNL A   1      50.035  26.135  27.134  1.00  0.00     0.135 A 
ATOM     90  F   UNL A   1      48.606  27.311  24.001  1.00  0.00    -0.206 F 
ATOM     91  C   UNL A   1      50.749  26.472  24.461  1.00  0.00     0.059 A 
ATOM     92  C   UNL A   1      51.321  25.792  26.721  1.00  0.00     0.059 A 
ATOM     93  F   UNL A   1      49.717  25.960  28.426  1.00  0.00    -0.206 F 
ATOM     94  C   UNL A   1      51.664  25.953  25.379  1.00  0.00     0.060 A 
BRANCH  94  95
ATOM     95  S   UNL A   1      53.319  25.513  24.805  1.00  0.00     0.124 S 
ATOM     96  O   UNL A   1      53.237  25.849  23.388  1.00  0.00    -0.237 OA
ATOM     97  O   UNL A   1      54.173  26.378  25.614  1.00  0.00    -0.237 OA
ATOM     98  O   UNL A   1      53.416  24.088  25.108  1.00  0.00    -0.744 OA
ENDBRANCH  94  95
ENDBRANCH  62  87
ENDBRANCH  36  37
ENDBRANCH  29  31
ENDBRANCH  28  29
ENDBRANCH  27  28
ENDBRANCH   1  27
TORSDOF 18
ENDMDL
MODEL 3
REMARK VINA RESULT:     -11.6      5.903     12.122
REMARK SMILES Cc1ccc(Cl)c(Nc2ccccc2C(=O)NCC(=O)OCCOC(=O)c2ccc(-c3c4nc(c(-c5c(F)cc(S(=O)(=O)[O-])cc5F)c5ccc([nH]5)c(-c5c(F)cc(S(=O)(=O)[O-])cc5F)c5nc(c(-c6c(F)cc(S(=O)(=O)[O-])cc6F)c6ccc3[nH]6)C=C5)C=C4)cc2)c1Cl
REMARK SMILES IDX 22 1 21 2 19 3 20 4 18 5 17 6 15 7 16 8 14 10 9 11 10 12
REMARK SMILES IDX 11 13 13 14 12 15 8 16 7 18 1 19 2 20 3 21 93 22 4 23 94 24
REMARK SMILES IDX 5 25 6 26 23 27 24 28 25 29 26 30 27 31 28 32 92 33 29 34
REMARK SMILES IDX 91 35 30 36 31 37 32 38 85 39 33 40 90 41 84 42 86 43 34 44
REMARK SMILES IDX 89 45 83 46 82 47 35 49 69 50 48 51 68 52 49 53 52 54 67 55
REMARK SMILES IDX 87 56 50 57 51 58 66 60 88 61 53 62 36 63 37 64 46 65 38 66
REMARK SMILES IDX 39 67 45 68 47 69 40 70 41 71 42 72 43 73 44 74 70 75 71 76
REMARK SMILES IDX 80 77 72 78 73 79 79 80 81 81 74 82 75 83 76 84 77 85 78 86
REMARK SMILES IDX 54 87 55 88 64 89 56 90 57 91 63 92 65 93 58 94 59 95 60 96
REMARK SMILES IDX 61 97 62 98
REMARK H PARENT 17 9 8 17 86 48 52 59
REMARK Flexibility Score: inf
ROOT
ATOM      1  C   UNL A   1      41.019  19.816  26.132  1.00  0.00     0.274 C 
ENDROOT
BRANCH   1   2
ATOM      2  O   UNL A   1      42.351  19.626  26.646  1.00  0.00    -0.461 OA
BRANCH   2   3
ATOM      3  C   UNL A   1      43.274  19.426  25.672  1.00  0.00     0.325 C 
ATOM      4  O   UNL A   1      43.383  18.393  25.016  1.00  0.00    -0.250 OA
BRANCH   3   5
ATOM      5  C   UNL A   1      44.071  20.660  25.312  1.00  0.00     0.239 C 
BRANCH   5   6
ATOM      6  N   UNL A   1      43.492  21.945  24.998  1.00  0.00    -0.341 N 
ATOM      7  C   UNL A   1      43.593  23.142  25.668  1.00  0.00     0.253 C 
ATOM      8  O   UNL A   1      43.278  24.160  25.045  1.00  0.00    -0.269 OA
ATOM      9  H   UNL A   1      42.944  21.968  24.181  1.00  0.00     0.164 HD
BRANCH   7  10
ATOM     10  C   UNL A   1      43.864  23.263  27.138  1.00  0.00     0.063 A 
ATOM     11  C   UNL A   1      45.078  23.499  27.816  1.00  0.00     0.051 A 
ATOM     12  C   UNL A   1      45.070  23.433  29.231  1.00  0.00     0.027 A 
ATOM     13  C   UNL A   1      43.899  23.240  29.964  1.00  0.00     0.002 A 
ATOM     14  C   UNL A   1      42.682  23.105  27.904  1.00  0.00     0.016 A 
ATOM     15  C   UNL A   1      42.694  23.107  29.297  1.00  0.00     0.001 A 
BRANCH  11  16
ATOM     16  N   UNL A   1      46.311  23.915  27.269  1.00  0.00    -0.352 N 
ATOM     17  H   UNL A   1      47.008  23.222  27.324  1.00  0.00     0.167 HD
BRANCH  16  18
ATOM     18  C   UNL A   1      46.770  25.108  26.658  1.00  0.00     0.077 A 
ATOM     19  C   UNL A   1      47.454  28.832  27.313  1.00  0.00     0.046 C 
ATOM     20  C   UNL A   1      47.257  27.513  26.617  1.00  0.00    -0.030 A 
ATOM     21  C   UNL A   1      47.392  27.465  25.224  1.00  0.00     0.006 A 
ATOM     22  C   UNL A   1      46.978  26.327  27.332  1.00  0.00     0.069 A 
ATOM     23  C   UNL A   1      47.284  26.256  24.551  1.00  0.00     0.023 A 
ATOM     24  Cl  UNL A   1      47.071  26.372  29.070  1.00  0.00    -0.082 Cl
ATOM     25  C   UNL A   1      46.970  25.098  25.255  1.00  0.00     0.066 A 
ATOM     26  Cl  UNL A   1      46.800  23.629  24.345  1.00  0.00    -0.082 Cl
ENDBRANCH  16  18
ENDBRANCH  11  16
ENDBRANCH   7  10
ENDBRANCH   5   6
ENDBRANCH   3   5
ENDBRANCH   2   3
ENDBRANCH   1   2
BRANCH   1  27
ATOM     27  C   UNL A   1      40.312  20.964  26.856  1.00  0.00     0.275 C 
BRANCH  27  28
ATOM     28  O   UNL A   1      40.396  22.201  26.118  1.00  0.00    -0.458 OA
BRANCH  28  29
ATOM     29  C   UNL A   1      39.254  22.925  26.059  1.00  0.00     0.338 C 
ATOM     30  O   UNL A   1      38.210  22.598  25.506  1.00  0.00    -0.246 OA
BRANCH  29  31
ATOM     31  C   UNL A   1      39.402  24.229  26.734  1.00  0.00     0.060 A 
ATOM     32  C   UNL A   1      40.202  25.237  26.199  1.00  0.00     0.016 A 
ATOM     33  C   UNL A   1      38.836  24.398  28.001  1.00  0.00     0.016 A 
ATOM     34  C   UNL A   1      40.500  26.368  26.973  1.00  0.00     0.010 A 
ATOM     35  C   UNL A   1      39.078  25.569  28.733  1.00  0.00     0.010 A 
ATOM     36  C   UNL A   1      39.961  26.556  28.259  1.00  0.00    -0.014 A 
BRANCH  36  37
ATOM     37  C   UNL A   1      40.349  27.716  29.137  1.00  0.00     0.031 A 
ATOM     38  C   UNL A   1      41.663  27.696  29.900  1.00  0.00     0.074 A 
ATOM     39  C   UNL A   1      39.568  28.808  29.283  1.00  0.00     0.049 A 
ATOM     40  N   UNL A   1      42.050  28.436  30.910  1.00  0.00    -0.248 NA
ATOM     41  C   UNL A   1      42.660  26.701  29.479  1.00  0.00     0.031 C 
ATOM     42  C   UNL A   1      38.298  29.048  28.603  1.00  0.00     0.029 A 
ATOM     43  N   UNL A   1      39.738  29.934  30.061  1.00  0.00    -0.354 N 
ATOM     44  C   UNL A   1      43.282  27.926  31.313  1.00  0.00     0.074 A 
ATOM     45  C   UNL A   1      43.591  26.834  30.414  1.00  0.00     0.031 C 
ATOM     46  C   UNL A   1      37.835  30.260  28.943  1.00  0.00     0.029 A 
ATOM     47  C   UNL A   1      38.709  30.840  29.959  1.00  0.00     0.049 A 
ATOM     48  H   UNL A   1      40.525  30.076  30.636  1.00  0.00     0.167 HD
ATOM     49  C   UNL A   1      44.075  28.316  32.342  1.00  0.00     0.037 A 
ATOM     50  C   UNL A   1      38.445  31.975  30.638  1.00  0.00     0.037 A 
ATOM     51  C   UNL A   1      43.836  29.472  33.171  1.00  0.00     0.049 A 
ATOM     52  C   UNL A   1      39.345  32.417  31.755  1.00  0.00     0.074 A 
ATOM     53  C   UNL A   1      44.609  29.956  34.216  1.00  0.00     0.029 A 
ATOM     54  N   UNL A   1      42.766  30.341  33.035  1.00  0.00    -0.354 N 
ATOM     55  N   UNL A   1      40.437  31.850  32.205  1.00  0.00    -0.248 NA
ATOM     56  C   UNL A   1      38.955  33.635  32.482  1.00  0.00     0.031 C 
ATOM     57  C   UNL A   1      43.994  31.108  34.723  1.00  0.00     0.029 A 
ATOM     58  C   UNL A   1      42.858  31.359  33.973  1.00  0.00     0.049 A 
ATOM     59  H   UNL A   1      42.048  30.251  32.368  1.00  0.00     0.167 HD
ATOM     60  C   UNL A   1      40.857  32.631  33.277  1.00  0.00     0.074 A 
ATOM     61  C   UNL A   1      39.919  33.729  33.390  1.00  0.00     0.031 C 
ATOM     62  C   UNL A   1      41.919  32.444  34.098  1.00  0.00     0.037 A 
BRANCH  49  63
ATOM     63  C   UNL A   1      45.263  27.453  32.675  1.00  0.00     0.058 A 
ATOM     64  C   UNL A   1      46.565  27.767  32.260  1.00  0.00     0.135 A 
ATOM     65  C   UNL A   1      45.086  26.300  33.459  1.00  0.00     0.135 A 
ATOM     66  F   UNL A   1      46.790  28.850  31.499  1.00  0.00    -0.206 F 
ATOM     67  C   UNL A   1      47.646  26.949  32.580  1.00  0.00     0.059 A 
ATOM     68  C   UNL A   1      46.154  25.482  33.812  1.00  0.00     0.059 A 
ATOM     69  F   UNL A   1      43.861  25.958  33.889  1.00  0.00    -0.206 F 
ATOM     70  C   UNL A   1      47.429  25.805  33.351  1.00  0.00     0.060 A 
BRANCH  70  71
ATOM     71  S   UNL A   1      48.832  24.739  33.749  1.00  0.00     0.124 S 
ATOM     72  O   UNL A   1      49.516  24.671  32.461  1.00  0.00    -0.237 OA
ATOM     73  O   UNL A   1      49.519  25.496  34.791  1.00  0.00    -0.237 OA
ATOM     74  O   UNL A   1      48.201  23.500  34.192  1.00  0.00    -0.744 OA
ENDBRANCH  70  71
ENDBRANCH  49  63
BRANCH  50  75
ATOM     75  C   UNL A   1      37.213  32.742  30.307  1.00  0.00     0.058 A 
ATOM     76  C   UNL A   1      37.223  33.731  29.315  1.00  0.00     0.135 A 
ATOM     77  C   UNL A   1      35.989  32.442  30.926  1.00  0.00     0.135 A 
ATOM     78  F   UNL A   1      38.374  34.069  28.714  1.00  0.00    -0.206 F 
ATOM     79  C   UNL A   1      36.055  34.377  28.924  1.00  0.00     0.059 A 
ATOM     80  C   UNL A   1      34.805  33.054  30.533  1.00  0.00     0.059 A 
ATOM     81  F   UNL A   1      35.931  31.499  31.879  1.00  0.00    -0.206 F 
ATOM     82  C   UNL A   1      34.847  34.018  29.527  1.00  0.00     0.060 A 
BRANCH  82  83
ATOM     83  S   UNL A   1      33.312  34.750  28.917  1.00  0.00     0.124 S 
ATOM     84  O   UNL A   1      32.546  34.895  30.148  1.00  0.00    -0.237 OA
ATOM     85  O   UNL A   1      33.780  35.989  28.304  1.00  0.00    -0.237 OA
ATOM     86  O   UNL A   1      32.820  33.747  27.977  1.00  0.00    -0.744 OA
ENDBRANCH  82  83
ENDBRANCH  50  75
BRANCH  62  87
ATOM     87  C   UNL A   1      42.133  33.449  35.194  1.00  0.00     0.058 A 
ATOM     88  C   UNL A   1      42.811  34.655  34.958  1.00  0.00     0.135 A 
ATOM     89  C   UNL A   1      41.628  33.221  36.484  1.00  0.00     0.135 A 
ATOM     90  F   UNL A   1      43.318  34.919  33.744  1.00  0.00    -0.206 F 
ATOM     91  C   UNL A   1      43.000  35.593  35.969  1.00  0.00     0.059 A 
ATOM     92  C   UNL A   1      41.791  34.153  37.506  1.00  0.00     0.059 A 
ATOM     93  F   UNL A   1      40.966  32.087  36.760  1.00  0.00    -0.206 F 
ATOM     94  C   UNL A   1      42.490  35.330  37.242  1.00  0.00     0.060 A 
BRANCH  94  95
ATOM     95  S   UNL A   1      42.727  36.558  38.545  1.00  0.00     0.124 S 
ATOM     96  O   UNL A   1      41.421  37.209  38.575  1.00  0.00    -0.237 OA
ATOM     97  O   UNL A   1      43.049  35.731  39.704  1.00  0.00    -0.237 OA
ATOM     98  O   UNL A   1      43.825  37.378  38.044  1.00  0.00    -0.744 OA
ENDBRANCH  94  95
ENDBRANCH  62  87
ENDBRANCH  36  37
ENDBRANCH  29  31
ENDBRANCH  28  29
ENDBRANCH  27  28
ENDBRANCH   1  27
TORSDOF 18
ENDMDL
