MODEL 1
REMARK VINA RESULT:     -10.2      0.000      0.000
REMARK SMILES O=C(OCCOC(=O)[C@@H](Cc1ccc(F)cc1)C[C@H](O)C(F)(F)F)c1ccc(-c2c3nc(c(-c4c(F)cc(S(=O)(=O)[O-])cc4F)c4ccc([nH]4)c(-c4c(F)cc(S(=O)(=O)[O-])cc4F)c4nc(c(-c5c(F)cc(S(=O)(=O)[O-])cc5F)c5ccc2[nH]5)C=C4)C=C3)cc1
REMARK SMILES IDX 4 1 3 2 2 3 1 4 25 5 26 6 90 7 27 8 89 9 28 10 29 11 30 12
REMARK SMILES IDX 83 13 31 14 88 15 82 16 84 17 32 18 87 19 81 20 80 21 33 23
REMARK SMILES IDX 67 24 46 25 66 26 47 27 50 28 65 29 85 30 48 31 49 32 64 34
REMARK SMILES IDX 86 35 51 36 34 37 35 38 44 39 36 40 37 41 43 42 45 43 38 44
REMARK SMILES IDX 39 45 40 46 41 47 42 48 68 49 69 50 78 51 70 52 71 53 77 54
REMARK SMILES IDX 79 55 72 56 73 57 74 58 75 59 76 60 52 61 53 62 62 63 54 64
REMARK SMILES IDX 55 65 61 66 63 67 56 68 57 69 58 70 59 71 60 72 5 73 6 74
REMARK SMILES IDX 7 75 8 76 9 77 10 78 11 79 12 80 17 81 13 82 16 83 14 84
REMARK SMILES IDX 15 85 18 86 19 87 21 88 22 89 23 90 24 91 20 92
REMARK H PARENT 84 22 50 33 20 93
REMARK Flexibility Score: inf
ROOT
ATOM      1  C   UNL A   1      44.267  25.471  25.470  1.00  0.00     0.275 C 
ENDROOT
BRANCH   1   2
ATOM      2  O   UNL A   1      43.007  25.940  24.984  1.00  0.00    -0.458 OA
BRANCH   2   3
ATOM      3  C   UNL A   1      42.370  27.081  25.331  1.00  0.00     0.338 C 
ATOM      4  O   UNL A   1      42.485  28.076  24.619  1.00  0.00    -0.246 OA
BRANCH   3   5
ATOM      5  C   UNL A   1      41.580  27.235  26.589  1.00  0.00     0.060 A 
ATOM      6  C   UNL A   1      40.417  26.064  27.175  1.00  0.00     0.016 A 
ATOM      7  C   UNL A   1      42.039  28.685  27.530  1.00  0.00     0.016 A 
ATOM      8  C   UNL A   1      39.694  26.298  28.781  1.00  0.00     0.010 A 
ATOM      9  C   UNL A   1      41.449  29.020  29.157  1.00  0.00     0.010 A 
ATOM     10  C   UNL A   1      40.229  27.900  29.897  1.00  0.00    -0.014 A 
BRANCH  10  11
ATOM     11  C   UNL A   1      39.853  28.597  31.273  1.00  0.00     0.031 A 
ATOM     12  C   UNL A   1      40.853  28.472  32.390  1.00  0.00     0.074 A 
ATOM     13  C   UNL A   1      38.697  29.266  31.524  1.00  0.00     0.049 A 
ATOM     14  N   UNL A   1      41.006  29.237  33.434  1.00  0.00    -0.248 NA
ATOM     15  C   UNL A   1      41.766  27.314  32.372  1.00  0.00     0.031 C 
ATOM     16  C   UNL A   1      37.467  29.187  30.747  1.00  0.00     0.029 A 
ATOM     17  N   UNL A   1      38.483  30.382  32.311  1.00  0.00    -0.354 N 
ATOM     18  C   UNL A   1      42.043  28.668  34.158  1.00  0.00     0.074 A 
ATOM     19  C   UNL A   1      42.421  27.445  33.510  1.00  0.00     0.031 C 
ATOM     20  C   UNL A   1      36.839  30.371  30.788  1.00  0.00     0.029 A 
ATOM     21  C   UNL A   1      37.482  31.204  31.793  1.00  0.00     0.049 A 
ATOM     22  H   UNL A   1      38.979  30.574  33.139  1.00  0.00     0.167 HD
ATOM     23  C   UNL A   1      42.654  29.160  35.254  1.00  0.00     0.037 A 
ATOM     24  C   UNL A   1      37.148  32.482  32.092  1.00  0.00     0.037 A 
ATOM     25  C   UNL A   1      42.202  30.359  35.890  1.00  0.00     0.049 A 
ATOM     26  C   UNL A   1      37.861  33.060  33.284  1.00  0.00     0.074 A 
ATOM     27  C   UNL A   1      42.644  30.942  37.055  1.00  0.00     0.029 A 
ATOM     28  N   UNL A   1      41.165  31.147  35.399  1.00  0.00    -0.354 N 
ATOM     29  N   UNL A   1      38.882  32.556  33.939  1.00  0.00    -0.248 NA
ATOM     30  C   UNL A   1      37.334  34.306  33.849  1.00  0.00     0.031 C 
ATOM     31  C   UNL A   1      41.823  32.045  37.308  1.00  0.00     0.029 A 
ATOM     32  C   UNL A   1      40.934  32.203  36.252  1.00  0.00     0.049 A 
ATOM     33  H   UNL A   1      40.671  30.975  34.564  1.00  0.00     0.167 HD
ATOM     34  C   UNL A   1      39.095  33.391  35.021  1.00  0.00     0.074 A 
ATOM     35  C   UNL A   1      38.136  34.476  34.892  1.00  0.00     0.031 C 
ATOM     36  C   UNL A   1      39.968  33.257  36.050  1.00  0.00     0.037 A 
BRANCH  23  37
ATOM     37  C   UNL A   1      43.800  28.366  35.803  1.00  0.00     0.058 A 
ATOM     38  C   UNL A   1      43.573  27.342  36.732  1.00  0.00     0.135 A 
ATOM     39  C   UNL A   1      45.119  28.559  35.347  1.00  0.00     0.135 A 
ATOM     40  F   UNL A   1      42.329  27.084  37.166  1.00  0.00    -0.206 F 
ATOM     41  C   UNL A   1      44.612  26.547  37.204  1.00  0.00     0.059 A 
ATOM     42  C   UNL A   1      46.168  27.754  35.782  1.00  0.00     0.059 A 
ATOM     43  F   UNL A   1      45.383  29.483  34.409  1.00  0.00    -0.206 F 
ATOM     44  C   UNL A   1      45.905  26.760  36.722  1.00  0.00     0.060 A 
BRANCH  44  45
ATOM     45  S   UNL A   1      47.230  25.698  37.332  1.00  0.00     0.124 S 
ATOM     46  O   UNL A   1      48.076  25.572  36.150  1.00  0.00    -0.237 OA
ATOM     47  O   UNL A   1      47.777  26.492  38.427  1.00  0.00    -0.237 OA
ATOM     48  O   UNL A   1      46.530  24.482  37.737  1.00  0.00    -0.744 OA
ENDBRANCH  44  45
ENDBRANCH  23  37
BRANCH  24  49
ATOM     49  C   UNL A   1      36.084  33.245  31.345  1.00  0.00     0.058 A 
ATOM     50  C   UNL A   1      36.317  33.752  30.055  1.00  0.00     0.135 A 
ATOM     51  C   UNL A   1      34.812  33.510  31.894  1.00  0.00     0.135 A 
ATOM     52  F   UNL A   1      37.480  33.504  29.433  1.00  0.00    -0.206 F 
ATOM     53  C   UNL A   1      35.393  34.551  29.384  1.00  0.00     0.059 A 
ATOM     54  C   UNL A   1      33.844  34.268  31.217  1.00  0.00     0.059 A 
ATOM     55  F   UNL A   1      34.489  33.027  33.103  1.00  0.00    -0.206 F 
ATOM     56  C   UNL A   1      34.159  34.810  29.974  1.00  0.00     0.060 A 
BRANCH  56  57
ATOM     57  S   UNL A   1      32.997  35.866  29.075  1.00  0.00     0.124 S 
ATOM     58  O   UNL A   1      33.907  36.785  28.398  1.00  0.00    -0.237 OA
ATOM     59  O   UNL A   1      32.314  34.904  28.215  1.00  0.00    -0.237 OA
ATOM     60  O   UNL A   1      32.182  36.453  30.132  1.00  0.00    -0.744 OA
ENDBRANCH  56  57
ENDBRANCH  24  49
BRANCH  36  61
ATOM     61  C   UNL A   1      39.955  34.336  37.082  1.00  0.00     0.058 A 
ATOM     62  C   UNL A   1      39.097  34.218  38.184  1.00  0.00     0.135 A 
ATOM     63  C   UNL A   1      40.703  35.511  36.931  1.00  0.00     0.135 A 
ATOM     64  F   UNL A   1      38.351  33.114  38.352  1.00  0.00    -0.206 F 
ATOM     65  C   UNL A   1      38.963  35.248  39.098  1.00  0.00     0.059 A 
ATOM     66  C   UNL A   1      40.619  36.537  37.862  1.00  0.00     0.059 A 
ATOM     67  F   UNL A   1      41.537  35.657  35.889  1.00  0.00    -0.206 F 
ATOM     68  C   UNL A   1      39.733  36.400  38.931  1.00  0.00     0.060 A 
BRANCH  68  69
ATOM     69  S   UNL A   1      39.571  37.703  40.161  1.00  0.00     0.124 S 
ATOM     70  O   UNL A   1      40.658  38.601  39.789  1.00  0.00    -0.237 OA
ATOM     71  O   UNL A   1      38.221  38.195  39.903  1.00  0.00    -0.237 OA
ATOM     72  O   UNL A   1      39.742  36.996  41.427  1.00  0.00    -0.744 OA
ENDBRANCH  68  69
ENDBRANCH  36  61
ENDBRANCH  10  11
ENDBRANCH   3   5
ENDBRANCH   2   3
ENDBRANCH   1   2
BRANCH   1  73
ATOM     73  C   UNL A   1      44.346  23.936  25.652  1.00  0.00     0.274 C 
BRANCH  73  74
ATOM     74  O   UNL A   1      43.163  23.178  25.293  1.00  0.00    -0.462 OA
BRANCH  74  75
ATOM     75  C   UNL A   1      42.225  22.975  26.254  1.00  0.00     0.309 C 
ATOM     76  O   UNL A   1      41.023  23.107  26.069  1.00  0.00    -0.252 OA
BRANCH  75  77
ATOM     77  C   UNL A   1      42.816  22.530  27.592  1.00  0.00     0.106 C 
BRANCH  77  78
ATOM     78  C   UNL A   1      42.287  23.379  28.781  1.00  0.00     0.051 C 
BRANCH  78  79
ATOM     79  C   UNL A   1      43.212  24.466  29.537  1.00  0.00    -0.047 A 
ATOM     80  C   UNL A   1      44.127  26.221  29.100  1.00  0.00     0.007 A 
ATOM     81  C   UNL A   1      43.698  23.708  31.122  1.00  0.00     0.007 A 
ATOM     82  C   UNL A   1      45.316  26.920  30.258  1.00  0.00     0.039 A 
ATOM     83  C   UNL A   1      44.899  24.508  32.150  1.00  0.00     0.039 A 
ATOM     84  C   UNL A   1      45.664  26.038  31.720  1.00  0.00     0.123 A 
ATOM     85  F   UNL A   1      46.457  26.617  32.634  1.00  0.00    -0.207 F 
ENDBRANCH  78  79
ENDBRANCH  77  78
BRANCH  77  86
ATOM     86  C   UNL A   1      42.773  21.031  27.889  1.00  0.00     0.057 C 
BRANCH  86  87
ATOM     87  C   UNL A   1      41.902  20.083  27.055  1.00  0.00     0.220 C 
BRANCH  87  88
ATOM     88  C   UNL A   1      42.629  18.964  26.313  1.00  0.00     0.414 C 
ATOM     89  F   UNL A   1      43.386  18.231  27.160  1.00  0.00    -0.168 F 
ATOM     90  F   UNL A   1      41.735  18.117  25.751  1.00  0.00    -0.168 F 
ATOM     91  F   UNL A   1      43.436  19.430  25.339  1.00  0.00    -0.168 F 
ENDBRANCH  87  88
BRANCH  87  92
ATOM     92  O   UNL A   1      40.857  19.577  27.911  1.00  0.00    -0.384 OA
ATOM     93  H   UNL A   1      41.002  18.632  28.073  1.00  0.00     0.211 HD
ENDBRANCH  87  92
ENDBRANCH  86  87
ENDBRANCH  77  86
ENDBRANCH  75  77
ENDBRANCH  74  75
ENDBRANCH  73  74
ENDBRANCH   1  73
TORSDOF 20
ENDMDL
MODEL 2
REMARK VINA RESULT:      -9.9      4.381     10.216
REMARK SMILES O=C(OCCOC(=O)[C@@H](Cc1ccc(F)cc1)C[C@H](O)C(F)(F)F)c1ccc(-c2c3nc(c(-c4c(F)cc(S(=O)(=O)[O-])cc4F)c4ccc([nH]4)c(-c4c(F)cc(S(=O)(=O)[O-])cc4F)c4nc(c(-c5c(F)cc(S(=O)(=O)[O-])cc5F)c5ccc2[nH]5)C=C4)C=C3)cc1
REMARK SMILES IDX 4 1 3 2 2 3 1 4 25 5 26 6 90 7 27 8 89 9 28 10 29 11 30 12
REMARK SMILES IDX 83 13 31 14 88 15 82 16 84 17 32 18 87 19 81 20 80 21 33 23
REMARK SMILES IDX 67 24 46 25 66 26 47 27 50 28 65 29 85 30 48 31 49 32 64 34
REMARK SMILES IDX 86 35 51 36 34 37 35 38 44 39 36 40 37 41 43 42 45 43 38 44
REMARK SMILES IDX 39 45 40 46 41 47 42 48 68 49 69 50 78 51 70 52 71 53 77 54
REMARK SMILES IDX 79 55 72 56 73 57 74 58 75 59 76 60 52 61 53 62 62 63 54 64
REMARK SMILES IDX 55 65 61 66 63 67 56 68 57 69 58 70 59 71 60 72 5 73 6 74
REMARK SMILES IDX 7 75 8 76 9 77 10 78 11 79 12 80 17 81 13 82 16 83 14 84
REMARK SMILES IDX 15 85 18 86 19 87 21 88 22 89 23 90 24 91 20 92
REMARK H PARENT 84 22 50 33 20 93
REMARK Flexibility Score: inf
ROOT
ATOM      1  C   UNL A   1      37.172  22.312  24.844  1.00  0.00     0.275 C 
ENDROOT
BRANCH   1   2
ATOM      2  O   UNL A   1      37.695  23.290  25.747  1.00  0.00    -0.458 OA
BRANCH   2   3
ATOM      3  C   UNL A   1      38.915  23.294  26.331  1.00  0.00     0.338 C 
ATOM      4  O   UNL A   1      39.523  22.234  26.464  1.00  0.00    -0.246 OA
BRANCH   3   5
ATOM      5  C   UNL A   1      39.552  24.518  26.901  1.00  0.00     0.060 A 
ATOM      6  C   UNL A   1      40.580  25.610  25.997  1.00  0.00     0.016 A 
ATOM      7  C   UNL A   1      39.048  24.849  28.585  1.00  0.00     0.016 A 
ATOM      8  C   UNL A   1      41.113  27.123  26.761  1.00  0.00     0.010 A 
ATOM      9  C   UNL A   1      39.450  26.330  29.451  1.00  0.00     0.010 A 
ATOM     10  C   UNL A   1      40.519  27.555  28.647  1.00  0.00    -0.014 A 
BRANCH  10  11
ATOM     11  C   UNL A   1      40.756  28.654  29.769  1.00  0.00     0.031 A 
ATOM     12  C   UNL A   1      39.722  29.742  29.880  1.00  0.00     0.074 A 
ATOM     13  C   UNL A   1      41.823  28.701  30.609  1.00  0.00     0.049 A 
ATOM     14  N   UNL A   1      39.441  30.496  30.905  1.00  0.00    -0.248 NA
ATOM     15  C   UNL A   1      38.935  30.070  28.677  1.00  0.00     0.031 C 
ATOM     16  C   UNL A   1      43.090  28.003  30.435  1.00  0.00     0.029 A 
ATOM     17  N   UNL A   1      41.884  29.107  31.928  1.00  0.00    -0.354 N 
ATOM     18  C   UNL A   1      38.436  31.346  30.472  1.00  0.00     0.074 A 
ATOM     19  C   UNL A   1      38.217  31.103  29.075  1.00  0.00     0.031 C 
ATOM     20  C   UNL A   1      43.591  27.684  31.637  1.00  0.00     0.029 A 
ATOM     21  C   UNL A   1      42.818  28.374  32.660  1.00  0.00     0.049 A 
ATOM     22  H   UNL A   1      41.333  29.828  32.307  1.00  0.00     0.167 HD
ATOM     23  C   UNL A   1      37.727  32.228  31.204  1.00  0.00     0.037 A 
ATOM     24  C   UNL A   1      43.005  28.268  33.997  1.00  0.00     0.037 A 
ATOM     25  C   UNL A   1      38.022  32.468  32.582  1.00  0.00     0.049 A 
ATOM     26  C   UNL A   1      42.180  29.213  34.828  1.00  0.00     0.074 A 
ATOM     27  C   UNL A   1      37.467  33.390  33.440  1.00  0.00     0.029 A 
ATOM     28  N   UNL A   1      38.994  31.772  33.294  1.00  0.00    -0.354 N 
ATOM     29  N   UNL A   1      41.187  29.978  34.436  1.00  0.00    -0.248 NA
ATOM     30  C   UNL A   1      42.549  29.372  36.237  1.00  0.00     0.031 C 
ATOM     31  C   UNL A   1      38.157  33.301  34.653  1.00  0.00     0.029 A 
ATOM     32  C   UNL A   1      39.075  32.259  34.579  1.00  0.00     0.049 A 
ATOM     33  H   UNL A   1      39.542  31.038  32.932  1.00  0.00     0.167 HD
ATOM     34  C   UNL A   1      40.838  30.747  35.533  1.00  0.00     0.074 A 
ATOM     35  C   UNL A   1      41.685  30.301  36.628  1.00  0.00     0.031 C 
ATOM     36  C   UNL A   1      39.935  31.754  35.623  1.00  0.00     0.037 A 
BRANCH  23  37
ATOM     37  C   UNL A   1      36.643  32.981  30.492  1.00  0.00     0.058 A 
ATOM     38  C   UNL A   1      35.300  32.621  30.662  1.00  0.00     0.135 A 
ATOM     39  C   UNL A   1      36.925  34.114  29.705  1.00  0.00     0.135 A 
ATOM     40  F   UNL A   1      34.972  31.577  31.439  1.00  0.00    -0.206 F 
ATOM     41  C   UNL A   1      34.274  33.346  30.067  1.00  0.00     0.059 A 
ATOM     42  C   UNL A   1      35.912  34.873  29.126  1.00  0.00     0.059 A 
ATOM     43  F   UNL A   1      38.190  34.542  29.561  1.00  0.00    -0.206 F 
ATOM     44  C   UNL A   1      34.590  34.471  29.302  1.00  0.00     0.060 A 
BRANCH  44  45
ATOM     45  S   UNL A   1      33.238  35.408  28.562  1.00  0.00     0.124 S 
ATOM     46  O   UNL A   1      32.551  35.921  29.742  1.00  0.00    -0.237 OA
ATOM     47  O   UNL A   1      33.955  36.396  27.761  1.00  0.00    -0.237 OA
ATOM     48  O   UNL A   1      32.507  34.402  27.796  1.00  0.00    -0.744 OA
ENDBRANCH  44  45
ENDBRANCH  23  37
BRANCH  24  49
ATOM     49  C   UNL A   1      44.018  27.335  34.609  1.00  0.00     0.058 A 
ATOM     50  C   UNL A   1      43.674  26.027  34.990  1.00  0.00     0.135 A 
ATOM     51  C   UNL A   1      45.353  27.719  34.853  1.00  0.00     0.135 A 
ATOM     52  F   UNL A   1      42.439  25.558  34.749  1.00  0.00    -0.206 F 
ATOM     53  C   UNL A   1      44.558  25.180  35.654  1.00  0.00     0.059 A 
ATOM     54  C   UNL A   1      46.280  26.867  35.474  1.00  0.00     0.059 A 
ATOM     55  F   UNL A   1      45.781  28.936  34.483  1.00  0.00    -0.206 F 
ATOM     56  C   UNL A   1      45.860  25.609  35.898  1.00  0.00     0.060 A 
BRANCH  56  57
ATOM     57  S   UNL A   1      46.969  24.484  36.780  1.00  0.00     0.124 S 
ATOM     58  O   UNL A   1      46.021  23.534  37.354  1.00  0.00    -0.237 OA
ATOM     59  O   UNL A   1      47.803  23.969  35.698  1.00  0.00    -0.237 OA
ATOM     60  O   UNL A   1      47.647  25.352  37.736  1.00  0.00    -0.744 OA
ENDBRANCH  56  57
ENDBRANCH  24  49
BRANCH  36  61
ATOM     61  C   UNL A   1      39.789  32.403  36.960  1.00  0.00     0.058 A 
ATOM     62  C   UNL A   1      38.670  32.102  37.748  1.00  0.00     0.135 A 
ATOM     63  C   UNL A   1      40.688  33.380  37.408  1.00  0.00     0.135 A 
ATOM     64  F   UNL A   1      37.778  31.185  37.341  1.00  0.00    -0.206 F 
ATOM     65  C   UNL A   1      38.432  32.770  38.935  1.00  0.00     0.059 A 
ATOM     66  C   UNL A   1      40.493  34.028  38.619  1.00  0.00     0.059 A 
ATOM     67  F   UNL A   1      41.773  33.692  36.681  1.00  0.00    -0.206 F 
ATOM     68  C   UNL A   1      39.354  33.726  39.365  1.00  0.00     0.060 A 
BRANCH  68  69
ATOM     69  S   UNL A   1      39.041  34.546  40.936  1.00  0.00     0.124 S 
ATOM     70  O   UNL A   1      37.653  34.179  41.193  1.00  0.00    -0.237 OA
ATOM     71  O   UNL A   1      40.036  33.924  41.805  1.00  0.00    -0.237 OA
ATOM     72  O   UNL A   1      39.274  35.955  40.634  1.00  0.00    -0.744 OA
ENDBRANCH  68  69
ENDBRANCH  36  61
ENDBRANCH  10  11
ENDBRANCH   3   5
ENDBRANCH   2   3
ENDBRANCH   1   2
BRANCH   1  73
ATOM     73  C   UNL A   1      36.123  21.363  25.472  1.00  0.00     0.274 C 
BRANCH  73  74
ATOM     74  O   UNL A   1      34.730  21.673  25.214  1.00  0.00    -0.462 OA
BRANCH  74  75
ATOM     75  C   UNL A   1      33.831  21.418  26.200  1.00  0.00     0.309 C 
ATOM     76  O   UNL A   1      34.024  21.678  27.379  1.00  0.00    -0.252 OA
BRANCH  75  77
ATOM     77  C   UNL A   1      32.530  20.799  25.688  1.00  0.00     0.106 C 
BRANCH  77  78
ATOM     78  C   UNL A   1      31.437  21.870  25.414  1.00  0.00     0.051 C 
BRANCH  78  79
ATOM     79  C   UNL A   1      31.714  23.159  24.481  1.00  0.00    -0.047 A 
ATOM     80  C   UNL A   1      32.632  23.567  22.721  1.00  0.00     0.007 A 
ATOM     81  C   UNL A   1      31.243  24.616  25.470  1.00  0.00     0.007 A 
ATOM     82  C   UNL A   1      32.914  25.279  22.237  1.00  0.00     0.039 A 
ATOM     83  C   UNL A   1      31.604  26.243  24.868  1.00  0.00     0.039 A 
ATOM     84  C   UNL A   1      32.406  26.540  23.326  1.00  0.00     0.123 A 
ATOM     85  F   UNL A   1      32.507  27.812  22.912  1.00  0.00    -0.207 F 
ENDBRANCH  78  79
ENDBRANCH  77  78
BRANCH  77  86
ATOM     86  C   UNL A   1      32.659  19.799  24.539  1.00  0.00     0.057 C 
BRANCH  86  87
ATOM     87  C   UNL A   1      32.722  18.290  24.807  1.00  0.00     0.220 C 
BRANCH  87  88
ATOM     88  C   UNL A   1      33.897  17.536  24.189  1.00  0.00     0.414 C 
ATOM     89  F   UNL A   1      35.048  18.232  24.326  1.00  0.00    -0.168 F 
ATOM     90  F   UNL A   1      34.077  16.351  24.819  1.00  0.00    -0.168 F 
ATOM     91  F   UNL A   1      33.719  17.290  22.876  1.00  0.00    -0.168 F 
ENDBRANCH  87  88
BRANCH  87  92
ATOM     92  O   UNL A   1      32.641  18.093  26.235  1.00  0.00    -0.384 OA
ATOM     93  H   UNL A   1      32.460  17.159  26.422  1.00  0.00     0.211 HD
ENDBRANCH  87  92
ENDBRANCH  86  87
ENDBRANCH  77  86
ENDBRANCH  75  77
ENDBRANCH  74  75
ENDBRANCH  73  74
ENDBRANCH   1  73
TORSDOF 20
ENDMDL
MODEL 3
REMARK VINA RESULT:      -9.8      4.500     11.187
REMARK SMILES O=C(OCCOC(=O)[C@@H](Cc1ccc(F)cc1)C[C@H](O)C(F)(F)F)c1ccc(-c2c3nc(c(-c4c(F)cc(S(=O)(=O)[O-])cc4F)c4ccc([nH]4)c(-c4c(F)cc(S(=O)(=O)[O-])cc4F)c4nc(c(-c5c(F)cc(S(=O)(=O)[O-])cc5F)c5ccc2[nH]5)C=C4)C=C3)cc1
REMARK SMILES IDX 4 1 3 2 2 3 1 4 25 5 26 6 90 7 27 8 89 9 28 10 29 11 30 12
REMARK SMILES IDX 83 13 31 14 88 15 82 16 84 17 32 18 87 19 81 20 80 21 33 23
REMARK SMILES IDX 67 24 46 25 66 26 47 27 50 28 65 29 85 30 48 31 49 32 64 34
REMARK SMILES IDX 86 35 51 36 34 37 35 38 44 39 36 40 37 41 43 42 45 43 38 44
REMARK SMILES IDX 39 45 40 46 41 47 42 48 68 49 69 50 78 51 70 52 71 53 77 54
REMARK SMILES IDX 79 55 72 56 73 57 74 58 75 59 76 60 52 61 53 62 62 63 54 64
REMARK SMILES IDX 55 65 61 66 63 67 56 68 57 69 58 70 59 71 60 72 5 73 6 74
REMARK SMILES IDX 7 75 8 76 9 77 10 78 11 79 12 80 17 81 13 82 16 83 14 84
REMARK SMILES IDX 15 85 18 86 19 87 21 88 22 89 23 90 24 91 20 92
REMARK H PARENT 84 22 50 33 20 93
REMARK Flexibility Score: inf
ROOT
ATOM      1  C   UNL A   1      36.445  24.115  25.969  1.00  0.00     0.275 C 
ENDROOT
BRANCH   1   2
ATOM      2  O   UNL A   1      37.593  23.337  25.620  1.00  0.00    -0.458 OA
BRANCH   2   3
ATOM      3  C   UNL A   1      38.776  23.288  26.274  1.00  0.00     0.338 C 
ATOM      4  O   UNL A   1      39.302  22.197  26.488  1.00  0.00    -0.246 OA
BRANCH   3   5
ATOM      5  C   UNL A   1      39.462  24.492  26.830  1.00  0.00     0.060 A 
ATOM      6  C   UNL A   1      40.570  25.503  25.926  1.00  0.00     0.016 A 
ATOM      7  C   UNL A   1      38.933  24.894  28.491  1.00  0.00     0.016 A 
ATOM      8  C   UNL A   1      41.162  27.007  26.665  1.00  0.00     0.010 A 
ATOM      9  C   UNL A   1      39.390  26.376  29.329  1.00  0.00     0.010 A 
ATOM     10  C   UNL A   1      40.543  27.521  28.522  1.00  0.00    -0.014 A 
BRANCH  10  11
ATOM     11  C   UNL A   1      40.809  28.636  29.622  1.00  0.00     0.031 A 
ATOM     12  C   UNL A   1      39.764  29.710  29.762  1.00  0.00     0.074 A 
ATOM     13  C   UNL A   1      41.908  28.708  30.417  1.00  0.00     0.049 A 
ATOM     14  N   UNL A   1      39.514  30.472  30.789  1.00  0.00    -0.248 NA
ATOM     15  C   UNL A   1      38.925  30.013  28.589  1.00  0.00     0.031 C 
ATOM     16  C   UNL A   1      43.177  28.026  30.199  1.00  0.00     0.029 A 
ATOM     17  N   UNL A   1      42.016  29.130  31.728  1.00  0.00    -0.354 N 
ATOM     18  C   UNL A   1      38.479  31.303  30.388  1.00  0.00     0.074 A 
ATOM     19  C   UNL A   1      38.207  31.040  29.004  1.00  0.00     0.031 C 
ATOM     20  C   UNL A   1      43.731  27.729  31.384  1.00  0.00     0.029 A 
ATOM     21  C   UNL A   1      42.990  28.419  32.429  1.00  0.00     0.049 A 
ATOM     22  H   UNL A   1      41.470  29.848  32.121  1.00  0.00     0.167 HD
ATOM     23  C   UNL A   1      37.787  32.183  31.138  1.00  0.00     0.037 A 
ATOM     24  C   UNL A   1      43.232  28.331  33.759  1.00  0.00     0.037 A 
ATOM     25  C   UNL A   1      38.134  32.443  32.500  1.00  0.00     0.049 A 
ATOM     26  C   UNL A   1      42.427  29.275  34.612  1.00  0.00     0.074 A 
ATOM     27  C   UNL A   1      37.601  33.367  33.370  1.00  0.00     0.029 A 
ATOM     28  N   UNL A   1      39.145  31.769  33.180  1.00  0.00    -0.354 N 
ATOM     29  N   UNL A   1      41.408  30.021  34.253  1.00  0.00    -0.248 NA
ATOM     30  C   UNL A   1      42.851  29.455  36.004  1.00  0.00     0.031 C 
ATOM     31  C   UNL A   1      38.341  33.302  34.555  1.00  0.00     0.029 A 
ATOM     32  C   UNL A   1      39.270  32.273  34.456  1.00  0.00     0.049 A 
ATOM     33  H   UNL A   1      39.689  31.039  32.804  1.00  0.00     0.167 HD
ATOM     34  C   UNL A   1      41.092  30.797  35.354  1.00  0.00     0.074 A 
ATOM     35  C   UNL A   1      41.990  30.376  36.418  1.00  0.00     0.031 C 
ATOM     36  C   UNL A   1      40.179  31.793  35.469  1.00  0.00     0.037 A 
BRANCH  23  37
ATOM     37  C   UNL A   1      36.665  32.911  30.462  1.00  0.00     0.058 A 
ATOM     38  C   UNL A   1      35.334  32.627  30.794  1.00  0.00     0.135 A 
ATOM     39  C   UNL A   1      36.906  33.953  29.545  1.00  0.00     0.135 A 
ATOM     40  F   UNL A   1      35.048  31.675  31.696  1.00  0.00    -0.206 F 
ATOM     41  C   UNL A   1      34.279  33.337  30.230  1.00  0.00     0.059 A 
ATOM     42  C   UNL A   1      35.867  34.697  28.995  1.00  0.00     0.059 A 
ATOM     43  F   UNL A   1      38.164  34.310  29.242  1.00  0.00    -0.206 F 
ATOM     44  C   UNL A   1      34.555  34.370  29.333  1.00  0.00     0.060 A 
BRANCH  44  45
ATOM     45  S   UNL A   1      33.170  35.292  28.637  1.00  0.00     0.124 S 
ATOM     46  O   UNL A   1      32.437  35.677  29.838  1.00  0.00    -0.237 OA
ATOM     47  O   UNL A   1      33.848  36.373  27.929  1.00  0.00    -0.237 OA
ATOM     48  O   UNL A   1      32.506  34.311  27.782  1.00  0.00    -0.744 OA
ENDBRANCH  44  45
ENDBRANCH  23  37
BRANCH  24  49
ATOM     49  C   UNL A   1      44.283  27.421  34.340  1.00  0.00     0.058 A 
ATOM     50  C   UNL A   1      43.957  26.144  34.829  1.00  0.00     0.135 A 
ATOM     51  C   UNL A   1      45.638  27.796  34.446  1.00  0.00     0.135 A 
ATOM     52  F   UNL A   1      42.701  25.683  34.723  1.00  0.00    -0.206 F 
ATOM     53  C   UNL A   1      44.885  25.324  35.467  1.00  0.00     0.059 A 
ATOM     54  C   UNL A   1      46.604  26.968  35.038  1.00  0.00     0.059 A 
ATOM     55  F   UNL A   1      46.047  28.981  33.966  1.00  0.00    -0.206 F 
ATOM     56  C   UNL A   1      46.208  25.745  35.574  1.00  0.00     0.060 A 
BRANCH  56  57
ATOM     57  S   UNL A   1      47.375  24.657  36.426  1.00  0.00     0.124 S 
ATOM     58  O   UNL A   1      46.752  24.539  37.741  1.00  0.00    -0.237 OA
ATOM     59  O   UNL A   1      47.333  23.457  35.597  1.00  0.00    -0.237 OA
ATOM     60  O   UNL A   1      48.627  25.403  36.388  1.00  0.00    -0.744 OA
ENDBRANCH  56  57
ENDBRANCH  24  49
BRANCH  36  61
ATOM     61  C   UNL A   1      40.077  32.455  36.803  1.00  0.00     0.058 A 
ATOM     62  C   UNL A   1      41.092  33.330  37.213  1.00  0.00     0.135 A 
ATOM     63  C   UNL A   1      39.045  32.150  37.701  1.00  0.00     0.135 A 
ATOM     64  F   UNL A   1      42.106  33.631  36.386  1.00  0.00    -0.206 F 
ATOM     65  C   UNL A   1      41.100  33.868  38.487  1.00  0.00     0.059 A 
ATOM     66  C   UNL A   1      39.009  32.716  38.967  1.00  0.00     0.059 A 
ATOM     67  F   UNL A   1      38.054  31.317  37.342  1.00  0.00    -0.206 F 
ATOM     68  C   UNL A   1      40.050  33.560  39.354  1.00  0.00     0.060 A 
BRANCH  68  69
ATOM     69  S   UNL A   1      40.064  34.311  40.988  1.00  0.00     0.124 S 
ATOM     70  O   UNL A   1      38.673  34.723  41.139  1.00  0.00    -0.237 OA
ATOM     71  O   UNL A   1      40.494  33.198  41.829  1.00  0.00    -0.237 OA
ATOM     72  O   UNL A   1      41.031  35.397  40.853  1.00  0.00    -0.744 OA
ENDBRANCH  68  69
ENDBRANCH  36  61
ENDBRANCH  10  11
ENDBRANCH   3   5
ENDBRANCH   2   3
ENDBRANCH   1   2
BRANCH   1  73
ATOM     73  C   UNL A   1      35.161  23.734  25.192  1.00  0.00     0.274 C 
BRANCH  73  74
ATOM     74  O   UNL A   1      34.283  24.825  24.815  1.00  0.00    -0.462 OA
BRANCH  74  75
ATOM     75  C   UNL A   1      33.035  24.847  25.349  1.00  0.00     0.309 C 
ATOM     76  O   UNL A   1      32.550  23.919  25.982  1.00  0.00    -0.252 OA
BRANCH  75  77
ATOM     77  C   UNL A   1      32.296  26.164  25.111  1.00  0.00     0.106 C 
BRANCH  77  78
ATOM     78  C   UNL A   1      31.409  26.121  23.836  1.00  0.00     0.051 C 
BRANCH  78  79
ATOM     79  C   UNL A   1      30.240  27.202  23.567  1.00  0.00    -0.047 A 
ATOM     80  C   UNL A   1      28.225  27.311  23.755  1.00  0.00     0.007 A 
ATOM     81  C   UNL A   1      31.010  28.564  22.632  1.00  0.00     0.007 A 
ATOM     82  C   UNL A   1      27.335  28.697  23.028  1.00  0.00     0.039 A 
ATOM     83  C   UNL A   1      29.996  29.852  21.959  1.00  0.00     0.039 A 
ATOM     84  C   UNL A   1      28.244  29.897  22.153  1.00  0.00     0.123 A 
ATOM     85  F   UNL A   1      27.597  30.988  21.717  1.00  0.00    -0.207 F 
ENDBRANCH  78  79
ENDBRANCH  77  78
BRANCH  77  86
ATOM     86  C   UNL A   1      31.555  26.754  26.311  1.00  0.00     0.057 C 
BRANCH  86  87
ATOM     87  C   UNL A   1      32.103  27.975  27.058  1.00  0.00     0.220 C 
BRANCH  87  88
ATOM     88  C   UNL A   1      32.191  29.277  26.266  1.00  0.00     0.414 C 
ATOM     89  F   UNL A   1      31.024  29.545  25.639  1.00  0.00    -0.168 F 
ATOM     90  F   UNL A   1      32.439  30.316  27.098  1.00  0.00    -0.168 F 
ATOM     91  F   UNL A   1      33.163  29.247  25.332  1.00  0.00    -0.168 F 
ENDBRANCH  87  88
BRANCH  87  92
ATOM     92  O   UNL A   1      31.336  28.129  28.271  1.00  0.00    -0.384 OA
ATOM     93  H   UNL A   1      31.913  28.458  28.978  1.00  0.00     0.211 HD
ENDBRANCH  87  92
ENDBRANCH  86  87
ENDBRANCH  77  86
ENDBRANCH  75  77
ENDBRANCH  74  75
ENDBRANCH  73  74
ENDBRANCH   1  73
TORSDOF 20
ENDMDL
