MODEL 1
REMARK VINA RESULT:     -11.7      0.000      0.000
REMARK SMILES Cc1coc2c(C)c3oc(=O)c(CC(=O)NCC(=O)N[C@H](C(=O)OCCOC(=O)c4ccc(-c5c6nc(c(-c7c(F)cc(S(=O)(=O)[O-])cc7F)c7ccc([nH]7)c(-c7c(F)cc(S(=O)(=O)[O-])cc7F)c7nc(c(-c8c(F)cc(S(=O)(=O)[O-])cc8F)c8ccc5[nH]8)C=C7)C=C6)cc4)C(C)C)c(C)c3cc12
REMARK SMILES IDX 25 1 24 2 22 3 23 4 21 5 20 6 18 7 19 8 17 10 16 11 14 12
REMARK SMILES IDX 15 13 13 15 12 16 1 17 2 18 3 19 103 20 4 21 5 22 102 23
REMARK SMILES IDX 6 24 101 25 7 26 8 27 99 28 9 29 100 30 10 31 11 32 96 33
REMARK SMILES IDX 97 34 98 35 26 36 27 37 28 38 29 39 30 40 31 41 95 42 32 43
REMARK SMILES IDX 94 44 33 45 34 46 35 47 88 48 36 49 93 50 87 51 89 52 37 53
REMARK SMILES IDX 92 54 86 55 85 56 38 58 72 59 51 60 71 61 52 62 55 63 70 64
REMARK SMILES IDX 90 65 53 66 54 67 69 69 91 70 56 71 39 72 40 73 49 74 41 75
REMARK SMILES IDX 42 76 48 77 50 78 43 79 44 80 45 81 46 82 47 83 73 84 74 85
REMARK SMILES IDX 83 86 75 87 76 88 82 89 84 90 77 91 78 92 79 93 80 94 81 95
REMARK SMILES IDX 57 96 58 97 67 98 59 99 60 100 66 101 68 102 61 103 62 104
REMARK SMILES IDX 63 105 64 106 65 107
REMARK H PARENT 20 9 16 14 89 57 55 68
REMARK Flexibility Score: inf
ROOT
ATOM      1  C   UNL A   1      37.121  22.875  24.373  1.00  0.00     0.274 C 
ENDROOT
BRANCH   1   2
ATOM      2  O   UNL A   1      35.858  23.524  24.750  1.00  0.00    -0.461 OA
BRANCH   2   3
ATOM      3  C   UNL A   1      34.927  22.656  25.223  1.00  0.00     0.329 C 
ATOM      4  O   UNL A   1      35.282  21.909  26.112  1.00  0.00    -0.250 OA
BRANCH   3   5
ATOM      5  C   UNL A   1      33.439  22.714  24.583  1.00  0.00     0.194 C 
BRANCH   5   6
ATOM      6  N   UNL A   1      33.695  23.370  23.283  1.00  0.00    -0.341 N 
ATOM      7  C   UNL A   1      32.994  24.363  22.666  1.00  0.00     0.240 C 
ATOM      8  O   UNL A   1      33.531  24.906  21.694  1.00  0.00    -0.273 OA
ATOM      9  H   UNL A   1      34.485  23.042  22.793  1.00  0.00     0.164 HD
BRANCH   7  10
ATOM     10  C   UNL A   1      31.652  24.898  23.217  1.00  0.00     0.216 C 
BRANCH  10  11
ATOM     11  N   UNL A   1      31.258  26.235  22.817  1.00  0.00    -0.347 N 
ATOM     12  C   UNL A   1      31.195  27.436  23.452  1.00  0.00     0.225 C 
ATOM     13  O   UNL A   1      31.224  28.415  22.690  1.00  0.00    -0.275 OA
ATOM     14  H   UNL A   1      30.971  26.284  21.877  1.00  0.00     0.164 HD
BRANCH  12  15
ATOM     15  C   UNL A   1      31.091  27.665  24.988  1.00  0.00     0.143 C 
BRANCH  15  16
ATOM     16  C   UNL A   1      32.134  28.473  25.764  1.00  0.00     0.051 A 
ATOM     17  C   UNL A   1      34.377  34.937  28.049  1.00  0.00     0.048 C 
ATOM     18  C   UNL A   1      35.316  33.792  28.228  1.00  0.00    -0.005 A 
ATOM     19  C   UNL A   1      36.666  33.777  28.477  1.00  0.00     0.199 A 
ATOM     20  C   UNL A   1      34.952  32.423  28.067  1.00  0.00     0.024 A 
ATOM     21  O   UNL A   1      37.159  32.506  28.457  1.00  0.00    -0.464 OA
ATOM     22  C   UNL A   1      36.131  31.649  28.135  1.00  0.00     0.140 A 
ATOM     23  C   UNL A   1      33.679  31.910  27.777  1.00  0.00     0.024 A 
ATOM     24  C   UNL A   1      36.302  30.251  27.902  1.00  0.00     0.036 A 
ATOM     25  C   UNL A   1      33.676  30.628  27.313  1.00  0.00     0.022 A 
ATOM     26  C   UNL A   1      37.534  29.463  28.112  1.00  0.00     0.052 C 
ATOM     27  C   UNL A   1      35.098  29.758  27.452  1.00  0.00     0.145 A 
ATOM     28  C   UNL A   1      32.239  30.006  26.291  1.00  0.00    -0.029 A 
ATOM     29  O   UNL A   1      34.995  28.040  26.844  1.00  0.00    -0.422 OA
ATOM     30  C   UNL A   1      31.437  31.271  26.162  1.00  0.00     0.046 C 
ATOM     31  C   UNL A   1      33.679  27.284  25.900  1.00  0.00     0.340 A 
ATOM     32  O   UNL A   1      33.743  26.127  25.507  1.00  0.00    -0.246 OA
ENDBRANCH  15  16
ENDBRANCH  12  15
ENDBRANCH  10  11
ENDBRANCH   7  10
ENDBRANCH   5   6
BRANCH   5  33
ATOM     33  C   UNL A   1      32.169  21.360  24.330  1.00  0.00     0.017 C 
ATOM     34  C   UNL A   1      32.408  19.267  23.784  1.00  0.00     0.010 C 
ATOM     35  C   UNL A   1      31.012  22.000  25.456  1.00  0.00     0.010 C 
ENDBRANCH   5  33
ENDBRANCH   3   5
ENDBRANCH   2   3
ENDBRANCH   1   2
BRANCH   1  36
ATOM     36  C   UNL A   1      38.208  22.465  25.426  1.00  0.00     0.275 C 
BRANCH  36  37
ATOM     37  O   UNL A   1      38.363  23.248  26.644  1.00  0.00    -0.458 OA
BRANCH  37  38
ATOM     38  C   UNL A   1      39.648  23.340  27.072  1.00  0.00     0.338 C 
ATOM     39  O   UNL A   1      40.264  22.441  27.639  1.00  0.00    -0.246 OA
BRANCH  38  40
ATOM     40  C   UNL A   1      40.316  24.668  26.896  1.00  0.00     0.060 A 
ATOM     41  C   UNL A   1      41.620  24.852  27.391  1.00  0.00     0.016 A 
ATOM     42  C   UNL A   1      39.419  25.720  27.027  1.00  0.00     0.016 A 
ATOM     43  C   UNL A   1      41.851  25.793  28.384  1.00  0.00     0.010 A 
ATOM     44  C   UNL A   1      39.745  26.809  27.822  1.00  0.00     0.010 A 
ATOM     45  C   UNL A   1      40.875  26.760  28.638  1.00  0.00    -0.014 A 
BRANCH  45  46
ATOM     46  C   UNL A   1      41.173  27.876  29.554  1.00  0.00     0.031 A 
ATOM     47  C   UNL A   1      42.257  28.739  28.990  1.00  0.00     0.074 A 
ATOM     48  C   UNL A   1      40.420  28.155  30.652  1.00  0.00     0.049 A 
ATOM     49  N   UNL A   1      43.417  28.986  29.504  1.00  0.00    -0.248 NA
ATOM     50  C   UNL A   1      42.163  29.146  27.569  1.00  0.00     0.031 C 
ATOM     51  C   UNL A   1      39.294  27.370  31.177  1.00  0.00     0.029 A 
ATOM     52  N   UNL A   1      40.392  29.263  31.468  1.00  0.00    -0.354 N 
ATOM     53  C   UNL A   1      44.043  29.854  28.606  1.00  0.00     0.074 A 
ATOM     54  C   UNL A   1      43.358  29.699  27.358  1.00  0.00     0.031 C 
ATOM     55  C   UNL A   1      38.535  28.130  32.002  1.00  0.00     0.029 A 
ATOM     56  C   UNL A   1      39.182  29.412  32.189  1.00  0.00     0.049 A 
ATOM     57  H   UNL A   1      41.144  29.894  31.544  1.00  0.00     0.167 HD
ATOM     58  C   UNL A   1      44.784  30.892  29.083  1.00  0.00     0.037 A 
ATOM     59  C   UNL A   1      38.752  30.521  32.864  1.00  0.00     0.037 A 
ATOM     60  C   UNL A   1      45.164  30.627  30.447  1.00  0.00     0.049 A 
ATOM     61  C   UNL A   1      39.969  31.310  33.147  1.00  0.00     0.074 A 
ATOM     62  C   UNL A   1      45.975  29.734  31.112  1.00  0.00     0.029 A 
ATOM     63  N   UNL A   1      44.266  31.122  31.352  1.00  0.00    -0.354 N 
ATOM     64  N   UNL A   1      40.908  30.906  33.957  1.00  0.00    -0.248 NA
ATOM     65  C   UNL A   1      40.350  32.325  32.180  1.00  0.00     0.031 C 
ATOM     66  C   UNL A   1      45.372  29.546  32.390  1.00  0.00     0.029 A 
ATOM     67  C   UNL A   1      44.274  30.400  32.503  1.00  0.00     0.049 A 
ATOM     68  H   UNL A   1      43.688  31.903  31.189  1.00  0.00     0.167 HD
ATOM     69  C   UNL A   1      42.080  31.267  33.316  1.00  0.00     0.074 A 
ATOM     70  C   UNL A   1      41.677  32.242  32.300  1.00  0.00     0.031 C 
ATOM     71  C   UNL A   1      43.197  30.496  33.461  1.00  0.00     0.037 A 
BRANCH  58  72
ATOM     72  C   UNL A   1      44.617  32.334  28.600  1.00  0.00     0.058 A 
ATOM     73  C   UNL A   1      45.777  33.045  28.215  1.00  0.00     0.135 A 
ATOM     74  C   UNL A   1      43.473  33.135  28.818  1.00  0.00     0.135 A 
ATOM     75  F   UNL A   1      46.932  32.397  27.985  1.00  0.00    -0.206 F 
ATOM     76  C   UNL A   1      45.816  34.439  28.137  1.00  0.00     0.059 A 
ATOM     77  C   UNL A   1      43.480  34.522  28.704  1.00  0.00     0.059 A 
ATOM     78  F   UNL A   1      42.304  32.636  29.233  1.00  0.00    -0.206 F 
ATOM     79  C   UNL A   1      44.661  35.169  28.392  1.00  0.00     0.060 A 
BRANCH  79  80
ATOM     80  S   UNL A   1      44.716  36.967  28.323  1.00  0.00     0.124 S 
ATOM     81  O   UNL A   1      43.298  37.304  28.290  1.00  0.00    -0.237 OA
ATOM     82  O   UNL A   1      45.423  37.288  29.559  1.00  0.00    -0.237 OA
ATOM     83  O   UNL A   1      45.460  37.233  27.096  1.00  0.00    -0.744 OA
ENDBRANCH  79  80
ENDBRANCH  58  72
BRANCH  59  84
ATOM     84  C   UNL A   1      37.391  31.144  33.000  1.00  0.00     0.058 A 
ATOM     85  C   UNL A   1      37.089  32.059  34.038  1.00  0.00     0.135 A 
ATOM     86  C   UNL A   1      36.475  31.124  31.934  1.00  0.00     0.135 A 
ATOM     87  F   UNL A   1      37.899  32.162  35.104  1.00  0.00    -0.206 F 
ATOM     88  C   UNL A   1      35.999  32.946  33.982  1.00  0.00     0.059 A 
ATOM     89  C   UNL A   1      35.382  31.997  31.856  1.00  0.00     0.059 A 
ATOM     90  F   UNL A   1      36.669  30.316  30.882  1.00  0.00    -0.206 F 
ATOM     91  C   UNL A   1      35.165  32.928  32.866  1.00  0.00     0.060 A 
BRANCH  91  92
ATOM     92  S   UNL A   1      33.873  34.190  32.682  1.00  0.00     0.124 S 
ATOM     93  O   UNL A   1      33.765  34.312  31.232  1.00  0.00    -0.237 OA
ATOM     94  O   UNL A   1      32.735  33.574  33.354  1.00  0.00    -0.237 OA
ATOM     95  O   UNL A   1      34.439  35.354  33.360  1.00  0.00    -0.744 OA
ENDBRANCH  91  92
ENDBRANCH  59  84
BRANCH  71  96
ATOM     96  C   UNL A   1      43.298  29.584  34.646  1.00  0.00     0.058 A 
ATOM     97  C   UNL A   1      42.859  28.250  34.690  1.00  0.00     0.135 A 
ATOM     98  C   UNL A   1      44.084  30.048  35.711  1.00  0.00     0.135 A 
ATOM     99  F   UNL A   1      42.161  27.720  33.672  1.00  0.00    -0.206 F 
ATOM    100  C   UNL A   1      43.204  27.411  35.753  1.00  0.00     0.059 A 
ATOM    101  C   UNL A   1      44.465  29.223  36.757  1.00  0.00     0.059 A 
ATOM    102  F   UNL A   1      44.569  31.301  35.690  1.00  0.00    -0.206 F 
ATOM    103  C   UNL A   1      44.022  27.904  36.774  1.00  0.00     0.060 A 
BRANCH 103 104
ATOM    104  S   UNL A   1      44.574  26.796  38.089  1.00  0.00     0.124 S 
ATOM    105  O   UNL A   1      43.335  26.127  38.469  1.00  0.00    -0.237 OA
ATOM    106  O   UNL A   1      45.562  25.965  37.406  1.00  0.00    -0.237 OA
ATOM    107  O   UNL A   1      45.126  27.704  39.093  1.00  0.00    -0.744 OA
ENDBRANCH 103 104
ENDBRANCH  71  96
ENDBRANCH  45  46
ENDBRANCH  38  40
ENDBRANCH  37  38
ENDBRANCH  36  37
ENDBRANCH   1  36
TORSDOF 20
ENDMDL
MODEL 2
REMARK VINA RESULT:     -10.7      9.031     16.522
REMARK SMILES Cc1coc2c(C)c3oc(=O)c(CC(=O)NCC(=O)N[C@H](C(=O)OCCOC(=O)c4ccc(-c5c6nc(c(-c7c(F)cc(S(=O)(=O)[O-])cc7F)c7ccc([nH]7)c(-c7c(F)cc(S(=O)(=O)[O-])cc7F)c7nc(c(-c8c(F)cc(S(=O)(=O)[O-])cc8F)c8ccc5[nH]8)C=C7)C=C6)cc4)C(C)C)c(C)c3cc12
REMARK SMILES IDX 25 1 24 2 22 3 23 4 21 5 20 6 18 7 19 8 17 10 16 11 14 12
REMARK SMILES IDX 15 13 13 15 12 16 1 17 2 18 3 19 103 20 4 21 5 22 102 23
REMARK SMILES IDX 6 24 101 25 7 26 8 27 99 28 9 29 100 30 10 31 11 32 96 33
REMARK SMILES IDX 97 34 98 35 26 36 27 37 28 38 29 39 30 40 31 41 95 42 32 43
REMARK SMILES IDX 94 44 33 45 34 46 35 47 88 48 36 49 93 50 87 51 89 52 37 53
REMARK SMILES IDX 92 54 86 55 85 56 38 58 72 59 51 60 71 61 52 62 55 63 70 64
REMARK SMILES IDX 90 65 53 66 54 67 69 69 91 70 56 71 39 72 40 73 49 74 41 75
REMARK SMILES IDX 42 76 48 77 50 78 43 79 44 80 45 81 46 82 47 83 73 84 74 85
REMARK SMILES IDX 83 86 75 87 76 88 82 89 84 90 77 91 78 92 79 93 80 94 81 95
REMARK SMILES IDX 57 96 58 97 67 98 59 99 60 100 66 101 68 102 61 103 62 104
REMARK SMILES IDX 63 105 64 106 65 107
REMARK H PARENT 20 9 16 14 89 57 55 68
REMARK Flexibility Score: inf
ROOT
ATOM      1  C   UNL A   1      51.122  21.279  35.933  1.00  0.00     0.274 C 
ENDROOT
BRANCH   1   2
ATOM      2  O   UNL A   1      50.233  20.155  35.607  1.00  0.00    -0.461 OA
BRANCH   2   3
ATOM      3  C   UNL A   1      49.039  20.546  35.093  1.00  0.00     0.329 C 
ATOM      4  O   UNL A   1      49.056  21.018  33.976  1.00  0.00    -0.250 OA
BRANCH   3   5
ATOM      5  C   UNL A   1      47.713  20.323  35.999  1.00  0.00     0.194 C 
BRANCH   5   6
ATOM      6  N   UNL A   1      48.025  21.134  37.195  1.00  0.00    -0.341 N 
ATOM      7  C   UNL A   1      47.722  20.893  38.503  1.00  0.00     0.240 C 
ATOM      8  O   UNL A   1      48.287  21.597  39.347  1.00  0.00    -0.273 OA
ATOM      9  H   UNL A   1      48.523  21.966  37.023  1.00  0.00     0.164 HD
BRANCH   7  10
ATOM     10  C   UNL A   1      46.826  19.713  38.944  1.00  0.00     0.216 C 
BRANCH  10  11
ATOM     11  N   UNL A   1      47.334  18.850  39.992  1.00  0.00    -0.347 N 
ATOM     12  C   UNL A   1      46.759  17.998  40.883  1.00  0.00     0.225 C 
ATOM     13  O   UNL A   1      47.528  17.129  41.322  1.00  0.00    -0.275 OA
ATOM     14  H   UNL A   1      48.313  18.892  40.079  1.00  0.00     0.164 HD
BRANCH  12  15
ATOM     15  C   UNL A   1      45.283  18.029  41.371  1.00  0.00     0.143 C 
BRANCH  15  16
ATOM     16  C   UNL A   1      44.536  16.760  41.792  1.00  0.00     0.051 A 
ATOM     17  C   UNL A   1      44.567  10.662  45.646  1.00  0.00     0.048 C 
ATOM     18  C   UNL A   1      43.451  10.843  44.671  1.00  0.00    -0.005 A 
ATOM     19  C   UNL A   1      42.576   9.929  44.140  1.00  0.00     0.199 A 
ATOM     20  C   UNL A   1      43.150  12.072  44.015  1.00  0.00     0.024 A 
ATOM     21  O   UNL A   1      41.778  10.500  43.193  1.00  0.00    -0.464 OA
ATOM     22  C   UNL A   1      42.159  11.814  43.043  1.00  0.00     0.140 A 
ATOM     23  C   UNL A   1      43.783  13.311  44.197  1.00  0.00     0.024 A 
ATOM     24  C   UNL A   1      41.626  12.690  42.050  1.00  0.00     0.036 A 
ATOM     25  C   UNL A   1      43.561  14.213  43.199  1.00  0.00     0.022 A 
ATOM     26  C   UNL A   1      40.497  12.412  41.138  1.00  0.00     0.052 C 
ATOM     27  C   UNL A   1      42.352  13.858  42.099  1.00  0.00     0.145 A 
ATOM     28  C   UNL A   1      44.771  15.610  42.914  1.00  0.00    -0.029 A 
ATOM     29  O   UNL A   1      42.094  15.137  40.822  1.00  0.00    -0.422 OA
ATOM     30  C   UNL A   1      45.833  15.250  43.916  1.00  0.00     0.046 C 
ATOM     31  C   UNL A   1      43.126  16.550  40.456  1.00  0.00     0.340 A 
ATOM     32  O   UNL A   1      42.872  17.320  39.539  1.00  0.00    -0.246 OA
ENDBRANCH  15  16
ENDBRANCH  12  15
ENDBRANCH  10  11
ENDBRANCH   7  10
ENDBRANCH   5   6
BRANCH   5  33
ATOM     33  C   UNL A   1      45.901  20.549  35.580  1.00  0.00     0.017 C 
ATOM     34  C   UNL A   1      44.879  22.121  34.476  1.00  0.00     0.010 C 
ATOM     35  C   UNL A   1      45.525  18.853  35.534  1.00  0.00     0.010 C 
ENDBRANCH   5  33
ENDBRANCH   3   5
ENDBRANCH   2   3
ENDBRANCH   1   2
BRANCH   1  36
ATOM     36  C   UNL A   1      51.735  22.218  34.837  1.00  0.00     0.275 C 
BRANCH  36  37
ATOM     37  O   UNL A   1      51.080  23.480  34.522  1.00  0.00    -0.458 OA
BRANCH  37  38
ATOM     38  C   UNL A   1      51.600  24.105  33.434  1.00  0.00     0.338 C 
ATOM     39  O   UNL A   1      52.658  23.801  32.889  1.00  0.00    -0.246 OA
BRANCH  38  40
ATOM     40  C   UNL A   1      50.847  25.297  32.928  1.00  0.00     0.060 A 
ATOM     41  C   UNL A   1      49.447  25.328  33.052  1.00  0.00     0.016 A 
ATOM     42  C   UNL A   1      51.406  25.805  31.763  1.00  0.00     0.016 A 
ATOM     43  C   UNL A   1      48.658  25.376  31.912  1.00  0.00     0.010 A 
ATOM     44  C   UNL A   1      50.590  26.110  30.683  1.00  0.00     0.010 A 
ATOM     45  C   UNL A   1      49.249  25.727  30.696  1.00  0.00    -0.014 A 
BRANCH  45  46
ATOM     46  C   UNL A   1      48.402  25.966  29.513  1.00  0.00     0.031 A 
ATOM     47  C   UNL A   1      47.180  26.738  29.894  1.00  0.00     0.074 A 
ATOM     48  C   UNL A   1      48.802  25.676  28.245  1.00  0.00     0.049 A 
ATOM     49  N   UNL A   1      45.946  26.370  29.778  1.00  0.00    -0.248 NA
ATOM     50  C   UNL A   1      47.342  27.930  30.757  1.00  0.00     0.031 C 
ATOM     51  C   UNL A   1      50.040  24.995  27.840  1.00  0.00     0.029 A 
ATOM     52  N   UNL A   1      48.272  26.037  27.027  1.00  0.00    -0.354 N 
ATOM     53  C   UNL A   1      45.192  27.445  30.254  1.00  0.00     0.074 A 
ATOM     54  C   UNL A   1      46.078  28.228  31.062  1.00  0.00     0.031 C 
ATOM     55  C   UNL A   1      50.306  25.240  26.535  1.00  0.00     0.029 A 
ATOM     56  C   UNL A   1      49.197  25.973  25.958  1.00  0.00     0.049 A 
ATOM     57  H   UNL A   1      47.334  26.316  26.911  1.00  0.00     0.167 HD
ATOM     58  C   UNL A   1      44.044  27.796  29.611  1.00  0.00     0.037 A 
ATOM     59  C   UNL A   1      49.055  26.507  24.707  1.00  0.00     0.037 A 
ATOM     60  C   UNL A   1      43.576  26.686  28.820  1.00  0.00     0.049 A 
ATOM     61  C   UNL A   1      47.601  26.682  24.513  1.00  0.00     0.074 A 
ATOM     62  C   UNL A   1      43.070  25.426  29.051  1.00  0.00     0.029 A 
ATOM     63  N   UNL A   1      44.056  26.710  27.540  1.00  0.00    -0.354 N 
ATOM     64  N   UNL A   1      46.768  25.682  24.425  1.00  0.00    -0.248 NA
ATOM     65  C   UNL A   1      47.025  27.965  24.879  1.00  0.00     0.031 C 
ATOM     66  C   UNL A   1      43.481  24.637  27.937  1.00  0.00     0.029 A 
ATOM     67  C   UNL A   1      44.137  25.458  27.018  1.00  0.00     0.049 A 
ATOM     68  H   UNL A   1      44.311  27.530  27.058  1.00  0.00     0.167 HD
ATOM     69  C   UNL A   1      45.668  26.097  25.156  1.00  0.00     0.074 A 
ATOM     70  C   UNL A   1      45.830  27.546  25.300  1.00  0.00     0.031 C 
ATOM     71  C   UNL A   1      44.923  25.180  25.838  1.00  0.00     0.037 A 
BRANCH  58  72
ATOM     72  C   UNL A   1      43.724  29.230  29.184  1.00  0.00     0.058 A 
ATOM     73  C   UNL A   1      44.703  29.940  28.452  1.00  0.00     0.135 A 
ATOM     74  C   UNL A   1      42.695  30.029  29.733  1.00  0.00     0.135 A 
ATOM     75  F   UNL A   1      45.736  29.294  27.886  1.00  0.00    -0.206 F 
ATOM     76  C   UNL A   1      44.704  31.333  28.347  1.00  0.00     0.059 A 
ATOM     77  C   UNL A   1      42.654  31.413  29.605  1.00  0.00     0.059 A 
ATOM     78  F   UNL A   1      41.716  29.531  30.495  1.00  0.00    -0.206 F 
ATOM     79  C   UNL A   1      43.677  32.061  28.936  1.00  0.00     0.060 A 
BRANCH  79  80
ATOM     80  S   UNL A   1      43.691  33.859  28.830  1.00  0.00     0.124 S 
ATOM     81  O   UNL A   1      44.757  34.200  29.763  1.00  0.00    -0.237 OA
ATOM     82  O   UNL A   1      43.985  34.067  27.416  1.00  0.00    -0.237 OA
ATOM     83  O   UNL A   1      42.342  34.230  29.244  1.00  0.00    -0.744 OA
ENDBRANCH  79  80
ENDBRANCH  58  72
BRANCH  59  84
ATOM     84  C   UNL A   1      50.033  27.192  23.795  1.00  0.00     0.058 A 
ATOM     85  C   UNL A   1      49.797  27.317  22.404  1.00  0.00     0.135 A 
ATOM     86  C   UNL A   1      51.040  28.029  24.308  1.00  0.00     0.135 A 
ATOM     87  F   UNL A   1      48.855  26.566  21.810  1.00  0.00    -0.206 F 
ATOM     88  C   UNL A   1      50.457  28.262  21.598  1.00  0.00     0.059 A 
ATOM     89  C   UNL A   1      51.711  28.977  23.526  1.00  0.00     0.059 A 
ATOM     90  F   UNL A   1      51.335  28.018  25.616  1.00  0.00    -0.206 F 
ATOM     91  C   UNL A   1      51.395  29.113  22.178  1.00  0.00     0.060 A 
BRANCH  91  92
ATOM     92  S   UNL A   1      52.114  30.465  21.203  1.00  0.00     0.124 S 
ATOM     93  O   UNL A   1      51.374  30.370  19.950  1.00  0.00    -0.237 OA
ATOM     94  O   UNL A   1      51.822  31.634  22.026  1.00  0.00    -0.237 OA
ATOM     95  O   UNL A   1      53.527  30.105  21.117  1.00  0.00    -0.744 OA
ENDBRANCH  91  92
ENDBRANCH  59  84
BRANCH  71  96
ATOM     96  C   UNL A   1      44.986  23.742  25.421  1.00  0.00     0.058 A 
ATOM     97  C   UNL A   1      45.932  22.804  25.865  1.00  0.00     0.135 A 
ATOM     98  C   UNL A   1      43.881  23.265  24.700  1.00  0.00     0.135 A 
ATOM     99  F   UNL A   1      46.977  23.181  26.619  1.00  0.00    -0.206 F 
ATOM    100  C   UNL A   1      45.772  21.439  25.605  1.00  0.00     0.059 A 
ATOM    101  C   UNL A   1      43.687  21.914  24.461  1.00  0.00     0.059 A 
ATOM    102  F   UNL A   1      42.924  24.118  24.298  1.00  0.00    -0.206 F 
ATOM    103  C   UNL A   1      44.636  21.004  24.917  1.00  0.00     0.060 A 
BRANCH 103 104
ATOM    104  S   UNL A   1      44.357  19.235  24.682  1.00  0.00     0.124 S 
ATOM    105  O   UNL A   1      44.538  19.083  23.243  1.00  0.00    -0.237 OA
ATOM    106  O   UNL A   1      45.395  18.639  25.519  1.00  0.00    -0.237 OA
ATOM    107  O   UNL A   1      42.992  19.035  25.163  1.00  0.00    -0.744 OA
ENDBRANCH 103 104
ENDBRANCH  71  96
ENDBRANCH  45  46
ENDBRANCH  38  40
ENDBRANCH  37  38
ENDBRANCH  36  37
ENDBRANCH   1  36
TORSDOF 20
ENDMDL
MODEL 3
REMARK VINA RESULT:     -10.4      7.274     14.266
REMARK SMILES Cc1coc2c(C)c3oc(=O)c(CC(=O)NCC(=O)N[C@H](C(=O)OCCOC(=O)c4ccc(-c5c6nc(c(-c7c(F)cc(S(=O)(=O)[O-])cc7F)c7ccc([nH]7)c(-c7c(F)cc(S(=O)(=O)[O-])cc7F)c7nc(c(-c8c(F)cc(S(=O)(=O)[O-])cc8F)c8ccc5[nH]8)C=C7)C=C6)cc4)C(C)C)c(C)c3cc12
REMARK SMILES IDX 25 1 24 2 22 3 23 4 21 5 20 6 18 7 19 8 17 10 16 11 14 12
REMARK SMILES IDX 15 13 13 15 12 16 1 17 2 18 3 19 103 20 4 21 5 22 102 23
REMARK SMILES IDX 6 24 101 25 7 26 8 27 99 28 9 29 100 30 10 31 11 32 96 33
REMARK SMILES IDX 97 34 98 35 26 36 27 37 28 38 29 39 30 40 31 41 95 42 32 43
REMARK SMILES IDX 94 44 33 45 34 46 35 47 88 48 36 49 93 50 87 51 89 52 37 53
REMARK SMILES IDX 92 54 86 55 85 56 38 58 72 59 51 60 71 61 52 62 55 63 70 64
REMARK SMILES IDX 90 65 53 66 54 67 69 69 91 70 56 71 39 72 40 73 49 74 41 75
REMARK SMILES IDX 42 76 48 77 50 78 43 79 44 80 45 81 46 82 47 83 73 84 74 85
REMARK SMILES IDX 83 86 75 87 76 88 82 89 84 90 77 91 78 92 79 93 80 94 81 95
REMARK SMILES IDX 57 96 58 97 67 98 59 99 60 100 66 101 68 102 61 103 62 104
REMARK SMILES IDX 63 105 64 106 65 107
REMARK H PARENT 20 9 16 14 89 57 55 68
REMARK Flexibility Score: inf
ROOT
ATOM      1  C   UNL A   1      45.682  38.794  30.210  1.00  0.00     0.274 C 
ENDROOT
BRANCH   1   2
ATOM      2  O   UNL A   1      44.247  38.482  30.270  1.00  0.00    -0.461 OA
BRANCH   2   3
ATOM      3  C   UNL A   1      43.517  39.127  29.324  1.00  0.00     0.329 C 
ATOM      4  O   UNL A   1      42.760  38.446  28.663  1.00  0.00    -0.250 OA
BRANCH   3   5
ATOM      5  C   UNL A   1      43.701  40.731  29.185  1.00  0.00     0.194 C 
BRANCH   5   6
ATOM      6  N   UNL A   1      42.879  41.027  27.992  1.00  0.00    -0.341 N 
ATOM      7  C   UNL A   1      43.274  41.432  26.751  1.00  0.00     0.240 C 
ATOM      8  O   UNL A   1      42.425  41.394  25.854  1.00  0.00    -0.273 OA
ATOM      9  H   UNL A   1      41.907  40.915  28.111  1.00  0.00     0.164 HD
BRANCH   7  10
ATOM     10  C   UNL A   1      44.741  41.796  26.424  1.00  0.00     0.216 C 
BRANCH  10  11
ATOM     11  N   UNL A   1      44.997  43.134  25.929  1.00  0.00    -0.347 N 
ATOM     12  C   UNL A   1      44.973  43.713  24.699  1.00  0.00     0.225 C 
ATOM     13  O   UNL A   1      44.826  44.945  24.719  1.00  0.00    -0.275 OA
ATOM     14  H   UNL A   1      45.243  43.765  26.644  1.00  0.00     0.164 HD
BRANCH  12  15
ATOM     15  C   UNL A   1      45.111  42.982  23.332  1.00  0.00     0.143 C 
BRANCH  15  16
ATOM     16  C   UNL A   1      44.551  43.570  22.033  1.00  0.00     0.051 A 
ATOM     17  C   UNL A   1      44.746  48.896  17.171  1.00  0.00     0.048 C 
ATOM     18  C   UNL A   1      43.620  47.923  17.067  1.00  0.00    -0.005 A 
ATOM     19  C   UNL A   1      42.424  48.013  16.398  1.00  0.00     0.199 A 
ATOM     20  C   UNL A   1      43.558  46.687  17.773  1.00  0.00     0.024 A 
ATOM     21  O   UNL A   1      41.628  46.938  16.660  1.00  0.00    -0.464 OA
ATOM     22  C   UNL A   1      42.277  46.131  17.566  1.00  0.00     0.140 A 
ATOM     23  C   UNL A   1      44.533  46.144  18.624  1.00  0.00     0.024 A 
ATOM     24  C   UNL A   1      41.692  44.975  18.166  1.00  0.00     0.036 A 
ATOM     25  C   UNL A   1      44.082  45.158  19.449  1.00  0.00     0.022 A 
ATOM     26  C   UNL A   1      40.395  44.358  17.820  1.00  0.00     0.052 C 
ATOM     27  C   UNL A   1      42.567  44.523  19.128  1.00  0.00     0.145 A 
ATOM     28  C   UNL A   1      44.991  44.776  21.037  1.00  0.00    -0.029 A 
ATOM     29  O   UNL A   1      42.056  43.181  20.255  1.00  0.00    -0.422 OA
ATOM     30  C   UNL A   1      46.035  45.858  21.013  1.00  0.00     0.046 C 
ATOM     31  C   UNL A   1      42.839  42.664  21.777  1.00  0.00     0.340 A 
ATOM     32  O   UNL A   1      42.376  41.774  22.476  1.00  0.00    -0.246 OA
ENDBRANCH  15  16
ENDBRANCH  12  15
ENDBRANCH  10  11
ENDBRANCH   7  10
ENDBRANCH   5   6
BRANCH   5  33
ATOM     33  C   UNL A   1      43.448  42.099  30.439  1.00  0.00     0.017 C 
ATOM     34  C   UNL A   1      44.108  44.173  30.439  1.00  0.00     0.010 C 
ATOM     35  C   UNL A   1      41.925  41.509  31.029  1.00  0.00     0.010 C 
ENDBRANCH   5  33
ENDBRANCH   3   5
ENDBRANCH   2   3
ENDBRANCH   1   2
BRANCH   1  36
ATOM     36  C   UNL A   1      46.619  38.708  31.465  1.00  0.00     0.275 C 
BRANCH  36  37
ATOM     37  O   UNL A   1      46.130  39.158  32.761  1.00  0.00    -0.458 OA
BRANCH  37  38
ATOM     38  C   UNL A   1      46.074  38.173  33.693  1.00  0.00     0.338 C 
ATOM     39  O   UNL A   1      46.994  37.401  33.953  1.00  0.00    -0.246 OA
BRANCH  38  40
ATOM     40  C   UNL A   1      44.761  37.987  34.389  1.00  0.00     0.060 A 
ATOM     41  C   UNL A   1      44.674  37.077  35.457  1.00  0.00     0.016 A 
ATOM     42  C   UNL A   1      43.693  38.053  33.504  1.00  0.00     0.016 A 
ATOM     43  C   UNL A   1      43.838  35.974  35.353  1.00  0.00     0.010 A 
ATOM     44  C   UNL A   1      42.696  37.090  33.555  1.00  0.00     0.010 A 
ATOM     45  C   UNL A   1      42.863  35.958  34.353  1.00  0.00    -0.014 A 
BRANCH  45  46
ATOM     46  C   UNL A   1      41.849  34.888  34.338  1.00  0.00     0.031 A 
ATOM     47  C   UNL A   1      42.324  33.729  33.522  1.00  0.00     0.074 A 
ATOM     48  C   UNL A   1      40.735  34.913  35.120  1.00  0.00     0.049 A 
ATOM     49  N   UNL A   1      41.781  33.237  32.457  1.00  0.00    -0.248 NA
ATOM     50  C   UNL A   1      43.703  33.234  33.741  1.00  0.00     0.031 C 
ATOM     51  C   UNL A   1      40.292  36.006  35.997  1.00  0.00     0.029 A 
ATOM     52  N   UNL A   1      39.822  33.927  35.420  1.00  0.00    -0.354 N 
ATOM     53  C   UNL A   1      42.593  32.161  32.091  1.00  0.00     0.074 A 
ATOM     54  C   UNL A   1      43.854  32.375  32.732  1.00  0.00     0.031 C 
ATOM     55  C   UNL A   1      39.408  35.544  36.912  1.00  0.00     0.029 A 
ATOM     56  C   UNL A   1      39.100  34.161  36.615  1.00  0.00     0.049 A 
ATOM     57  H   UNL A   1      39.684  33.132  34.854  1.00  0.00     0.167 HD
ATOM     58  C   UNL A   1      42.018  31.013  31.635  1.00  0.00     0.037 A 
ATOM     59  C   UNL A   1      38.331  33.265  37.305  1.00  0.00     0.037 A 
ATOM     60  C   UNL A   1      40.681  31.291  31.177  1.00  0.00     0.049 A 
ATOM     61  C   UNL A   1      37.969  32.217  36.328  1.00  0.00     0.074 A 
ATOM     62  C   UNL A   1      40.093  32.000  30.153  1.00  0.00     0.029 A 
ATOM     63  N   UNL A   1      39.742  31.127  32.158  1.00  0.00    -0.354 N 
ATOM     64  N   UNL A   1      37.192  32.435  35.304  1.00  0.00    -0.248 NA
ATOM     65  C   UNL A   1      38.837  31.055  36.237  1.00  0.00     0.031 C 
ATOM     66  C   UNL A   1      38.842  32.451  30.666  1.00  0.00     0.029 A 
ATOM     67  C   UNL A   1      38.661  31.923  31.946  1.00  0.00     0.049 A 
ATOM     68  H   UNL A   1      39.838  30.512  32.920  1.00  0.00     0.167 HD
ATOM     69  C   UNL A   1      37.788  31.728  34.275  1.00  0.00     0.074 A 
ATOM     70  C   UNL A   1      38.715  30.803  34.933  1.00  0.00     0.031 C 
ATOM     71  C   UNL A   1      37.706  32.194  32.995  1.00  0.00     0.037 A 
BRANCH  58  72
ATOM     72  C   UNL A   1      42.370  29.626  32.175  1.00  0.00     0.058 A 
ATOM     73  C   UNL A   1      42.408  29.447  33.578  1.00  0.00     0.135 A 
ATOM     74  C   UNL A   1      42.988  28.597  31.427  1.00  0.00     0.135 A 
ATOM     75  F   UNL A   1      41.861  30.360  34.398  1.00  0.00    -0.206 F 
ATOM     76  C   UNL A   1      43.077  28.382  34.185  1.00  0.00     0.059 A 
ATOM     77  C   UNL A   1      43.622  27.505  32.011  1.00  0.00     0.059 A 
ATOM     78  F   UNL A   1      43.088  28.626  30.095  1.00  0.00    -0.206 F 
ATOM     79  C   UNL A   1      43.689  27.419  33.390  1.00  0.00     0.060 A 
BRANCH  79  80
ATOM     80  S   UNL A   1      44.577  26.061  34.170  1.00  0.00     0.124 S 
ATOM     81  O   UNL A   1      45.769  25.972  33.336  1.00  0.00    -0.237 OA
ATOM     82  O   UNL A   1      44.776  26.577  35.520  1.00  0.00    -0.237 OA
ATOM     83  O   UNL A   1      43.644  24.945  34.063  1.00  0.00    -0.744 OA
ENDBRANCH  79  80
ENDBRANCH  58  72
BRANCH  59  84
ATOM     84  C   UNL A   1      38.150  33.029  38.778  1.00  0.00     0.058 A 
ATOM     85  C   UNL A   1      36.935  32.531  39.311  1.00  0.00     0.135 A 
ATOM     86  C   UNL A   1      39.256  32.960  39.643  1.00  0.00     0.135 A 
ATOM     87  F   UNL A   1      35.817  32.547  38.569  1.00  0.00    -0.206 F 
ATOM     88  C   UNL A   1      36.846  31.934  40.581  1.00  0.00     0.059 A 
ATOM     89  C   UNL A   1      39.191  32.371  40.913  1.00  0.00     0.059 A 
ATOM     90  F   UNL A   1      40.464  33.378  39.240  1.00  0.00    -0.206 F 
ATOM     91  C   UNL A   1      37.992  31.831  41.366  1.00  0.00     0.060 A 
BRANCH  91  92
ATOM     92  S   UNL A   1      37.943  30.894  42.920  1.00  0.00     0.124 S 
ATOM     93  O   UNL A   1      38.172  29.527  42.464  1.00  0.00    -0.237 OA
ATOM     94  O   UNL A   1      39.028  31.498  43.685  1.00  0.00    -0.237 OA
ATOM     95  O   UNL A   1      36.601  31.159  43.432  1.00  0.00    -0.744 OA
ENDBRANCH  91  92
ENDBRANCH  59  84
BRANCH  71  96
ATOM     96  C   UNL A   1      36.608  33.151  32.643  1.00  0.00     0.058 A 
ATOM     97  C   UNL A   1      35.326  32.795  32.191  1.00  0.00     0.135 A 
ATOM     98  C   UNL A   1      36.824  34.490  33.003  1.00  0.00     0.135 A 
ATOM     99  F   UNL A   1      35.030  31.519  31.897  1.00  0.00    -0.206 F 
ATOM    100  C   UNL A   1      34.299  33.740  32.113  1.00  0.00     0.059 A 
ATOM    101  C   UNL A   1      35.811  35.435  32.964  1.00  0.00     0.059 A 
ATOM    102  F   UNL A   1      38.018  34.869  33.488  1.00  0.00    -0.206 F 
ATOM    103  C   UNL A   1      34.548  35.054  32.519  1.00  0.00     0.060 A 
BRANCH 103 104
ATOM    104  S   UNL A   1      33.199  36.254  32.538  1.00  0.00     0.124 S 
ATOM    105  O   UNL A   1      33.426  36.992  31.300  1.00  0.00    -0.237 OA
ATOM    106  O   UNL A   1      32.017  35.397  32.559  1.00  0.00    -0.237 OA
ATOM    107  O   UNL A   1      33.429  37.011  33.766  1.00  0.00    -0.744 OA
ENDBRANCH 103 104
ENDBRANCH  71  96
ENDBRANCH  45  46
ENDBRANCH  38  40
ENDBRANCH  37  38
ENDBRANCH  36  37
ENDBRANCH   1  36
TORSDOF 20
ENDMDL
