MODEL 1
REMARK VINA RESULT:     -11.4      0.000      0.000
REMARK SMILES Cc1cc(Oc2ccnc(C(=O)OCCOC(=O)c3ccc(-c4c5nc(c(-c6c(F)cc(S(=O)(=O)[O-])cc6F)c6ccc([nH]6)c(-c6c(F)cc(S(=O)(=O)[O-])cc6F)c6nc(c(-c7c(F)cc(S(=O)(=O)[O-])cc7F)c7ccc4[nH]7)C=C6)C=C5)cc3)c2)cc(C)c1Cl
REMARK SMILES IDX 15 1 14 2 13 3 11 4 12 5 10 6 6 7 7 8 85 9 8 10 9 11 5 12
REMARK SMILES IDX 4 13 1 14 2 15 3 16 89 17 87 18 90 19 86 20 88 21 16 22
REMARK SMILES IDX 17 23 18 24 19 25 20 26 84 27 21 28 83 29 22 30 23 31 24 32
REMARK SMILES IDX 77 33 25 34 82 35 76 36 78 37 26 38 81 39 75 40 74 41 27 43
REMARK SMILES IDX 61 44 40 45 60 46 41 47 44 48 59 49 79 50 42 51 43 52 58 54
REMARK SMILES IDX 80 55 45 56 28 57 29 58 38 59 30 60 31 61 37 62 39 63 32 64
REMARK SMILES IDX 33 65 34 66 35 67 36 68 62 69 63 70 72 71 64 72 65 73 71 74
REMARK SMILES IDX 73 75 66 76 67 77 68 78 69 79 70 80 46 81 47 82 56 83 48 84
REMARK SMILES IDX 49 85 55 86 57 87 50 88 51 89 52 90 53 91 54 92
REMARK H PARENT 78 42 44 53
REMARK Flexibility Score: inf
ROOT
ATOM      1  C   UNL A   1      34.571  32.444  29.464  1.00  0.00     0.275 C 
ENDROOT
BRANCH   1   2
ATOM      2  C   UNL A   1      34.140  33.782  28.852  1.00  0.00     0.275 C 
BRANCH   2   3
ATOM      3  O   UNL A   1      32.927  34.280  29.450  1.00  0.00    -0.457 OA
BRANCH   3   4
ATOM      4  C   UNL A   1      32.828  35.635  29.545  1.00  0.00     0.357 C 
ATOM      5  O   UNL A   1      32.387  36.369  28.674  1.00  0.00    -0.244 OA
BRANCH   4   6
ATOM      6  C   UNL A   1      33.268  36.105  30.898  1.00  0.00     0.152 A 
ATOM      7  C   UNL A   1      34.129  35.764  33.088  1.00  0.00     0.131 A 
ATOM      8  C   UNL A   1      33.983  37.123  33.348  1.00  0.00     0.067 A 
ATOM      9  C   UNL A   1      33.778  35.238  31.848  1.00  0.00     0.083 A 
ATOM     10  C   UNL A   1      33.467  37.914  32.340  1.00  0.00     0.116 A 
ATOM     11  N   UNL A   1      33.129  37.441  31.123  1.00  0.00    -0.249 NA
BRANCH   7  12
ATOM     12  O   UNL A   1      34.735  34.898  33.964  1.00  0.00    -0.457 OA
BRANCH  12  13
ATOM     13  C   UNL A   1      35.966  34.361  33.671  1.00  0.00     0.128 A 
ATOM     14  C   UNL A   1      38.822  34.448  31.166  1.00  0.00     0.046 C 
ATOM     15  C   UNL A   1      38.021  34.105  32.394  1.00  0.00    -0.028 A 
ATOM     16  C   UNL A   1      36.741  34.668  32.553  1.00  0.00     0.052 A 
ATOM     17  C   UNL A   1      38.529  33.261  33.402  1.00  0.00     0.047 A 
ATOM     18  C   UNL A   1      37.762  32.962  34.543  1.00  0.00    -0.028 A 
ATOM     19  Cl  UNL A   1      40.128  32.602  33.252  1.00  0.00    -0.084 Cl
ATOM     20  C   UNL A   1      36.480  33.516  34.657  1.00  0.00     0.052 A 
ATOM     21  C   UNL A   1      38.281  32.095  35.656  1.00  0.00     0.046 C 
ENDBRANCH  12  13
ENDBRANCH   7  12
ENDBRANCH   4   6
ENDBRANCH   3   4
ENDBRANCH   2   3
ENDBRANCH   1   2
BRANCH   1  22
ATOM     22  O   UNL A   1      35.999  32.266  29.441  1.00  0.00    -0.458 OA
BRANCH  22  23
ATOM     23  C   UNL A   1      36.487  31.434  30.392  1.00  0.00     0.338 C 
ATOM     24  O   UNL A   1      35.950  31.133  31.446  1.00  0.00    -0.246 OA
BRANCH  23  25
ATOM     25  C   UNL A   1      37.736  30.811  29.927  1.00  0.00     0.060 A 
ATOM     26  C   UNL A   1      38.723  30.573  30.881  1.00  0.00     0.016 A 
ATOM     27  C   UNL A   1      37.986  30.549  28.578  1.00  0.00     0.016 A 
ATOM     28  C   UNL A   1      39.971  30.089  30.504  1.00  0.00     0.010 A 
ATOM     29  C   UNL A   1      39.242  30.050  28.197  1.00  0.00     0.010 A 
ATOM     30  C   UNL A   1      40.246  29.829  29.157  1.00  0.00    -0.014 A 
BRANCH  30  31
ATOM     31  C   UNL A   1      41.610  29.374  28.775  1.00  0.00     0.031 A 
ATOM     32  C   UNL A   1      42.766  30.334  28.825  1.00  0.00     0.074 A 
ATOM     33  C   UNL A   1      41.818  28.084  28.450  1.00  0.00     0.049 A 
ATOM     34  N   UNL A   1      44.016  30.138  28.495  1.00  0.00    -0.248 NA
ATOM     35  C   UNL A   1      42.478  31.691  29.313  1.00  0.00     0.031 C 
ATOM     36  C   UNL A   1      40.788  27.044  28.417  1.00  0.00     0.029 A 
ATOM     37  N   UNL A   1      42.969  27.422  28.097  1.00  0.00    -0.354 N 
ATOM     38  C   UNL A   1      44.661  31.351  28.709  1.00  0.00     0.074 A 
ATOM     39  C   UNL A   1      43.660  32.281  29.187  1.00  0.00     0.031 C 
ATOM     40  C   UNL A   1      41.355  25.874  28.081  1.00  0.00     0.029 A 
ATOM     41  C   UNL A   1      42.776  26.088  27.825  1.00  0.00     0.049 A 
ATOM     42  H   UNL A   1      43.847  27.862  28.043  1.00  0.00     0.167 HD
ATOM     43  C   UNL A   1      45.969  31.658  28.529  1.00  0.00     0.037 A 
ATOM     44  C   UNL A   1      43.641  25.149  27.397  1.00  0.00     0.037 A 
ATOM     45  C   UNL A   1      46.966  30.722  28.078  1.00  0.00     0.049 A 
ATOM     46  C   UNL A   1      45.078  25.526  27.160  1.00  0.00     0.074 A 
ATOM     47  C   UNL A   1      48.317  30.938  27.866  1.00  0.00     0.029 A 
ATOM     48  N   UNL A   1      46.724  29.390  27.775  1.00  0.00    -0.354 N 
ATOM     49  N   UNL A   1      45.666  26.685  27.343  1.00  0.00    -0.248 NA
ATOM     50  C   UNL A   1      45.967  24.473  26.650  1.00  0.00     0.031 C 
ATOM     51  C   UNL A   1      48.885  29.746  27.404  1.00  0.00     0.029 A 
ATOM     52  C   UNL A   1      47.897  28.776  27.364  1.00  0.00     0.049 A 
ATOM     53  H   UNL A   1      45.848  28.947  27.841  1.00  0.00     0.167 HD
ATOM     54  C   UNL A   1      46.996  26.497  26.982  1.00  0.00     0.074 A 
ATOM     55  C   UNL A   1      47.129  25.109  26.588  1.00  0.00     0.031 C 
ATOM     56  C   UNL A   1      48.012  27.393  26.976  1.00  0.00     0.037 A 
BRANCH  43  57
ATOM     57  C   UNL A   1      46.391  33.077  28.790  1.00  0.00     0.058 A 
ATOM     58  C   UNL A   1      46.854  33.492  30.049  1.00  0.00     0.135 A 
ATOM     59  C   UNL A   1      46.358  34.028  27.758  1.00  0.00     0.135 A 
ATOM     60  F   UNL A   1      46.889  32.627  31.075  1.00  0.00    -0.206 F 
ATOM     61  C   UNL A   1      47.245  34.807  30.281  1.00  0.00     0.059 A 
ATOM     62  C   UNL A   1      46.766  35.343  27.961  1.00  0.00     0.059 A 
ATOM     63  F   UNL A   1      45.923  33.684  26.536  1.00  0.00    -0.206 F 
ATOM     64  C   UNL A   1      47.194  35.727  29.232  1.00  0.00     0.060 A 
BRANCH  64  65
ATOM     65  S   UNL A   1      47.699  37.431  29.548  1.00  0.00     0.124 S 
ATOM     66  O   UNL A   1      48.794  37.590  28.595  1.00  0.00    -0.237 OA
ATOM     67  O   UNL A   1      46.485  38.181  29.247  1.00  0.00    -0.237 OA
ATOM     68  O   UNL A   1      48.089  37.414  30.954  1.00  0.00    -0.744 OA
ENDBRANCH  64  65
ENDBRANCH  43  57
BRANCH  44  69
ATOM     69  C   UNL A   1      43.164  23.764  27.137  1.00  0.00     0.058 A 
ATOM     70  C   UNL A   1      42.880  23.326  25.836  1.00  0.00     0.135 A 
ATOM     71  C   UNL A   1      42.991  22.850  28.189  1.00  0.00     0.135 A 
ATOM     72  F   UNL A   1      43.017  24.166  24.800  1.00  0.00    -0.206 F 
ATOM     73  C   UNL A   1      42.432  22.033  25.586  1.00  0.00     0.059 A 
ATOM     74  C   UNL A   1      42.568  21.545  27.960  1.00  0.00     0.059 A 
ATOM     75  F   UNL A   1      43.258  23.219  29.452  1.00  0.00    -0.206 F 
ATOM     76  C   UNL A   1      42.280  21.148  26.656  1.00  0.00     0.060 A 
BRANCH  76  77
ATOM     77  S   UNL A   1      41.744  19.456  26.320  1.00  0.00     0.124 S 
ATOM     78  O   UNL A   1      40.301  19.626  26.194  1.00  0.00    -0.237 OA
ATOM     79  O   UNL A   1      42.460  19.143  25.087  1.00  0.00    -0.237 OA
ATOM     80  O   UNL A   1      42.193  18.723  27.500  1.00  0.00    -0.744 OA
ENDBRANCH  76  77
ENDBRANCH  44  69
BRANCH  56  81
ATOM     81  C   UNL A   1      49.365  26.896  26.550  1.00  0.00     0.058 A 
ATOM     82  C   UNL A   1      50.294  26.408  27.482  1.00  0.00     0.135 A 
ATOM     83  C   UNL A   1      49.719  26.867  25.192  1.00  0.00     0.135 A 
ATOM     84  F   UNL A   1      50.007  26.421  28.793  1.00  0.00    -0.206 F 
ATOM     85  C   UNL A   1      51.538  25.927  27.083  1.00  0.00     0.059 A 
ATOM     86  C   UNL A   1      50.947  26.369  24.768  1.00  0.00     0.059 A 
ATOM     87  F   UNL A   1      48.861  27.314  24.260  1.00  0.00    -0.206 F 
ATOM     88  C   UNL A   1      51.855  25.912  25.723  1.00  0.00     0.060 A 
BRANCH  88  89
ATOM     89  S   UNL A   1      53.458  25.256  25.213  1.00  0.00     0.124 S 
ATOM     90  O   UNL A   1      53.576  25.789  23.860  1.00  0.00    -0.237 OA
ATOM     91  O   UNL A   1      54.364  25.831  26.203  1.00  0.00    -0.237 OA
ATOM     92  O   UNL A   1      53.276  23.810  25.305  1.00  0.00    -0.744 OA
ENDBRANCH  88  89
ENDBRANCH  56  81
ENDBRANCH  30  31
ENDBRANCH  23  25
ENDBRANCH  22  23
ENDBRANCH   1  22
TORSDOF 16
ENDMDL
MODEL 2
REMARK VINA RESULT:     -11.2      5.887     14.316
REMARK SMILES Cc1cc(Oc2ccnc(C(=O)OCCOC(=O)c3ccc(-c4c5nc(c(-c6c(F)cc(S(=O)(=O)[O-])cc6F)c6ccc([nH]6)c(-c6c(F)cc(S(=O)(=O)[O-])cc6F)c6nc(c(-c7c(F)cc(S(=O)(=O)[O-])cc7F)c7ccc4[nH]7)C=C6)C=C5)cc3)c2)cc(C)c1Cl
REMARK SMILES IDX 15 1 14 2 13 3 11 4 12 5 10 6 6 7 7 8 85 9 8 10 9 11 5 12
REMARK SMILES IDX 4 13 1 14 2 15 3 16 89 17 87 18 90 19 86 20 88 21 16 22
REMARK SMILES IDX 17 23 18 24 19 25 20 26 84 27 21 28 83 29 22 30 23 31 24 32
REMARK SMILES IDX 77 33 25 34 82 35 76 36 78 37 26 38 81 39 75 40 74 41 27 43
REMARK SMILES IDX 61 44 40 45 60 46 41 47 44 48 59 49 79 50 42 51 43 52 58 54
REMARK SMILES IDX 80 55 45 56 28 57 29 58 38 59 30 60 31 61 37 62 39 63 32 64
REMARK SMILES IDX 33 65 34 66 35 67 36 68 62 69 63 70 72 71 64 72 65 73 71 74
REMARK SMILES IDX 73 75 66 76 67 77 68 78 69 79 70 80 46 81 47 82 56 83 48 84
REMARK SMILES IDX 49 85 55 86 57 87 50 88 51 89 52 90 53 91 54 92
REMARK H PARENT 78 42 44 53
REMARK Flexibility Score: inf
ROOT
ATOM      1  C   UNL A   1      40.786  22.321  27.577  1.00  0.00     0.275 C 
ENDROOT
BRANCH   1   2
ATOM      2  C   UNL A   1      40.533  21.208  26.555  1.00  0.00     0.275 C 
BRANCH   2   3
ATOM      3  O   UNL A   1      41.680  20.982  25.712  1.00  0.00    -0.457 OA
BRANCH   3   4
ATOM      4  C   UNL A   1      42.199  19.723  25.744  1.00  0.00     0.357 C 
ATOM      5  O   UNL A   1      41.547  18.697  25.866  1.00  0.00    -0.244 OA
BRANCH   4   6
ATOM      6  C   UNL A   1      43.682  19.755  25.538  1.00  0.00     0.152 A 
ATOM      7  C   UNL A   1      45.739  20.860  25.082  1.00  0.00     0.131 A 
ATOM      8  C   UNL A   1      46.397  19.634  25.132  1.00  0.00     0.067 A 
ATOM      9  C   UNL A   1      44.365  20.935  25.294  1.00  0.00     0.083 A 
ATOM     10  C   UNL A   1      45.636  18.510  25.382  1.00  0.00     0.116 A 
ATOM     11  N   UNL A   1      44.306  18.547  25.605  1.00  0.00    -0.249 NA
BRANCH   7  12
ATOM     12  O   UNL A   1      46.399  22.057  24.956  1.00  0.00    -0.457 OA
BRANCH  12  13
ATOM     13  C   UNL A   1      46.000  23.151  25.685  1.00  0.00     0.128 A 
ATOM     14  C   UNL A   1      44.715  24.255  29.087  1.00  0.00     0.046 C 
ATOM     15  C   UNL A   1      45.223  24.323  27.670  1.00  0.00    -0.028 A 
ATOM     16  C   UNL A   1      45.540  23.126  27.002  1.00  0.00     0.052 A 
ATOM     17  C   UNL A   1      45.419  25.552  27.008  1.00  0.00     0.047 A 
ATOM     18  C   UNL A   1      45.901  25.587  25.687  1.00  0.00    -0.028 A 
ATOM     19  Cl  UNL A   1      45.088  27.042  27.836  1.00  0.00    -0.084 Cl
ATOM     20  C   UNL A   1      46.180  24.376  25.039  1.00  0.00     0.052 A 
ATOM     21  C   UNL A   1      46.156  26.877  24.958  1.00  0.00     0.046 C 
ENDBRANCH  12  13
ENDBRANCH   7  12
ENDBRANCH   4   6
ENDBRANCH   3   4
ENDBRANCH   2   3
ENDBRANCH   1   2
BRANCH   1  22
ATOM     22  O   UNL A   1      41.329  23.508  26.971  1.00  0.00    -0.458 OA
BRANCH  22  23
ATOM     23  C   UNL A   1      40.444  24.519  26.800  1.00  0.00     0.338 C 
ATOM     24  O   UNL A   1      39.603  24.616  25.921  1.00  0.00    -0.246 OA
BRANCH  23  25
ATOM     25  C   UNL A   1      40.536  25.468  27.922  1.00  0.00     0.060 A 
ATOM     26  C   UNL A   1      39.422  25.587  28.749  1.00  0.00     0.016 A 
ATOM     27  C   UNL A   1      41.644  26.296  28.113  1.00  0.00     0.016 A 
ATOM     28  C   UNL A   1      39.390  26.539  29.762  1.00  0.00     0.010 A 
ATOM     29  C   UNL A   1      41.618  27.250  29.143  1.00  0.00     0.010 A 
ATOM     30  C   UNL A   1      40.485  27.386  29.966  1.00  0.00    -0.014 A 
BRANCH  30  31
ATOM     31  C   UNL A   1      40.398  28.437  31.014  1.00  0.00     0.031 A 
ATOM     32  C   UNL A   1      41.341  28.415  32.184  1.00  0.00     0.074 A 
ATOM     33  C   UNL A   1      39.517  29.446  30.878  1.00  0.00     0.049 A 
ATOM     34  N   UNL A   1      41.397  29.217  33.216  1.00  0.00    -0.248 NA
ATOM     35  C   UNL A   1      42.359  27.352  32.194  1.00  0.00     0.031 C 
ATOM     36  C   UNL A   1      38.584  29.608  29.760  1.00  0.00     0.029 A 
ATOM     37  N   UNL A   1      39.268  30.534  31.678  1.00  0.00    -0.354 N 
ATOM     38  C   UNL A   1      42.435  28.744  34.011  1.00  0.00     0.074 A 
ATOM     39  C   UNL A   1      42.974  27.576  33.347  1.00  0.00     0.031 C 
ATOM     40  C   UNL A   1      37.879  30.738  29.936  1.00  0.00     0.029 A 
ATOM     41  C   UNL A   1      38.271  31.353  31.201  1.00  0.00     0.049 A 
ATOM     42  H   UNL A   1      39.758  30.711  32.513  1.00  0.00     0.167 HD
ATOM     43  C   UNL A   1      42.898  29.242  35.183  1.00  0.00     0.037 A 
ATOM     44  C   UNL A   1      37.719  32.460  31.734  1.00  0.00     0.037 A 
ATOM     45  C   UNL A   1      42.373  30.420  35.826  1.00  0.00     0.049 A 
ATOM     46  C   UNL A   1      38.219  32.967  33.059  1.00  0.00     0.074 A 
ATOM     47  C   UNL A   1      42.777  31.003  37.015  1.00  0.00     0.029 A 
ATOM     48  N   UNL A   1      41.336  31.198  35.333  1.00  0.00    -0.354 N 
ATOM     49  N   UNL A   1      39.184  32.492  33.810  1.00  0.00    -0.248 NA
ATOM     50  C   UNL A   1      37.550  34.152  33.613  1.00  0.00     0.031 C 
ATOM     51  C   UNL A   1      41.963  32.115  37.257  1.00  0.00     0.029 A 
ATOM     52  C   UNL A   1      41.077  32.248  36.200  1.00  0.00     0.049 A 
ATOM     53  H   UNL A   1      40.856  31.029  34.491  1.00  0.00     0.167 HD
ATOM     54  C   UNL A   1      39.247  33.328  34.920  1.00  0.00     0.074 A 
ATOM     55  C   UNL A   1      38.234  34.346  34.733  1.00  0.00     0.031 C 
ATOM     56  C   UNL A   1      40.066  33.255  35.997  1.00  0.00     0.037 A 
BRANCH  43  57
ATOM     57  C   UNL A   1      44.009  28.494  35.864  1.00  0.00     0.058 A 
ATOM     58  C   UNL A   1      45.359  28.813  35.646  1.00  0.00     0.135 A 
ATOM     59  C   UNL A   1      43.718  27.462  36.771  1.00  0.00     0.135 A 
ATOM     60  F   UNL A   1      45.693  29.779  34.776  1.00  0.00    -0.206 F 
ATOM     61  C   UNL A   1      46.381  28.116  36.283  1.00  0.00     0.059 A 
ATOM     62  C   UNL A   1      44.723  26.768  37.437  1.00  0.00     0.059 A 
ATOM     63  F   UNL A   1      42.444  27.118  37.016  1.00  0.00    -0.206 F 
ATOM     64  C   UNL A   1      46.054  27.092  37.174  1.00  0.00     0.060 A 
BRANCH  64  65
ATOM     65  S   UNL A   1      47.390  26.193  37.991  1.00  0.00     0.124 S 
ATOM     66  O   UNL A   1      46.745  24.917  38.281  1.00  0.00    -0.237 OA
ATOM     67  O   UNL A   1      48.422  26.160  36.960  1.00  0.00    -0.237 OA
ATOM     68  O   UNL A   1      47.696  27.021  39.153  1.00  0.00    -0.744 OA
ENDBRANCH  64  65
ENDBRANCH  43  57
BRANCH  44  69
ATOM     69  C   UNL A   1      36.609  33.150  31.024  1.00  0.00     0.058 A 
ATOM     70  C   UNL A   1      35.285  33.049  31.474  1.00  0.00     0.135 A 
ATOM     71  C   UNL A   1      36.855  33.931  29.883  1.00  0.00     0.135 A 
ATOM     72  F   UNL A   1      34.998  32.305  32.552  1.00  0.00    -0.206 F 
ATOM     73  C   UNL A   1      34.241  33.691  30.814  1.00  0.00     0.059 A 
ATOM     74  C   UNL A   1      35.832  34.601  29.221  1.00  0.00     0.059 A 
ATOM     75  F   UNL A   1      38.107  34.064  29.416  1.00  0.00    -0.206 F 
ATOM     76  C   UNL A   1      34.525  34.467  29.688  1.00  0.00     0.060 A 
BRANCH  76  77
ATOM     77  S   UNL A   1      33.173  35.335  28.864  1.00  0.00     0.124 S 
ATOM     78  O   UNL A   1      32.691  34.316  27.938  1.00  0.00    -0.237 OA
ATOM     79  O   UNL A   1      32.287  35.656  29.978  1.00  0.00    -0.237 OA
ATOM     80  O   UNL A   1      33.838  36.482  28.251  1.00  0.00    -0.744 OA
ENDBRANCH  76  77
ENDBRANCH  44  69
BRANCH  56  81
ATOM     81  C   UNL A   1      39.918  34.320  37.047  1.00  0.00     0.058 A 
ATOM     82  C   UNL A   1      40.556  35.563  36.926  1.00  0.00     0.135 A 
ATOM     83  C   UNL A   1      39.095  34.109  38.165  1.00  0.00     0.135 A 
ATOM     84  F   UNL A   1      41.360  35.812  35.880  1.00  0.00    -0.206 F 
ATOM     85  C   UNL A   1      40.399  36.556  37.889  1.00  0.00     0.059 A 
ATOM     86  C   UNL A   1      38.905  35.095  39.127  1.00  0.00     0.059 A 
ATOM     87  F   UNL A   1      38.454  32.939  38.322  1.00  0.00    -0.206 F 
ATOM     88  C   UNL A   1      39.571  36.312  38.986  1.00  0.00     0.060 A 
BRANCH  88  89
ATOM     89  S   UNL A   1      39.348  37.619  40.213  1.00  0.00     0.124 S 
ATOM     90  O   UNL A   1      38.301  38.425  39.596  1.00  0.00    -0.237 OA
ATOM     91  O   UNL A   1      38.954  36.870  41.403  1.00  0.00    -0.237 OA
ATOM     92  O   UNL A   1      40.665  38.245  40.283  1.00  0.00    -0.744 OA
ENDBRANCH  88  89
ENDBRANCH  56  81
ENDBRANCH  30  31
ENDBRANCH  23  25
ENDBRANCH  22  23
ENDBRANCH   1  22
TORSDOF 16
ENDMDL
MODEL 3
REMARK VINA RESULT:     -11.1      5.881     13.943
REMARK SMILES Cc1cc(Oc2ccnc(C(=O)OCCOC(=O)c3ccc(-c4c5nc(c(-c6c(F)cc(S(=O)(=O)[O-])cc6F)c6ccc([nH]6)c(-c6c(F)cc(S(=O)(=O)[O-])cc6F)c6nc(c(-c7c(F)cc(S(=O)(=O)[O-])cc7F)c7ccc4[nH]7)C=C6)C=C5)cc3)c2)cc(C)c1Cl
REMARK SMILES IDX 15 1 14 2 13 3 11 4 12 5 10 6 6 7 7 8 85 9 8 10 9 11 5 12
REMARK SMILES IDX 4 13 1 14 2 15 3 16 89 17 87 18 90 19 86 20 88 21 16 22
REMARK SMILES IDX 17 23 18 24 19 25 20 26 84 27 21 28 83 29 22 30 23 31 24 32
REMARK SMILES IDX 77 33 25 34 82 35 76 36 78 37 26 38 81 39 75 40 74 41 27 43
REMARK SMILES IDX 61 44 40 45 60 46 41 47 44 48 59 49 79 50 42 51 43 52 58 54
REMARK SMILES IDX 80 55 45 56 28 57 29 58 38 59 30 60 31 61 37 62 39 63 32 64
REMARK SMILES IDX 33 65 34 66 35 67 36 68 62 69 63 70 72 71 64 72 65 73 71 74
REMARK SMILES IDX 73 75 66 76 67 77 68 78 69 79 70 80 46 81 47 82 56 83 48 84
REMARK SMILES IDX 49 85 55 86 57 87 50 88 51 89 52 90 53 91 54 92
REMARK H PARENT 78 42 44 53
REMARK Flexibility Score: inf
ROOT
ATOM      1  C   UNL A   1      45.443  25.459  25.510  1.00  0.00     0.275 C 
ENDROOT
BRANCH   1   2
ATOM      2  C   UNL A   1      46.273  24.284  24.982  1.00  0.00     0.275 C 
BRANCH   2   3
ATOM      3  O   UNL A   1      45.693  23.015  25.338  1.00  0.00    -0.457 OA
BRANCH   3   4
ATOM      4  C   UNL A   1      44.922  22.428  24.381  1.00  0.00     0.357 C 
ATOM      5  O   UNL A   1      44.961  22.690  23.188  1.00  0.00    -0.244 OA
BRANCH   4   6
ATOM      6  C   UNL A   1      44.059  21.358  24.977  1.00  0.00     0.152 A 
ATOM      7  C   UNL A   1      42.332  20.578  26.415  1.00  0.00     0.131 A 
ATOM      8  C   UNL A   1      42.599  19.273  26.013  1.00  0.00     0.067 A 
ATOM      9  C   UNL A   1      43.060  21.643  25.892  1.00  0.00     0.083 A 
ATOM     10  C   UNL A   1      43.613  19.082  25.095  1.00  0.00     0.116 A 
ATOM     11  N   UNL A   1      44.329  20.091  24.558  1.00  0.00    -0.249 NA
BRANCH   7  12
ATOM     12  O   UNL A   1      41.278  20.906  27.230  1.00  0.00    -0.457 OA
BRANCH  12  13
ATOM     13  C   UNL A   1      40.182  21.561  26.720  1.00  0.00     0.128 A 
ATOM     14  C   UNL A   1      37.063  21.106  24.597  1.00  0.00     0.046 C 
ATOM     15  C   UNL A   1      38.089  21.748  25.495  1.00  0.00    -0.028 A 
ATOM     16  C   UNL A   1      39.206  20.994  25.901  1.00  0.00     0.052 A 
ATOM     17  C   UNL A   1      37.945  23.069  25.963  1.00  0.00     0.047 A 
ATOM     18  C   UNL A   1      38.915  23.642  26.806  1.00  0.00    -0.028 A 
ATOM     19  Cl  UNL A   1      36.545  23.995  25.519  1.00  0.00    -0.084 Cl
ATOM     20  C   UNL A   1      40.030  22.875  27.169  1.00  0.00     0.052 A 
ATOM     21  C   UNL A   1      38.782  25.036  27.354  1.00  0.00     0.046 C 
ENDBRANCH  12  13
ENDBRANCH   7  12
ENDBRANCH   4   6
ENDBRANCH   3   4
ENDBRANCH   2   3
ENDBRANCH   1   2
BRANCH   1  22
ATOM     22  O   UNL A   1      44.467  25.046  26.484  1.00  0.00    -0.458 OA
BRANCH  22  23
ATOM     23  C   UNL A   1      43.196  25.432  26.219  1.00  0.00     0.338 C 
ATOM     24  O   UNL A   1      42.505  25.080  25.276  1.00  0.00    -0.246 OA
BRANCH  23  25
ATOM     25  C   UNL A   1      42.679  26.264  27.319  1.00  0.00     0.060 A 
ATOM     26  C   UNL A   1      43.055  27.605  27.334  1.00  0.00     0.016 A 
ATOM     27  C   UNL A   1      41.924  25.734  28.367  1.00  0.00     0.016 A 
ATOM     28  C   UNL A   1      42.698  28.428  28.397  1.00  0.00     0.010 A 
ATOM     29  C   UNL A   1      41.554  26.566  29.435  1.00  0.00     0.010 A 
ATOM     30  C   UNL A   1      41.949  27.915  29.463  1.00  0.00    -0.014 A 
BRANCH  30  31
ATOM     31  C   UNL A   1      41.639  28.801  30.616  1.00  0.00     0.031 A 
ATOM     32  C   UNL A   1      42.513  28.782  31.838  1.00  0.00     0.074 A 
ATOM     33  C   UNL A   1      40.611  29.668  30.536  1.00  0.00     0.049 A 
ATOM     34  N   UNL A   1      42.385  29.448  32.956  1.00  0.00    -0.248 NA
ATOM     35  C   UNL A   1      43.690  27.900  31.797  1.00  0.00     0.031 C 
ATOM     36  C   UNL A   1      39.722  29.820  29.382  1.00  0.00     0.029 A 
ATOM     37  N   UNL A   1      40.148  30.596  31.436  1.00  0.00    -0.354 N 
ATOM     38  C   UNL A   1      43.446  29.049  33.762  1.00  0.00     0.074 A 
ATOM     39  C   UNL A   1      44.202  28.072  33.008  1.00  0.00     0.031 C 
ATOM     40  C   UNL A   1      38.833  30.794  29.637  1.00  0.00     0.029 A 
ATOM     41  C   UNL A   1      39.055  31.300  30.989  1.00  0.00     0.049 A 
ATOM     42  H   UNL A   1      40.559  30.742  32.318  1.00  0.00     0.167 HD
ATOM     43  C   UNL A   1      43.761  29.464  35.013  1.00  0.00     0.037 A 
ATOM     44  C   UNL A   1      38.303  32.232  31.605  1.00  0.00     0.037 A 
ATOM     45  C   UNL A   1      43.019  30.455  35.749  1.00  0.00     0.049 A 
ATOM     46  C   UNL A   1      38.646  32.643  33.011  1.00  0.00     0.074 A 
ATOM     47  C   UNL A   1      43.262  30.943  37.022  1.00  0.00     0.029 A 
ATOM     48  N   UNL A   1      41.894  31.116  35.277  1.00  0.00    -0.354 N 
ATOM     49  N   UNL A   1      39.637  32.235  33.768  1.00  0.00    -0.248 NA
ATOM     50  C   UNL A   1      37.765  33.629  33.650  1.00  0.00     0.031 C 
ATOM     51  C   UNL A   1      42.265  31.874  37.333  1.00  0.00     0.029 A 
ATOM     52  C   UNL A   1      41.423  31.996  36.239  1.00  0.00     0.049 A 
ATOM     53  H   UNL A   1      41.491  30.980  34.390  1.00  0.00     0.167 HD
ATOM     54  C   UNL A   1      39.506  32.926  34.969  1.00  0.00     0.074 A 
ATOM     55  C   UNL A   1      38.351  33.788  34.830  1.00  0.00     0.031 C 
ATOM     56  C   UNL A   1      40.272  32.850  36.084  1.00  0.00     0.037 A 
BRANCH  43  57
ATOM     57  C   UNL A   1      44.945  28.821  35.679  1.00  0.00     0.058 A 
ATOM     58  C   UNL A   1      46.237  29.360  35.575  1.00  0.00     0.135 A 
ATOM     59  C   UNL A   1      44.779  27.664  36.457  1.00  0.00     0.135 A 
ATOM     60  F   UNL A   1      46.454  30.455  34.829  1.00  0.00    -0.206 F 
ATOM     61  C   UNL A   1      47.327  28.759  36.197  1.00  0.00     0.059 A 
ATOM     62  C   UNL A   1      45.850  27.059  37.107  1.00  0.00     0.059 A 
ATOM     63  F   UNL A   1      43.565  27.108  36.590  1.00  0.00    -0.206 F 
ATOM     64  C   UNL A   1      47.125  27.606  36.958  1.00  0.00     0.060 A 
BRANCH  64  65
ATOM     65  S   UNL A   1      48.548  26.834  37.757  1.00  0.00     0.124 S 
ATOM     66  O   UNL A   1      48.131  25.436  37.803  1.00  0.00    -0.237 OA
ATOM     67  O   UNL A   1      49.632  27.140  36.830  1.00  0.00    -0.237 OA
ATOM     68  O   UNL A   1      48.622  27.510  39.048  1.00  0.00    -0.744 OA
ENDBRANCH  64  65
ENDBRANCH  43  57
BRANCH  44  69
ATOM     69  C   UNL A   1      37.131  32.822  30.904  1.00  0.00     0.058 A 
ATOM     70  C   UNL A   1      35.830  32.362  31.149  1.00  0.00     0.135 A 
ATOM     71  C   UNL A   1      37.293  33.866  29.978  1.00  0.00     0.135 A 
ATOM     72  F   UNL A   1      35.626  31.358  32.015  1.00  0.00    -0.206 F 
ATOM     73  C   UNL A   1      34.729  32.908  30.496  1.00  0.00     0.059 A 
ATOM     74  C   UNL A   1      36.206  34.444  29.332  1.00  0.00     0.059 A 
ATOM     75  F   UNL A   1      38.518  34.347  29.715  1.00  0.00    -0.206 F 
ATOM     76  C   UNL A   1      34.927  33.951  29.589  1.00  0.00     0.060 A 
BRANCH  76  77
ATOM     77  S   UNL A   1      33.491  34.688  28.779  1.00  0.00     0.124 S 
ATOM     78  O   UNL A   1      33.122  33.644  27.830  1.00  0.00    -0.237 OA
ATOM     79  O   UNL A   1      32.574  34.887  29.897  1.00  0.00    -0.237 OA
ATOM     80  O   UNL A   1      34.029  35.912  28.194  1.00  0.00    -0.744 OA
ENDBRANCH  76  77
ENDBRANCH  44  69
BRANCH  56  81
ATOM     81  C   UNL A   1      39.899  33.739  37.236  1.00  0.00     0.058 A 
ATOM     82  C   UNL A   1      38.994  33.320  38.224  1.00  0.00     0.135 A 
ATOM     83  C   UNL A   1      40.486  35.006  37.378  1.00  0.00     0.135 A 
ATOM     84  F   UNL A   1      38.399  32.120  38.130  1.00  0.00    -0.206 F 
ATOM     85  C   UNL A   1      38.668  34.136  39.303  1.00  0.00     0.059 A 
ATOM     86  C   UNL A   1      40.192  35.829  38.461  1.00  0.00     0.059 A 
ATOM     87  F   UNL A   1      41.366  35.450  36.466  1.00  0.00    -0.206 F 
ATOM     88  C   UNL A   1      39.272  35.390  39.412  1.00  0.00     0.060 A 
BRANCH  88  89
ATOM     89  S   UNL A   1      38.867  36.428  40.833  1.00  0.00     0.124 S 
ATOM     90  O   UNL A   1      40.145  36.476  41.535  1.00  0.00    -0.237 OA
ATOM     91  O   UNL A   1      38.442  37.674  40.202  1.00  0.00    -0.237 OA
ATOM     92  O   UNL A   1      37.808  35.681  41.506  1.00  0.00    -0.744 OA
ENDBRANCH  88  89
ENDBRANCH  56  81
ENDBRANCH  30  31
ENDBRANCH  23  25
ENDBRANCH  22  23
ENDBRANCH   1  22
TORSDOF 16
ENDMDL
