MODEL 1
REMARK VINA RESULT:     -13.4      0.000      0.000
REMARK SMILES O=C(CSc1nnc2sc3ccccc3n12)N[C@H](Cc1c[nH]c2ccccc12)C(=O)OCCOC(=O)c1ccc(-c2c3nc(c(-c4c(F)cc(S(=O)(=O)[O-])cc4F)c4ccc([nH]4)c(-c4c(F)cc(S(=O)(=O)[O-])cc4F)c4nc(c(-c5c(F)cc(S(=O)(=O)[O-])cc5F)c5ccc2[nH]5)C=C4)C=C3)cc1
REMARK SMILES IDX 32 1 31 2 29 3 30 4 18 5 17 6 1 7 2 8 3 10 4 11 5 12 6 13
REMARK SMILES IDX 16 14 7 15 8 16 15 17 9 18 10 19 14 20 11 21 13 22 12 23
REMARK SMILES IDX 19 24 20 25 21 26 28 27 22 28 23 29 27 30 24 32 26 33 25 34
REMARK SMILES IDX 33 35 34 36 35 37 36 38 37 39 38 40 102 41 39 42 101 43
REMARK SMILES IDX 40 44 41 45 42 46 95 47 43 48 100 49 94 50 96 51 44 52 99 53
REMARK SMILES IDX 93 54 92 55 45 57 79 58 58 59 78 60 59 61 62 62 77 63 97 64
REMARK SMILES IDX 60 65 61 66 76 68 98 69 63 70 46 71 47 72 56 73 48 74 49 75
REMARK SMILES IDX 55 76 57 77 50 78 51 79 52 80 53 81 54 82 80 83 81 84 90 85
REMARK SMILES IDX 82 86 83 87 89 88 91 89 84 90 85 91 86 92 87 93 88 94 64 95
REMARK SMILES IDX 65 96 74 97 66 98 67 99 73 100 75 101 68 102 69 103 70 104
REMARK SMILES IDX 71 105 72 106
REMARK H PARENT 17 9 22 31 96 56 62 67
REMARK Flexibility Score: inf
ROOT
ATOM      1  C   UNL A   1      32.475  29.369  26.948  1.00  0.00     0.274 C 
ENDROOT
BRANCH   1   2
ATOM      2  O   UNL A   1      32.938  28.931  25.644  1.00  0.00    -0.461 OA
BRANCH   2   3
ATOM      3  C   UNL A   1      33.160  27.596  25.536  1.00  0.00     0.329 C 
ATOM      4  O   UNL A   1      34.209  27.063  25.897  1.00  0.00    -0.250 OA
BRANCH   3   5
ATOM      5  C   UNL A   1      31.977  26.751  25.008  1.00  0.00     0.196 C 
BRANCH   5   6
ATOM      6  N   UNL A   1      32.090  25.435  25.641  1.00  0.00    -0.342 N 
ATOM      7  O   UNL A   1      29.910  25.253  26.345  1.00  0.00    -0.274 OA
ATOM      8  C   UNL A   1      30.999  24.741  26.114  1.00  0.00     0.231 C 
ATOM      9  H   UNL A   1      32.983  25.029  25.731  1.00  0.00     0.164 HD
BRANCH   8  10
ATOM     10  C   UNL A   1      31.252  23.260  26.266  1.00  0.00     0.178 C 
BRANCH  10  11
ATOM     11  S   UNL A   1      32.949  22.920  25.734  1.00  0.00    -0.076 SA
BRANCH  11  12
ATOM     12  C   UNL A   1      32.907  21.239  25.435  1.00  0.00     0.197 A 
ATOM     13  N   UNL A   1      31.832  20.490  25.261  1.00  0.00    -0.122 NA
ATOM     14  N   UNL A   1      34.020  20.497  25.210  1.00  0.00    -0.260 N 
ATOM     15  N   UNL A   1      32.254  19.211  24.900  1.00  0.00    -0.118 NA
ATOM     16  C   UNL A   1      33.558  19.264  24.867  1.00  0.00     0.217 A 
ATOM     17  C   UNL A   1      35.403  20.652  25.229  1.00  0.00     0.068 A 
ATOM     18  S   UNL A   1      34.821  18.143  24.497  1.00  0.00    -0.094 S 
ATOM     19  C   UNL A   1      36.010  19.444  24.853  1.00  0.00     0.055 A 
ATOM     20  C   UNL A   1      36.138  21.779  25.563  1.00  0.00     0.028 A 
ATOM     21  C   UNL A   1      37.389  19.352  24.794  1.00  0.00     0.021 A 
ATOM     22  C   UNL A   1      37.528  21.679  25.512  1.00  0.00     0.002 A 
ATOM     23  C   UNL A   1      38.147  20.479  25.128  1.00  0.00     0.002 A 
ENDBRANCH  11  12
ENDBRANCH  10  11
ENDBRANCH   8  10
ENDBRANCH   5   6
BRANCH   5  24
ATOM     24  C   UNL A   1      31.702  26.700  23.503  1.00  0.00     0.074 C 
BRANCH  24  25
ATOM     25  C   UNL A   1      31.180  27.989  22.908  1.00  0.00    -0.020 A 
ATOM     26  C   UNL A   1      31.967  28.925  22.266  1.00  0.00     0.087 A 
ATOM     27  C   UNL A   1      29.824  28.478  22.834  1.00  0.00     0.003 A 
ATOM     28  N   UNL A   1      31.169  29.945  21.831  1.00  0.00    -0.361 N 
ATOM     29  C   UNL A   1      29.864  29.720  22.193  1.00  0.00     0.046 A 
ATOM     30  C   UNL A   1      28.563  28.010  23.272  1.00  0.00     0.010 A 
ATOM     31  H   UNL A   1      31.485  30.731  21.329  1.00  0.00     0.166 HD
ATOM     32  C   UNL A   1      28.731  30.521  21.999  1.00  0.00     0.026 A 
ATOM     33  C   UNL A   1      27.424  28.816  23.115  1.00  0.00     0.001 A 
ATOM     34  C   UNL A   1      27.510  30.056  22.492  1.00  0.00     0.002 A 
ENDBRANCH  24  25
ENDBRANCH   5  24
ENDBRANCH   3   5
ENDBRANCH   2   3
ENDBRANCH   1   2
BRANCH   1  35
ATOM     35  C   UNL A   1      32.931  30.804  27.234  1.00  0.00     0.275 C 
BRANCH  35  36
ATOM     36  O   UNL A   1      34.358  30.886  27.094  1.00  0.00    -0.458 OA
BRANCH  36  37
ATOM     37  C   UNL A   1      34.963  31.832  27.864  1.00  0.00     0.338 C 
ATOM     38  O   UNL A   1      34.506  32.888  28.212  1.00  0.00    -0.246 OA
BRANCH  37  39
ATOM     39  C   UNL A   1      36.114  31.138  28.496  1.00  0.00     0.060 A 
ATOM     40  C   UNL A   1      37.144  31.825  29.151  1.00  0.00     0.016 A 
ATOM     41  C   UNL A   1      36.270  29.802  28.149  1.00  0.00     0.016 A 
ATOM     42  C   UNL A   1      38.395  31.223  29.292  1.00  0.00     0.010 A 
ATOM     43  C   UNL A   1      37.522  29.222  28.278  1.00  0.00     0.010 A 
ATOM     44  C   UNL A   1      38.609  29.949  28.768  1.00  0.00    -0.014 A 
BRANCH  44  45
ATOM     45  C   UNL A   1      39.900  29.268  28.892  1.00  0.00     0.031 A 
ATOM     46  C   UNL A   1      40.273  28.983  30.293  1.00  0.00     0.074 A 
ATOM     47  C   UNL A   1      40.698  28.791  27.911  1.00  0.00     0.049 A 
ATOM     48  N   UNL A   1      41.149  29.632  30.983  1.00  0.00    -0.248 NA
ATOM     49  C   UNL A   1      39.520  27.981  31.054  1.00  0.00     0.031 C 
ATOM     50  C   UNL A   1      40.491  28.804  26.468  1.00  0.00     0.029 A 
ATOM     51  N   UNL A   1      41.894  28.130  28.032  1.00  0.00    -0.354 N 
ATOM     52  C   UNL A   1      41.203  28.992  32.209  1.00  0.00     0.074 A 
ATOM     53  C   UNL A   1      40.047  28.136  32.269  1.00  0.00     0.031 C 
ATOM     54  C   UNL A   1      41.422  28.023  25.869  1.00  0.00     0.029 A 
ATOM     55  C   UNL A   1      42.363  27.555  26.858  1.00  0.00     0.049 A 
ATOM     56  H   UNL A   1      42.383  28.068  28.885  1.00  0.00     0.167 HD
ATOM     57  C   UNL A   1      42.322  29.031  32.978  1.00  0.00     0.037 A 
ATOM     58  C   UNL A   1      43.501  26.848  26.634  1.00  0.00     0.037 A 
ATOM     59  C   UNL A   1      43.237  30.055  32.533  1.00  0.00     0.049 A 
ATOM     60  C   UNL A   1      44.465  27.277  27.664  1.00  0.00     0.074 A 
ATOM     61  C   UNL A   1      43.154  31.425  32.364  1.00  0.00     0.029 A 
ATOM     62  N   UNL A   1      44.341  29.665  31.815  1.00  0.00    -0.354 N 
ATOM     63  N   UNL A   1      45.005  28.461  27.692  1.00  0.00    -0.248 NA
ATOM     64  C   UNL A   1      44.506  26.535  28.910  1.00  0.00     0.031 C 
ATOM     65  C   UNL A   1      43.915  31.710  31.191  1.00  0.00     0.029 A 
ATOM     66  C   UNL A   1      44.459  30.509  30.736  1.00  0.00     0.049 A 
ATOM     67  H   UNL A   1      44.940  28.915  32.033  1.00  0.00     0.167 HD
ATOM     68  C   UNL A   1      45.026  28.797  29.034  1.00  0.00     0.074 A 
ATOM     69  C   UNL A   1      44.813  27.535  29.740  1.00  0.00     0.031 C 
ATOM     70  C   UNL A   1      44.941  30.099  29.435  1.00  0.00     0.037 A 
BRANCH  57  71
ATOM     71  C   UNL A   1      42.713  27.929  33.924  1.00  0.00     0.058 A 
ATOM     72  C   UNL A   1      42.673  28.162  35.311  1.00  0.00     0.135 A 
ATOM     73  C   UNL A   1      43.342  26.728  33.522  1.00  0.00     0.135 A 
ATOM     74  F   UNL A   1      42.127  29.286  35.799  1.00  0.00    -0.206 F 
ATOM     75  C   UNL A   1      43.249  27.284  36.228  1.00  0.00     0.059 A 
ATOM     76  C   UNL A   1      43.863  25.808  34.421  1.00  0.00     0.059 A 
ATOM     77  F   UNL A   1      43.572  26.437  32.235  1.00  0.00    -0.206 F 
ATOM     78  C   UNL A   1      43.847  26.113  35.771  1.00  0.00     0.060 A 
BRANCH  78  79
ATOM     79  S   UNL A   1      44.677  25.028  36.943  1.00  0.00     0.124 S 
ATOM     80  O   UNL A   1      44.140  25.510  38.211  1.00  0.00    -0.237 OA
ATOM     81  O   UNL A   1      44.219  23.711  36.512  1.00  0.00    -0.237 OA
ATOM     82  O   UNL A   1      46.092  25.302  36.710  1.00  0.00    -0.744 OA
ENDBRANCH  78  79
ENDBRANCH  57  71
BRANCH  58  83
ATOM     83  C   UNL A   1      43.693  25.608  25.831  1.00  0.00     0.058 A 
ATOM     84  C   UNL A   1      44.951  25.299  25.276  1.00  0.00     0.135 A 
ATOM     85  C   UNL A   1      42.760  24.553  25.870  1.00  0.00     0.135 A 
ATOM     86  F   UNL A   1      45.900  26.245  25.188  1.00  0.00    -0.206 F 
ATOM     87  C   UNL A   1      45.300  24.004  24.881  1.00  0.00     0.059 A 
ATOM     88  C   UNL A   1      43.082  23.253  25.474  1.00  0.00     0.059 A 
ATOM     89  F   UNL A   1      41.535  24.736  26.387  1.00  0.00    -0.206 F 
ATOM     90  C   UNL A   1      44.368  22.978  25.019  1.00  0.00     0.060 A 
BRANCH  90  91
ATOM     91  S   UNL A   1      44.891  21.268  24.734  1.00  0.00     0.124 S 
ATOM     92  O   UNL A   1      43.993  20.528  25.613  1.00  0.00    -0.237 OA
ATOM     93  O   UNL A   1      44.656  21.112  23.302  1.00  0.00    -0.237 OA
ATOM     94  O   UNL A   1      46.295  21.275  25.137  1.00  0.00    -0.744 OA
ENDBRANCH  90  91
ENDBRANCH  58  83
BRANCH  70  95
ATOM     95  C   UNL A   1      45.152  31.173  28.393  1.00  0.00     0.058 A 
ATOM     96  C   UNL A   1      44.170  31.628  27.492  1.00  0.00     0.135 A 
ATOM     97  C   UNL A   1      46.386  31.841  28.371  1.00  0.00     0.135 A 
ATOM     98  F   UNL A   1      42.931  31.116  27.507  1.00  0.00    -0.206 F 
ATOM     99  C   UNL A   1      44.421  32.657  26.581  1.00  0.00     0.059 A 
ATOM    100  C   UNL A   1      46.648  32.891  27.492  1.00  0.00     0.059 A 
ATOM    101  F   UNL A   1      47.352  31.496  29.238  1.00  0.00    -0.206 F 
ATOM    102  C   UNL A   1      45.667  33.282  26.585  1.00  0.00     0.060 A 
BRANCH 102 103
ATOM    103  S   UNL A   1      45.979  34.639  25.434  1.00  0.00     0.124 S 
ATOM    104  O   UNL A   1      45.129  34.285  24.302  1.00  0.00    -0.237 OA
ATOM    105  O   UNL A   1      45.560  35.809  26.200  1.00  0.00    -0.237 OA
ATOM    106  O   UNL A   1      47.416  34.552  25.184  1.00  0.00    -0.744 OA
ENDBRANCH 102 103
ENDBRANCH  70  95
ENDBRANCH  44  45
ENDBRANCH  37  39
ENDBRANCH  36  37
ENDBRANCH  35  36
ENDBRANCH   1  35
TORSDOF 20
ENDMDL
MODEL 2
REMARK VINA RESULT:     -13.0      2.933      9.982
REMARK SMILES O=C(CSc1nnc2sc3ccccc3n12)N[C@H](Cc1c[nH]c2ccccc12)C(=O)OCCOC(=O)c1ccc(-c2c3nc(c(-c4c(F)cc(S(=O)(=O)[O-])cc4F)c4ccc([nH]4)c(-c4c(F)cc(S(=O)(=O)[O-])cc4F)c4nc(c(-c5c(F)cc(S(=O)(=O)[O-])cc5F)c5ccc2[nH]5)C=C4)C=C3)cc1
REMARK SMILES IDX 32 1 31 2 29 3 30 4 18 5 17 6 1 7 2 8 3 10 4 11 5 12 6 13
REMARK SMILES IDX 16 14 7 15 8 16 15 17 9 18 10 19 14 20 11 21 13 22 12 23
REMARK SMILES IDX 19 24 20 25 21 26 28 27 22 28 23 29 27 30 24 32 26 33 25 34
REMARK SMILES IDX 33 35 34 36 35 37 36 38 37 39 38 40 102 41 39 42 101 43
REMARK SMILES IDX 40 44 41 45 42 46 95 47 43 48 100 49 94 50 96 51 44 52 99 53
REMARK SMILES IDX 93 54 92 55 45 57 79 58 58 59 78 60 59 61 62 62 77 63 97 64
REMARK SMILES IDX 60 65 61 66 76 68 98 69 63 70 46 71 47 72 56 73 48 74 49 75
REMARK SMILES IDX 55 76 57 77 50 78 51 79 52 80 53 81 54 82 80 83 81 84 90 85
REMARK SMILES IDX 82 86 83 87 89 88 91 89 84 90 85 91 86 92 87 93 88 94 64 95
REMARK SMILES IDX 65 96 74 97 66 98 67 99 73 100 75 101 68 102 69 103 70 104
REMARK SMILES IDX 71 105 72 106
REMARK H PARENT 17 9 22 31 96 56 62 67
REMARK Flexibility Score: inf
ROOT
ATOM      1  C   UNL A   1      36.991  21.366  24.502  1.00  0.00     0.274 C 
ENDROOT
BRANCH   1   2
ATOM      2  O   UNL A   1      35.845  21.518  25.380  1.00  0.00    -0.461 OA
BRANCH   2   3
ATOM      3  C   UNL A   1      35.002  22.529  25.047  1.00  0.00     0.329 C 
ATOM      4  O   UNL A   1      34.996  23.612  25.630  1.00  0.00    -0.250 OA
BRANCH   3   5
ATOM      5  C   UNL A   1      34.092  22.277  23.822  1.00  0.00     0.196 C 
BRANCH   5   6
ATOM      6  N   UNL A   1      33.932  23.569  23.150  1.00  0.00    -0.342 N 
ATOM      7  O   UNL A   1      33.025  22.778  21.193  1.00  0.00    -0.274 OA
ATOM      8  C   UNL A   1      33.264  23.707  21.955  1.00  0.00     0.231 C 
ATOM      9  H   UNL A   1      34.317  24.372  23.572  1.00  0.00     0.164 HD
BRANCH   8  10
ATOM     10  C   UNL A   1      32.794  25.118  21.692  1.00  0.00     0.178 C 
BRANCH  10  11
ATOM     11  S   UNL A   1      32.742  25.999  23.273  1.00  0.00    -0.076 SA
BRANCH  11  12
ATOM     12  C   UNL A   1      31.683  27.296  22.933  1.00  0.00     0.197 A 
ATOM     13  N   UNL A   1      30.811  27.369  21.943  1.00  0.00    -0.122 NA
ATOM     14  N   UNL A   1      31.533  28.367  23.752  1.00  0.00    -0.260 N 
ATOM     15  N   UNL A   1      30.055  28.527  22.123  1.00  0.00    -0.118 NA
ATOM     16  C   UNL A   1      30.506  29.080  23.216  1.00  0.00     0.217 A 
ATOM     17  C   UNL A   1      32.104  28.886  24.911  1.00  0.00     0.068 A 
ATOM     18  S   UNL A   1      30.111  30.495  24.127  1.00  0.00    -0.094 S 
ATOM     19  C   UNL A   1      31.434  30.065  25.268  1.00  0.00     0.055 A 
ATOM     20  C   UNL A   1      33.167  28.385  25.645  1.00  0.00     0.028 A 
ATOM     21  C   UNL A   1      31.822  30.767  26.396  1.00  0.00     0.021 A 
ATOM     22  C   UNL A   1      33.562  29.100  26.775  1.00  0.00     0.002 A 
ATOM     23  C   UNL A   1      32.894  30.277  27.149  1.00  0.00     0.002 A 
ENDBRANCH  11  12
ENDBRANCH  10  11
ENDBRANCH   8  10
ENDBRANCH   5   6
BRANCH   5  24
ATOM     24  C   UNL A   1      32.786  21.500  24.003  1.00  0.00     0.074 C 
BRANCH  24  25
ATOM     25  C   UNL A   1      32.905  20.241  24.831  1.00  0.00    -0.020 A 
ATOM     26  C   UNL A   1      32.790  20.200  26.208  1.00  0.00     0.087 A 
ATOM     27  C   UNL A   1      33.100  18.877  24.400  1.00  0.00     0.003 A 
ATOM     28  N   UNL A   1      32.921  18.905  26.621  1.00  0.00    -0.361 N 
ATOM     29  C   UNL A   1      33.148  18.080  25.547  1.00  0.00     0.046 A 
ATOM     30  C   UNL A   1      33.273  18.235  23.151  1.00  0.00     0.010 A 
ATOM     31  H   UNL A   1      32.863  18.605  27.557  1.00  0.00     0.166 HD
ATOM     32  C   UNL A   1      33.388  16.699  25.514  1.00  0.00     0.026 A 
ATOM     33  C   UNL A   1      33.548  16.859  23.104  1.00  0.00     0.001 A 
ATOM     34  C   UNL A   1      33.609  16.105  24.270  1.00  0.00     0.002 A 
ENDBRANCH  24  25
ENDBRANCH   5  24
ENDBRANCH   3   5
ENDBRANCH   2   3
ENDBRANCH   1   2
BRANCH   1  35
ATOM     35  C   UNL A   1      38.278  21.175  25.314  1.00  0.00     0.275 C 
BRANCH  35  36
ATOM     36  O   UNL A   1      38.712  22.446  25.822  1.00  0.00    -0.458 OA
BRANCH  36  37
ATOM     37  C   UNL A   1      39.964  22.461  26.356  1.00  0.00     0.338 C 
ATOM     38  O   UNL A   1      40.938  21.891  25.941  1.00  0.00    -0.246 OA
BRANCH  37  39
ATOM     39  C   UNL A   1      39.970  23.611  27.296  1.00  0.00     0.060 A 
ATOM     40  C   UNL A   1      38.988  24.609  27.274  1.00  0.00     0.016 A 
ATOM     41  C   UNL A   1      41.152  23.802  27.997  1.00  0.00     0.016 A 
ATOM     42  C   UNL A   1      39.273  25.869  27.803  1.00  0.00     0.010 A 
ATOM     43  C   UNL A   1      41.431  25.063  28.502  1.00  0.00     0.010 A 
ATOM     44  C   UNL A   1      40.536  26.123  28.335  1.00  0.00    -0.014 A 
BRANCH  44  45
ATOM     45  C   UNL A   1      40.888  27.424  28.908  1.00  0.00     0.031 A 
ATOM     46  C   UNL A   1      42.069  28.039  28.267  1.00  0.00     0.074 A 
ATOM     47  C   UNL A   1      40.219  28.144  29.835  1.00  0.00     0.049 A 
ATOM     48  N   UNL A   1      43.255  28.091  28.773  1.00  0.00    -0.248 NA
ATOM     49  C   UNL A   1      41.975  28.522  26.886  1.00  0.00     0.031 C 
ATOM     50  C   UNL A   1      38.962  27.840  30.506  1.00  0.00     0.029 A 
ATOM     51  N   UNL A   1      40.539  29.375  30.350  1.00  0.00    -0.354 N 
ATOM     52  C   UNL A   1      44.017  28.794  27.856  1.00  0.00     0.074 A 
ATOM     53  C   UNL A   1      43.246  28.843  26.642  1.00  0.00     0.031 C 
ATOM     54  C   UNL A   1      38.535  28.930  31.188  1.00  0.00     0.029 A 
ATOM     55  C   UNL A   1      39.537  29.965  31.110  1.00  0.00     0.049 A 
ATOM     56  H   UNL A   1      41.410  29.807  30.193  1.00  0.00     0.167 HD
ATOM     57  C   UNL A   1      45.119  29.489  28.239  1.00  0.00     0.037 A 
ATOM     58  C   UNL A   1      39.531  31.159  31.759  1.00  0.00     0.037 A 
ATOM     59  C   UNL A   1      45.547  29.119  29.566  1.00  0.00     0.049 A 
ATOM     60  C   UNL A   1      40.941  31.482  32.045  1.00  0.00     0.074 A 
ATOM     61  C   UNL A   1      45.933  27.935  30.168  1.00  0.00     0.029 A 
ATOM     62  N   UNL A   1      45.253  29.975  30.601  1.00  0.00    -0.354 N 
ATOM     63  N   UNL A   1      41.667  30.826  32.904  1.00  0.00    -0.248 NA
ATOM     64  C   UNL A   1      41.674  32.262  31.065  1.00  0.00     0.031 C 
ATOM     65  C   UNL A   1      45.402  27.990  31.491  1.00  0.00     0.029 A 
ATOM     66  C   UNL A   1      44.764  29.221  31.642  1.00  0.00     0.049 A 
ATOM     67  H   UNL A   1      45.371  30.952  30.597  1.00  0.00     0.167 HD
ATOM     68  C   UNL A   1      42.909  30.729  32.301  1.00  0.00     0.074 A 
ATOM     69  C   UNL A   1      42.885  31.723  31.229  1.00  0.00     0.031 C 
ATOM     70  C   UNL A   1      43.732  29.669  32.551  1.00  0.00     0.037 A 
BRANCH  57  71
ATOM     71  C   UNL A   1      45.603  30.726  27.531  1.00  0.00     0.058 A 
ATOM     72  C   UNL A   1      46.929  30.780  27.064  1.00  0.00     0.135 A 
ATOM     73  C   UNL A   1      44.888  31.945  27.490  1.00  0.00     0.135 A 
ATOM     74  F   UNL A   1      47.707  29.687  27.088  1.00  0.00    -0.206 F 
ATOM     75  C   UNL A   1      47.514  31.968  26.627  1.00  0.00     0.059 A 
ATOM     76  C   UNL A   1      45.429  33.124  26.996  1.00  0.00     0.059 A 
ATOM     77  F   UNL A   1      43.665  32.075  28.022  1.00  0.00    -0.206 F 
ATOM     78  C   UNL A   1      46.755  33.135  26.603  1.00  0.00     0.060 A 
BRANCH  78  79
ATOM     79  S   UNL A   1      47.536  34.687  26.131  1.00  0.00     0.124 S 
ATOM     80  O   UNL A   1      48.588  34.220  25.236  1.00  0.00    -0.237 OA
ATOM     81  O   UNL A   1      46.430  35.402  25.502  1.00  0.00    -0.237 OA
ATOM     82  O   UNL A   1      47.987  35.237  27.406  1.00  0.00    -0.744 OA
ENDBRANCH  78  79
ENDBRANCH  57  71
BRANCH  58  83
ATOM     83  C   UNL A   1      38.450  32.180  31.838  1.00  0.00     0.058 A 
ATOM     84  C   UNL A   1      37.799  32.629  30.671  1.00  0.00     0.135 A 
ATOM     85  C   UNL A   1      37.813  32.487  33.057  1.00  0.00     0.135 A 
ATOM     86  F   UNL A   1      38.338  32.393  29.464  1.00  0.00    -0.206 F 
ATOM     87  C   UNL A   1      36.547  33.249  30.702  1.00  0.00     0.059 A 
ATOM     88  C   UNL A   1      36.565  33.112  33.114  1.00  0.00     0.059 A 
ATOM     89  F   UNL A   1      38.343  32.098  34.227  1.00  0.00    -0.206 F 
ATOM     90  C   UNL A   1      35.920  33.453  31.929  1.00  0.00     0.060 A 
BRANCH  90  91
ATOM     91  S   UNL A   1      34.205  34.034  31.958  1.00  0.00     0.124 S 
ATOM     92  O   UNL A   1      33.802  33.851  30.569  1.00  0.00    -0.237 OA
ATOM     93  O   UNL A   1      33.593  33.131  32.926  1.00  0.00    -0.237 OA
ATOM     94  O   UNL A   1      34.330  35.422  32.395  1.00  0.00    -0.744 OA
ENDBRANCH  90  91
ENDBRANCH  58  83
BRANCH  70  95
ATOM     95  C   UNL A   1      43.404  28.786  33.733  1.00  0.00     0.058 A 
ATOM     96  C   UNL A   1      43.899  28.968  35.038  1.00  0.00     0.135 A 
ATOM     97  C   UNL A   1      42.464  27.759  33.552  1.00  0.00     0.135 A 
ATOM     98  F   UNL A   1      44.726  29.983  35.327  1.00  0.00    -0.206 F 
ATOM     99  C   UNL A   1      43.520  28.138  36.097  1.00  0.00     0.059 A 
ATOM    100  C   UNL A   1      42.047  26.939  34.599  1.00  0.00     0.059 A 
ATOM    101  F   UNL A   1      41.909  27.562  32.345  1.00  0.00    -0.206 F 
ATOM    102  C   UNL A   1      42.594  27.122  35.867  1.00  0.00     0.060 A 
BRANCH 102 103
ATOM    103  S   UNL A   1      42.073  26.072  37.243  1.00  0.00     0.124 S 
ATOM    104  O   UNL A   1      43.006  26.460  38.296  1.00  0.00    -0.237 OA
ATOM    105  O   UNL A   1      40.685  26.478  37.444  1.00  0.00    -0.237 OA
ATOM    106  O   UNL A   1      42.247  24.717  36.725  1.00  0.00    -0.744 OA
ENDBRANCH 102 103
ENDBRANCH  70  95
ENDBRANCH  44  45
ENDBRANCH  37  39
ENDBRANCH  36  37
ENDBRANCH  35  36
ENDBRANCH   1  35
TORSDOF 20
ENDMDL
MODEL 3
REMARK VINA RESULT:     -12.8      1.576      2.340
REMARK SMILES O=C(CSc1nnc2sc3ccccc3n12)N[C@H](Cc1c[nH]c2ccccc12)C(=O)OCCOC(=O)c1ccc(-c2c3nc(c(-c4c(F)cc(S(=O)(=O)[O-])cc4F)c4ccc([nH]4)c(-c4c(F)cc(S(=O)(=O)[O-])cc4F)c4nc(c(-c5c(F)cc(S(=O)(=O)[O-])cc5F)c5ccc2[nH]5)C=C4)C=C3)cc1
REMARK SMILES IDX 32 1 31 2 29 3 30 4 18 5 17 6 1 7 2 8 3 10 4 11 5 12 6 13
REMARK SMILES IDX 16 14 7 15 8 16 15 17 9 18 10 19 14 20 11 21 13 22 12 23
REMARK SMILES IDX 19 24 20 25 21 26 28 27 22 28 23 29 27 30 24 32 26 33 25 34
REMARK SMILES IDX 33 35 34 36 35 37 36 38 37 39 38 40 102 41 39 42 101 43
REMARK SMILES IDX 40 44 41 45 42 46 95 47 43 48 100 49 94 50 96 51 44 52 99 53
REMARK SMILES IDX 93 54 92 55 45 57 79 58 58 59 78 60 59 61 62 62 77 63 97 64
REMARK SMILES IDX 60 65 61 66 76 68 98 69 63 70 46 71 47 72 56 73 48 74 49 75
REMARK SMILES IDX 55 76 57 77 50 78 51 79 52 80 53 81 54 82 80 83 81 84 90 85
REMARK SMILES IDX 82 86 83 87 89 88 91 89 84 90 85 91 86 92 87 93 88 94 64 95
REMARK SMILES IDX 65 96 74 97 66 98 67 99 73 100 75 101 68 102 69 103 70 104
REMARK SMILES IDX 71 105 72 106
REMARK H PARENT 17 9 22 31 96 56 62 67
REMARK Flexibility Score: inf
ROOT
ATOM      1  C   UNL A   1      32.883  29.096  25.631  1.00  0.00     0.274 C 
ENDROOT
BRANCH   1   2
ATOM      2  O   UNL A   1      33.587  29.198  24.366  1.00  0.00    -0.461 OA
BRANCH   2   3
ATOM      3  C   UNL A   1      33.544  28.080  23.598  1.00  0.00     0.329 C 
ATOM      4  O   UNL A   1      34.238  27.934  22.593  1.00  0.00    -0.250 OA
BRANCH   3   5
ATOM      5  C   UNL A   1      32.626  26.943  24.105  1.00  0.00     0.196 C 
BRANCH   5   6
ATOM      6  N   UNL A   1      33.495  25.976  24.779  1.00  0.00    -0.342 N 
ATOM      7  O   UNL A   1      31.861  24.895  25.983  1.00  0.00    -0.274 OA
ATOM      8  C   UNL A   1      33.003  24.938  25.538  1.00  0.00     0.231 C 
ATOM      9  H   UNL A   1      34.470  26.071  24.685  1.00  0.00     0.164 HD
BRANCH   8  10
ATOM     10  C   UNL A   1      33.992  23.812  25.724  1.00  0.00     0.178 C 
BRANCH  10  11
ATOM     11  S   UNL A   1      35.658  24.480  25.486  1.00  0.00    -0.076 SA
BRANCH  11  12
ATOM     12  C   UNL A   1      36.609  23.064  25.401  1.00  0.00     0.197 A 
ATOM     13  N   UNL A   1      36.331  21.960  24.731  1.00  0.00    -0.122 NA
ATOM     14  N   UNL A   1      37.856  22.974  25.930  1.00  0.00    -0.260 N 
ATOM     15  N   UNL A   1      37.439  21.116  24.815  1.00  0.00    -0.118 NA
ATOM     16  C   UNL A   1      38.325  21.764  25.521  1.00  0.00     0.217 A 
ATOM     17  C   UNL A   1      38.718  23.736  26.713  1.00  0.00     0.068 A 
ATOM     18  S   UNL A   1      39.936  21.442  26.058  1.00  0.00    -0.094 S 
ATOM     19  C   UNL A   1      39.925  23.042  26.881  1.00  0.00     0.055 A 
ATOM     20  C   UNL A   1      38.492  24.981  27.279  1.00  0.00     0.028 A 
ATOM     21  C   UNL A   1      40.948  23.603  27.626  1.00  0.00     0.021 A 
ATOM     22  C   UNL A   1      39.521  25.538  28.037  1.00  0.00     0.002 A 
ATOM     23  C   UNL A   1      40.738  24.859  28.206  1.00  0.00     0.002 A 
ENDBRANCH  11  12
ENDBRANCH  10  11
ENDBRANCH   8  10
ENDBRANCH   5   6
BRANCH   5  24
ATOM     24  C   UNL A   1      31.612  26.312  23.147  1.00  0.00     0.074 C 
BRANCH  24  25
ATOM     25  C   UNL A   1      30.203  26.850  23.267  1.00  0.00    -0.020 A 
ATOM     26  C   UNL A   1      29.160  26.174  23.870  1.00  0.00     0.087 A 
ATOM     27  C   UNL A   1      29.675  28.128  22.854  1.00  0.00     0.003 A 
ATOM     28  N   UNL A   1      28.044  26.960  23.826  1.00  0.00    -0.361 N 
ATOM     29  C   UNL A   1      28.316  28.142  23.182  1.00  0.00     0.046 A 
ATOM     30  C   UNL A   1      30.202  29.271  22.207  1.00  0.00     0.010 A 
ATOM     31  H   UNL A   1      27.168  26.714  24.202  1.00  0.00     0.166 HD
ATOM     32  C   UNL A   1      27.461  29.208  22.870  1.00  0.00     0.026 A 
ATOM     33  C   UNL A   1      29.352  30.332  21.858  1.00  0.00     0.001 A 
ATOM     34  C   UNL A   1      28.000  30.297  22.182  1.00  0.00     0.002 A 
ENDBRANCH  24  25
ENDBRANCH   5  24
ENDBRANCH   3   5
ENDBRANCH   2   3
ENDBRANCH   1   2
BRANCH   1  35
ATOM     35  C   UNL A   1      33.134  30.336  26.497  1.00  0.00     0.275 C 
BRANCH  35  36
ATOM     36  O   UNL A   1      34.521  30.384  26.866  1.00  0.00    -0.458 OA
BRANCH  36  37
ATOM     37  C   UNL A   1      34.841  31.325  27.797  1.00  0.00     0.338 C 
ATOM     38  O   UNL A   1      34.134  32.200  28.220  1.00  0.00    -0.246 OA
BRANCH  37  39
ATOM     39  C   UNL A   1      36.072  30.815  28.453  1.00  0.00     0.060 A 
ATOM     40  C   UNL A   1      37.104  31.659  28.881  1.00  0.00     0.016 A 
ATOM     41  C   UNL A   1      36.278  29.446  28.355  1.00  0.00     0.016 A 
ATOM     42  C   UNL A   1      38.395  31.149  29.032  1.00  0.00     0.010 A 
ATOM     43  C   UNL A   1      37.568  28.955  28.489  1.00  0.00     0.010 A 
ATOM     44  C   UNL A   1      38.644  29.808  28.743  1.00  0.00    -0.014 A 
BRANCH  44  45
ATOM     45  C   UNL A   1      39.977  29.219  28.889  1.00  0.00     0.031 A 
ATOM     46  C   UNL A   1      40.293  28.837  30.280  1.00  0.00     0.074 A 
ATOM     47  C   UNL A   1      40.864  28.896  27.923  1.00  0.00     0.049 A 
ATOM     48  N   UNL A   1      41.073  29.486  31.078  1.00  0.00    -0.248 NA
ATOM     49  C   UNL A   1      39.583  27.716  30.903  1.00  0.00     0.031 C 
ATOM     50  C   UNL A   1      40.739  29.025  26.476  1.00  0.00     0.029 A 
ATOM     51  N   UNL A   1      42.102  28.320  28.061  1.00  0.00    -0.354 N 
ATOM     52  C   UNL A   1      41.110  28.742  32.245  1.00  0.00     0.074 A 
ATOM     53  C   UNL A   1      40.026  27.798  32.158  1.00  0.00     0.031 C 
ATOM     54  C   UNL A   1      41.762  28.375  25.872  1.00  0.00     0.029 A 
ATOM     55  C   UNL A   1      42.681  27.892  26.873  1.00  0.00     0.049 A 
ATOM     56  H   UNL A   1      42.546  28.218  28.935  1.00  0.00     0.167 HD
ATOM     57  C   UNL A   1      42.177  28.797  33.084  1.00  0.00     0.037 A 
ATOM     58  C   UNL A   1      43.884  27.297  26.661  1.00  0.00     0.037 A 
ATOM     59  C   UNL A   1      43.029  29.923  32.787  1.00  0.00     0.049 A 
ATOM     60  C   UNL A   1      44.750  27.703  27.783  1.00  0.00     0.074 A 
ATOM     61  C   UNL A   1      42.844  31.293  32.732  1.00  0.00     0.029 A 
ATOM     62  N   UNL A   1      44.200  29.686  32.109  1.00  0.00    -0.354 N 
ATOM     63  N   UNL A   1      45.190  28.918  27.947  1.00  0.00    -0.248 NA
ATOM     64  C   UNL A   1      44.782  26.856  28.961  1.00  0.00     0.031 C 
ATOM     65  C   UNL A   1      43.644  31.740  31.639  1.00  0.00     0.029 A 
ATOM     66  C   UNL A   1      44.309  30.632  31.117  1.00  0.00     0.049 A 
ATOM     67  H   UNL A   1      44.845  28.967  32.299  1.00  0.00     0.167 HD
ATOM     68  C   UNL A   1      45.108  29.130  29.312  1.00  0.00     0.074 A 
ATOM     69  C   UNL A   1      44.959  27.796  29.892  1.00  0.00     0.031 C 
ATOM     70  C   UNL A   1      44.895  30.379  29.819  1.00  0.00     0.037 A 
BRANCH  57  71
ATOM     71  C   UNL A   1      42.604  27.646  33.954  1.00  0.00     0.058 A 
ATOM     72  C   UNL A   1      42.543  27.777  35.353  1.00  0.00     0.135 A 
ATOM     73  C   UNL A   1      43.282  26.501  33.474  1.00  0.00     0.135 A 
ATOM     74  F   UNL A   1      41.949  28.842  35.913  1.00  0.00    -0.206 F 
ATOM     75  C   UNL A   1      43.146  26.860  36.212  1.00  0.00     0.059 A 
ATOM     76  C   UNL A   1      43.832  25.541  34.312  1.00  0.00     0.059 A 
ATOM     77  F   UNL A   1      43.534  26.311  32.172  1.00  0.00    -0.206 F 
ATOM     78  C   UNL A   1      43.793  25.748  35.679  1.00  0.00     0.060 A 
BRANCH  78  79
ATOM     79  S   UNL A   1      44.655  24.615  36.781  1.00  0.00     0.124 S 
ATOM     80  O   UNL A   1      44.019  24.916  38.059  1.00  0.00    -0.237 OA
ATOM     81  O   UNL A   1      44.332  23.319  36.194  1.00  0.00    -0.237 OA
ATOM     82  O   UNL A   1      46.051  25.023  36.657  1.00  0.00    -0.744 OA
ENDBRANCH  78  79
ENDBRANCH  57  71
BRANCH  58  83
ATOM     83  C   UNL A   1      44.222  26.154  25.768  1.00  0.00     0.058 A 
ATOM     84  C   UNL A   1      45.552  25.704  25.650  1.00  0.00     0.135 A 
ATOM     85  C   UNL A   1      43.228  25.282  25.280  1.00  0.00     0.135 A 
ATOM     86  F   UNL A   1      46.566  26.472  26.078  1.00  0.00    -0.206 F 
ATOM     87  C   UNL A   1      45.872  24.428  25.176  1.00  0.00     0.059 A 
ATOM     88  C   UNL A   1      43.525  24.006  24.795  1.00  0.00     0.059 A 
ATOM     89  F   UNL A   1      41.929  25.609  25.352  1.00  0.00    -0.206 F 
ATOM     90  C   UNL A   1      44.847  23.571  24.785  1.00  0.00     0.060 A 
BRANCH  90  91
ATOM     91  S   UNL A   1      45.238  21.846  24.398  1.00  0.00     0.124 S 
ATOM     92  O   UNL A   1      44.387  21.597  23.240  1.00  0.00    -0.237 OA
ATOM     93  O   UNL A   1      46.672  21.910  24.136  1.00  0.00    -0.237 OA
ATOM     94  O   UNL A   1      44.859  21.135  25.616  1.00  0.00    -0.744 OA
ENDBRANCH  90  91
ENDBRANCH  58  83
BRANCH  70  95
ATOM     95  C   UNL A   1      45.076  31.557  28.888  1.00  0.00     0.058 A 
ATOM     96  C   UNL A   1      46.303  32.191  28.618  1.00  0.00     0.135 A 
ATOM     97  C   UNL A   1      43.962  32.003  28.160  1.00  0.00     0.135 A 
ATOM     98  F   UNL A   1      47.439  31.768  29.193  1.00  0.00    -0.206 F 
ATOM     99  C   UNL A   1      46.407  33.250  27.711  1.00  0.00     0.059 A 
ATOM    100  C   UNL A   1      44.047  33.036  27.228  1.00  0.00     0.059 A 
ATOM    101  F   UNL A   1      42.769  31.409  28.327  1.00  0.00    -0.206 F 
ATOM    102  C   UNL A   1      45.270  33.669  27.022  1.00  0.00     0.060 A 
BRANCH 102 103
ATOM    103  S   UNL A   1      45.410  35.012  25.821  1.00  0.00     0.124 S 
ATOM    104  O   UNL A   1      44.056  35.086  25.283  1.00  0.00    -0.237 OA
ATOM    105  O   UNL A   1      45.825  36.139  26.652  1.00  0.00    -0.237 OA
ATOM    106  O   UNL A   1      46.426  34.531  24.887  1.00  0.00    -0.744 OA
ENDBRANCH 102 103
ENDBRANCH  70  95
ENDBRANCH  44  45
ENDBRANCH  37  39
ENDBRANCH  36  37
ENDBRANCH  35  36
ENDBRANCH   1  35
TORSDOF 20
ENDMDL
