MODEL 1
REMARK VINA RESULT:     -12.1      0.000      0.000
REMARK SMILES O=C(C[C@H]1S/C(=[NH+]\N=C\c2cc(Br)ccc2OCc2ccccc2)NC1=O)OCCOC(=O)c1ccc(-c2c3nc(c(-c4c(F)cc(S(=O)(=O)[O-])cc4F)c4ccc([nH]4)c(-c4c(F)cc(S(=O)(=O)[O-])cc4F)c4nc(c(-c5c(F)cc(S(=O)(=O)[O-])cc5F)c5ccc2[nH]5)C=C4)C=C3)cc1
REMARK SMILES IDX 28 1 2 2 1 3 3 4 4 5 5 6 26 7 6 8 25 9 27 10 7 11 8 14 9 15
REMARK SMILES IDX 10 16 11 17 16 18 12 19 15 20 13 21 14 22 17 23 18 24 19 25
REMARK SMILES IDX 20 26 24 27 21 28 23 29 22 30 29 31 30 32 31 33 32 34 33 35
REMARK SMILES IDX 34 36 35 37 99 38 36 39 98 40 37 41 38 42 39 43 92 44 40 45
REMARK SMILES IDX 97 46 91 47 93 48 41 49 96 50 90 51 89 52 42 54 76 55 55 56
REMARK SMILES IDX 75 57 56 58 59 59 74 60 94 61 57 62 58 63 73 65 95 66 60 67
REMARK SMILES IDX 43 68 44 69 53 70 45 71 46 72 52 73 54 74 47 75 48 76 49 77
REMARK SMILES IDX 50 78 51 79 77 80 78 81 87 82 79 83 80 84 86 85 88 86 81 87
REMARK SMILES IDX 82 88 83 89 84 90 85 91 61 92 62 93 71 94 63 95 64 96 70 97
REMARK SMILES IDX 72 98 65 99 66 100 67 101 68 102 69 103
REMARK H PARENT 25 12 7 13 93 53 59 64
REMARK Flexibility Score: inf
ROOT
ATOM      1  O   UNL A   1      37.844  22.417  25.542  1.00  0.00    -0.462 OA
ENDROOT
BRANCH   1   2
ATOM      2  C   UNL A   1      36.928  22.184  24.571  1.00  0.00     0.307 C 
ATOM      3  O   UNL A   1      36.870  22.902  23.578  1.00  0.00    -0.252 OA
BRANCH   2   4
ATOM      4  C   UNL A   1      35.905  21.109  24.815  1.00  0.00     0.150 C 
BRANCH   4   5
ATOM      5  C   UNL A   1      34.928  21.471  25.926  1.00  0.00     0.184 C 
ATOM      6  S   UNL A   1      34.563  23.270  25.899  1.00  0.00    -0.020 SA
ATOM      7  C   UNL A   1      33.592  20.834  25.597  1.00  0.00     0.322 C 
ATOM      8  C   UNL A   1      33.136  23.023  24.936  1.00  0.00     0.337 C 
ATOM      9  N   UNL A   1      32.757  21.724  24.987  1.00  0.00    -0.202 N 
ATOM     10  O   UNL A   1      33.332  19.649  25.747  1.00  0.00    -0.246 OA
ATOM     11  N   UNL A   1      32.468  23.865  24.229  1.00  0.00    -0.142 N 
ATOM     12  H   UNL A   1      31.903  21.430  24.594  1.00  0.00     0.316 HD
ATOM     13  H   UNL A   1      31.669  23.597  23.720  1.00  0.00     0.343 HD
BRANCH  11  14
ATOM     14  N   UNL A   1      32.937  25.181  24.222  1.00  0.00    -0.093 NA
ATOM     15  C   UNL A   1      32.106  25.919  24.889  1.00  0.00     0.170 C 
BRANCH  15  16
ATOM     16  C   UNL A   1      32.327  27.346  25.135  1.00  0.00     0.040 A 
ATOM     17  C   UNL A   1      33.293  27.631  26.114  1.00  0.00     0.029 A 
ATOM     18  C   UNL A   1      31.730  28.379  24.399  1.00  0.00     0.128 A 
ATOM     19  C   UNL A   1      33.660  28.950  26.366  1.00  0.00     0.018 A 
ATOM     20  C   UNL A   1      32.088  29.703  24.710  1.00  0.00     0.048 A 
ATOM     21  Br  UNL A   1      35.017  29.328  27.626  1.00  0.00    -0.051 Br
ATOM     22  C   UNL A   1      33.052  29.992  25.675  1.00  0.00     0.019 A 
BRANCH  18  23
ATOM     23  O   UNL A   1      30.844  28.345  23.360  1.00  0.00    -0.488 OA
BRANCH  23  24
ATOM     24  C   UNL A   1      29.466  28.692  23.502  1.00  0.00     0.265 C 
BRANCH  24  25
ATOM     25  C   UNL A   1      29.054  29.997  22.851  1.00  0.00    -0.011 A 
ATOM     26  C   UNL A   1      29.050  31.165  23.634  1.00  0.00     0.007 A 
ATOM     27  C   UNL A   1      28.608  30.077  21.523  1.00  0.00     0.007 A 
ATOM     28  C   UNL A   1      28.534  32.358  23.126  1.00  0.00     0.000 A 
ATOM     29  C   UNL A   1      28.076  31.268  21.024  1.00  0.00     0.000 A 
ATOM     30  C   UNL A   1      28.028  32.402  21.830  1.00  0.00     0.000 A 
ENDBRANCH  24  25
ENDBRANCH  23  24
ENDBRANCH  18  23
ENDBRANCH  15  16
ENDBRANCH  11  14
ENDBRANCH   4   5
ENDBRANCH   2   4
ENDBRANCH   1   2
BRANCH   1  31
ATOM     31  C   UNL A   1      38.926  21.504  25.818  1.00  0.00     0.274 C 
BRANCH  31  32
ATOM     32  C   UNL A   1      40.100  22.189  26.516  1.00  0.00     0.275 C 
BRANCH  32  33
ATOM     33  O   UNL A   1      39.912  23.614  26.560  1.00  0.00    -0.458 OA
BRANCH  33  34
ATOM     34  C   UNL A   1      41.047  24.355  26.612  1.00  0.00     0.338 C 
ATOM     35  O   UNL A   1      41.991  24.293  25.842  1.00  0.00    -0.246 OA
BRANCH  34  36
ATOM     36  C   UNL A   1      40.903  25.401  27.651  1.00  0.00     0.060 A 
ATOM     37  C   UNL A   1      41.984  26.268  27.862  1.00  0.00     0.016 A 
ATOM     38  C   UNL A   1      39.722  25.565  28.383  1.00  0.00     0.016 A 
ATOM     39  C   UNL A   1      41.885  27.301  28.798  1.00  0.00     0.010 A 
ATOM     40  C   UNL A   1      39.630  26.593  29.328  1.00  0.00     0.010 A 
ATOM     41  C   UNL A   1      40.712  27.462  29.546  1.00  0.00    -0.014 A 
BRANCH  41  42
ATOM     42  C   UNL A   1      40.619  28.511  30.591  1.00  0.00     0.031 A 
ATOM     43  C   UNL A   1      41.462  28.404  31.829  1.00  0.00     0.074 A 
ATOM     44  C   UNL A   1      39.752  29.532  30.449  1.00  0.00     0.049 A 
ATOM     45  N   UNL A   1      41.471  29.172  32.888  1.00  0.00    -0.248 NA
ATOM     46  C   UNL A   1      42.421  27.289  31.883  1.00  0.00     0.031 C 
ATOM     47  C   UNL A   1      38.900  29.763  29.284  1.00  0.00     0.029 A 
ATOM     48  N   UNL A   1      39.429  30.553  31.309  1.00  0.00    -0.354 N 
ATOM     49  C   UNL A   1      42.433  28.637  33.734  1.00  0.00     0.074 A 
ATOM     50  C   UNL A   1      42.975  27.467  33.076  1.00  0.00     0.031 C 
ATOM     51  C   UNL A   1      38.118  30.833  29.519  1.00  0.00     0.029 A 
ATOM     52  C   UNL A   1      38.402  31.348  30.857  1.00  0.00     0.049 A 
ATOM     53  H   UNL A   1      39.888  30.701  32.166  1.00  0.00     0.167 HD
ATOM     54  C   UNL A   1      42.833  29.087  34.947  1.00  0.00     0.037 A 
ATOM     55  C   UNL A   1      37.748  32.357  31.466  1.00  0.00     0.037 A 
ATOM     56  C   UNL A   1      42.302  30.255  35.599  1.00  0.00     0.049 A 
ATOM     57  C   UNL A   1      38.160  32.787  32.851  1.00  0.00     0.074 A 
ATOM     58  C   UNL A   1      42.703  30.826  36.795  1.00  0.00     0.029 A 
ATOM     59  N   UNL A   1      41.248  31.018  35.125  1.00  0.00    -0.354 N 
ATOM     60  N   UNL A   1      39.126  32.320  33.605  1.00  0.00    -0.248 NA
ATOM     61  C   UNL A   1      37.393  33.881  33.469  1.00  0.00     0.031 C 
ATOM     62  C   UNL A   1      41.855  31.903  37.071  1.00  0.00     0.029 A 
ATOM     63  C   UNL A   1      40.953  32.026  36.028  1.00  0.00     0.049 A 
ATOM     64  H   UNL A   1      40.778  30.866  34.274  1.00  0.00     0.167 HD
ATOM     65  C   UNL A   1      39.095  33.074  34.775  1.00  0.00     0.074 A 
ATOM     66  C   UNL A   1      38.023  34.036  34.626  1.00  0.00     0.031 C 
ATOM     67  C   UNL A   1      39.884  32.979  35.872  1.00  0.00     0.037 A 
BRANCH  54  68
ATOM     68  C   UNL A   1      43.893  28.310  35.671  1.00  0.00     0.058 A 
ATOM     69  C   UNL A   1      43.566  27.279  36.564  1.00  0.00     0.135 A 
ATOM     70  C   UNL A   1      45.250  28.539  35.394  1.00  0.00     0.135 A 
ATOM     71  F   UNL A   1      42.283  27.032  36.872  1.00  0.00    -0.206 F 
ATOM     72  C   UNL A   1      44.551  26.500  37.161  1.00  0.00     0.059 A 
ATOM     73  C   UNL A   1      46.251  27.760  35.966  1.00  0.00     0.059 A 
ATOM     74  F   UNL A   1      45.611  29.517  34.549  1.00  0.00    -0.206 F 
ATOM     75  C   UNL A   1      45.891  26.745  36.851  1.00  0.00     0.060 A 
BRANCH  75  76
ATOM     76  S   UNL A   1      47.156  25.696  37.599  1.00  0.00     0.124 S 
ATOM     77  O   UNL A   1      48.009  25.407  36.451  1.00  0.00    -0.237 OA
ATOM     78  O   UNL A   1      47.733  26.575  38.611  1.00  0.00    -0.237 OA
ATOM     79  O   UNL A   1      46.396  24.563  38.117  1.00  0.00    -0.744 OA
ENDBRANCH  75  76
ENDBRANCH  54  68
BRANCH  55  80
ATOM     80  C   UNL A   1      36.591  33.008  30.796  1.00  0.00     0.058 A 
ATOM     81  C   UNL A   1      36.775  33.920  29.747  1.00  0.00     0.135 A 
ATOM     82  C   UNL A   1      35.279  32.766  31.234  1.00  0.00     0.135 A 
ATOM     83  F   UNL A   1      38.012  34.192  29.303  1.00  0.00    -0.206 F 
ATOM     84  C   UNL A   1      35.702  34.595  29.175  1.00  0.00     0.059 A 
ATOM     85  C   UNL A   1      34.189  33.414  30.664  1.00  0.00     0.059 A 
ATOM     86  F   UNL A   1      35.050  31.892  32.226  1.00  0.00    -0.206 F 
ATOM     87  C   UNL A   1      34.412  34.341  29.648  1.00  0.00     0.060 A 
BRANCH  87  88
ATOM     88  S   UNL A   1      33.019  35.219  28.906  1.00  0.00     0.124 S 
ATOM     89  O   UNL A   1      32.157  35.427  30.063  1.00  0.00    -0.237 OA
ATOM     90  O   UNL A   1      33.658  36.412  28.360  1.00  0.00    -0.237 OA
ATOM     91  O   UNL A   1      32.525  34.272  27.911  1.00  0.00    -0.744 OA
ENDBRANCH  87  88
ENDBRANCH  55  80
BRANCH  67  92
ATOM     92  C   UNL A   1      39.631  33.938  37.002  1.00  0.00     0.058 A 
ATOM     93  C   UNL A   1      38.906  33.553  38.139  1.00  0.00     0.135 A 
ATOM     94  C   UNL A   1      40.184  35.229  36.981  1.00  0.00     0.135 A 
ATOM     95  F   UNL A   1      38.351  32.332  38.204  1.00  0.00    -0.206 F 
ATOM     96  C   UNL A   1      38.727  34.418  39.214  1.00  0.00     0.059 A 
ATOM     97  C   UNL A   1      40.037  36.103  38.056  1.00  0.00     0.059 A 
ATOM     98  F   UNL A   1      40.894  35.644  35.921  1.00  0.00    -0.206 F 
ATOM     99  C   UNL A   1      39.301  35.689  39.165  1.00  0.00     0.060 A 
BRANCH  99 100
ATOM    100  S   UNL A   1      39.111  36.781  40.591  1.00  0.00     0.124 S 
ATOM    101  O   UNL A   1      38.156  36.039  41.405  1.00  0.00    -0.237 OA
ATOM    102  O   UNL A   1      40.471  36.853  41.116  1.00  0.00    -0.237 OA
ATOM    103  O   UNL A   1      38.608  38.020  40.004  1.00  0.00    -0.744 OA
ENDBRANCH  99 100
ENDBRANCH  67  92
ENDBRANCH  41  42
ENDBRANCH  34  36
ENDBRANCH  33  34
ENDBRANCH  32  33
ENDBRANCH  31  32
ENDBRANCH   1  31
TORSDOF 20
ENDMDL
MODEL 2
REMARK VINA RESULT:     -12.1      1.306      2.711
REMARK SMILES O=C(C[C@H]1S/C(=[NH+]\N=C\c2cc(Br)ccc2OCc2ccccc2)NC1=O)OCCOC(=O)c1ccc(-c2c3nc(c(-c4c(F)cc(S(=O)(=O)[O-])cc4F)c4ccc([nH]4)c(-c4c(F)cc(S(=O)(=O)[O-])cc4F)c4nc(c(-c5c(F)cc(S(=O)(=O)[O-])cc5F)c5ccc2[nH]5)C=C4)C=C3)cc1
REMARK SMILES IDX 28 1 2 2 1 3 3 4 4 5 5 6 26 7 6 8 25 9 27 10 7 11 8 14 9 15
REMARK SMILES IDX 10 16 11 17 16 18 12 19 15 20 13 21 14 22 17 23 18 24 19 25
REMARK SMILES IDX 20 26 24 27 21 28 23 29 22 30 29 31 30 32 31 33 32 34 33 35
REMARK SMILES IDX 34 36 35 37 99 38 36 39 98 40 37 41 38 42 39 43 92 44 40 45
REMARK SMILES IDX 97 46 91 47 93 48 41 49 96 50 90 51 89 52 42 54 76 55 55 56
REMARK SMILES IDX 75 57 56 58 59 59 74 60 94 61 57 62 58 63 73 65 95 66 60 67
REMARK SMILES IDX 43 68 44 69 53 70 45 71 46 72 52 73 54 74 47 75 48 76 49 77
REMARK SMILES IDX 50 78 51 79 77 80 78 81 87 82 79 83 80 84 86 85 88 86 81 87
REMARK SMILES IDX 82 88 83 89 84 90 85 91 61 92 62 93 71 94 63 95 64 96 70 97
REMARK SMILES IDX 72 98 65 99 66 100 67 101 68 102 69 103
REMARK H PARENT 25 12 7 13 93 53 59 64
REMARK Flexibility Score: inf
ROOT
ATOM      1  O   UNL A   1      37.443  21.967  25.822  1.00  0.00    -0.462 OA
ENDROOT
BRANCH   1   2
ATOM      2  C   UNL A   1      36.701  22.210  24.714  1.00  0.00     0.307 C 
ATOM      3  O   UNL A   1      37.069  23.032  23.880  1.00  0.00    -0.252 OA
BRANCH   2   4
ATOM      4  C   UNL A   1      35.357  21.545  24.611  1.00  0.00     0.150 C 
BRANCH   4   5
ATOM      5  C   UNL A   1      34.394  21.995  25.703  1.00  0.00     0.184 C 
ATOM      6  S   UNL A   1      33.651  23.618  25.275  1.00  0.00    -0.020 SA
ATOM      7  C   UNL A   1      33.210  21.050  25.698  1.00  0.00     0.322 C 
ATOM      8  C   UNL A   1      32.254  22.855  24.573  1.00  0.00     0.337 C 
ATOM      9  N   UNL A   1      32.166  21.569  24.987  1.00  0.00    -0.202 N 
ATOM     10  O   UNL A   1      33.219  19.919  26.164  1.00  0.00    -0.246 OA
ATOM     11  N   UNL A   1      31.378  23.335  23.763  1.00  0.00    -0.142 N 
ATOM     12  H   UNL A   1      31.373  21.023  24.780  1.00  0.00     0.316 HD
ATOM     13  H   UNL A   1      30.625  22.794  23.431  1.00  0.00     0.343 HD
BRANCH  11  14
ATOM     14  N   UNL A   1      31.553  24.667  23.377  1.00  0.00    -0.093 NA
ATOM     15  C   UNL A   1      30.688  25.396  24.010  1.00  0.00     0.170 C 
BRANCH  15  16
ATOM     16  C   UNL A   1      30.635  26.855  23.889  1.00  0.00     0.040 A 
ATOM     17  C   UNL A   1      29.426  27.358  23.380  1.00  0.00     0.029 A 
ATOM     18  C   UNL A   1      31.637  27.725  24.337  1.00  0.00     0.128 A 
ATOM     19  C   UNL A   1      29.219  28.733  23.310  1.00  0.00     0.018 A 
ATOM     20  C   UNL A   1      31.417  29.108  24.210  1.00  0.00     0.048 A 
ATOM     21  Br  UNL A   1      27.563  29.409  22.700  1.00  0.00    -0.051 Br
ATOM     22  C   UNL A   1      30.216  29.614  23.713  1.00  0.00     0.019 A 
BRANCH  18  23
ATOM     23  O   UNL A   1      32.840  27.478  24.936  1.00  0.00    -0.488 OA
BRANCH  23  24
ATOM     24  C   UNL A   1      33.017  27.481  26.353  1.00  0.00     0.265 C 
BRANCH  24  25
ATOM     25  C   UNL A   1      33.640  28.737  26.927  1.00  0.00    -0.011 A 
ATOM     26  C   UNL A   1      32.810  29.844  27.174  1.00  0.00     0.007 A 
ATOM     27  C   UNL A   1      35.019  28.868  27.155  1.00  0.00     0.007 A 
ATOM     28  C   UNL A   1      33.356  31.070  27.556  1.00  0.00     0.000 A 
ATOM     29  C   UNL A   1      35.564  30.100  27.519  1.00  0.00     0.000 A 
ATOM     30  C   UNL A   1      34.734  31.203  27.706  1.00  0.00     0.000 A 
ENDBRANCH  24  25
ENDBRANCH  23  24
ENDBRANCH  18  23
ENDBRANCH  15  16
ENDBRANCH  11  14
ENDBRANCH   4   5
ENDBRANCH   2   4
ENDBRANCH   1   2
BRANCH   1  31
ATOM     31  C   UNL A   1      38.856  21.689  25.758  1.00  0.00     0.274 C 
BRANCH  31  32
ATOM     32  C   UNL A   1      39.640  22.406  26.858  1.00  0.00     0.275 C 
BRANCH  32  33
ATOM     33  O   UNL A   1      39.535  23.833  26.716  1.00  0.00    -0.458 OA
BRANCH  33  34
ATOM     34  C   UNL A   1      40.709  24.512  26.741  1.00  0.00     0.338 C 
ATOM     35  O   UNL A   1      41.631  24.400  25.949  1.00  0.00    -0.246 OA
BRANCH  34  36
ATOM     36  C   UNL A   1      40.645  25.565  27.782  1.00  0.00     0.060 A 
ATOM     37  C   UNL A   1      41.703  26.482  27.852  1.00  0.00     0.016 A 
ATOM     38  C   UNL A   1      39.555  25.687  28.650  1.00  0.00     0.016 A 
ATOM     39  C   UNL A   1      41.672  27.521  28.785  1.00  0.00     0.010 A 
ATOM     40  C   UNL A   1      39.531  26.722  29.591  1.00  0.00     0.010 A 
ATOM     41  C   UNL A   1      40.592  27.641  29.668  1.00  0.00    -0.014 A 
BRANCH  41  42
ATOM     42  C   UNL A   1      40.578  28.699  30.709  1.00  0.00     0.031 A 
ATOM     43  C   UNL A   1      41.457  28.563  31.919  1.00  0.00     0.074 A 
ATOM     44  C   UNL A   1      39.752  29.755  30.589  1.00  0.00     0.049 A 
ATOM     45  N   UNL A   1      41.535  29.335  32.971  1.00  0.00    -0.248 NA
ATOM     46  C   UNL A   1      42.369  27.407  31.949  1.00  0.00     0.031 C 
ATOM     47  C   UNL A   1      38.872  30.016  29.451  1.00  0.00     0.029 A 
ATOM     48  N   UNL A   1      39.501  30.794  31.452  1.00  0.00    -0.354 N 
ATOM     49  C   UNL A   1      42.501  28.764  33.790  1.00  0.00     0.074 A 
ATOM     50  C   UNL A   1      42.970  27.568  33.121  1.00  0.00     0.031 C 
ATOM     51  C   UNL A   1      38.145  31.119  29.704  1.00  0.00     0.029 A 
ATOM     52  C   UNL A   1      38.495  31.630  31.029  1.00  0.00     0.049 A 
ATOM     53  H   UNL A   1      39.995  30.926  32.292  1.00  0.00     0.167 HD
ATOM     54  C   UNL A   1      42.960  29.203  34.985  1.00  0.00     0.037 A 
ATOM     55  C   UNL A   1      37.905  32.669  31.652  1.00  0.00     0.037 A 
ATOM     56  C   UNL A   1      42.501  30.396  35.646  1.00  0.00     0.049 A 
ATOM     57  C   UNL A   1      38.382  33.089  33.020  1.00  0.00     0.074 A 
ATOM     58  C   UNL A   1      42.966  30.957  36.824  1.00  0.00     0.029 A 
ATOM     59  N   UNL A   1      41.465  31.202  35.202  1.00  0.00    -0.354 N 
ATOM     60  N   UNL A   1      39.351  32.584  33.744  1.00  0.00    -0.248 NA
ATOM     61  C   UNL A   1      37.683  34.218  33.655  1.00  0.00     0.031 C 
ATOM     62  C   UNL A   1      42.174  32.070  37.121  1.00  0.00     0.029 A 
ATOM     63  C   UNL A   1      41.244  32.226  36.107  1.00  0.00     0.049 A 
ATOM     64  H   UNL A   1      40.962  31.065  34.368  1.00  0.00     0.167 HD
ATOM     65  C   UNL A   1      39.391  33.346  34.909  1.00  0.00     0.074 A 
ATOM     66  C   UNL A   1      38.358  34.352  34.789  1.00  0.00     0.031 C 
ATOM     67  C   UNL A   1      40.212  33.223  35.981  1.00  0.00     0.037 A 
BRANCH  54  68
ATOM     68  C   UNL A   1      44.010  28.386  35.678  1.00  0.00     0.058 A 
ATOM     69  C   UNL A   1      43.670  27.383  36.598  1.00  0.00     0.135 A 
ATOM     70  C   UNL A   1      45.364  28.545  35.346  1.00  0.00     0.135 A 
ATOM     71  F   UNL A   1      42.389  27.203  36.960  1.00  0.00    -0.206 F 
ATOM     72  C   UNL A   1      44.639  26.565  37.168  1.00  0.00     0.059 A 
ATOM     73  C   UNL A   1      46.349  27.727  35.890  1.00  0.00     0.059 A 
ATOM     74  F   UNL A   1      45.737  29.494  34.473  1.00  0.00    -0.206 F 
ATOM     75  C   UNL A   1      45.976  26.742  36.803  1.00  0.00     0.060 A 
BRANCH  75  76
ATOM     76  S   UNL A   1      47.218  25.643  37.517  1.00  0.00     0.124 S 
ATOM     77  O   UNL A   1      46.396  24.798  38.378  1.00  0.00    -0.237 OA
ATOM     78  O   UNL A   1      47.775  24.991  36.336  1.00  0.00    -0.237 OA
ATOM     79  O   UNL A   1      48.121  26.555  38.210  1.00  0.00    -0.744 OA
ENDBRANCH  75  76
ENDBRANCH  54  68
BRANCH  55  80
ATOM     80  C   UNL A   1      36.755  33.365  31.017  1.00  0.00     0.058 A 
ATOM     81  C   UNL A   1      35.442  33.160  31.463  1.00  0.00     0.135 A 
ATOM     82  C   UNL A   1      36.950  34.211  29.913  1.00  0.00     0.135 A 
ATOM     83  F   UNL A   1      35.207  32.350  32.507  1.00  0.00    -0.206 F 
ATOM     84  C   UNL A   1      34.356  33.743  30.818  1.00  0.00     0.059 A 
ATOM     85  C   UNL A   1      35.882  34.821  29.265  1.00  0.00     0.059 A 
ATOM     86  F   UNL A   1      38.189  34.451  29.457  1.00  0.00    -0.206 F 
ATOM     87  C   UNL A   1      34.587  34.565  29.713  1.00  0.00     0.060 A 
BRANCH  87  88
ATOM     88  S   UNL A   1      33.177  35.321  28.875  1.00  0.00     0.124 S 
ATOM     89  O   UNL A   1      32.356  35.739  30.006  1.00  0.00    -0.237 OA
ATOM     90  O   UNL A   1      33.807  36.392  28.110  1.00  0.00    -0.237 OA
ATOM     91  O   UNL A   1      32.640  34.223  28.076  1.00  0.00    -0.744 OA
ENDBRANCH  87  88
ENDBRANCH  55  80
BRANCH  67  92
ATOM     92  C   UNL A   1      40.038  34.198  37.111  1.00  0.00     0.058 A 
ATOM     93  C   UNL A   1      40.768  35.395  37.162  1.00  0.00     0.135 A 
ATOM     94  C   UNL A   1      39.080  33.970  38.113  1.00  0.00     0.135 A 
ATOM     95  F   UNL A   1      41.701  35.656  36.232  1.00  0.00    -0.206 F 
ATOM     96  C   UNL A   1      40.562  36.330  38.171  1.00  0.00     0.059 A 
ATOM     97  C   UNL A   1      38.840  34.903  39.119  1.00  0.00     0.059 A 
ATOM     98  F   UNL A   1      38.349  32.845  38.105  1.00  0.00    -0.206 F 
ATOM     99  C   UNL A   1      39.592  36.077  39.143  1.00  0.00     0.060 A 
BRANCH  99 100
ATOM    100  S   UNL A   1      39.293  37.324  40.415  1.00  0.00     0.124 S 
ATOM    101  O   UNL A   1      39.042  36.493  41.587  1.00  0.00    -0.237 OA
ATOM    102  O   UNL A   1      40.547  38.071  40.423  1.00  0.00    -0.237 OA
ATOM    103  O   UNL A   1      38.138  38.058  39.906  1.00  0.00    -0.744 OA
ENDBRANCH  99 100
ENDBRANCH  67  92
ENDBRANCH  41  42
ENDBRANCH  34  36
ENDBRANCH  33  34
ENDBRANCH  32  33
ENDBRANCH  31  32
ENDBRANCH   1  31
TORSDOF 20
ENDMDL
MODEL 3
REMARK VINA RESULT:     -11.9      6.645     12.436
REMARK SMILES O=C(C[C@H]1S/C(=[NH+]\N=C\c2cc(Br)ccc2OCc2ccccc2)NC1=O)OCCOC(=O)c1ccc(-c2c3nc(c(-c4c(F)cc(S(=O)(=O)[O-])cc4F)c4ccc([nH]4)c(-c4c(F)cc(S(=O)(=O)[O-])cc4F)c4nc(c(-c5c(F)cc(S(=O)(=O)[O-])cc5F)c5ccc2[nH]5)C=C4)C=C3)cc1
REMARK SMILES IDX 28 1 2 2 1 3 3 4 4 5 5 6 26 7 6 8 25 9 27 10 7 11 8 14 9 15
REMARK SMILES IDX 10 16 11 17 16 18 12 19 15 20 13 21 14 22 17 23 18 24 19 25
REMARK SMILES IDX 20 26 24 27 21 28 23 29 22 30 29 31 30 32 31 33 32 34 33 35
REMARK SMILES IDX 34 36 35 37 99 38 36 39 98 40 37 41 38 42 39 43 92 44 40 45
REMARK SMILES IDX 97 46 91 47 93 48 41 49 96 50 90 51 89 52 42 54 76 55 55 56
REMARK SMILES IDX 75 57 56 58 59 59 74 60 94 61 57 62 58 63 73 65 95 66 60 67
REMARK SMILES IDX 43 68 44 69 53 70 45 71 46 72 52 73 54 74 47 75 48 76 49 77
REMARK SMILES IDX 50 78 51 79 77 80 78 81 87 82 79 83 80 84 86 85 88 86 81 87
REMARK SMILES IDX 82 88 83 89 84 90 85 91 61 92 62 93 71 94 63 95 64 96 70 97
REMARK SMILES IDX 72 98 65 99 66 100 67 101 68 102 69 103
REMARK H PARENT 25 12 7 13 93 53 59 64
REMARK Flexibility Score: inf
ROOT
ATOM      1  O   UNL A   1      32.507  29.364  26.545  1.00  0.00    -0.462 OA
ENDROOT
BRANCH   1   2
ATOM      2  C   UNL A   1      32.431  28.773  25.328  1.00  0.00     0.307 C 
ATOM      3  O   UNL A   1      32.879  29.331  24.330  1.00  0.00    -0.252 OA
BRANCH   2   4
ATOM      4  C   UNL A   1      31.664  27.485  25.219  1.00  0.00     0.150 C 
BRANCH   4   5
ATOM      5  C   UNL A   1      31.323  27.125  23.778  1.00  0.00     0.184 C 
ATOM      6  S   UNL A   1      32.215  25.604  23.269  1.00  0.00    -0.020 SA
ATOM      7  C   UNL A   1      29.865  26.713  23.734  1.00  0.00     0.322 C 
ATOM      8  C   UNL A   1      30.853  24.602  23.679  1.00  0.00     0.337 C 
ATOM      9  N   UNL A   1      29.733  25.355  23.785  1.00  0.00    -0.202 N 
ATOM     10  O   UNL A   1      28.921  27.489  23.770  1.00  0.00    -0.246 OA
ATOM     11  N   UNL A   1      30.802  23.333  23.887  1.00  0.00    -0.142 N 
ATOM     12  H   UNL A   1      28.849  24.936  23.897  1.00  0.00     0.316 HD
ATOM     13  H   UNL A   1      29.960  22.878  24.119  1.00  0.00     0.343 HD
BRANCH  11  14
ATOM     14  N   UNL A   1      32.006  22.635  23.770  1.00  0.00    -0.093 NA
ATOM     15  C   UNL A   1      31.983  21.632  24.591  1.00  0.00     0.170 C 
BRANCH  15  16
ATOM     16  C   UNL A   1      33.065  20.650  24.681  1.00  0.00     0.040 A 
ATOM     17  C   UNL A   1      32.694  19.334  24.358  1.00  0.00     0.029 A 
ATOM     18  C   UNL A   1      34.403  20.967  24.953  1.00  0.00     0.128 A 
ATOM     19  C   UNL A   1      33.657  18.330  24.313  1.00  0.00     0.018 A 
ATOM     20  C   UNL A   1      35.344  19.922  24.945  1.00  0.00     0.048 A 
ATOM     21  Br  UNL A   1      33.170  16.577  23.800  1.00  0.00    -0.051 Br
ATOM     22  C   UNL A   1      34.983  18.615  24.617  1.00  0.00     0.019 A 
BRANCH  18  23
ATOM     23  O   UNL A   1      35.009  22.165  25.207  1.00  0.00    -0.488 OA
BRANCH  23  24
ATOM     24  C   UNL A   1      36.155  22.623  24.488  1.00  0.00     0.265 C 
BRANCH  24  25
ATOM     25  C   UNL A   1      37.372  22.934  25.335  1.00  0.00    -0.011 A 
ATOM     26  C   UNL A   1      38.346  21.935  25.502  1.00  0.00     0.007 A 
ATOM     27  C   UNL A   1      37.533  24.150  26.018  1.00  0.00     0.007 A 
ATOM     28  C   UNL A   1      39.404  22.116  26.393  1.00  0.00     0.000 A 
ATOM     29  C   UNL A   1      38.583  24.321  26.922  1.00  0.00     0.000 A 
ATOM     30  C   UNL A   1      39.509  23.300  27.118  1.00  0.00     0.000 A 
ENDBRANCH  24  25
ENDBRANCH  23  24
ENDBRANCH  18  23
ENDBRANCH  15  16
ENDBRANCH  11  14
ENDBRANCH   4   5
ENDBRANCH   2   4
ENDBRANCH   1   2
BRANCH   1  31
ATOM     31  C   UNL A   1      33.563  30.282  26.892  1.00  0.00     0.274 C 
BRANCH  31  32
ATOM     32  C   UNL A   1      34.685  29.606  27.680  1.00  0.00     0.275 C 
BRANCH  32  33
ATOM     33  O   UNL A   1      35.816  30.484  27.818  1.00  0.00    -0.458 OA
BRANCH  33  34
ATOM     34  C   UNL A   1      36.408  30.488  29.039  1.00  0.00     0.338 C 
ATOM     35  O   UNL A   1      35.855  30.649  30.114  1.00  0.00    -0.246 OA
BRANCH  34  36
ATOM     36  C   UNL A   1      37.826  30.081  28.898  1.00  0.00     0.060 A 
ATOM     37  C   UNL A   1      38.273  29.693  27.628  1.00  0.00     0.016 A 
ATOM     38  C   UNL A   1      38.719  30.113  29.974  1.00  0.00     0.016 A 
ATOM     39  C   UNL A   1      39.611  29.343  27.430  1.00  0.00     0.010 A 
ATOM     40  C   UNL A   1      40.056  29.750  29.776  1.00  0.00     0.010 A 
ATOM     41  C   UNL A   1      40.508  29.357  28.505  1.00  0.00    -0.014 A 
BRANCH  41  42
ATOM     42  C   UNL A   1      41.915  28.921  28.323  1.00  0.00     0.031 A 
ATOM     43  C   UNL A   1      43.013  29.946  28.306  1.00  0.00     0.074 A 
ATOM     44  C   UNL A   1      42.201  27.620  28.132  1.00  0.00     0.049 A 
ATOM     45  N   UNL A   1      44.291  29.778  28.085  1.00  0.00    -0.248 NA
ATOM     46  C   UNL A   1      42.624  31.340  28.574  1.00  0.00     0.031 C 
ATOM     47  C   UNL A   1      41.229  26.528  28.155  1.00  0.00     0.029 A 
ATOM     48  N   UNL A   1      43.395  27.001  27.856  1.00  0.00    -0.354 N 
ATOM     49  C   UNL A   1      44.862  31.040  28.186  1.00  0.00     0.074 A 
ATOM     50  C   UNL A   1      43.787  31.969  28.471  1.00  0.00     0.031 C 
ATOM     51  C   UNL A   1      41.858  25.376  27.859  1.00  0.00     0.029 A 
ATOM     52  C   UNL A   1      43.272  25.654  27.608  1.00  0.00     0.049 A 
ATOM     53  H   UNL A   1      44.256  27.476  27.836  1.00  0.00     0.167 HD
ATOM     54  C   UNL A   1      46.163  31.390  28.062  1.00  0.00     0.037 A 
ATOM     55  C   UNL A   1      44.189  24.754  27.199  1.00  0.00     0.037 A 
ATOM     56  C   UNL A   1      47.233  30.467  27.789  1.00  0.00     0.049 A 
ATOM     57  C   UNL A   1      45.618  25.187  26.990  1.00  0.00     0.074 A 
ATOM     58  C   UNL A   1      48.592  30.724  27.721  1.00  0.00     0.029 A 
ATOM     59  N   UNL A   1      47.068  29.118  27.519  1.00  0.00    -0.354 N 
ATOM     60  N   UNL A   1      46.154  26.370  27.168  1.00  0.00    -0.248 NA
ATOM     61  C   UNL A   1      46.566  24.163  26.523  1.00  0.00     0.031 C 
ATOM     62  C   UNL A   1      49.243  29.542  27.357  1.00  0.00     0.029 A 
ATOM     63  C   UNL A   1      48.295  28.540  27.238  1.00  0.00     0.049 A 
ATOM     64  H   UNL A   1      46.207  28.642  27.526  1.00  0.00     0.167 HD
ATOM     65  C   UNL A   1      47.504  26.228  26.855  1.00  0.00     0.074 A 
ATOM     66  C   UNL A   1      47.705  24.842  26.487  1.00  0.00     0.031 C 
ATOM     67  C   UNL A   1      48.486  27.161  26.871  1.00  0.00     0.037 A 
BRANCH  54  68
ATOM     68  C   UNL A   1      46.519  32.841  28.205  1.00  0.00     0.058 A 
ATOM     69  C   UNL A   1      46.405  33.734  27.130  1.00  0.00     0.135 A 
ATOM     70  C   UNL A   1      46.886  33.358  29.458  1.00  0.00     0.135 A 
ATOM     71  F   UNL A   1      46.072  33.283  25.909  1.00  0.00    -0.206 F 
ATOM     72  C   UNL A   1      46.645  35.094  27.290  1.00  0.00     0.059 A 
ATOM     73  C   UNL A   1      47.114  34.718  29.645  1.00  0.00     0.059 A 
ATOM     74  F   UNL A   1      47.011  32.542  30.515  1.00  0.00    -0.206 F 
ATOM     75  C   UNL A   1      46.994  35.577  28.554  1.00  0.00     0.060 A 
BRANCH  75  76
ATOM     76  S   UNL A   1      47.258  37.351  28.756  1.00  0.00     0.124 S 
ATOM     77  O   UNL A   1      46.092  37.898  28.071  1.00  0.00    -0.237 OA
ATOM     78  O   UNL A   1      47.269  37.503  30.208  1.00  0.00    -0.237 OA
ATOM     79  O   UNL A   1      48.539  37.582  28.096  1.00  0.00    -0.744 OA
ENDBRANCH  75  76
ENDBRANCH  54  68
BRANCH  55  80
ATOM     80  C   UNL A   1      43.782  23.355  26.905  1.00  0.00     0.058 A 
ATOM     81  C   UNL A   1      43.657  22.895  25.586  1.00  0.00     0.135 A 
ATOM     82  C   UNL A   1      43.461  22.468  27.944  1.00  0.00     0.135 A 
ATOM     83  F   UNL A   1      43.941  23.713  24.561  1.00  0.00    -0.206 F 
ATOM     84  C   UNL A   1      43.195  21.613  25.305  1.00  0.00     0.059 A 
ATOM     85  C   UNL A   1      43.018  21.175  27.688  1.00  0.00     0.059 A 
ATOM     86  F   UNL A   1      43.579  22.855  29.224  1.00  0.00    -0.206 F 
ATOM     87  C   UNL A   1      42.870  20.763  26.365  1.00  0.00     0.060 A 
BRANCH  87  88
ATOM     88  S   UNL A   1      42.270  19.100  25.999  1.00  0.00     0.124 S 
ATOM     89  O   UNL A   1      40.842  19.337  25.826  1.00  0.00    -0.237 OA
ATOM     90  O   UNL A   1      43.014  18.759  24.791  1.00  0.00    -0.237 OA
ATOM     91  O   UNL A   1      42.646  18.344  27.190  1.00  0.00    -0.744 OA
ENDBRANCH  87  88
ENDBRANCH  55  80
BRANCH  67  92
ATOM     92  C   UNL A   1      49.873  26.724  26.489  1.00  0.00     0.058 A 
ATOM     93  C   UNL A   1      50.723  26.099  27.413  1.00  0.00     0.135 A 
ATOM     94  C   UNL A   1      50.328  26.863  25.167  1.00  0.00     0.135 A 
ATOM     95  F   UNL A   1      50.337  25.949  28.690  1.00  0.00    -0.206 F 
ATOM     96  C   UNL A   1      51.981  25.634  27.045  1.00  0.00     0.059 A 
ATOM     97  C   UNL A   1      51.575  26.385  24.771  1.00  0.00     0.059 A 
ATOM     98  F   UNL A   1      49.551  27.446  24.242  1.00  0.00    -0.206 F 
ATOM     99  C   UNL A   1      52.396  25.777  25.720  1.00  0.00     0.060 A 
BRANCH  99 100
ATOM    100  S   UNL A   1      54.008  25.119  25.241  1.00  0.00     0.124 S 
ATOM    101  O   UNL A   1      54.793  25.354  26.447  1.00  0.00    -0.237 OA
ATOM    102  O   UNL A   1      53.703  23.723  24.945  1.00  0.00    -0.237 OA
ATOM    103  O   UNL A   1      54.375  25.930  24.084  1.00  0.00    -0.744 OA
ENDBRANCH  99 100
ENDBRANCH  67  92
ENDBRANCH  41  42
ENDBRANCH  34  36
ENDBRANCH  33  34
ENDBRANCH  32  33
ENDBRANCH  31  32
ENDBRANCH   1  31
TORSDOF 20
ENDMDL
