MODEL 1
REMARK VINA RESULT:     -12.6      0.000      0.000
REMARK SMILES NS(=O)(=O)c1ccc(-n2nc(C(F)F)cc2-c2ccc(C(=O)OCCOC(=O)c3ccc(-c4c5nc(c(-c6c(F)cc(S(=O)(=O)[O-])cc6F)c6ccc([nH]6)c(-c6c(F)cc(S(=O)(=O)[O-])cc6F)c6nc(c(-c7c(F)cc(S(=O)(=O)[O-])cc7F)c7ccc4[nH]7)C=C6)C=C5)cc3)cc2)cc1
REMARK SMILES IDX 24 1 23 2 21 3 22 4 20 5 17 6 18 7 96 8 19 9 95 10 16 11
REMARK SMILES IDX 9 12 10 13 11 14 15 15 8 16 5 17 6 18 98 19 7 20 97 21 2 22
REMARK SMILES IDX 3 23 4 24 1 25 12 28 13 29 14 30 25 31 26 32 27 33 28 34
REMARK SMILES IDX 29 35 30 36 94 37 31 38 93 39 32 40 33 41 34 42 87 43 35 44
REMARK SMILES IDX 92 45 86 46 88 47 36 48 91 49 85 50 84 51 37 53 71 54 50 55
REMARK SMILES IDX 70 56 51 57 54 58 69 59 89 60 52 61 53 62 68 64 90 65 55 66
REMARK SMILES IDX 38 67 39 68 48 69 40 70 41 71 47 72 49 73 42 74 43 75 44 76
REMARK SMILES IDX 45 77 46 78 72 79 73 80 82 81 74 82 75 83 81 84 83 85 76 86
REMARK SMILES IDX 77 87 78 88 79 89 80 90 56 91 57 92 66 93 58 94 59 95 65 96
REMARK SMILES IDX 67 97 60 98 61 99 62 100 63 101 64 102
REMARK H PARENT 1 26 1 27 88 52 54 63
REMARK Flexibility Score: inf
ROOT
ATOM      1  C   UNL A   1      32.802  28.529  25.180  1.00  0.00     0.275 C 
ENDROOT
BRANCH   1   2
ATOM      2  O   UNL A   1      31.923  27.420  25.437  1.00  0.00    -0.458 OA
BRANCH   2   3
ATOM      3  C   UNL A   1      31.885  26.465  24.472  1.00  0.00     0.338 C 
ATOM      4  O   UNL A   1      31.099  26.410  23.540  1.00  0.00    -0.246 OA
BRANCH   3   5
ATOM      5  C   UNL A   1      33.005  25.505  24.643  1.00  0.00     0.060 A 
ATOM      6  C   UNL A   1      35.209  23.824  25.080  1.00  0.00     0.000 A 
ATOM      7  C   UNL A   1      34.374  24.186  26.147  1.00  0.00     0.011 A 
ATOM      8  C   UNL A   1      34.892  24.256  23.787  1.00  0.00     0.011 A 
ATOM      9  C   UNL A   1      33.276  25.021  25.930  1.00  0.00     0.016 A 
ATOM     10  C   UNL A   1      33.790  25.086  23.566  1.00  0.00     0.016 A 
BRANCH   6  11
ATOM     11  C   UNL A   1      36.472  23.122  25.319  1.00  0.00     0.075 A 
ATOM     12  N   UNL A   1      36.668  21.747  25.375  1.00  0.00    -0.233 N 
ATOM     13  N   UNL A   1      37.863  21.432  25.942  1.00  0.00    -0.166 NA
ATOM     14  C   UNL A   1      38.511  22.602  26.063  1.00  0.00     0.129 A 
ATOM     15  C   UNL A   1      37.671  23.681  25.715  1.00  0.00     0.060 A 
BRANCH  12  16
ATOM     16  C   UNL A   1      35.780  20.723  24.959  1.00  0.00     0.065 A 
ATOM     17  C   UNL A   1      34.018  18.659  24.365  1.00  0.00     0.082 A 
ATOM     18  C   UNL A   1      33.532  19.963  24.487  1.00  0.00     0.024 A 
ATOM     19  C   UNL A   1      35.383  18.384  24.496  1.00  0.00     0.024 A 
ATOM     20  C   UNL A   1      34.413  20.997  24.800  1.00  0.00     0.030 A 
ATOM     21  C   UNL A   1      36.274  19.426  24.761  1.00  0.00     0.030 A 
BRANCH  17  22
ATOM     22  S   UNL A   1      32.882  17.326  24.111  1.00  0.00     0.238 S 
ATOM     23  O   UNL A   1      32.462  17.336  22.725  1.00  0.00    -0.207 OA
ATOM     24  O   UNL A   1      31.961  17.314  25.214  1.00  0.00    -0.207 OA
BRANCH  22  25
ATOM     25  N   UNL A   1      33.860  15.968  24.279  1.00  0.00    -0.225 NA
ATOM     26  H   UNL A   1      33.334  15.228  24.745  1.00  0.00     0.137 HD
ATOM     27  H   UNL A   1      34.679  16.207  24.837  1.00  0.00     0.137 HD
ENDBRANCH  22  25
ENDBRANCH  17  22
ENDBRANCH  12  16
BRANCH  14  28
ATOM     28  C   UNL A   1      39.925  22.713  26.547  1.00  0.00     0.393 C 
ATOM     29  F   UNL A   1      40.031  22.650  27.902  1.00  0.00    -0.203 F 
ATOM     30  F   UNL A   1      40.705  21.714  26.047  1.00  0.00    -0.203 F 
ENDBRANCH  14  28
ENDBRANCH   6  11
ENDBRANCH   3   5
ENDBRANCH   2   3
ENDBRANCH   1   2
BRANCH   1  31
ATOM     31  C   UNL A   1      33.054  29.338  26.443  1.00  0.00     0.275 C 
BRANCH  31  32
ATOM     32  O   UNL A   1      34.449  29.478  26.695  1.00  0.00    -0.458 OA
BRANCH  32  33
ATOM     33  C   UNL A   1      34.788  30.606  27.358  1.00  0.00     0.338 C 
ATOM     34  O   UNL A   1      34.361  31.734  27.173  1.00  0.00    -0.246 OA
BRANCH  33  35
ATOM     35  C   UNL A   1      35.972  30.344  28.170  1.00  0.00     0.060 A 
ATOM     36  C   UNL A   1      36.713  31.450  28.603  1.00  0.00     0.016 A 
ATOM     37  C   UNL A   1      36.496  29.044  28.155  1.00  0.00     0.016 A 
ATOM     38  C   UNL A   1      38.057  31.279  28.855  1.00  0.00     0.010 A 
ATOM     39  C   UNL A   1      37.836  28.884  28.371  1.00  0.00     0.010 A 
ATOM     40  C   UNL A   1      38.609  30.012  28.656  1.00  0.00    -0.014 A 
BRANCH  40  41
ATOM     41  C   UNL A   1      40.009  29.790  28.948  1.00  0.00     0.031 A 
ATOM     42  C   UNL A   1      40.286  29.845  30.409  1.00  0.00     0.074 A 
ATOM     43  C   UNL A   1      40.831  29.343  27.976  1.00  0.00     0.049 A 
ATOM     44  N   UNL A   1      41.187  30.537  31.019  1.00  0.00    -0.248 NA
ATOM     45  C   UNL A   1      39.328  29.190  31.330  1.00  0.00     0.031 C 
ATOM     46  C   UNL A   1      40.494  29.080  26.571  1.00  0.00     0.029 A 
ATOM     47  N   UNL A   1      42.105  28.873  28.067  1.00  0.00    -0.354 N 
ATOM     48  C   UNL A   1      41.064  30.210  32.367  1.00  0.00     0.074 A 
ATOM     49  C   UNL A   1      39.798  29.554  32.521  1.00  0.00     0.031 C 
ATOM     50  C   UNL A   1      41.441  28.289  26.022  1.00  0.00     0.029 A 
ATOM     51  C   UNL A   1      42.492  28.065  26.995  1.00  0.00     0.049 A 
ATOM     52  H   UNL A   1      42.701  29.084  28.821  1.00  0.00     0.167 HD
ATOM     53  C   UNL A   1      42.142  30.255  33.192  1.00  0.00     0.037 A 
ATOM     54  C   UNL A   1      43.540  27.197  26.987  1.00  0.00     0.037 A 
ATOM     55  C   UNL A   1      43.164  31.112  32.650  1.00  0.00     0.049 A 
ATOM     56  C   UNL A   1      44.445  27.620  28.094  1.00  0.00     0.074 A 
ATOM     57  C   UNL A   1      43.190  32.444  32.282  1.00  0.00     0.029 A 
ATOM     58  N   UNL A   1      44.227  30.517  32.012  1.00  0.00    -0.354 N 
ATOM     59  N   UNL A   1      45.098  28.754  28.092  1.00  0.00    -0.248 NA
ATOM     60  C   UNL A   1      44.218  27.039  29.412  1.00  0.00     0.031 C 
ATOM     61  C   UNL A   1      43.958  32.480  31.085  1.00  0.00     0.029 A 
ATOM     62  C   UNL A   1      44.437  31.192  30.837  1.00  0.00     0.049 A 
ATOM     63  H   UNL A   1      44.744  29.746  32.340  1.00  0.00     0.167 HD
ATOM     64  C   UNL A   1      44.968  29.240  29.387  1.00  0.00     0.074 A 
ATOM     65  C   UNL A   1      44.473  28.109  30.172  1.00  0.00     0.031 C 
ATOM     66  C   UNL A   1      44.979  30.581  29.643  1.00  0.00     0.037 A 
BRANCH  53  67
ATOM     67  C   UNL A   1      42.415  29.220  34.254  1.00  0.00     0.058 A 
ATOM     68  C   UNL A   1      42.474  27.863  33.881  1.00  0.00     0.135 A 
ATOM     69  C   UNL A   1      42.323  29.468  35.644  1.00  0.00     0.135 A 
ATOM     70  F   UNL A   1      42.564  27.513  32.588  1.00  0.00    -0.206 F 
ATOM     71  C   UNL A   1      42.358  26.830  34.810  1.00  0.00     0.059 A 
ATOM     72  C   UNL A   1      42.259  28.454  36.591  1.00  0.00     0.059 A 
ATOM     73  F   UNL A   1      42.193  30.698  36.153  1.00  0.00    -0.206 F 
ATOM     74  C   UNL A   1      42.231  27.139  36.162  1.00  0.00     0.060 A 
BRANCH  74  75
ATOM     75  S   UNL A   1      41.968  25.812  37.350  1.00  0.00     0.124 S 
ATOM     76  O   UNL A   1      42.313  24.639  36.556  1.00  0.00    -0.237 OA
ATOM     77  O   UNL A   1      42.907  26.169  38.409  1.00  0.00    -0.237 OA
ATOM     78  O   UNL A   1      40.557  25.948  37.697  1.00  0.00    -0.744 OA
ENDBRANCH  74  75
ENDBRANCH  53  67
BRANCH  54  79
ATOM     79  C   UNL A   1      43.605  25.845  26.354  1.00  0.00     0.058 A 
ATOM     80  C   UNL A   1      44.491  25.568  25.295  1.00  0.00     0.135 A 
ATOM     81  C   UNL A   1      42.994  24.718  26.943  1.00  0.00     0.135 A 
ATOM     82  F   UNL A   1      45.135  26.570  24.676  1.00  0.00    -0.206 F 
ATOM     83  C   UNL A   1      44.794  24.259  24.887  1.00  0.00     0.059 A 
ATOM     84  C   UNL A   1      43.266  23.410  26.545  1.00  0.00     0.059 A 
ATOM     85  F   UNL A   1      42.175  24.837  27.997  1.00  0.00    -0.206 F 
ATOM     86  C   UNL A   1      44.191  23.184  25.537  1.00  0.00     0.060 A 
BRANCH  86  87
ATOM     87  S   UNL A   1      44.717  21.491  25.169  1.00  0.00     0.124 S 
ATOM     88  O   UNL A   1      46.064  21.462  25.729  1.00  0.00    -0.237 OA
ATOM     89  O   UNL A   1      43.716  20.695  25.870  1.00  0.00    -0.237 OA
ATOM     90  O   UNL A   1      44.649  21.425  23.711  1.00  0.00    -0.744 OA
ENDBRANCH  86  87
ENDBRANCH  54  79
BRANCH  66  91
ATOM     91  C   UNL A   1      45.375  31.521  28.532  1.00  0.00     0.058 A 
ATOM     92  C   UNL A   1      44.539  31.897  27.464  1.00  0.00     0.135 A 
ATOM     93  C   UNL A   1      46.594  32.203  28.654  1.00  0.00     0.135 A 
ATOM     94  F   UNL A   1      43.311  31.378  27.337  1.00  0.00    -0.206 F 
ATOM     95  C   UNL A   1      44.916  32.871  26.537  1.00  0.00     0.059 A 
ATOM     96  C   UNL A   1      46.978  33.199  27.762  1.00  0.00     0.059 A 
ATOM     97  F   UNL A   1      47.409  31.942  29.691  1.00  0.00    -0.206 F 
ATOM     98  C   UNL A   1      46.141  33.517  26.695  1.00  0.00     0.060 A 
BRANCH  98  99
ATOM     99  S   UNL A   1      46.611  34.816  25.534  1.00  0.00     0.124 S 
ATOM    100  O   UNL A   1      46.378  36.026  26.317  1.00  0.00    -0.237 OA
ATOM    101  O   UNL A   1      48.010  34.503  25.253  1.00  0.00    -0.237 OA
ATOM    102  O   UNL A   1      45.700  34.617  24.409  1.00  0.00    -0.744 OA
ENDBRANCH  98  99
ENDBRANCH  66  91
ENDBRANCH  40  41
ENDBRANCH  33  35
ENDBRANCH  32  33
ENDBRANCH  31  32
ENDBRANCH   1  31
TORSDOF 19
ENDMDL
MODEL 2
REMARK VINA RESULT:     -12.3      3.521      5.545
REMARK SMILES NS(=O)(=O)c1ccc(-n2nc(C(F)F)cc2-c2ccc(C(=O)OCCOC(=O)c3ccc(-c4c5nc(c(-c6c(F)cc(S(=O)(=O)[O-])cc6F)c6ccc([nH]6)c(-c6c(F)cc(S(=O)(=O)[O-])cc6F)c6nc(c(-c7c(F)cc(S(=O)(=O)[O-])cc7F)c7ccc4[nH]7)C=C6)C=C5)cc3)cc2)cc1
REMARK SMILES IDX 24 1 23 2 21 3 22 4 20 5 17 6 18 7 96 8 19 9 95 10 16 11
REMARK SMILES IDX 9 12 10 13 11 14 15 15 8 16 5 17 6 18 98 19 7 20 97 21 2 22
REMARK SMILES IDX 3 23 4 24 1 25 12 28 13 29 14 30 25 31 26 32 27 33 28 34
REMARK SMILES IDX 29 35 30 36 94 37 31 38 93 39 32 40 33 41 34 42 87 43 35 44
REMARK SMILES IDX 92 45 86 46 88 47 36 48 91 49 85 50 84 51 37 53 71 54 50 55
REMARK SMILES IDX 70 56 51 57 54 58 69 59 89 60 52 61 53 62 68 64 90 65 55 66
REMARK SMILES IDX 38 67 39 68 48 69 40 70 41 71 47 72 49 73 42 74 43 75 44 76
REMARK SMILES IDX 45 77 46 78 72 79 73 80 82 81 74 82 75 83 81 84 83 85 76 86
REMARK SMILES IDX 77 87 78 88 79 89 80 90 56 91 57 92 66 93 58 94 59 95 65 96
REMARK SMILES IDX 67 97 60 98 61 99 62 100 63 101 64 102
REMARK H PARENT 1 26 1 27 88 52 54 63
REMARK Flexibility Score: inf
ROOT
ATOM      1  C   UNL A   1      34.935  32.646  28.541  1.00  0.00     0.275 C 
ENDROOT
BRANCH   1   2
ATOM      2  O   UNL A   1      34.207  31.493  28.084  1.00  0.00    -0.458 OA
BRANCH   2   3
ATOM      3  C   UNL A   1      34.943  30.363  27.916  1.00  0.00     0.338 C 
ATOM      4  O   UNL A   1      36.079  30.173  28.321  1.00  0.00    -0.246 OA
BRANCH   3   5
ATOM      5  C   UNL A   1      34.145  29.317  27.228  1.00  0.00     0.060 A 
ATOM      6  C   UNL A   1      32.623  27.247  26.098  1.00  0.00     0.000 A 
ATOM      7  C   UNL A   1      32.068  28.076  27.084  1.00  0.00     0.011 A 
ATOM      8  C   UNL A   1      33.920  27.507  25.639  1.00  0.00     0.011 A 
ATOM      9  C   UNL A   1      32.823  29.107  27.644  1.00  0.00     0.016 A 
ATOM     10  C   UNL A   1      34.676  28.542  26.194  1.00  0.00     0.016 A 
BRANCH   6  11
ATOM     11  C   UNL A   1      31.924  26.043  25.647  1.00  0.00     0.075 A 
ATOM     12  N   UNL A   1      30.785  25.984  24.853  1.00  0.00    -0.233 N 
ATOM     13  N   UNL A   1      30.202  24.755  24.900  1.00  0.00    -0.166 NA
ATOM     14  C   UNL A   1      31.076  23.979  25.560  1.00  0.00     0.129 A 
ATOM     15  C   UNL A   1      32.146  24.746  26.068  1.00  0.00     0.060 A 
BRANCH  12  16
ATOM     16  C   UNL A   1      30.202  27.025  24.087  1.00  0.00     0.065 A 
ATOM     17  C   UNL A   1      29.014  29.173  22.787  1.00  0.00     0.082 A 
ATOM     18  C   UNL A   1      30.402  29.143  22.937  1.00  0.00     0.024 A 
ATOM     19  C   UNL A   1      28.218  28.118  23.245  1.00  0.00     0.024 A 
ATOM     20  C   UNL A   1      30.998  28.074  23.602  1.00  0.00     0.030 A 
ATOM     21  C   UNL A   1      28.817  27.022  23.869  1.00  0.00     0.030 A 
BRANCH  17  22
ATOM     22  S   UNL A   1      28.244  30.597  22.070  1.00  0.00     0.238 S 
ATOM     23  O   UNL A   1      27.256  31.103  22.999  1.00  0.00    -0.207 OA
ATOM     24  O   UNL A   1      27.954  30.297  20.695  1.00  0.00    -0.207 OA
BRANCH  22  25
ATOM     25  N   UNL A   1      29.488  31.729  22.068  1.00  0.00    -0.225 NA
ATOM     26  H   UNL A   1      29.130  32.626  21.737  1.00  0.00     0.137 HD
ATOM     27  H   UNL A   1      30.234  31.412  21.451  1.00  0.00     0.137 HD
ENDBRANCH  22  25
ENDBRANCH  17  22
ENDBRANCH  12  16
BRANCH  14  28
ATOM     28  C   UNL A   1      30.887  22.505  25.750  1.00  0.00     0.393 C 
ATOM     29  F   UNL A   1      31.945  21.906  26.359  1.00  0.00    -0.203 F 
ATOM     30  F   UNL A   1      29.791  22.235  26.513  1.00  0.00    -0.203 F 
ENDBRANCH  14  28
ENDBRANCH   6  11
ENDBRANCH   3   5
ENDBRANCH   2   3
ENDBRANCH   1   2
BRANCH   1  31
ATOM     31  C   UNL A   1      34.122  33.448  29.546  1.00  0.00     0.275 C 
BRANCH  31  32
ATOM     32  O   UNL A   1      34.891  33.746  30.708  1.00  0.00    -0.458 OA
BRANCH  32  33
ATOM     33  C   UNL A   1      34.715  32.881  31.733  1.00  0.00     0.338 C 
ATOM     34  O   UNL A   1      33.726  32.752  32.435  1.00  0.00    -0.246 OA
BRANCH  33  35
ATOM     35  C   UNL A   1      36.003  32.289  32.082  1.00  0.00     0.060 A 
ATOM     36  C   UNL A   1      37.099  33.153  32.193  1.00  0.00     0.016 A 
ATOM     37  C   UNL A   1      36.146  30.905  31.922  1.00  0.00     0.016 A 
ATOM     38  C   UNL A   1      38.358  32.645  31.960  1.00  0.00     0.010 A 
ATOM     39  C   UNL A   1      37.393  30.410  31.656  1.00  0.00     0.010 A 
ATOM     40  C   UNL A   1      38.471  31.297  31.616  1.00  0.00    -0.014 A 
BRANCH  40  41
ATOM     41  C   UNL A   1      39.783  30.723  31.403  1.00  0.00     0.031 A 
ATOM     42  C   UNL A   1      40.532  30.559  32.679  1.00  0.00     0.074 A 
ATOM     43  C   UNL A   1      40.094  30.198  30.199  1.00  0.00     0.049 A 
ATOM     44  N   UNL A   1      41.729  30.953  32.950  1.00  0.00    -0.248 NA
ATOM     45  C   UNL A   1      39.798  30.056  33.863  1.00  0.00     0.031 C 
ATOM     46  C   UNL A   1      39.256  30.169  28.993  1.00  0.00     0.029 A 
ATOM     47  N   UNL A   1      41.161  29.435  29.836  1.00  0.00    -0.354 N 
ATOM     48  C   UNL A   1      41.979  30.527  34.252  1.00  0.00     0.074 A 
ATOM     49  C   UNL A   1      40.712  30.174  34.824  1.00  0.00     0.031 C 
ATOM     50  C   UNL A   1      39.732  29.239  28.137  1.00  0.00     0.029 A 
ATOM     51  C   UNL A   1      40.951  28.675  28.683  1.00  0.00     0.049 A 
ATOM     52  H   UNL A   1      42.006  29.421  30.341  1.00  0.00     0.167 HD
ATOM     53  C   UNL A   1      43.242  30.232  34.654  1.00  0.00     0.037 A 
ATOM     54  C   UNL A   1      41.678  27.590  28.299  1.00  0.00     0.037 A 
ATOM     55  C   UNL A   1      44.211  30.876  33.805  1.00  0.00     0.049 A 
ATOM     56  C   UNL A   1      42.975  27.671  29.032  1.00  0.00     0.074 A 
ATOM     57  C   UNL A   1      44.454  32.195  33.473  1.00  0.00     0.029 A 
ATOM     58  N   UNL A   1      44.814  30.117  32.830  1.00  0.00    -0.354 N 
ATOM     59  N   UNL A   1      43.857  28.614  28.822  1.00  0.00    -0.248 NA
ATOM     60  C   UNL A   1      43.055  27.027  30.337  1.00  0.00     0.031 C 
ATOM     61  C   UNL A   1      44.765  32.173  32.085  1.00  0.00     0.029 A 
ATOM     62  C   UNL A   1      44.789  30.841  31.665  1.00  0.00     0.049 A 
ATOM     63  H   UNL A   1      45.194  29.216  32.946  1.00  0.00     0.167 HD
ATOM     64  C   UNL A   1      44.292  28.980  30.090  1.00  0.00     0.074 A 
ATOM     65  C   UNL A   1      43.812  27.922  30.978  1.00  0.00     0.031 C 
ATOM     66  C   UNL A   1      44.730  30.248  30.348  1.00  0.00     0.037 A 
BRANCH  53  67
ATOM     67  C   UNL A   1      43.576  29.057  35.539  1.00  0.00     0.058 A 
ATOM     68  C   UNL A   1      44.356  29.276  36.691  1.00  0.00     0.135 A 
ATOM     69  C   UNL A   1      43.424  27.705  35.152  1.00  0.00     0.135 A 
ATOM     70  F   UNL A   1      44.566  30.521  37.149  1.00  0.00    -0.206 F 
ATOM     71  C   UNL A   1      45.010  28.238  37.355  1.00  0.00     0.059 A 
ATOM     72  C   UNL A   1      44.023  26.652  35.830  1.00  0.00     0.059 A 
ATOM     73  F   UNL A   1      42.768  27.339  34.045  1.00  0.00    -0.206 F 
ATOM     74  C   UNL A   1      44.851  26.931  36.903  1.00  0.00     0.060 A 
BRANCH  74  75
ATOM     75  S   UNL A   1      45.782  25.606  37.688  1.00  0.00     0.124 S 
ATOM     76  O   UNL A   1      44.747  24.954  38.482  1.00  0.00    -0.237 OA
ATOM     77  O   UNL A   1      46.271  24.859  36.533  1.00  0.00    -0.237 OA
ATOM     78  O   UNL A   1      46.806  26.319  38.446  1.00  0.00    -0.744 OA
ENDBRANCH  74  75
ENDBRANCH  53  67
BRANCH  54  79
ATOM     79  C   UNL A   1      41.181  26.334  27.660  1.00  0.00     0.058 A 
ATOM     80  C   UNL A   1      41.911  25.684  26.646  1.00  0.00     0.135 A 
ATOM     81  C   UNL A   1      40.114  25.592  28.210  1.00  0.00     0.135 A 
ATOM     82  F   UNL A   1      42.954  26.297  26.067  1.00  0.00    -0.206 F 
ATOM     83  C   UNL A   1      41.635  24.367  26.245  1.00  0.00     0.059 A 
ATOM     84  C   UNL A   1      39.812  24.289  27.817  1.00  0.00     0.059 A 
ATOM     85  F   UNL A   1      39.377  26.071  29.222  1.00  0.00    -0.206 F 
ATOM     86  C   UNL A   1      40.595  23.669  26.856  1.00  0.00     0.060 A 
BRANCH  86  87
ATOM     87  S   UNL A   1      40.352  21.909  26.502  1.00  0.00     0.124 S 
ATOM     88  O   UNL A   1      40.469  21.314  27.829  1.00  0.00    -0.237 OA
ATOM     89  O   UNL A   1      39.019  21.893  25.910  1.00  0.00    -0.237 OA
ATOM     90  O   UNL A   1      41.442  21.596  25.582  1.00  0.00    -0.744 OA
ENDBRANCH  86  87
ENDBRANCH  54  79
BRANCH  66  91
ATOM     91  C   UNL A   1      44.964  31.178  29.185  1.00  0.00     0.058 A 
ATOM     92  C   UNL A   1      44.000  32.057  28.655  1.00  0.00     0.135 A 
ATOM     93  C   UNL A   1      46.273  31.307  28.701  1.00  0.00     0.135 A 
ATOM     94  F   UNL A   1      42.751  32.080  29.138  1.00  0.00    -0.206 F 
ATOM     95  C   UNL A   1      44.313  32.986  27.661  1.00  0.00     0.059 A 
ATOM     96  C   UNL A   1      46.617  32.247  27.734  1.00  0.00     0.059 A 
ATOM     97  F   UNL A   1      47.256  30.547  29.213  1.00  0.00    -0.206 F 
ATOM     98  C   UNL A   1      45.627  33.073  27.206  1.00  0.00     0.060 A 
BRANCH  98  99
ATOM     99  S   UNL A   1      46.053  34.310  25.963  1.00  0.00     0.124 S 
ATOM    100  O   UNL A   1      45.163  33.957  24.862  1.00  0.00    -0.237 OA
ATOM    101  O   UNL A   1      45.751  35.566  26.644  1.00  0.00    -0.237 OA
ATOM    102  O   UNL A   1      47.474  34.072  25.716  1.00  0.00    -0.744 OA
ENDBRANCH  98  99
ENDBRANCH  66  91
ENDBRANCH  40  41
ENDBRANCH  33  35
ENDBRANCH  32  33
ENDBRANCH  31  32
ENDBRANCH   1  31
TORSDOF 19
ENDMDL
MODEL 3
REMARK VINA RESULT:     -12.3      2.809      8.767
REMARK SMILES NS(=O)(=O)c1ccc(-n2nc(C(F)F)cc2-c2ccc(C(=O)OCCOC(=O)c3ccc(-c4c5nc(c(-c6c(F)cc(S(=O)(=O)[O-])cc6F)c6ccc([nH]6)c(-c6c(F)cc(S(=O)(=O)[O-])cc6F)c6nc(c(-c7c(F)cc(S(=O)(=O)[O-])cc7F)c7ccc4[nH]7)C=C6)C=C5)cc3)cc2)cc1
REMARK SMILES IDX 24 1 23 2 21 3 22 4 20 5 17 6 18 7 96 8 19 9 95 10 16 11
REMARK SMILES IDX 9 12 10 13 11 14 15 15 8 16 5 17 6 18 98 19 7 20 97 21 2 22
REMARK SMILES IDX 3 23 4 24 1 25 12 28 13 29 14 30 25 31 26 32 27 33 28 34
REMARK SMILES IDX 29 35 30 36 94 37 31 38 93 39 32 40 33 41 34 42 87 43 35 44
REMARK SMILES IDX 92 45 86 46 88 47 36 48 91 49 85 50 84 51 37 53 71 54 50 55
REMARK SMILES IDX 70 56 51 57 54 58 69 59 89 60 52 61 53 62 68 64 90 65 55 66
REMARK SMILES IDX 38 67 39 68 48 69 40 70 41 71 47 72 49 73 42 74 43 75 44 76
REMARK SMILES IDX 45 77 46 78 72 79 73 80 82 81 74 82 75 83 81 84 83 85 76 86
REMARK SMILES IDX 77 87 78 88 79 89 80 90 56 91 57 92 66 93 58 94 59 95 65 96
REMARK SMILES IDX 67 97 60 98 61 99 62 100 63 101 64 102
REMARK H PARENT 1 26 1 27 88 52 54 63
REMARK Flexibility Score: inf
ROOT
ATOM      1  C   UNL A   1      40.528  21.924  27.037  1.00  0.00     0.275 C 
ENDROOT
BRANCH   1   2
ATOM      2  O   UNL A   1      39.396  22.055  26.160  1.00  0.00    -0.458 OA
BRANCH   2   3
ATOM      3  C   UNL A   1      38.826  23.288  26.117  1.00  0.00     0.338 C 
ATOM      4  O   UNL A   1      39.392  24.353  26.309  1.00  0.00    -0.246 OA
BRANCH   3   5
ATOM      5  C   UNL A   1      37.401  23.191  25.711  1.00  0.00     0.060 A 
ATOM      6  C   UNL A   1      34.738  23.159  24.826  1.00  0.00     0.000 A 
ATOM      7  C   UNL A   1      35.784  22.891  23.931  1.00  0.00     0.011 A 
ATOM      8  C   UNL A   1      35.034  23.377  26.177  1.00  0.00     0.011 A 
ATOM      9  C   UNL A   1      37.109  22.904  24.371  1.00  0.00     0.016 A 
ATOM     10  C   UNL A   1      36.359  23.385  26.621  1.00  0.00     0.016 A 
BRANCH   6  11
ATOM     11  C   UNL A   1      33.368  23.349  24.347  1.00  0.00     0.075 A 
ATOM     12  N   UNL A   1      32.488  22.364  23.914  1.00  0.00    -0.233 N 
ATOM     13  N   UNL A   1      31.440  22.893  23.225  1.00  0.00    -0.166 NA
ATOM     14  C   UNL A   1      31.548  24.221  23.392  1.00  0.00     0.129 A 
ATOM     15  C   UNL A   1      32.748  24.549  24.057  1.00  0.00     0.060 A 
BRANCH  12  16
ATOM     16  C   UNL A   1      32.600  20.961  24.083  1.00  0.00     0.065 A 
ATOM     17  C   UNL A   1      33.028  18.226  24.316  1.00  0.00     0.082 A 
ATOM     18  C   UNL A   1      33.299  19.059  25.404  1.00  0.00     0.024 A 
ATOM     19  C   UNL A   1      32.506  18.744  23.126  1.00  0.00     0.024 A 
ATOM     20  C   UNL A   1      33.099  20.433  25.283  1.00  0.00     0.030 A 
ATOM     21  C   UNL A   1      32.258  20.114  23.019  1.00  0.00     0.030 A 
BRANCH  17  22
ATOM     22  S   UNL A   1      33.417  16.503  24.419  1.00  0.00     0.238 S 
ATOM     23  O   UNL A   1      34.054  16.099  23.184  1.00  0.00    -0.207 OA
ATOM     24  O   UNL A   1      32.278  15.826  24.978  1.00  0.00    -0.207 OA
BRANCH  22  25
ATOM     25  N   UNL A   1      34.625  16.464  25.588  1.00  0.00    -0.225 NA
ATOM     26  H   UNL A   1      34.243  16.774  26.482  1.00  0.00     0.137 HD
ATOM     27  H   UNL A   1      35.386  17.084  25.311  1.00  0.00     0.137 HD
ENDBRANCH  22  25
ENDBRANCH  17  22
ENDBRANCH  12  16
BRANCH  14  28
ATOM     28  C   UNL A   1      30.530  25.198  22.887  1.00  0.00     0.393 C 
ATOM     29  F   UNL A   1      29.529  25.433  23.779  1.00  0.00    -0.203 F 
ATOM     30  F   UNL A   1      31.092  26.405  22.603  1.00  0.00    -0.203 F 
ENDBRANCH  14  28
ENDBRANCH   6  11
ENDBRANCH   3   5
ENDBRANCH   2   3
ENDBRANCH   1   2
BRANCH   1  31
ATOM     31  C   UNL A   1      41.678  21.204  26.348  1.00  0.00     0.275 C 
BRANCH  31  32
ATOM     32  O   UNL A   1      42.080  21.890  25.166  1.00  0.00    -0.458 OA
BRANCH  32  33
ATOM     33  C   UNL A   1      43.406  22.140  25.087  1.00  0.00     0.338 C 
ATOM     34  O   UNL A   1      44.294  21.359  24.785  1.00  0.00    -0.246 OA
BRANCH  33  35
ATOM     35  C   UNL A   1      43.683  23.437  25.696  1.00  0.00     0.060 A 
ATOM     36  C   UNL A   1      44.392  23.443  26.903  1.00  0.00     0.016 A 
ATOM     37  C   UNL A   1      42.931  24.535  25.258  1.00  0.00     0.016 A 
ATOM     38  C   UNL A   1      44.200  24.496  27.770  1.00  0.00     0.010 A 
ATOM     39  C   UNL A   1      42.713  25.562  26.134  1.00  0.00     0.010 A 
ATOM     40  C   UNL A   1      43.299  25.497  27.401  1.00  0.00    -0.014 A 
BRANCH  40  41
ATOM     41  C   UNL A   1      43.102  26.637  28.272  1.00  0.00     0.031 A 
ATOM     42  C   UNL A   1      44.230  27.604  28.183  1.00  0.00     0.074 A 
ATOM     43  C   UNL A   1      41.901  26.833  28.854  1.00  0.00     0.049 A 
ATOM     44  N   UNL A   1      44.915  28.112  29.150  1.00  0.00    -0.248 NA
ATOM     45  C   UNL A   1      44.789  27.909  26.846  1.00  0.00     0.031 C 
ATOM     46  C   UNL A   1      40.711  25.977  28.758  1.00  0.00     0.029 A 
ATOM     47  N   UNL A   1      41.430  27.919  29.524  1.00  0.00    -0.354 N 
ATOM     48  C   UNL A   1      45.821  28.984  28.551  1.00  0.00     0.074 A 
ATOM     49  C   UNL A   1      45.839  28.668  27.152  1.00  0.00     0.031 C 
ATOM     50  C   UNL A   1      39.620  26.680  29.132  1.00  0.00     0.029 A 
ATOM     51  C   UNL A   1      40.036  27.994  29.579  1.00  0.00     0.049 A 
ATOM     52  H   UNL A   1      42.019  28.591  29.936  1.00  0.00     0.167 HD
ATOM     53  C   UNL A   1      46.268  30.081  29.215  1.00  0.00     0.037 A 
ATOM     54  C   UNL A   1      39.308  29.109  29.860  1.00  0.00     0.037 A 
ATOM     55  C   UNL A   1      46.110  29.918  30.636  1.00  0.00     0.049 A 
ATOM     56  C   UNL A   1      40.231  30.052  30.555  1.00  0.00     0.074 A 
ATOM     57  C   UNL A   1      46.577  28.984  31.542  1.00  0.00     0.029 A 
ATOM     58  N   UNL A   1      45.037  30.532  31.237  1.00  0.00    -0.354 N 
ATOM     59  N   UNL A   1      40.739  29.816  31.737  1.00  0.00    -0.248 NA
ATOM     60  C   UNL A   1      40.989  30.985  29.730  1.00  0.00     0.031 C 
ATOM     61  C   UNL A   1      45.485  28.750  32.425  1.00  0.00     0.029 A 
ATOM     62  C   UNL A   1      44.448  29.617  32.073  1.00  0.00     0.049 A 
ATOM     63  H   UNL A   1      44.743  31.461  31.094  1.00  0.00     0.167 HD
ATOM     64  C   UNL A   1      42.069  30.202  31.635  1.00  0.00     0.074 A 
ATOM     65  C   UNL A   1      42.148  30.976  30.396  1.00  0.00     0.031 C 
ATOM     66  C   UNL A   1      43.038  29.608  32.392  1.00  0.00     0.037 A 
BRANCH  53  67
ATOM     67  C   UNL A   1      46.456  31.426  28.558  1.00  0.00     0.058 A 
ATOM     68  C   UNL A   1      45.320  32.213  28.285  1.00  0.00     0.135 A 
ATOM     69  C   UNL A   1      47.652  31.838  27.923  1.00  0.00     0.135 A 
ATOM     70  F   UNL A   1      44.133  31.914  28.834  1.00  0.00    -0.206 F 
ATOM     71  C   UNL A   1      45.350  33.273  27.377  1.00  0.00     0.059 A 
ATOM     72  C   UNL A   1      47.714  32.921  27.058  1.00  0.00     0.059 A 
ATOM     73  F   UNL A   1      48.799  31.157  28.031  1.00  0.00    -0.206 F 
ATOM     74  C   UNL A   1      46.550  33.605  26.755  1.00  0.00     0.060 A 
BRANCH  74  75
ATOM     75  S   UNL A   1      46.567  34.896  25.502  1.00  0.00     0.124 S 
ATOM     76  O   UNL A   1      45.589  34.388  24.548  1.00  0.00    -0.237 OA
ATOM     77  O   UNL A   1      46.162  36.067  26.274  1.00  0.00    -0.237 OA
ATOM     78  O   UNL A   1      47.953  34.902  25.044  1.00  0.00    -0.744 OA
ENDBRANCH  74  75
ENDBRANCH  53  67
BRANCH  54  79
ATOM     79  C   UNL A   1      38.018  29.541  29.240  1.00  0.00     0.058 A 
ATOM     80  C   UNL A   1      37.889  29.709  27.848  1.00  0.00     0.135 A 
ATOM     81  C   UNL A   1      36.808  29.541  29.966  1.00  0.00     0.135 A 
ATOM     82  F   UNL A   1      38.978  29.708  27.065  1.00  0.00    -0.206 F 
ATOM     83  C   UNL A   1      36.640  29.813  27.214  1.00  0.00     0.059 A 
ATOM     84  C   UNL A   1      35.558  29.659  29.360  1.00  0.00     0.059 A 
ATOM     85  F   UNL A   1      36.786  29.333  31.290  1.00  0.00    -0.206 F 
ATOM     86  C   UNL A   1      35.477  29.763  27.980  1.00  0.00     0.060 A 
BRANCH  86  87
ATOM     87  S   UNL A   1      33.859  29.690  27.170  1.00  0.00     0.124 S 
ATOM     88  O   UNL A   1      33.297  30.996  27.497  1.00  0.00    -0.237 OA
ATOM     89  O   UNL A   1      34.221  29.481  25.773  1.00  0.00    -0.237 OA
ATOM     90  O   UNL A   1      33.208  28.554  27.817  1.00  0.00    -0.744 OA
ENDBRANCH  86  87
ENDBRANCH  54  79
BRANCH  66  91
ATOM     91  C   UNL A   1      42.613  28.695  33.515  1.00  0.00     0.058 A 
ATOM     92  C   UNL A   1      42.586  27.289  33.438  1.00  0.00     0.135 A 
ATOM     93  C   UNL A   1      42.392  29.266  34.776  1.00  0.00     0.135 A 
ATOM     94  F   UNL A   1      42.896  26.657  32.299  1.00  0.00    -0.206 F 
ATOM     95  C   UNL A   1      42.307  26.494  34.551  1.00  0.00     0.059 A 
ATOM     96  C   UNL A   1      42.144  28.492  35.906  1.00  0.00     0.059 A 
ATOM     97  F   UNL A   1      42.473  30.598  34.933  1.00  0.00    -0.206 F 
ATOM     98  C   UNL A   1      42.087  27.106  35.783  1.00  0.00     0.060 A 
BRANCH  98  99
ATOM     99  S   UNL A   1      41.782  26.083  37.238  1.00  0.00     0.124 S 
ATOM    100  O   UNL A   1      41.787  24.737  36.673  1.00  0.00    -0.237 OA
ATOM    101  O   UNL A   1      42.912  26.412  38.103  1.00  0.00    -0.237 OA
ATOM    102  O   UNL A   1      40.485  26.551  37.720  1.00  0.00    -0.744 OA
ENDBRANCH  98  99
ENDBRANCH  66  91
ENDBRANCH  40  41
ENDBRANCH  33  35
ENDBRANCH  32  33
ENDBRANCH  31  32
ENDBRANCH   1  31
TORSDOF 19
ENDMDL
