MODEL 1
REMARK VINA RESULT:     -13.0      0.000      0.000
REMARK SMILES Cc1nn(-c2ccccc2)c(C)c1CNC(=O)[C@@H]1[C@@H](C(=O)OCCOC(=O)c2ccc(-c3c4nc(c(-c5c(F)cc(S(=O)(=O)[O-])cc5F)c5ccc([nH]5)c(-c5c(F)cc(S(=O)(=O)[O-])cc5F)c5nc(c(-c6c(F)cc(S(=O)(=O)[O-])cc6F)c6ccc3[nH]6)C=C5)C=C4)cc2)[C@@H]2C=C[C@H]1C2
REMARK SMILES IDX 23 1 22 2 20 3 21 4 19 5 18 6 97 7 94 8 96 9 98 10 95 11
REMARK SMILES IDX 16 12 15 13 17 15 14 16 13 17 1 18 2 19 3 20 4 21 11 22
REMARK SMILES IDX 12 23 5 24 6 25 10 26 7 27 9 28 8 29 24 30 25 31 26 32 27 33
REMARK SMILES IDX 28 34 29 35 93 36 30 37 92 38 31 39 32 40 33 41 86 42 34 43
REMARK SMILES IDX 91 44 85 45 87 46 35 47 90 48 84 49 83 50 36 52 70 53 49 54
REMARK SMILES IDX 69 55 50 56 53 57 68 58 88 59 51 60 52 61 67 63 89 64 54 65
REMARK SMILES IDX 37 66 38 67 47 68 39 69 40 70 46 71 48 72 41 73 42 74 43 75
REMARK SMILES IDX 44 76 45 77 71 78 72 79 81 80 73 81 74 82 80 83 82 84 75 85
REMARK SMILES IDX 76 86 77 87 78 88 79 89 55 90 56 91 65 92 57 93 58 94 64 95
REMARK SMILES IDX 66 96 59 97 60 98 61 99 62 100 63 101
REMARK H PARENT 15 14 87 51 53 62
REMARK Flexibility Score: inf
ROOT
ATOM      1  C   UNL A   1      31.918  30.387  25.914  1.00  0.00     0.274 C 
ENDROOT
BRANCH   1   2
ATOM      2  O   UNL A   1      32.115  29.178  25.156  1.00  0.00    -0.462 OA
BRANCH   2   3
ATOM      3  C   UNL A   1      31.555  29.141  23.923  1.00  0.00     0.310 C 
ATOM      4  O   UNL A   1      32.185  28.992  22.878  1.00  0.00    -0.252 OA
BRANCH   3   5
ATOM      5  C   UNL A   1      30.050  29.317  23.924  1.00  0.00     0.119 C 
ATOM      6  C   UNL A   1      29.325  28.231  23.104  1.00  0.00     0.100 C 
ATOM      7  C   UNL A   1      28.383  29.050  22.168  1.00  0.00     0.025 C 
ATOM      8  C   UNL A   1      29.539  30.614  23.252  1.00  0.00     0.027 C 
ATOM      9  C   UNL A   1      27.400  29.886  22.944  1.00  0.00    -0.027 C 
ATOM     10  C   UNL A   1      29.323  30.197  21.793  1.00  0.00     0.017 C 
ATOM     11  C   UNL A   1      28.092  30.797  23.638  1.00  0.00    -0.027 C 
BRANCH   6  12
ATOM     12  C   UNL A   1      28.693  27.037  23.807  1.00  0.00     0.224 C 
ATOM     13  N   UNL A   1      29.310  26.097  24.555  1.00  0.00    -0.352 N 
ATOM     14  H   UNL A   1      28.672  25.457  24.948  1.00  0.00     0.163 HD
ATOM     15  O   UNL A   1      27.458  26.922  23.745  1.00  0.00    -0.275 OA
BRANCH  13  16
ATOM     16  C   UNL A   1      30.675  25.798  24.919  1.00  0.00     0.155 C 
BRANCH  16  17
ATOM     17  C   UNL A   1      31.216  24.553  24.291  1.00  0.00     0.016 A 
ATOM     18  C   UNL A   1      31.926  25.629  22.003  1.00  0.00     0.069 C 
ATOM     19  C   UNL A   1      31.827  24.534  23.005  1.00  0.00     0.065 A 
ATOM     20  N   UNL A   1      32.416  23.370  22.748  1.00  0.00    -0.173 NA
ATOM     21  N   UNL A   1      32.174  22.594  23.829  1.00  0.00    -0.237 N 
ATOM     22  C   UNL A   1      31.352  23.243  24.755  1.00  0.00     0.046 A 
ATOM     23  C   UNL A   1      30.957  22.624  26.053  1.00  0.00     0.067 C 
BRANCH  21  24
ATOM     24  C   UNL A   1      32.830  21.336  23.949  1.00  0.00     0.065 A 
ATOM     25  C   UNL A   1      34.075  21.283  24.594  1.00  0.00     0.028 A 
ATOM     26  C   UNL A   1      32.226  20.150  23.517  1.00  0.00     0.028 A 
ATOM     27  C   UNL A   1      34.657  20.046  24.881  1.00  0.00     0.002 A 
ATOM     28  C   UNL A   1      32.819  18.917  23.795  1.00  0.00     0.002 A 
ATOM     29  C   UNL A   1      34.023  18.866  24.494  1.00  0.00     0.000 A 
ENDBRANCH  21  24
ENDBRANCH  16  17
ENDBRANCH  13  16
ENDBRANCH   6  12
ENDBRANCH   3   5
ENDBRANCH   2   3
ENDBRANCH   1   2
BRANCH   1  30
ATOM     30  C   UNL A   1      32.805  30.433  27.158  1.00  0.00     0.275 C 
BRANCH  30  31
ATOM     31  O   UNL A   1      34.199  30.385  26.820  1.00  0.00    -0.458 OA
BRANCH  31  32
ATOM     32  C   UNL A   1      34.919  31.211  27.604  1.00  0.00     0.338 C 
ATOM     33  O   UNL A   1      34.981  32.429  27.522  1.00  0.00    -0.246 OA
BRANCH  32  34
ATOM     34  C   UNL A   1      35.716  30.500  28.603  1.00  0.00     0.060 A 
ATOM     35  C   UNL A   1      36.380  31.275  29.558  1.00  0.00     0.016 A 
ATOM     36  C   UNL A   1      36.246  29.296  28.144  1.00  0.00     0.016 A 
ATOM     37  C   UNL A   1      37.712  31.002  29.817  1.00  0.00     0.010 A 
ATOM     38  C   UNL A   1      37.550  28.981  28.476  1.00  0.00     0.010 A 
ATOM     39  C   UNL A   1      38.317  29.903  29.196  1.00  0.00    -0.014 A 
BRANCH  39  40
ATOM     40  C   UNL A   1      39.758  29.701  29.379  1.00  0.00     0.031 A 
ATOM     41  C   UNL A   1      40.199  29.601  30.800  1.00  0.00     0.074 A 
ATOM     42  C   UNL A   1      40.579  29.429  28.339  1.00  0.00     0.049 A 
ATOM     43  N   UNL A   1      41.194  30.176  31.396  1.00  0.00    -0.248 NA
ATOM     44  C   UNL A   1      39.334  28.818  31.704  1.00  0.00     0.031 C 
ATOM     45  C   UNL A   1      40.203  29.266  26.928  1.00  0.00     0.029 A 
ATOM     46  N   UNL A   1      41.894  29.068  28.341  1.00  0.00    -0.354 N 
ATOM     47  C   UNL A   1      41.199  29.665  32.694  1.00  0.00     0.074 A 
ATOM     48  C   UNL A   1      39.950  28.974  32.872  1.00  0.00     0.031 C 
ATOM     49  C   UNL A   1      41.168  28.570  26.291  1.00  0.00     0.029 A 
ATOM     50  C   UNL A   1      42.271  28.350  27.210  1.00  0.00     0.049 A 
ATOM     51  H   UNL A   1      42.516  29.293  29.071  1.00  0.00     0.167 HD
ATOM     52  C   UNL A   1      42.318  29.630  33.465  1.00  0.00     0.037 A 
ATOM     53  C   UNL A   1      43.350  27.537  27.078  1.00  0.00     0.037 A 
ATOM     54  C   UNL A   1      43.293  30.599  33.051  1.00  0.00     0.049 A 
ATOM     55  C   UNL A   1      44.308  27.883  28.158  1.00  0.00     0.074 A 
ATOM     56  C   UNL A   1      43.291  31.974  32.910  1.00  0.00     0.029 A 
ATOM     57  N   UNL A   1      44.416  30.164  32.391  1.00  0.00    -0.354 N 
ATOM     58  N   UNL A   1      44.965  29.008  28.231  1.00  0.00    -0.248 NA
ATOM     59  C   UNL A   1      44.233  27.124  29.398  1.00  0.00     0.031 C 
ATOM     60  C   UNL A   1      44.120  32.237  31.783  1.00  0.00     0.029 A 
ATOM     61  C   UNL A   1      44.606  31.011  31.328  1.00  0.00     0.049 A 
ATOM     62  H   UNL A   1      44.977  29.393  32.634  1.00  0.00     0.167 HD
ATOM     63  C   UNL A   1      45.018  29.299  29.585  1.00  0.00     0.074 A 
ATOM     64  C   UNL A   1      44.648  28.057  30.257  1.00  0.00     0.031 C 
ATOM     65  C   UNL A   1      45.085  30.587  30.032  1.00  0.00     0.037 A 
BRANCH  52  66
ATOM     66  C   UNL A   1      42.639  28.470  34.379  1.00  0.00     0.058 A 
ATOM     67  C   UNL A   1      42.862  28.692  35.751  1.00  0.00     0.135 A 
ATOM     68  C   UNL A   1      43.002  27.187  33.902  1.00  0.00     0.135 A 
ATOM     69  F   UNL A   1      42.577  29.881  36.305  1.00  0.00    -0.206 F 
ATOM     70  C   UNL A   1      43.453  27.731  36.574  1.00  0.00     0.059 A 
ATOM     71  C   UNL A   1      43.534  26.198  34.715  1.00  0.00     0.059 A 
ATOM     72  F   UNL A   1      42.951  26.867  32.602  1.00  0.00    -0.206 F 
ATOM     73  C   UNL A   1      43.800  26.493  36.041  1.00  0.00     0.060 A 
BRANCH  73  74
ATOM     74  S   UNL A   1      44.676  25.294  37.060  1.00  0.00     0.124 S 
ATOM     75  O   UNL A   1      44.513  24.076  36.274  1.00  0.00    -0.237 OA
ATOM     76  O   UNL A   1      46.022  25.856  37.104  1.00  0.00    -0.237 OA
ATOM     77  O   UNL A   1      43.946  25.334  38.325  1.00  0.00    -0.744 OA
ENDBRANCH  73  74
ENDBRANCH  52  66
BRANCH  53  78
ATOM     78  C   UNL A   1      43.449  26.268  26.302  1.00  0.00     0.058 A 
ATOM     79  C   UNL A   1      44.526  26.031  25.429  1.00  0.00     0.135 A 
ATOM     80  C   UNL A   1      42.636  25.153  26.595  1.00  0.00     0.135 A 
ATOM     81  F   UNL A   1      45.371  27.025  25.115  1.00  0.00    -0.206 F 
ATOM     82  C   UNL A   1      44.803  24.761  24.909  1.00  0.00     0.059 A 
ATOM     83  C   UNL A   1      42.881  23.883  26.074  1.00  0.00     0.059 A 
ATOM     84  F   UNL A   1      41.628  25.237  27.474  1.00  0.00    -0.206 F 
ATOM     85  C   UNL A   1      43.981  23.688  25.252  1.00  0.00     0.060 A 
BRANCH  85  86
ATOM     86  S   UNL A   1      44.428  22.017  24.727  1.00  0.00     0.124 S 
ATOM     87  O   UNL A   1      44.484  22.161  23.276  1.00  0.00    -0.237 OA
ATOM     88  O   UNL A   1      45.709  21.813  25.397  1.00  0.00    -0.237 OA
ATOM     89  O   UNL A   1      43.328  21.198  25.230  1.00  0.00    -0.744 OA
ENDBRANCH  85  86
ENDBRANCH  53  78
BRANCH  65  90
ATOM     90  C   UNL A   1      45.416  31.674  29.042  1.00  0.00     0.058 A 
ATOM     91  C   UNL A   1      46.723  32.022  28.659  1.00  0.00     0.135 A 
ATOM     92  C   UNL A   1      44.362  32.277  28.339  1.00  0.00     0.135 A 
ATOM     93  F   UNL A   1      47.787  31.415  29.205  1.00  0.00    -0.206 F 
ATOM     94  C   UNL A   1      46.971  32.955  27.652  1.00  0.00     0.059 A 
ATOM     95  C   UNL A   1      44.585  33.187  27.308  1.00  0.00     0.059 A 
ATOM     96  F   UNL A   1      43.091  31.940  28.613  1.00  0.00    -0.206 F 
ATOM     97  C   UNL A   1      45.895  33.530  26.978  1.00  0.00     0.060 A 
BRANCH  97  98
ATOM     98  S   UNL A   1      46.218  34.666  25.611  1.00  0.00     0.124 S 
ATOM     99  O   UNL A   1      45.279  34.201  24.595  1.00  0.00    -0.237 OA
ATOM    100  O   UNL A   1      45.921  35.969  26.201  1.00  0.00    -0.237 OA
ATOM    101  O   UNL A   1      47.630  34.441  25.306  1.00  0.00    -0.744 OA
ENDBRANCH  97  98
ENDBRANCH  65  90
ENDBRANCH  39  40
ENDBRANCH  32  34
ENDBRANCH  31  32
ENDBRANCH  30  31
ENDBRANCH   1  30
TORSDOF 18
ENDMDL
MODEL 2
REMARK VINA RESULT:     -12.9      3.088      7.675
REMARK SMILES Cc1nn(-c2ccccc2)c(C)c1CNC(=O)[C@@H]1[C@@H](C(=O)OCCOC(=O)c2ccc(-c3c4nc(c(-c5c(F)cc(S(=O)(=O)[O-])cc5F)c5ccc([nH]5)c(-c5c(F)cc(S(=O)(=O)[O-])cc5F)c5nc(c(-c6c(F)cc(S(=O)(=O)[O-])cc6F)c6ccc3[nH]6)C=C5)C=C4)cc2)[C@@H]2C=C[C@H]1C2
REMARK SMILES IDX 23 1 22 2 20 3 21 4 19 5 18 6 97 7 94 8 96 9 98 10 95 11
REMARK SMILES IDX 16 12 15 13 17 15 14 16 13 17 1 18 2 19 3 20 4 21 11 22
REMARK SMILES IDX 12 23 5 24 6 25 10 26 7 27 9 28 8 29 24 30 25 31 26 32 27 33
REMARK SMILES IDX 28 34 29 35 93 36 30 37 92 38 31 39 32 40 33 41 86 42 34 43
REMARK SMILES IDX 91 44 85 45 87 46 35 47 90 48 84 49 83 50 36 52 70 53 49 54
REMARK SMILES IDX 69 55 50 56 53 57 68 58 88 59 51 60 52 61 67 63 89 64 54 65
REMARK SMILES IDX 37 66 38 67 47 68 39 69 40 70 46 71 48 72 41 73 42 74 43 75
REMARK SMILES IDX 44 76 45 77 71 78 72 79 81 80 73 81 74 82 80 83 82 84 75 85
REMARK SMILES IDX 76 86 77 87 78 88 79 89 55 90 56 91 65 92 57 93 58 94 64 95
REMARK SMILES IDX 66 96 59 97 60 98 61 99 62 100 63 101
REMARK H PARENT 15 14 87 51 53 62
REMARK Flexibility Score: inf
ROOT
ATOM      1  C   UNL A   1      32.079  29.628  26.467  1.00  0.00     0.274 C 
ENDROOT
BRANCH   1   2
ATOM      2  O   UNL A   1      33.158  29.305  25.568  1.00  0.00    -0.462 OA
BRANCH   2   3
ATOM      3  C   UNL A   1      32.901  28.362  24.631  1.00  0.00     0.310 C 
ATOM      4  O   UNL A   1      33.743  27.891  23.869  1.00  0.00    -0.252 OA
BRANCH   3   5
ATOM      5  C   UNL A   1      31.450  27.927  24.576  1.00  0.00     0.119 C 
ATOM      6  C   UNL A   1      31.280  26.406  24.761  1.00  0.00     0.100 C 
ATOM      7  C   UNL A   1      30.372  25.993  23.561  1.00  0.00     0.025 C 
ATOM      8  C   UNL A   1      30.743  28.162  23.220  1.00  0.00     0.027 C 
ATOM      9  C   UNL A   1      29.039  26.693  23.591  1.00  0.00    -0.027 C 
ATOM     10  C   UNL A   1      30.991  26.855  22.459  1.00  0.00     0.017 C 
ATOM     11  C   UNL A   1      29.259  28.004  23.438  1.00  0.00    -0.027 C 
BRANCH   6  12
ATOM     12  C   UNL A   1      30.887  25.840  26.119  1.00  0.00     0.224 C 
ATOM     13  N   UNL A   1      30.736  24.542  26.461  1.00  0.00    -0.352 N 
ATOM     14  H   UNL A   1      30.530  24.432  27.418  1.00  0.00     0.163 HD
ATOM     15  O   UNL A   1      30.732  26.643  27.053  1.00  0.00    -0.275 OA
BRANCH  13  16
ATOM     16  C   UNL A   1      30.803  23.276  25.768  1.00  0.00     0.155 C 
BRANCH  16  17
ATOM     17  C   UNL A   1      32.190  22.845  25.416  1.00  0.00     0.016 A 
ATOM     18  C   UNL A   1      31.873  22.839  22.809  1.00  0.00     0.069 C 
ATOM     19  C   UNL A   1      32.648  22.723  24.073  1.00  0.00     0.065 A 
ATOM     20  N   UNL A   1      33.963  22.534  24.009  1.00  0.00    -0.173 NA
ATOM     21  N   UNL A   1      34.387  22.487  25.292  1.00  0.00    -0.237 N 
ATOM     22  C   UNL A   1      33.319  22.569  26.190  1.00  0.00     0.046 A 
ATOM     23  C   UNL A   1      33.511  22.574  27.669  1.00  0.00     0.067 C 
BRANCH  21  24
ATOM     24  C   UNL A   1      35.784  22.478  25.568  1.00  0.00     0.065 A 
ATOM     25  C   UNL A   1      36.510  21.300  25.337  1.00  0.00     0.028 A 
ATOM     26  C   UNL A   1      36.457  23.634  25.982  1.00  0.00     0.028 A 
ATOM     27  C   UNL A   1      37.904  21.313  25.431  1.00  0.00     0.002 A 
ATOM     28  C   UNL A   1      37.849  23.636  26.087  1.00  0.00     0.002 A 
ATOM     29  C   UNL A   1      38.572  22.483  25.793  1.00  0.00     0.000 A 
ENDBRANCH  21  24
ENDBRANCH  16  17
ENDBRANCH  13  16
ENDBRANCH   6  12
ENDBRANCH   3   5
ENDBRANCH   2   3
ENDBRANCH   1   2
BRANCH   1  30
ATOM     30  C   UNL A   1      31.935  31.137  26.667  1.00  0.00     0.275 C 
BRANCH  30  31
ATOM     31  O   UNL A   1      33.073  31.696  27.338  1.00  0.00    -0.458 OA
BRANCH  31  32
ATOM     32  C   UNL A   1      32.862  32.987  27.662  1.00  0.00     0.338 C 
ATOM     33  O   UNL A   1      31.908  33.677  27.335  1.00  0.00    -0.246 OA
BRANCH  32  34
ATOM     34  C   UNL A   1      33.952  33.565  28.447  1.00  0.00     0.060 A 
ATOM     35  C   UNL A   1      35.062  34.039  27.744  1.00  0.00     0.016 A 
ATOM     36  C   UNL A   1      34.076  33.018  29.723  1.00  0.00     0.016 A 
ATOM     37  C   UNL A   1      36.324  33.680  28.185  1.00  0.00     0.010 A 
ATOM     38  C   UNL A   1      35.341  32.740  30.200  1.00  0.00     0.010 A 
ATOM     39  C   UNL A   1      36.450  32.947  29.370  1.00  0.00    -0.014 A 
BRANCH  39  40
ATOM     40  C   UNL A   1      37.778  32.464  29.759  1.00  0.00     0.031 A 
ATOM     41  C   UNL A   1      38.025  31.020  29.476  1.00  0.00     0.074 A 
ATOM     42  C   UNL A   1      38.758  33.308  30.154  1.00  0.00     0.049 A 
ATOM     43  N   UNL A   1      38.545  30.110  30.235  1.00  0.00    -0.248 NA
ATOM     44  C   UNL A   1      37.520  30.506  28.188  1.00  0.00     0.031 C 
ATOM     45  C   UNL A   1      38.691  34.773  30.235  1.00  0.00     0.029 A 
ATOM     46  N   UNL A   1      40.076  33.055  30.401  1.00  0.00    -0.354 N 
ATOM     47  C   UNL A   1      38.620  28.962  29.445  1.00  0.00     0.074 A 
ATOM     48  C   UNL A   1      37.832  29.216  28.269  1.00  0.00     0.031 C 
ATOM     49  C   UNL A   1      39.944  35.274  30.216  1.00  0.00     0.029 A 
ATOM     50  C   UNL A   1      40.890  34.174  30.246  1.00  0.00     0.049 A 
ATOM     51  H   UNL A   1      40.417  32.169  30.663  1.00  0.00     0.167 HD
ATOM     52  C   UNL A   1      39.513  27.964  29.683  1.00  0.00     0.037 A 
ATOM     53  C   UNL A   1      42.232  34.187  30.039  1.00  0.00     0.037 A 
ATOM     54  C   UNL A   1      39.962  27.951  31.047  1.00  0.00     0.049 A 
ATOM     55  C   UNL A   1      42.764  32.865  30.453  1.00  0.00     0.074 A 
ATOM     56  C   UNL A   1      39.331  27.838  32.271  1.00  0.00     0.029 A 
ATOM     57  N   UNL A   1      41.233  28.390  31.327  1.00  0.00    -0.354 N 
ATOM     58  N   UNL A   1      42.799  32.435  31.685  1.00  0.00    -0.248 NA
ATOM     59  C   UNL A   1      42.894  31.836  29.432  1.00  0.00     0.031 C 
ATOM     60  C   UNL A   1      40.079  28.667  33.155  1.00  0.00     0.029 A 
ATOM     61  C   UNL A   1      41.138  29.206  32.426  1.00  0.00     0.049 A 
ATOM     62  H   UNL A   1      42.053  28.162  30.833  1.00  0.00     0.167 HD
ATOM     63  C   UNL A   1      42.531  31.077  31.593  1.00  0.00     0.074 A 
ATOM     64  C   UNL A   1      42.704  30.749  30.182  1.00  0.00     0.031 C 
ATOM     65  C   UNL A   1      41.926  30.403  32.614  1.00  0.00     0.037 A 
BRANCH  52  66
ATOM     66  C   UNL A   1      40.220  27.225  28.571  1.00  0.00     0.058 A 
ATOM     67  C   UNL A   1      40.026  25.840  28.408  1.00  0.00     0.135 A 
ATOM     68  C   UNL A   1      41.289  27.782  27.830  1.00  0.00     0.135 A 
ATOM     69  F   UNL A   1      39.054  25.203  29.082  1.00  0.00    -0.206 F 
ATOM     70  C   UNL A   1      40.867  25.058  27.614  1.00  0.00     0.059 A 
ATOM     71  C   UNL A   1      42.100  27.034  26.988  1.00  0.00     0.059 A 
ATOM     72  F   UNL A   1      41.664  29.060  27.966  1.00  0.00    -0.206 F 
ATOM     73  C   UNL A   1      41.911  25.664  26.921  1.00  0.00     0.060 A 
BRANCH  73  74
ATOM     74  S   UNL A   1      43.077  24.651  25.995  1.00  0.00     0.124 S 
ATOM     75  O   UNL A   1      42.306  23.428  25.805  1.00  0.00    -0.237 OA
ATOM     76  O   UNL A   1      43.303  25.459  24.802  1.00  0.00    -0.237 OA
ATOM     77  O   UNL A   1      44.220  24.546  26.899  1.00  0.00    -0.744 OA
ENDBRANCH  73  74
ENDBRANCH  52  66
BRANCH  53  78
ATOM     78  C   UNL A   1      43.017  35.132  29.195  1.00  0.00     0.058 A 
ATOM     79  C   UNL A   1      42.494  35.641  27.993  1.00  0.00     0.135 A 
ATOM     80  C   UNL A   1      44.184  35.763  29.675  1.00  0.00     0.135 A 
ATOM     81  F   UNL A   1      41.370  35.123  27.474  1.00  0.00    -0.206 F 
ATOM     82  C   UNL A   1      43.068  36.731  27.328  1.00  0.00     0.059 A 
ATOM     83  C   UNL A   1      44.785  36.837  29.020  1.00  0.00     0.059 A 
ATOM     84  F   UNL A   1      44.730  35.418  30.850  1.00  0.00    -0.206 F 
ATOM     85  C   UNL A   1      44.207  37.333  27.861  1.00  0.00     0.060 A 
BRANCH  85  86
ATOM     86  S   UNL A   1      44.855  38.844  27.107  1.00  0.00     0.124 S 
ATOM     87  O   UNL A   1      45.273  39.610  28.276  1.00  0.00    -0.237 OA
ATOM     88  O   UNL A   1      45.930  38.332  26.262  1.00  0.00    -0.237 OA
ATOM     89  O   UNL A   1      43.704  39.383  26.387  1.00  0.00    -0.744 OA
ENDBRANCH  85  86
ENDBRANCH  53  78
BRANCH  65  90
ATOM     90  C   UNL A   1      41.831  31.072  33.961  1.00  0.00     0.058 A 
ATOM     91  C   UNL A   1      40.757  31.886  34.364  1.00  0.00     0.135 A 
ATOM     92  C   UNL A   1      42.788  30.747  34.934  1.00  0.00     0.135 A 
ATOM     93  F   UNL A   1      39.745  32.157  33.529  1.00  0.00    -0.206 F 
ATOM     94  C   UNL A   1      40.661  32.386  35.664  1.00  0.00     0.059 A 
ATOM     95  C   UNL A   1      42.695  31.208  36.246  1.00  0.00     0.059 A 
ATOM     96  F   UNL A   1      43.804  29.923  34.630  1.00  0.00    -0.206 F 
ATOM     97  C   UNL A   1      41.633  32.038  36.600  1.00  0.00     0.060 A 
BRANCH  97  98
ATOM     98  S   UNL A   1      41.456  32.607  38.305  1.00  0.00     0.124 S 
ATOM     99  O   UNL A   1      42.297  31.664  39.034  1.00  0.00    -0.237 OA
ATOM    100  O   UNL A   1      41.953  33.979  38.237  1.00  0.00    -0.237 OA
ATOM    101  O   UNL A   1      40.021  32.490  38.558  1.00  0.00    -0.744 OA
ENDBRANCH  97  98
ENDBRANCH  65  90
ENDBRANCH  39  40
ENDBRANCH  32  34
ENDBRANCH  31  32
ENDBRANCH  30  31
ENDBRANCH   1  30
TORSDOF 18
ENDMDL
MODEL 3
REMARK VINA RESULT:     -12.7      2.567      9.367
REMARK SMILES Cc1nn(-c2ccccc2)c(C)c1CNC(=O)[C@@H]1[C@@H](C(=O)OCCOC(=O)c2ccc(-c3c4nc(c(-c5c(F)cc(S(=O)(=O)[O-])cc5F)c5ccc([nH]5)c(-c5c(F)cc(S(=O)(=O)[O-])cc5F)c5nc(c(-c6c(F)cc(S(=O)(=O)[O-])cc6F)c6ccc3[nH]6)C=C5)C=C4)cc2)[C@@H]2C=C[C@H]1C2
REMARK SMILES IDX 23 1 22 2 20 3 21 4 19 5 18 6 97 7 94 8 96 9 98 10 95 11
REMARK SMILES IDX 16 12 15 13 17 15 14 16 13 17 1 18 2 19 3 20 4 21 11 22
REMARK SMILES IDX 12 23 5 24 6 25 10 26 7 27 9 28 8 29 24 30 25 31 26 32 27 33
REMARK SMILES IDX 28 34 29 35 93 36 30 37 92 38 31 39 32 40 33 41 86 42 34 43
REMARK SMILES IDX 91 44 85 45 87 46 35 47 90 48 84 49 83 50 36 52 70 53 49 54
REMARK SMILES IDX 69 55 50 56 53 57 68 58 88 59 51 60 52 61 67 63 89 64 54 65
REMARK SMILES IDX 37 66 38 67 47 68 39 69 40 70 46 71 48 72 41 73 42 74 43 75
REMARK SMILES IDX 44 76 45 77 71 78 72 79 81 80 73 81 74 82 80 83 82 84 75 85
REMARK SMILES IDX 76 86 77 87 78 88 79 89 55 90 56 91 65 92 57 93 58 94 64 95
REMARK SMILES IDX 66 96 59 97 60 98 61 99 62 100 63 101
REMARK H PARENT 15 14 87 51 53 62
REMARK Flexibility Score: inf
ROOT
ATOM      1  C   UNL A   1      38.431  21.792  25.489  1.00  0.00     0.274 C 
ENDROOT
BRANCH   1   2
ATOM      2  O   UNL A   1      37.104  21.235  25.403  1.00  0.00    -0.462 OA
BRANCH   2   3
ATOM      3  C   UNL A   1      36.075  22.106  25.531  1.00  0.00     0.310 C 
ATOM      4  O   UNL A   1      36.055  23.046  26.323  1.00  0.00    -0.252 OA
BRANCH   3   5
ATOM      5  C   UNL A   1      34.907  21.820  24.610  1.00  0.00     0.119 C 
ATOM      6  C   UNL A   1      33.934  23.012  24.499  1.00  0.00     0.100 C 
ATOM      7  C   UNL A   1      32.539  22.369  24.773  1.00  0.00     0.025 C 
ATOM      8  C   UNL A   1      33.964  20.685  25.075  1.00  0.00     0.027 C 
ATOM      9  C   UNL A   1      32.200  21.300  23.767  1.00  0.00    -0.027 C 
ATOM     10  C   UNL A   1      32.910  21.418  25.912  1.00  0.00     0.017 C 
ATOM     11  C   UNL A   1      33.084  20.306  23.909  1.00  0.00    -0.027 C 
BRANCH   6  12
ATOM     12  C   UNL A   1      34.011  23.953  23.304  1.00  0.00     0.224 C 
ATOM     13  N   UNL A   1      33.698  25.266  23.266  1.00  0.00    -0.352 N 
ATOM     14  H   UNL A   1      33.886  25.667  22.386  1.00  0.00     0.163 HD
ATOM     15  O   UNL A   1      34.461  23.496  22.241  1.00  0.00    -0.275 OA
BRANCH  13  16
ATOM     16  C   UNL A   1      33.155  26.227  24.198  1.00  0.00     0.155 C 
BRANCH  16  17
ATOM     17  C   UNL A   1      31.918  26.914  23.715  1.00  0.00     0.016 A 
ATOM     18  C   UNL A   1      30.205  25.090  24.513  1.00  0.00     0.069 C 
ATOM     19  C   UNL A   1      30.608  26.399  23.933  1.00  0.00     0.065 A 
ATOM     20  N   UNL A   1      29.664  27.276  23.605  1.00  0.00    -0.173 NA
ATOM     21  N   UNL A   1      30.323  28.358  23.132  1.00  0.00    -0.237 N 
ATOM     22  C   UNL A   1      31.702  28.140  23.083  1.00  0.00     0.046 A 
ATOM     23  C   UNL A   1      32.666  29.184  22.630  1.00  0.00     0.067 C 
BRANCH  21  24
ATOM     24  C   UNL A   1      29.601  29.556  22.863  1.00  0.00     0.065 A 
ATOM     25  C   UNL A   1      29.473  30.510  23.885  1.00  0.00     0.028 A 
ATOM     26  C   UNL A   1      29.093  29.837  21.590  1.00  0.00     0.028 A 
ATOM     27  C   UNL A   1      28.926  31.763  23.600  1.00  0.00     0.002 A 
ATOM     28  C   UNL A   1      28.535  31.086  21.315  1.00  0.00     0.002 A 
ATOM     29  C   UNL A   1      28.471  32.054  22.314  1.00  0.00     0.000 A 
ENDBRANCH  21  24
ENDBRANCH  16  17
ENDBRANCH  13  16
ENDBRANCH   6  12
ENDBRANCH   3   5
ENDBRANCH   2   3
ENDBRANCH   1   2
BRANCH   1  30
ATOM     30  C   UNL A   1      39.475  20.728  25.829  1.00  0.00     0.275 C 
BRANCH  30  31
ATOM     31  O   UNL A   1      40.530  21.258  26.645  1.00  0.00    -0.458 OA
BRANCH  31  32
ATOM     32  C   UNL A   1      41.736  21.041  26.086  1.00  0.00     0.338 C 
ATOM     33  O   UNL A   1      42.164  19.979  25.658  1.00  0.00    -0.246 OA
BRANCH  32  34
ATOM     34  C   UNL A   1      42.579  22.236  26.064  1.00  0.00     0.060 A 
ATOM     35  C   UNL A   1      43.539  22.355  27.072  1.00  0.00     0.016 A 
ATOM     36  C   UNL A   1      41.955  23.353  25.515  1.00  0.00     0.016 A 
ATOM     37  C   UNL A   1      43.644  23.561  27.743  1.00  0.00     0.010 A 
ATOM     38  C   UNL A   1      42.130  24.576  26.134  1.00  0.00     0.010 A 
ATOM     39  C   UNL A   1      42.863  24.645  27.324  1.00  0.00    -0.014 A 
BRANCH  39  40
ATOM     40  C   UNL A   1      42.888  25.876  28.120  1.00  0.00     0.031 A 
ATOM     41  C   UNL A   1      44.057  26.765  27.857  1.00  0.00     0.074 A 
ATOM     42  C   UNL A   1      41.835  26.259  28.877  1.00  0.00     0.049 A 
ATOM     43  N   UNL A   1      44.839  27.365  28.696  1.00  0.00    -0.248 NA
ATOM     44  C   UNL A   1      44.463  26.919  26.447  1.00  0.00     0.031 C 
ATOM     45  C   UNL A   1      40.542  25.576  29.013  1.00  0.00     0.029 A 
ATOM     46  N   UNL A   1      41.627  27.428  29.549  1.00  0.00    -0.354 N 
ATOM     47  C   UNL A   1      45.704  28.134  27.916  1.00  0.00     0.074 A 
ATOM     48  C   UNL A   1      45.537  27.694  26.557  1.00  0.00     0.031 C 
ATOM     49  C   UNL A   1      39.621  26.456  29.457  1.00  0.00     0.029 A 
ATOM     50  C   UNL A   1      40.280  27.717  29.750  1.00  0.00     0.049 A 
ATOM     51  H   UNL A   1      42.357  28.010  29.861  1.00  0.00     0.167 HD
ATOM     52  C   UNL A   1      46.329  29.244  28.390  1.00  0.00     0.037 A 
ATOM     53  C   UNL A   1      39.735  28.930  30.020  1.00  0.00     0.037 A 
ATOM     54  C   UNL A   1      46.437  29.237  29.822  1.00  0.00     0.049 A 
ATOM     55  C   UNL A   1      40.821  29.811  30.516  1.00  0.00     0.074 A 
ATOM     56  C   UNL A   1      47.006  28.380  30.744  1.00  0.00     0.029 A 
ATOM     57  N   UNL A   1      45.624  30.072  30.549  1.00  0.00    -0.354 N 
ATOM     58  N   UNL A   1      41.435  29.656  31.657  1.00  0.00    -0.248 NA
ATOM     59  C   UNL A   1      41.514  30.645  29.546  1.00  0.00     0.031 C 
ATOM     60  C   UNL A   1      46.146  28.425  31.878  1.00  0.00     0.029 A 
ATOM     61  C   UNL A   1      45.126  29.332  31.592  1.00  0.00     0.049 A 
ATOM     62  H   UNL A   1      45.434  31.018  30.357  1.00  0.00     0.167 HD
ATOM     63  C   UNL A   1      42.751  30.010  31.401  1.00  0.00     0.074 A 
ATOM     64  C   UNL A   1      42.716  30.708  30.120  1.00  0.00     0.031 C 
ATOM     65  C   UNL A   1      43.783  29.465  32.109  1.00  0.00     0.037 A 
BRANCH  52  66
ATOM     66  C   UNL A   1      46.529  30.485  27.551  1.00  0.00     0.058 A 
ATOM     67  C   UNL A   1      47.812  31.049  27.417  1.00  0.00     0.135 A 
ATOM     68  C   UNL A   1      45.458  31.291  27.095  1.00  0.00     0.135 A 
ATOM     69  F   UNL A   1      48.898  30.381  27.839  1.00  0.00    -0.206 F 
ATOM     70  C   UNL A   1      48.010  32.339  26.922  1.00  0.00     0.059 A 
ATOM     71  C   UNL A   1      45.638  32.551  26.544  1.00  0.00     0.059 A 
ATOM     72  F   UNL A   1      44.177  30.936  27.257  1.00  0.00    -0.206 F 
ATOM     73  C   UNL A   1      46.914  33.087  26.503  1.00  0.00     0.060 A 
BRANCH  73  74
ATOM     74  S   UNL A   1      47.143  34.795  25.981  1.00  0.00     0.124 S 
ATOM     75  O   UNL A   1      48.166  34.645  24.952  1.00  0.00    -0.237 OA
ATOM     76  O   UNL A   1      45.809  35.153  25.513  1.00  0.00    -0.237 OA
ATOM     77  O   UNL A   1      47.571  35.465  27.206  1.00  0.00    -0.744 OA
ENDBRANCH  73  74
ENDBRANCH  52  66
BRANCH  53  78
ATOM     78  C   UNL A   1      38.424  29.467  29.555  1.00  0.00     0.058 A 
ATOM     79  C   UNL A   1      37.498  30.013  30.462  1.00  0.00     0.135 A 
ATOM     80  C   UNL A   1      38.159  29.698  28.188  1.00  0.00     0.135 A 
ATOM     81  F   UNL A   1      37.683  29.869  31.783  1.00  0.00    -0.206 F 
ATOM     82  C   UNL A   1      36.400  30.774  30.043  1.00  0.00     0.059 A 
ATOM     83  C   UNL A   1      37.061  30.436  27.747  1.00  0.00     0.059 A 
ATOM     84  F   UNL A   1      39.011  29.294  27.235  1.00  0.00    -0.206 F 
ATOM     85  C   UNL A   1      36.200  30.993  28.680  1.00  0.00     0.060 A 
BRANCH  85  86
ATOM     86  S   UNL A   1      34.888  32.113  28.139  1.00  0.00     0.124 S 
ATOM     87  O   UNL A   1      35.646  33.170  27.477  1.00  0.00    -0.237 OA
ATOM     88  O   UNL A   1      34.091  31.258  27.266  1.00  0.00    -0.237 OA
ATOM     89  O   UNL A   1      34.237  32.502  29.388  1.00  0.00    -0.744 OA
ENDBRANCH  85  86
ENDBRANCH  53  78
BRANCH  65  90
ATOM     90  C   UNL A   1      43.467  28.713  33.376  1.00  0.00     0.058 A 
ATOM     91  C   UNL A   1      43.262  29.324  34.626  1.00  0.00     0.135 A 
ATOM     92  C   UNL A   1      43.206  27.338  33.287  1.00  0.00     0.135 A 
ATOM     93  F   UNL A   1      43.386  30.651  34.774  1.00  0.00    -0.206 F 
ATOM     94  C   UNL A   1      42.856  28.595  35.744  1.00  0.00     0.059 A 
ATOM     95  C   UNL A   1      42.768  26.595  34.382  1.00  0.00     0.059 A 
ATOM     96  F   UNL A   1      43.320  26.706  32.107  1.00  0.00    -0.206 F 
ATOM     97  C   UNL A   1      42.607  27.230  35.612  1.00  0.00     0.060 A 
BRANCH  97  98
ATOM     98  S   UNL A   1      41.990  26.306  37.036  1.00  0.00     0.124 S 
ATOM     99  O   UNL A   1      40.724  26.976  37.313  1.00  0.00    -0.237 OA
ATOM    100  O   UNL A   1      41.887  24.945  36.514  1.00  0.00    -0.237 OA
ATOM    101  O   UNL A   1      43.031  26.496  38.044  1.00  0.00    -0.744 OA
ENDBRANCH  97  98
ENDBRANCH  65  90
ENDBRANCH  39  40
ENDBRANCH  32  34
ENDBRANCH  31  32
ENDBRANCH  30  31
ENDBRANCH   1  30
TORSDOF 18
ENDMDL
