MODEL 1
REMARK VINA RESULT:     -10.3      0.000      0.000
REMARK SMILES CC[N@@H+]1CC[C@H](C[NH2+]Cc2cc(C(=O)OCCOC(=O)c3ccc(-c4c5nc(c(-c6c(F)cc(S(=O)(=O)[O-])cc6F)c6ccc([nH]6)c(-c6c(F)cc(S(=O)(=O)[O-])cc6F)c6nc(c(-c7c(F)cc(S(=O)(=O)[O-])cc7F)c7ccc4[nH]7)C=C6)C=C5)cc3)cs2)C1
REMARK SMILES IDX 16 1 15 2 13 3 14 4 12 5 10 6 11 7 88 8 87 9 9 10 8 11 7 14
REMARK SMILES IDX 6 15 3 16 4 17 89 18 5 20 2 21 1 22 17 23 18 24 19 25 20 26
REMARK SMILES IDX 21 27 22 28 86 29 23 30 85 31 24 32 25 33 26 34 79 35 27 36
REMARK SMILES IDX 84 37 78 38 80 39 28 40 83 41 77 42 76 43 29 45 63 46 42 47
REMARK SMILES IDX 62 48 43 49 46 50 61 51 81 52 44 53 45 54 60 56 82 57 47 58
REMARK SMILES IDX 30 59 31 60 40 61 32 62 33 63 39 64 41 65 34 66 35 67 36 68
REMARK SMILES IDX 37 69 38 70 64 71 65 72 74 73 66 74 67 75 73 76 75 77 68 78
REMARK SMILES IDX 69 79 70 80 71 81 72 82 48 83 49 84 58 85 50 86 51 87 57 88
REMARK SMILES IDX 59 89 52 90 53 91 54 92 55 93 56 94
REMARK H PARENT 8 12 8 13 3 19 80 44 46 55
REMARK Flexibility Score: inf
ROOT
ATOM      1  C   UNL A   1      33.614  32.332  28.004  1.00  0.00     0.275 C 
ENDROOT
BRANCH   1   2
ATOM      2  O   UNL A   1      33.290  31.008  27.542  1.00  0.00    -0.458 OA
BRANCH   2   3
ATOM      3  C   UNL A   1      32.148  30.916  26.793  1.00  0.00     0.339 C 
ATOM      4  O   UNL A   1      31.372  31.840  26.612  1.00  0.00    -0.246 OA
BRANCH   3   5
ATOM      5  C   UNL A   1      31.939  29.589  26.213  1.00  0.00     0.071 A 
ATOM      6  C   UNL A   1      31.830  27.242  25.982  1.00  0.00     0.059 A 
ATOM      7  C   UNL A   1      32.153  28.301  26.816  1.00  0.00     0.037 A 
ATOM      8  S   UNL A   1      31.255  27.810  24.469  1.00  0.00    -0.142 S 
ATOM      9  C   UNL A   1      31.479  29.436  24.915  1.00  0.00     0.081 A 
BRANCH   6  10
ATOM     10  C   UNL A   1      31.878  25.767  26.305  1.00  0.00     0.308 C 
BRANCH  10  11
ATOM     11  N   UNL A   1      32.761  24.966  25.449  1.00  0.00    -0.341 N 
ATOM     12  H   UNL A   1      32.800  24.016  25.817  1.00  0.00     0.346 HD
ATOM     13  H   UNL A   1      32.379  24.986  24.503  1.00  0.00     0.346 HD
BRANCH  11  14
ATOM     14  C   UNL A   1      34.123  25.504  25.391  1.00  0.00     0.270 C 
BRANCH  14  15
ATOM     15  C   UNL A   1      35.129  24.449  24.916  1.00  0.00     0.105 C 
ATOM     16  N   UNL A   1      35.111  22.120  24.231  1.00  0.00    -0.335 N 
ATOM     17  C   UNL A   1      36.164  22.346  25.236  1.00  0.00     0.262 C 
ATOM     18  C   UNL A   1      34.484  23.432  23.970  1.00  0.00     0.271 C 
ATOM     19  H   UNL A   1      35.509  21.733  23.374  1.00  0.00     0.348 HD
ATOM     20  C   UNL A   1      35.721  23.574  26.010  1.00  0.00     0.076 C 
BRANCH  16  21
ATOM     21  C   UNL A   1      34.121  21.133  24.695  1.00  0.00     0.258 C 
ATOM     22  C   UNL A   1      32.778  21.342  24.006  1.00  0.00     0.071 C 
ENDBRANCH  16  21
ENDBRANCH  14  15
ENDBRANCH  11  14
ENDBRANCH  10  11
ENDBRANCH   6  10
ENDBRANCH   3   5
ENDBRANCH   2   3
ENDBRANCH   1   2
BRANCH   1  23
ATOM     23  C   UNL A   1      34.849  32.346  28.908  1.00  0.00     0.275 C 
BRANCH  23  24
ATOM     24  O   UNL A   1      35.583  31.110  28.836  1.00  0.00    -0.458 OA
BRANCH  24  25
ATOM     25  C   UNL A   1      36.306  30.809  29.941  1.00  0.00     0.338 C 
ATOM     26  O   UNL A   1      35.960  30.939  31.104  1.00  0.00    -0.246 OA
BRANCH  25  27
ATOM     27  C   UNL A   1      37.571  30.169  29.552  1.00  0.00     0.060 A 
ATOM     28  C   UNL A   1      38.477  29.851  30.564  1.00  0.00     0.016 A 
ATOM     29  C   UNL A   1      37.918  29.997  28.211  1.00  0.00     0.016 A 
ATOM     30  C   UNL A   1      39.747  29.376  30.243  1.00  0.00     0.010 A 
ATOM     31  C   UNL A   1      39.190  29.504  27.890  1.00  0.00     0.010 A 
ATOM     32  C   UNL A   1      40.122  29.209  28.903  1.00  0.00    -0.014 A 
BRANCH  32  33
ATOM     33  C   UNL A   1      41.513  28.793  28.576  1.00  0.00     0.031 A 
ATOM     34  C   UNL A   1      42.633  29.796  28.648  1.00  0.00     0.074 A 
ATOM     35  C   UNL A   1      41.782  27.511  28.262  1.00  0.00     0.049 A 
ATOM     36  N   UNL A   1      43.892  29.655  28.321  1.00  0.00    -0.248 NA
ATOM     37  C   UNL A   1      42.291  31.135  29.151  1.00  0.00     0.031 C 
ATOM     38  C   UNL A   1      40.796  26.430  28.204  1.00  0.00     0.029 A 
ATOM     39  N   UNL A   1      42.967  26.897  27.939  1.00  0.00    -0.354 N 
ATOM     40  C   UNL A   1      44.485  30.893  28.541  1.00  0.00     0.074 A 
ATOM     41  C   UNL A   1      43.445  31.775  29.025  1.00  0.00     0.031 C 
ATOM     42  C   UNL A   1      41.420  25.284  27.887  1.00  0.00     0.029 A 
ATOM     43  C   UNL A   1      42.837  25.557  27.662  1.00  0.00     0.049 A 
ATOM     44  H   UNL A   1      43.829  27.371  27.910  1.00  0.00     0.167 HD
ATOM     45  C   UNL A   1      45.777  31.259  28.356  1.00  0.00     0.037 A 
ATOM     46  C   UNL A   1      43.747  24.654  27.246  1.00  0.00     0.037 A 
ATOM     47  C   UNL A   1      46.817  30.368  27.911  1.00  0.00     0.049 A 
ATOM     48  C   UNL A   1      45.170  25.090  27.025  1.00  0.00     0.074 A 
ATOM     49  C   UNL A   1      48.158  30.646  27.702  1.00  0.00     0.029 A 
ATOM     50  N   UNL A   1      46.639  29.025  27.618  1.00  0.00    -0.354 N 
ATOM     51  N   UNL A   1      45.706  26.274  27.200  1.00  0.00    -0.248 NA
ATOM     52  C   UNL A   1      46.111  24.071  26.537  1.00  0.00     0.031 C 
ATOM     53  C   UNL A   1      48.782  29.477  27.252  1.00  0.00     0.029 A 
ATOM     54  C   UNL A   1      47.841  28.462  27.219  1.00  0.00     0.049 A 
ATOM     55  H   UNL A   1      45.782  28.541  27.682  1.00  0.00     0.167 HD
ATOM     56  C   UNL A   1      47.046  26.140  26.856  1.00  0.00     0.074 A 
ATOM     57  C   UNL A   1      47.245  24.756  26.478  1.00  0.00     0.031 C 
ATOM     58  C   UNL A   1      48.024  27.081  26.850  1.00  0.00     0.037 A 
BRANCH  45  59
ATOM     59  C   UNL A   1      46.132  32.699  28.604  1.00  0.00     0.058 A 
ATOM     60  C   UNL A   1      46.618  33.143  29.843  1.00  0.00     0.135 A 
ATOM     61  C   UNL A   1      46.007  33.644  27.572  1.00  0.00     0.135 A 
ATOM     62  F   UNL A   1      46.740  32.284  30.867  1.00  0.00    -0.206 F 
ATOM     63  C   UNL A   1      46.941  34.479  30.060  1.00  0.00     0.059 A 
ATOM     64  C   UNL A   1      46.347  34.980  27.759  1.00  0.00     0.059 A 
ATOM     65  F   UNL A   1      45.547  33.272  26.367  1.00  0.00    -0.206 F 
ATOM     66  C   UNL A   1      46.798  35.392  29.013  1.00  0.00     0.060 A 
BRANCH  66  67
ATOM     67  S   UNL A   1      47.212  37.124  29.308  1.00  0.00     0.124 S 
ATOM     68  O   UNL A   1      45.991  37.609  29.944  1.00  0.00    -0.237 OA
ATOM     69  O   UNL A   1      48.381  37.026  30.175  1.00  0.00    -0.237 OA
ATOM     70  O   UNL A   1      47.470  37.644  27.969  1.00  0.00    -0.744 OA
ENDBRANCH  66  67
ENDBRANCH  45  59
BRANCH  46  71
ATOM     71  C   UNL A   1      43.331  23.251  26.983  1.00  0.00     0.058 A 
ATOM     72  C   UNL A   1      43.200  22.767  25.673  1.00  0.00     0.135 A 
ATOM     73  C   UNL A   1      43.072  22.363  28.038  1.00  0.00     0.135 A 
ATOM     74  F   UNL A   1      43.425  23.582  24.630  1.00  0.00    -0.206 F 
ATOM     75  C   UNL A   1      42.823  21.452  25.417  1.00  0.00     0.059 A 
ATOM     76  C   UNL A   1      42.718  21.038  27.809  1.00  0.00     0.059 A 
ATOM     77  F   UNL A   1      43.192  22.776  29.310  1.00  0.00    -0.206 F 
ATOM     78  C   UNL A   1      42.587  20.593  26.493  1.00  0.00     0.060 A 
BRANCH  78  79
ATOM     79  S   UNL A   1      42.158  18.872  26.157  1.00  0.00     0.124 S 
ATOM     80  O   UNL A   1      42.429  18.245  27.445  1.00  0.00    -0.237 OA
ATOM     81  O   UNL A   1      40.753  18.972  25.777  1.00  0.00    -0.237 OA
ATOM     82  O   UNL A   1      43.066  18.508  25.073  1.00  0.00    -0.744 OA
ENDBRANCH  78  79
ENDBRANCH  46  71
BRANCH  58  83
ATOM     83  C   UNL A   1      49.402  26.639  26.447  1.00  0.00     0.058 A 
ATOM     84  C   UNL A   1      50.272  26.023  27.359  1.00  0.00     0.135 A 
ATOM     85  C   UNL A   1      49.839  26.793  25.122  1.00  0.00     0.135 A 
ATOM     86  F   UNL A   1      49.904  25.858  28.639  1.00  0.00    -0.206 F 
ATOM     87  C   UNL A   1      51.539  25.593  26.976  1.00  0.00     0.059 A 
ATOM     88  C   UNL A   1      51.093  26.351  24.712  1.00  0.00     0.059 A 
ATOM     89  F   UNL A   1      49.040  27.369  24.209  1.00  0.00    -0.206 F 
ATOM     90  C   UNL A   1      51.941  25.761  25.649  1.00  0.00     0.060 A 
BRANCH  90  91
ATOM     91  S   UNL A   1      53.574  25.172  25.154  1.00  0.00     0.124 S 
ATOM     92  O   UNL A   1      53.435  23.731  25.339  1.00  0.00    -0.237 OA
ATOM     93  O   UNL A   1      53.668  25.627  23.771  1.00  0.00    -0.237 OA
ATOM     94  O   UNL A   1      54.473  25.842  26.090  1.00  0.00    -0.744 OA
ENDBRANCH  90  91
ENDBRANCH  58  83
ENDBRANCH  32  33
ENDBRANCH  25  27
ENDBRANCH  24  25
ENDBRANCH  23  24
ENDBRANCH   1  23
TORSDOF 19
ENDMDL
MODEL 2
REMARK VINA RESULT:     -10.3      1.792      3.679
REMARK SMILES CC[N@@H+]1CC[C@H](C[NH2+]Cc2cc(C(=O)OCCOC(=O)c3ccc(-c4c5nc(c(-c6c(F)cc(S(=O)(=O)[O-])cc6F)c6ccc([nH]6)c(-c6c(F)cc(S(=O)(=O)[O-])cc6F)c6nc(c(-c7c(F)cc(S(=O)(=O)[O-])cc7F)c7ccc4[nH]7)C=C6)C=C5)cc3)cs2)C1
REMARK SMILES IDX 16 1 15 2 13 3 14 4 12 5 10 6 11 7 88 8 87 9 9 10 8 11 7 14
REMARK SMILES IDX 6 15 3 16 4 17 89 18 5 20 2 21 1 22 17 23 18 24 19 25 20 26
REMARK SMILES IDX 21 27 22 28 86 29 23 30 85 31 24 32 25 33 26 34 79 35 27 36
REMARK SMILES IDX 84 37 78 38 80 39 28 40 83 41 77 42 76 43 29 45 63 46 42 47
REMARK SMILES IDX 62 48 43 49 46 50 61 51 81 52 44 53 45 54 60 56 82 57 47 58
REMARK SMILES IDX 30 59 31 60 40 61 32 62 33 63 39 64 41 65 34 66 35 67 36 68
REMARK SMILES IDX 37 69 38 70 64 71 65 72 74 73 66 74 67 75 73 76 75 77 68 78
REMARK SMILES IDX 69 79 70 80 71 81 72 82 48 83 49 84 58 85 50 86 51 87 57 88
REMARK SMILES IDX 59 89 52 90 53 91 54 92 55 93 56 94
REMARK H PARENT 8 12 8 13 3 19 80 44 46 55
REMARK Flexibility Score: inf
ROOT
ATOM      1  C   UNL A   1      33.773  31.331  27.379  1.00  0.00     0.275 C 
ENDROOT
BRANCH   1   2
ATOM      2  O   UNL A   1      33.205  30.029  27.608  1.00  0.00    -0.458 OA
BRANCH   2   3
ATOM      3  C   UNL A   1      33.913  28.984  27.078  1.00  0.00     0.339 C 
ATOM      4  O   UNL A   1      35.105  28.802  27.261  1.00  0.00    -0.246 OA
BRANCH   3   5
ATOM      5  C   UNL A   1      33.097  28.083  26.263  1.00  0.00     0.071 A 
ATOM      6  C   UNL A   1      31.342  27.261  24.914  1.00  0.00     0.059 A 
ATOM      7  C   UNL A   1      31.828  28.341  25.637  1.00  0.00     0.037 A 
ATOM      8  S   UNL A   1      32.432  25.939  24.985  1.00  0.00    -0.142 S 
ATOM      9  C   UNL A   1      33.504  26.786  25.998  1.00  0.00     0.081 A 
BRANCH   6  10
ATOM     10  C   UNL A   1      30.077  27.199  24.091  1.00  0.00     0.308 C 
BRANCH  10  11
ATOM     11  N   UNL A   1      30.252  27.440  22.654  1.00  0.00    -0.341 N 
ATOM     12  H   UNL A   1      31.131  27.016  22.355  1.00  0.00     0.346 HD
ATOM     13  H   UNL A   1      29.454  27.029  22.170  1.00  0.00     0.346 HD
BRANCH  11  14
ATOM     14  C   UNL A   1      30.284  28.868  22.326  1.00  0.00     0.270 C 
BRANCH  14  15
ATOM     15  C   UNL A   1      29.085  29.614  22.923  1.00  0.00     0.105 C 
ATOM     16  N   UNL A   1      27.626  31.457  22.318  1.00  0.00    -0.335 N 
ATOM     17  C   UNL A   1      28.136  31.642  23.688  1.00  0.00     0.262 C 
ATOM     18  C   UNL A   1      28.160  30.167  21.836  1.00  0.00     0.271 C 
ATOM     19  H   UNL A   1      26.605  31.450  22.313  1.00  0.00     0.348 HD
ATOM     20  C   UNL A   1      29.430  30.848  23.743  1.00  0.00     0.076 C 
BRANCH  16  21
ATOM     21  C   UNL A   1      28.025  32.568  21.437  1.00  0.00     0.258 C 
ATOM     22  C   UNL A   1      27.953  32.154  19.972  1.00  0.00     0.071 C 
ENDBRANCH  16  21
ENDBRANCH  14  15
ENDBRANCH  11  14
ENDBRANCH  10  11
ENDBRANCH   6  10
ENDBRANCH   3   5
ENDBRANCH   2   3
ENDBRANCH   1   2
BRANCH   1  23
ATOM     23  C   UNL A   1      34.471  31.888  28.623  1.00  0.00     0.275 C 
BRANCH  23  24
ATOM     24  O   UNL A   1      35.896  31.691  28.575  1.00  0.00    -0.458 OA
BRANCH  24  25
ATOM     25  C   UNL A   1      36.438  31.162  29.696  1.00  0.00     0.338 C 
ATOM     26  O   UNL A   1      35.945  31.137  30.811  1.00  0.00    -0.246 OA
BRANCH  25  27
ATOM     27  C   UNL A   1      37.703  30.486  29.369  1.00  0.00     0.060 A 
ATOM     28  C   UNL A   1      38.652  30.355  30.383  1.00  0.00     0.016 A 
ATOM     29  C   UNL A   1      38.005  30.099  28.062  1.00  0.00     0.016 A 
ATOM     30  C   UNL A   1      39.919  29.853  30.095  1.00  0.00     0.010 A 
ATOM     31  C   UNL A   1      39.275  29.579  27.777  1.00  0.00     0.010 A 
ATOM     32  C   UNL A   1      40.249  29.472  28.788  1.00  0.00    -0.014 A 
BRANCH  32  33
ATOM     33  C   UNL A   1      41.636  29.029  28.480  1.00  0.00     0.031 A 
ATOM     34  C   UNL A   1      42.774  30.011  28.565  1.00  0.00     0.074 A 
ATOM     35  C   UNL A   1      41.886  27.742  28.171  1.00  0.00     0.049 A 
ATOM     36  N   UNL A   1      44.035  29.846  28.255  1.00  0.00    -0.248 NA
ATOM     37  C   UNL A   1      42.450  31.357  29.063  1.00  0.00     0.031 C 
ATOM     38  C   UNL A   1      40.880  26.680  28.101  1.00  0.00     0.029 A 
ATOM     39  N   UNL A   1      43.063  27.106  27.865  1.00  0.00    -0.354 N 
ATOM     40  C   UNL A   1      44.648  31.073  28.482  1.00  0.00     0.074 A 
ATOM     41  C   UNL A   1      43.618  31.976  28.951  1.00  0.00     0.031 C 
ATOM     42  C   UNL A   1      41.487  25.522  27.793  1.00  0.00     0.029 A 
ATOM     43  C   UNL A   1      42.911  25.768  27.587  1.00  0.00     0.049 A 
ATOM     44  H   UNL A   1      43.934  27.564  27.846  1.00  0.00     0.167 HD
ATOM     45  C   UNL A   1      45.948  31.415  28.314  1.00  0.00     0.037 A 
ATOM     46  C   UNL A   1      43.810  24.848  27.184  1.00  0.00     0.037 A 
ATOM     47  C   UNL A   1      46.977  30.505  27.884  1.00  0.00     0.049 A 
ATOM     48  C   UNL A   1      45.244  25.257  26.981  1.00  0.00     0.074 A 
ATOM     49  C   UNL A   1      48.326  30.757  27.692  1.00  0.00     0.029 A 
ATOM     50  N   UNL A   1      46.778  29.164  27.590  1.00  0.00    -0.354 N 
ATOM     51  N   UNL A   1      45.799  26.431  27.163  1.00  0.00    -0.248 NA
ATOM     52  C   UNL A   1      46.172  24.220  26.507  1.00  0.00     0.031 C 
ATOM     53  C   UNL A   1      48.934  29.576  27.252  1.00  0.00     0.029 A 
ATOM     54  C   UNL A   1      47.974  28.579  27.208  1.00  0.00     0.049 A 
ATOM     55  H   UNL A   1      45.912  28.697  27.643  1.00  0.00     0.167 HD
ATOM     56  C   UNL A   1      47.141  26.271  26.837  1.00  0.00     0.074 A 
ATOM     57  C   UNL A   1      47.319  24.884  26.463  1.00  0.00     0.031 C 
ATOM     58  C   UNL A   1      48.136  27.194  26.843  1.00  0.00     0.037 A 
BRANCH  45  59
ATOM     59  C   UNL A   1      46.327  32.849  28.565  1.00  0.00     0.058 A 
ATOM     60  C   UNL A   1      46.277  33.819  27.552  1.00  0.00     0.135 A 
ATOM     61  C   UNL A   1      46.720  33.261  29.849  1.00  0.00     0.135 A 
ATOM     62  F   UNL A   1      45.924  33.474  26.303  1.00  0.00    -0.206 F 
ATOM     63  C   UNL A   1      46.632  35.142  27.795  1.00  0.00     0.059 A 
ATOM     64  C   UNL A   1      47.056  34.583  30.120  1.00  0.00     0.059 A 
ATOM     65  F   UNL A   1      46.784  32.374  30.853  1.00  0.00    -0.206 F 
ATOM     66  C   UNL A   1      47.025  35.514  29.083  1.00  0.00     0.060 A 
BRANCH  66  67
ATOM     67  S   UNL A   1      47.492  37.232  29.386  1.00  0.00     0.124 S 
ATOM     68  O   UNL A   1      47.388  37.308  30.840  1.00  0.00    -0.237 OA
ATOM     69  O   UNL A   1      48.845  37.291  28.844  1.00  0.00    -0.237 OA
ATOM     70  O   UNL A   1      46.490  37.992  28.646  1.00  0.00    -0.744 OA
ENDBRANCH  66  67
ENDBRANCH  45  59
BRANCH  46  71
ATOM     71  C   UNL A   1      43.372  23.453  26.917  1.00  0.00     0.058 A 
ATOM     72  C   UNL A   1      43.221  22.978  25.605  1.00  0.00     0.135 A 
ATOM     73  C   UNL A   1      43.110  22.562  27.970  1.00  0.00     0.135 A 
ATOM     74  F   UNL A   1      43.447  23.796  24.566  1.00  0.00    -0.206 F 
ATOM     75  C   UNL A   1      42.822  21.670  25.346  1.00  0.00     0.059 A 
ATOM     76  C   UNL A   1      42.735  21.244  27.736  1.00  0.00     0.059 A 
ATOM     77  F   UNL A   1      43.249  22.966  29.242  1.00  0.00    -0.206 F 
ATOM     78  C   UNL A   1      42.585  20.809  26.419  1.00  0.00     0.060 A 
BRANCH  78  79
ATOM     79  S   UNL A   1      42.128  19.095  26.077  1.00  0.00     0.124 S 
ATOM     80  O   UNL A   1      42.894  18.823  24.867  1.00  0.00    -0.237 OA
ATOM     81  O   UNL A   1      42.575  18.409  27.285  1.00  0.00    -0.237 OA
ATOM     82  O   UNL A   1      40.679  19.165  25.907  1.00  0.00    -0.744 OA
ENDBRANCH  78  79
ENDBRANCH  46  71
BRANCH  58  83
ATOM     83  C   UNL A   1      49.511  26.726  26.458  1.00  0.00     0.058 A 
ATOM     84  C   UNL A   1      49.999  26.875  25.151  1.00  0.00     0.135 A 
ATOM     85  C   UNL A   1      50.367  26.165  27.419  1.00  0.00     0.135 A 
ATOM     86  F   UNL A   1      49.218  27.400  24.193  1.00  0.00    -0.206 F 
ATOM     87  C   UNL A   1      51.282  26.463  24.804  1.00  0.00     0.059 A 
ATOM     88  C   UNL A   1      51.661  25.766  27.100  1.00  0.00     0.059 A 
ATOM     89  F   UNL A   1      49.950  26.009  28.686  1.00  0.00    -0.206 F 
ATOM     90  C   UNL A   1      52.107  25.909  25.786  1.00  0.00     0.060 A 
BRANCH  90  91
ATOM     91  S   UNL A   1      53.780  25.406  25.334  1.00  0.00     0.124 S 
ATOM     92  O   UNL A   1      54.162  26.463  24.401  1.00  0.00    -0.237 OA
ATOM     93  O   UNL A   1      54.471  25.415  26.619  1.00  0.00    -0.237 OA
ATOM     94  O   UNL A   1      53.588  24.085  24.742  1.00  0.00    -0.744 OA
ENDBRANCH  90  91
ENDBRANCH  58  83
ENDBRANCH  32  33
ENDBRANCH  25  27
ENDBRANCH  24  25
ENDBRANCH  23  24
ENDBRANCH   1  23
TORSDOF 19
ENDMDL
MODEL 3
REMARK VINA RESULT:     -10.2      1.581      2.778
REMARK SMILES CC[N@@H+]1CC[C@H](C[NH2+]Cc2cc(C(=O)OCCOC(=O)c3ccc(-c4c5nc(c(-c6c(F)cc(S(=O)(=O)[O-])cc6F)c6ccc([nH]6)c(-c6c(F)cc(S(=O)(=O)[O-])cc6F)c6nc(c(-c7c(F)cc(S(=O)(=O)[O-])cc7F)c7ccc4[nH]7)C=C6)C=C5)cc3)cs2)C1
REMARK SMILES IDX 16 1 15 2 13 3 14 4 12 5 10 6 11 7 88 8 87 9 9 10 8 11 7 14
REMARK SMILES IDX 6 15 3 16 4 17 89 18 5 20 2 21 1 22 17 23 18 24 19 25 20 26
REMARK SMILES IDX 21 27 22 28 86 29 23 30 85 31 24 32 25 33 26 34 79 35 27 36
REMARK SMILES IDX 84 37 78 38 80 39 28 40 83 41 77 42 76 43 29 45 63 46 42 47
REMARK SMILES IDX 62 48 43 49 46 50 61 51 81 52 44 53 45 54 60 56 82 57 47 58
REMARK SMILES IDX 30 59 31 60 40 61 32 62 33 63 39 64 41 65 34 66 35 67 36 68
REMARK SMILES IDX 37 69 38 70 64 71 65 72 74 73 66 74 67 75 73 76 75 77 68 78
REMARK SMILES IDX 69 79 70 80 71 81 72 82 48 83 49 84 58 85 50 86 51 87 57 88
REMARK SMILES IDX 59 89 52 90 53 91 54 92 55 93 56 94
REMARK H PARENT 8 12 8 13 3 19 80 44 46 55
REMARK Flexibility Score: inf
ROOT
ATOM      1  C   UNL A   1      33.539  30.877  27.331  1.00  0.00     0.275 C 
ENDROOT
BRANCH   1   2
ATOM      2  O   UNL A   1      33.436  29.481  27.668  1.00  0.00    -0.458 OA
BRANCH   2   3
ATOM      3  C   UNL A   1      34.033  28.624  26.783  1.00  0.00     0.339 C 
ATOM      4  O   UNL A   1      35.147  28.790  26.316  1.00  0.00    -0.246 OA
BRANCH   3   5
ATOM      5  C   UNL A   1      33.203  27.467  26.445  1.00  0.00     0.071 A 
ATOM      6  C   UNL A   1      31.314  26.132  25.973  1.00  0.00     0.059 A 
ATOM      7  C   UNL A   1      31.772  27.391  26.334  1.00  0.00     0.037 A 
ATOM      8  S   UNL A   1      32.623  25.045  25.757  1.00  0.00    -0.142 S 
ATOM      9  C   UNL A   1      33.768  26.230  26.182  1.00  0.00     0.081 A 
BRANCH   6  10
ATOM     10  C   UNL A   1      29.887  25.711  25.714  1.00  0.00     0.308 C 
BRANCH  10  11
ATOM     11  N   UNL A   1      29.485  25.697  24.302  1.00  0.00    -0.341 N 
ATOM     12  H   UNL A   1      30.323  25.637  23.723  1.00  0.00     0.346 HD
ATOM     13  H   UNL A   1      28.874  24.892  24.161  1.00  0.00     0.346 HD
BRANCH  11  14
ATOM     14  C   UNL A   1      28.736  26.897  23.921  1.00  0.00     0.270 C 
BRANCH  14  15
ATOM     15  C   UNL A   1      29.526  27.770  22.939  1.00  0.00     0.105 C 
ATOM     16  N   UNL A   1      31.797  27.936  22.099  1.00  0.00    -0.335 N 
ATOM     17  C   UNL A   1      31.322  29.258  22.542  1.00  0.00     0.262 C 
ATOM     18  C   UNL A   1      30.673  26.996  22.284  1.00  0.00     0.271 C 
ATOM     19  H   UNL A   1      32.085  27.967  21.120  1.00  0.00     0.348 HD
ATOM     20  C   UNL A   1      30.228  28.971  23.555  1.00  0.00     0.076 C 
BRANCH  16  21
ATOM     21  C   UNL A   1      32.987  27.508  22.854  1.00  0.00     0.258 C 
ATOM     22  C   UNL A   1      34.061  28.589  22.839  1.00  0.00     0.071 C 
ENDBRANCH  16  21
ENDBRANCH  14  15
ENDBRANCH  11  14
ENDBRANCH  10  11
ENDBRANCH   6  10
ENDBRANCH   3   5
ENDBRANCH   2   3
ENDBRANCH   1   2
BRANCH   1  23
ATOM     23  C   UNL A   1      34.416  31.650  28.320  1.00  0.00     0.275 C 
BRANCH  23  24
ATOM     24  O   UNL A   1      35.806  31.297  28.197  1.00  0.00    -0.458 OA
BRANCH  24  25
ATOM     25  C   UNL A   1      36.404  30.916  29.350  1.00  0.00     0.338 C 
ATOM     26  O   UNL A   1      35.946  30.998  30.478  1.00  0.00    -0.246 OA
BRANCH  25  27
ATOM     27  C   UNL A   1      37.684  30.256  29.055  1.00  0.00     0.060 A 
ATOM     28  C   UNL A   1      38.600  30.118  30.099  1.00  0.00     0.016 A 
ATOM     29  C   UNL A   1      38.032  29.890  27.754  1.00  0.00     0.016 A 
ATOM     30  C   UNL A   1      39.880  29.631  29.846  1.00  0.00     0.010 A 
ATOM     31  C   UNL A   1      39.316  29.384  27.504  1.00  0.00     0.010 A 
ATOM     32  C   UNL A   1      40.257  29.270  28.545  1.00  0.00    -0.014 A 
BRANCH  32  33
ATOM     33  C   UNL A   1      41.657  28.844  28.278  1.00  0.00     0.031 A 
ATOM     34  C   UNL A   1      42.776  29.848  28.351  1.00  0.00     0.074 A 
ATOM     35  C   UNL A   1      41.935  27.552  28.016  1.00  0.00     0.049 A 
ATOM     36  N   UNL A   1      44.044  29.696  28.069  1.00  0.00    -0.248 NA
ATOM     37  C   UNL A   1      42.419  31.204  28.798  1.00  0.00     0.031 C 
ATOM     38  C   UNL A   1      40.950  26.470  27.963  1.00  0.00     0.029 A 
ATOM     39  N   UNL A   1      43.129  26.928  27.752  1.00  0.00    -0.354 N 
ATOM     40  C   UNL A   1      44.631  30.941  28.266  1.00  0.00     0.074 A 
ATOM     41  C   UNL A   1      43.576  31.840  28.686  1.00  0.00     0.031 C 
ATOM     42  C   UNL A   1      41.583  25.314  27.705  1.00  0.00     0.029 A 
ATOM     43  C   UNL A   1      43.006  25.579  27.516  1.00  0.00     0.049 A 
ATOM     44  H   UNL A   1      43.992  27.401  27.735  1.00  0.00     0.167 HD
ATOM     45  C   UNL A   1      45.928  31.301  28.111  1.00  0.00     0.037 A 
ATOM     46  C   UNL A   1      43.928  24.663  27.160  1.00  0.00     0.037 A 
ATOM     47  C   UNL A   1      46.981  30.396  27.730  1.00  0.00     0.049 A 
ATOM     48  C   UNL A   1      45.359  25.091  26.970  1.00  0.00     0.074 A 
ATOM     49  C   UNL A   1      48.328  30.666  27.554  1.00  0.00     0.029 A 
ATOM     50  N   UNL A   1      46.811  29.043  27.477  1.00  0.00    -0.354 N 
ATOM     51  N   UNL A   1      45.889  26.280  27.123  1.00  0.00    -0.248 NA
ATOM     52  C   UNL A   1      46.313  24.056  26.548  1.00  0.00     0.031 C 
ATOM     53  C   UNL A   1      48.966  29.483  27.165  1.00  0.00     0.029 A 
ATOM     54  C   UNL A   1      48.025  28.468  27.136  1.00  0.00     0.049 A 
ATOM     55  H   UNL A   1      45.953  28.562  27.530  1.00  0.00     0.167 HD
ATOM     56  C   UNL A   1      47.240  26.135  26.827  1.00  0.00     0.074 A 
ATOM     57  C   UNL A   1      47.449  24.739  26.502  1.00  0.00     0.031 C 
ATOM     58  C   UNL A   1      48.218  27.075  26.820  1.00  0.00     0.037 A 
BRANCH  45  59
ATOM     59  C   UNL A   1      46.277  32.749  28.321  1.00  0.00     0.058 A 
ATOM     60  C   UNL A   1      46.714  33.236  29.562  1.00  0.00     0.135 A 
ATOM     61  C   UNL A   1      46.196  33.657  27.251  1.00  0.00     0.135 A 
ATOM     62  F   UNL A   1      46.793  32.415  30.620  1.00  0.00    -0.206 F 
ATOM     63  C   UNL A   1      47.031  34.579  29.744  1.00  0.00     0.059 A 
ATOM     64  C   UNL A   1      46.531  34.998  27.405  1.00  0.00     0.059 A 
ATOM     65  F   UNL A   1      45.784  33.242  26.043  1.00  0.00    -0.206 F 
ATOM     66  C   UNL A   1      46.933  35.454  28.660  1.00  0.00     0.060 A 
BRANCH  66  67
ATOM     67  S   UNL A   1      47.338  37.196  28.909  1.00  0.00     0.124 S 
ATOM     68  O   UNL A   1      48.718  37.242  28.432  1.00  0.00    -0.237 OA
ATOM     69  O   UNL A   1      46.355  37.872  28.069  1.00  0.00    -0.237 OA
ATOM     70  O   UNL A   1      47.165  37.382  30.346  1.00  0.00    -0.744 OA
ENDBRANCH  66  67
ENDBRANCH  45  59
BRANCH  46  71
ATOM     71  C   UNL A   1      43.520  23.252  26.932  1.00  0.00     0.058 A 
ATOM     72  C   UNL A   1      43.232  22.396  28.005  1.00  0.00     0.135 A 
ATOM     73  C   UNL A   1      43.395  22.735  25.632  1.00  0.00     0.135 A 
ATOM     74  F   UNL A   1      43.350  22.839  29.267  1.00  0.00    -0.206 F 
ATOM     75  C   UNL A   1      42.839  21.077  27.800  1.00  0.00     0.059 A 
ATOM     76  C   UNL A   1      42.979  21.429  25.401  1.00  0.00     0.059 A 
ATOM     77  F   UNL A   1      43.650  23.517  24.571  1.00  0.00    -0.206 F 
ATOM     78  C   UNL A   1      42.711  20.604  26.493  1.00  0.00     0.060 A 
BRANCH  78  79
ATOM     79  S   UNL A   1      42.140  18.911  26.230  1.00  0.00     0.124 S 
ATOM     80  O   UNL A   1      40.762  19.128  25.806  1.00  0.00    -0.237 OA
ATOM     81  O   UNL A   1      43.057  18.431  25.202  1.00  0.00    -0.237 OA
ATOM     82  O   UNL A   1      42.308  18.295  27.544  1.00  0.00    -0.744 OA
ENDBRANCH  78  79
ENDBRANCH  46  71
BRANCH  58  83
ATOM     83  C   UNL A   1      49.608  26.620  26.476  1.00  0.00     0.058 A 
ATOM     84  C   UNL A   1      50.092  26.666  25.160  1.00  0.00     0.135 A 
ATOM     85  C   UNL A   1      50.481  26.176  27.482  1.00  0.00     0.135 A 
ATOM     86  F   UNL A   1      49.295  27.077  24.161  1.00  0.00    -0.206 F 
ATOM     87  C   UNL A   1      51.388  26.268  24.849  1.00  0.00     0.059 A 
ATOM     88  C   UNL A   1      51.788  25.792  27.197  1.00  0.00     0.059 A 
ATOM     89  F   UNL A   1      50.069  26.121  28.759  1.00  0.00    -0.206 F 
ATOM     90  C   UNL A   1      52.230  25.832  25.875  1.00  0.00     0.060 A 
BRANCH  90  91
ATOM     91  S   UNL A   1      53.919  25.346  25.466  1.00  0.00     0.124 S 
ATOM     92  O   UNL A   1      53.698  24.105  24.730  1.00  0.00    -0.237 OA
ATOM     93  O   UNL A   1      54.390  26.477  24.674  1.00  0.00    -0.237 OA
ATOM     94  O   UNL A   1      54.555  25.197  26.773  1.00  0.00    -0.744 OA
ENDBRANCH  90  91
ENDBRANCH  58  83
ENDBRANCH  32  33
ENDBRANCH  25  27
ENDBRANCH  24  25
ENDBRANCH  23  24
ENDBRANCH   1  23
TORSDOF 19
ENDMDL
