MODEL 1
REMARK VINA RESULT:     -11.4      0.000      0.000
REMARK SMILES CS(=O)(=O)c1ccc(N2N=C(C(=O)OCCOC(=O)c3ccc(-c4c5nc(c(-c6c(F)cc(S(=O)(=O)[O-])cc6F)c6ccc([nH]6)c(-c6c(F)cc(S(=O)(=O)[O-])cc6F)c6nc(c(-c7c(F)cc(S(=O)(=O)[O-])cc7F)c7ccc4[nH]7)C=C6)C=C5)cc3)C[C@H]2c2cccs2)cc1
REMARK SMILES IDX 16 1 15 2 14 3 12 4 13 5 11 6 9 7 10 8 87 9 86 10 8 11 5 12
REMARK SMILES IDX 6 13 94 14 7 15 93 16 2 17 1 18 3 19 4 20 88 21 89 22 92 23
REMARK SMILES IDX 90 24 91 25 17 26 18 27 19 28 20 29 21 30 85 31 22 32 84 33
REMARK SMILES IDX 23 34 24 35 25 36 78 37 26 38 83 39 77 40 79 41 27 42 82 43
REMARK SMILES IDX 76 44 75 45 28 47 62 48 41 49 61 50 42 51 45 52 60 53 80 54
REMARK SMILES IDX 43 55 44 56 59 58 81 59 46 60 29 61 30 62 39 63 31 64 32 65
REMARK SMILES IDX 38 66 40 67 33 68 34 69 35 70 36 71 37 72 63 73 64 74 73 75
REMARK SMILES IDX 65 76 66 77 72 78 74 79 67 80 68 81 69 82 70 83 71 84 47 85
REMARK SMILES IDX 48 86 57 87 49 88 50 89 56 90 58 91 51 92 52 93 53 94 54 95
REMARK SMILES IDX 55 96
REMARK H PARENT 79 46 45 57
REMARK Flexibility Score: inf
ROOT
ATOM      1  C   UNL A   1      34.758  32.006  29.406  1.00  0.00     0.275 C 
ENDROOT
BRANCH   1   2
ATOM      2  C   UNL A   1      34.489  31.838  27.908  1.00  0.00     0.275 C 
BRANCH   2   3
ATOM      3  O   UNL A   1      33.715  30.646  27.706  1.00  0.00    -0.458 OA
BRANCH   3   4
ATOM      4  C   UNL A   1      34.421  29.546  27.396  1.00  0.00     0.354 C 
ATOM      5  O   UNL A   1      35.626  29.394  27.414  1.00  0.00    -0.245 OA
BRANCH   4   6
ATOM      6  C   UNL A   1      33.463  28.475  26.964  1.00  0.00     0.148 C 
ATOM      7  N   UNL A   1      32.683  26.683  26.179  1.00  0.00    -0.256 N 
ATOM      8  N   UNL A   1      33.839  27.321  26.501  1.00  0.00    -0.169 NA
ATOM      9  C   UNL A   1      31.484  27.514  26.297  1.00  0.00     0.154 C 
ATOM     10  C   UNL A   1      31.995  28.686  27.143  1.00  0.00     0.099 C 
BRANCH   7  11
ATOM     11  C   UNL A   1      32.667  25.365  25.754  1.00  0.00     0.060 A 
ATOM     12  C   UNL A   1      32.734  22.669  24.974  1.00  0.00     0.067 A 
ATOM     13  C   UNL A   1      33.581  23.588  24.355  1.00  0.00     0.022 A 
ATOM     14  C   UNL A   1      31.854  23.078  25.976  1.00  0.00     0.022 A 
ATOM     15  C   UNL A   1      33.540  24.929  24.748  1.00  0.00     0.029 A 
ATOM     16  C   UNL A   1      31.822  24.423  26.355  1.00  0.00     0.029 A 
BRANCH  12  17
ATOM     17  S   UNL A   1      32.840  20.943  24.558  1.00  0.00     0.175 S 
ATOM     18  C   UNL A   1      34.523  20.520  24.928  1.00  0.00     0.163 C 
ATOM     19  O   UNL A   1      32.640  20.840  23.123  1.00  0.00    -0.224 OA
ATOM     20  O   UNL A   1      31.964  20.229  25.468  1.00  0.00    -0.224 OA
ENDBRANCH  12  17
ENDBRANCH   7  11
BRANCH   9  21
ATOM     21  C   UNL A   1      30.847  27.944  24.989  1.00  0.00     0.030 A 
ATOM     22  C   UNL A   1      30.153  27.145  24.098  1.00  0.00     0.017 A 
ATOM     23  S   UNL A   1      30.985  29.550  24.393  1.00  0.00    -0.147 S 
ATOM     24  C   UNL A   1      29.725  27.855  22.940  1.00  0.00     0.012 A 
ATOM     25  C   UNL A   1      30.104  29.177  22.979  1.00  0.00     0.065 A 
ENDBRANCH   9  21
ENDBRANCH   4   6
ENDBRANCH   3   4
ENDBRANCH   2   3
ENDBRANCH   1   2
BRANCH   1  26
ATOM     26  O   UNL A   1      36.177  31.999  29.645  1.00  0.00    -0.458 OA
BRANCH  26  27
ATOM     27  C   UNL A   1      36.608  31.066  30.532  1.00  0.00     0.338 C 
ATOM     28  O   UNL A   1      35.973  30.579  31.452  1.00  0.00    -0.246 OA
BRANCH  27  29
ATOM     29  C   UNL A   1      37.935  30.583  30.105  1.00  0.00     0.060 A 
ATOM     30  C   UNL A   1      38.859  30.252  31.100  1.00  0.00     0.016 A 
ATOM     31  C   UNL A   1      38.268  30.441  28.755  1.00  0.00     0.016 A 
ATOM     32  C   UNL A   1      40.118  29.768  30.750  1.00  0.00     0.010 A 
ATOM     33  C   UNL A   1      39.535  29.971  28.405  1.00  0.00     0.010 A 
ATOM     34  C   UNL A   1      40.466  29.636  29.400  1.00  0.00    -0.014 A 
BRANCH  34  35
ATOM     35  C   UNL A   1      41.817  29.158  29.031  1.00  0.00     0.031 A 
ATOM     36  C   UNL A   1      42.983  30.099  29.083  1.00  0.00     0.074 A 
ATOM     37  C   UNL A   1      41.992  27.878  28.663  1.00  0.00     0.049 A 
ATOM     38  N   UNL A   1      44.236  29.870  28.792  1.00  0.00    -0.248 NA
ATOM     39  C   UNL A   1      42.704  31.472  29.530  1.00  0.00     0.031 C 
ATOM     40  C   UNL A   1      40.941  26.861  28.613  1.00  0.00     0.029 A 
ATOM     41  N   UNL A   1      43.123  27.216  28.260  1.00  0.00    -0.354 N 
ATOM     42  C   UNL A   1      44.902  31.064  29.026  1.00  0.00     0.074 A 
ATOM     43  C   UNL A   1      43.910  32.020  29.477  1.00  0.00     0.031 C 
ATOM     44  C   UNL A   1      41.477  25.702  28.192  1.00  0.00     0.029 A 
ATOM     45  C   UNL A   1      42.900  25.902  27.929  1.00  0.00     0.049 A 
ATOM     46  H   UNL A   1      44.009  27.642  28.211  1.00  0.00     0.167 HD
ATOM     47  C   UNL A   1      46.220  31.339  28.884  1.00  0.00     0.037 A 
ATOM     48  C   UNL A   1      43.747  24.972  27.451  1.00  0.00     0.037 A 
ATOM     49  C   UNL A   1      47.206  30.398  28.428  1.00  0.00     0.049 A 
ATOM     50  C   UNL A   1      45.181  25.331  27.199  1.00  0.00     0.074 A 
ATOM     51  C   UNL A   1      48.573  30.571  28.298  1.00  0.00     0.029 A 
ATOM     52  N   UNL A   1      46.923  29.109  28.006  1.00  0.00    -0.354 N 
ATOM     53  N   UNL A   1      45.801  26.459  27.448  1.00  0.00    -0.248 NA
ATOM     54  C   UNL A   1      46.025  24.298  26.582  1.00  0.00     0.031 C 
ATOM     55  C   UNL A   1      49.114  29.390  27.770  1.00  0.00     0.029 A 
ATOM     56  C   UNL A   1      48.084  28.482  27.585  1.00  0.00     0.049 A 
ATOM     57  H   UNL A   1      46.028  28.698  28.008  1.00  0.00     0.167 HD
ATOM     58  C   UNL A   1      47.107  26.275  27.012  1.00  0.00     0.074 A 
ATOM     59  C   UNL A   1      47.192  24.925  26.492  1.00  0.00     0.031 C 
ATOM     60  C   UNL A   1      48.142  27.150  27.044  1.00  0.00     0.037 A 
BRANCH  47  61
ATOM     61  C   UNL A   1      46.656  32.731  29.224  1.00  0.00     0.058 A 
ATOM     62  C   UNL A   1      46.685  33.738  28.247  1.00  0.00     0.135 A 
ATOM     63  C   UNL A   1      47.069  33.056  30.524  1.00  0.00     0.135 A 
ATOM     64  F   UNL A   1      46.314  33.465  26.987  1.00  0.00    -0.206 F 
ATOM     65  C   UNL A   1      47.133  35.020  28.544  1.00  0.00     0.059 A 
ATOM     66  C   UNL A   1      47.518  34.333  30.843  1.00  0.00     0.059 A 
ATOM     67  F   UNL A   1      47.072  32.120  31.486  1.00  0.00    -0.206 F 
ATOM     68  C   UNL A   1      47.562  35.303  29.842  1.00  0.00     0.060 A 
BRANCH  68  69
ATOM     69  S   UNL A   1      48.180  36.957  30.224  1.00  0.00     0.124 S 
ATOM     70  O   UNL A   1      47.046  37.529  30.942  1.00  0.00    -0.237 OA
ATOM     71  O   UNL A   1      49.365  36.683  31.029  1.00  0.00    -0.237 OA
ATOM     72  O   UNL A   1      48.443  37.526  28.905  1.00  0.00    -0.744 OA
ENDBRANCH  68  69
ENDBRANCH  47  61
BRANCH  48  73
ATOM     73  C   UNL A   1      43.240  23.612  27.150  1.00  0.00     0.058 A 
ATOM     74  C   UNL A   1      42.949  23.231  25.834  1.00  0.00     0.135 A 
ATOM     75  C   UNL A   1      43.076  22.664  28.168  1.00  0.00     0.135 A 
ATOM     76  F   UNL A   1      43.092  24.112  24.833  1.00  0.00    -0.206 F 
ATOM     77  C   UNL A   1      42.516  21.944  25.533  1.00  0.00     0.059 A 
ATOM     78  C   UNL A   1      42.650  21.370  27.891  1.00  0.00     0.059 A 
ATOM     79  F   UNL A   1      43.350  22.989  29.441  1.00  0.00    -0.206 F 
ATOM     80  C   UNL A   1      42.368  21.021  26.570  1.00  0.00     0.060 A 
BRANCH  80  81
ATOM     81  S   UNL A   1      41.879  19.324  26.188  1.00  0.00     0.124 S 
ATOM     82  O   UNL A   1      42.254  18.630  27.415  1.00  0.00    -0.237 OA
ATOM     83  O   UNL A   1      40.447  19.448  25.938  1.00  0.00    -0.237 OA
ATOM     84  O   UNL A   1      42.686  19.015  25.010  1.00  0.00    -0.744 OA
ENDBRANCH  80  81
ENDBRANCH  48  73
BRANCH  60  85
ATOM     85  C   UNL A   1      49.445  26.679  26.473  1.00  0.00     0.058 A 
ATOM     86  C   UNL A   1      49.816  27.012  25.163  1.00  0.00     0.135 A 
ATOM     87  C   UNL A   1      50.338  25.920  27.243  1.00  0.00     0.135 A 
ATOM     88  F   UNL A   1      48.989  27.729  24.388  1.00  0.00    -0.206 F 
ATOM     89  C   UNL A   1      51.032  26.599  24.627  1.00  0.00     0.059 A 
ATOM     90  C   UNL A   1      51.561  25.502  26.730  1.00  0.00     0.059 A 
ATOM     91  F   UNL A   1      50.023  25.579  28.502  1.00  0.00    -0.206 F 
ATOM     92  C   UNL A   1      51.896  25.839  25.418  1.00  0.00     0.060 A 
BRANCH  92  93
ATOM     93  S   UNL A   1      53.489  25.324  24.741  1.00  0.00     0.124 S 
ATOM     94  O   UNL A   1      54.403  26.238  25.416  1.00  0.00    -0.237 OA
ATOM     95  O   UNL A   1      53.579  23.925  25.147  1.00  0.00    -0.237 OA
ATOM     96  O   UNL A   1      53.322  25.541  23.307  1.00  0.00    -0.744 OA
ENDBRANCH  92  93
ENDBRANCH  60  85
ENDBRANCH  34  35
ENDBRANCH  27  29
ENDBRANCH  26  27
ENDBRANCH   1  26
TORSDOF 17
ENDMDL
MODEL 2
REMARK VINA RESULT:     -11.2      5.943     10.747
REMARK SMILES CS(=O)(=O)c1ccc(N2N=C(C(=O)OCCOC(=O)c3ccc(-c4c5nc(c(-c6c(F)cc(S(=O)(=O)[O-])cc6F)c6ccc([nH]6)c(-c6c(F)cc(S(=O)(=O)[O-])cc6F)c6nc(c(-c7c(F)cc(S(=O)(=O)[O-])cc7F)c7ccc4[nH]7)C=C6)C=C5)cc3)C[C@H]2c2cccs2)cc1
REMARK SMILES IDX 16 1 15 2 14 3 12 4 13 5 11 6 9 7 10 8 87 9 86 10 8 11 5 12
REMARK SMILES IDX 6 13 94 14 7 15 93 16 2 17 1 18 3 19 4 20 88 21 89 22 92 23
REMARK SMILES IDX 90 24 91 25 17 26 18 27 19 28 20 29 21 30 85 31 22 32 84 33
REMARK SMILES IDX 23 34 24 35 25 36 78 37 26 38 83 39 77 40 79 41 27 42 82 43
REMARK SMILES IDX 76 44 75 45 28 47 62 48 41 49 61 50 42 51 45 52 60 53 80 54
REMARK SMILES IDX 43 55 44 56 59 58 81 59 46 60 29 61 30 62 39 63 31 64 32 65
REMARK SMILES IDX 38 66 40 67 33 68 34 69 35 70 36 71 37 72 63 73 64 74 73 75
REMARK SMILES IDX 65 76 66 77 72 78 74 79 67 80 68 81 69 82 70 83 71 84 47 85
REMARK SMILES IDX 48 86 57 87 49 88 50 89 56 90 58 91 51 92 52 93 53 94 54 95
REMARK SMILES IDX 55 96
REMARK H PARENT 79 46 45 57
REMARK Flexibility Score: inf
ROOT
ATOM      1  C   UNL A   1      32.763  33.310  27.568  1.00  0.00     0.275 C 
ENDROOT
BRANCH   1   2
ATOM      2  C   UNL A   1      33.571  32.094  28.029  1.00  0.00     0.275 C 
BRANCH   2   3
ATOM      3  O   UNL A   1      33.564  31.109  26.984  1.00  0.00    -0.458 OA
BRANCH   3   4
ATOM      4  C   UNL A   1      34.327  30.026  27.208  1.00  0.00     0.354 C 
ATOM      5  O   UNL A   1      35.487  29.982  27.564  1.00  0.00    -0.245 OA
BRANCH   4   6
ATOM      6  C   UNL A   1      33.512  28.803  26.903  1.00  0.00     0.148 C 
ATOM      7  N   UNL A   1      32.960  26.865  26.289  1.00  0.00    -0.256 N 
ATOM      8  N   UNL A   1      34.027  27.680  26.503  1.00  0.00    -0.169 NA
ATOM      9  C   UNL A   1      31.662  27.529  26.413  1.00  0.00     0.154 C 
ATOM     10  C   UNL A   1      32.038  28.822  27.146  1.00  0.00     0.099 C 
BRANCH   7  11
ATOM     11  C   UNL A   1      33.113  25.529  25.959  1.00  0.00     0.060 A 
ATOM     12  C   UNL A   1      33.509  22.810  25.386  1.00  0.00     0.067 A 
ATOM     13  C   UNL A   1      34.365  23.764  24.835  1.00  0.00     0.022 A 
ATOM     14  C   UNL A   1      32.458  23.196  26.218  1.00  0.00     0.022 A 
ATOM     15  C   UNL A   1      34.160  25.116  25.123  1.00  0.00     0.029 A 
ATOM     16  C   UNL A   1      32.263  24.552  26.493  1.00  0.00     0.029 A 
BRANCH  12  17
ATOM     17  S   UNL A   1      33.812  21.079  25.110  1.00  0.00     0.175 S 
ATOM     18  C   UNL A   1      35.582  20.961  25.060  1.00  0.00     0.163 C 
ATOM     19  O   UNL A   1      33.289  20.762  23.793  1.00  0.00    -0.224 OA
ATOM     20  O   UNL A   1      33.325  20.368  26.277  1.00  0.00    -0.224 OA
ENDBRANCH  12  17
ENDBRANCH   7  11
BRANCH   9  21
ATOM     21  C   UNL A   1      30.914  27.766  25.115  1.00  0.00     0.030 A 
ATOM     22  C   UNL A   1      30.116  26.862  24.436  1.00  0.00     0.017 A 
ATOM     23  S   UNL A   1      31.038  29.245  24.248  1.00  0.00    -0.147 S 
ATOM     24  C   UNL A   1      29.598  27.390  23.219  1.00  0.00     0.012 A 
ATOM     25  C   UNL A   1      30.014  28.683  23.002  1.00  0.00     0.065 A 
ENDBRANCH   9  21
ENDBRANCH   4   6
ENDBRANCH   3   4
ENDBRANCH   2   3
ENDBRANCH   1   2
BRANCH   1  26
ATOM     26  O   UNL A   1      32.528  34.185  28.686  1.00  0.00    -0.458 OA
BRANCH  26  27
ATOM     27  C   UNL A   1      33.478  35.134  28.885  1.00  0.00     0.338 C 
ATOM     28  O   UNL A   1      33.381  36.329  28.666  1.00  0.00    -0.246 OA
BRANCH  27  29
ATOM     29  C   UNL A   1      34.620  34.520  29.588  1.00  0.00     0.060 A 
ATOM     30  C   UNL A   1      34.373  33.897  30.815  1.00  0.00     0.016 A 
ATOM     31  C   UNL A   1      35.911  34.536  29.051  1.00  0.00     0.016 A 
ATOM     32  C   UNL A   1      35.413  33.280  31.507  1.00  0.00     0.010 A 
ATOM     33  C   UNL A   1      36.956  33.932  29.753  1.00  0.00     0.010 A 
ATOM     34  C   UNL A   1      36.712  33.304  30.985  1.00  0.00    -0.014 A 
BRANCH  34  35
ATOM     35  C   UNL A   1      37.821  32.682  31.740  1.00  0.00     0.031 A 
ATOM     36  C   UNL A   1      38.504  31.463  31.197  1.00  0.00     0.074 A 
ATOM     37  C   UNL A   1      38.219  33.222  32.905  1.00  0.00     0.049 A 
ATOM     38  N   UNL A   1      39.487  30.773  31.714  1.00  0.00    -0.248 NA
ATOM     39  C   UNL A   1      38.026  30.962  29.901  1.00  0.00     0.031 C 
ATOM     40  C   UNL A   1      37.657  34.429  33.513  1.00  0.00     0.029 A 
ATOM     41  N   UNL A   1      39.191  32.821  33.785  1.00  0.00    -0.354 N 
ATOM     42  C   UNL A   1      39.754  29.760  30.806  1.00  0.00     0.074 A 
ATOM     43  C   UNL A   1      38.823  29.919  29.707  1.00  0.00     0.031 C 
ATOM     44  C   UNL A   1      38.290  34.666  34.676  1.00  0.00     0.029 A 
ATOM     45  C   UNL A   1      39.286  33.620  34.898  1.00  0.00     0.049 A 
ATOM     46  H   UNL A   1      39.764  32.036  33.634  1.00  0.00     0.167 HD
ATOM     47  C   UNL A   1      40.694  28.787  30.877  1.00  0.00     0.037 A 
ATOM     48  C   UNL A   1      40.076  33.509  35.981  1.00  0.00     0.037 A 
ATOM     49  C   UNL A   1      41.612  28.618  31.969  1.00  0.00     0.049 A 
ATOM     50  C   UNL A   1      41.034  32.359  36.087  1.00  0.00     0.074 A 
ATOM     51  C   UNL A   1      42.631  27.691  32.109  1.00  0.00     0.029 A 
ATOM     52  N   UNL A   1      41.609  29.386  33.123  1.00  0.00    -0.354 N 
ATOM     53  N   UNL A   1      41.292  31.422  35.209  1.00  0.00    -0.248 NA
ATOM     54  C   UNL A   1      41.794  32.242  37.340  1.00  0.00     0.031 C 
ATOM     55  C   UNL A   1      43.227  27.883  33.363  1.00  0.00     0.029 A 
ATOM     56  C   UNL A   1      42.586  28.936  33.996  1.00  0.00     0.049 A 
ATOM     57  H   UNL A   1      41.002  30.141  33.297  1.00  0.00     0.167 HD
ATOM     58  C   UNL A   1      42.239  30.597  35.804  1.00  0.00     0.074 A 
ATOM     59  C   UNL A   1      42.515  31.151  37.115  1.00  0.00     0.031 C 
ATOM     60  C   UNL A   1      42.825  29.481  35.306  1.00  0.00     0.037 A 
BRANCH  47  61
ATOM     61  C   UNL A   1      40.753  27.827  29.730  1.00  0.00     0.058 A 
ATOM     62  C   UNL A   1      41.743  27.943  28.742  1.00  0.00     0.135 A 
ATOM     63  C   UNL A   1      39.805  26.802  29.603  1.00  0.00     0.135 A 
ATOM     64  F   UNL A   1      42.659  28.920  28.816  1.00  0.00    -0.206 F 
ATOM     65  C   UNL A   1      41.776  27.084  27.648  1.00  0.00     0.059 A 
ATOM     66  C   UNL A   1      39.822  25.930  28.519  1.00  0.00     0.059 A 
ATOM     67  F   UNL A   1      38.833  26.664  30.517  1.00  0.00    -0.206 F 
ATOM     68  C   UNL A   1      40.802  26.090  27.539  1.00  0.00     0.060 A 
BRANCH  68  69
ATOM     69  S   UNL A   1      40.818  24.996  26.102  1.00  0.00     0.124 S 
ATOM     70  O   UNL A   1      41.217  25.917  25.043  1.00  0.00    -0.237 OA
ATOM     71  O   UNL A   1      41.807  23.989  26.471  1.00  0.00    -0.237 OA
ATOM     72  O   UNL A   1      39.440  24.518  26.034  1.00  0.00    -0.744 OA
ENDBRANCH  68  69
ENDBRANCH  47  61
BRANCH  48  73
ATOM     73  C   UNL A   1      39.965  34.507  37.069  1.00  0.00     0.058 A 
ATOM     74  C   UNL A   1      40.743  35.672  37.056  1.00  0.00     0.135 A 
ATOM     75  C   UNL A   1      39.052  34.330  38.118  1.00  0.00     0.135 A 
ATOM     76  F   UNL A   1      41.629  35.876  36.070  1.00  0.00    -0.206 F 
ATOM     77  C   UNL A   1      40.615  36.638  38.049  1.00  0.00     0.059 A 
ATOM     78  C   UNL A   1      38.903  35.285  39.118  1.00  0.00     0.059 A 
ATOM     79  F   UNL A   1      38.284  33.230  38.163  1.00  0.00    -0.206 F 
ATOM     80  C   UNL A   1      39.693  36.434  39.076  1.00  0.00     0.060 A 
BRANCH  80  81
ATOM     81  S   UNL A   1      39.460  37.713  40.331  1.00  0.00     0.124 S 
ATOM     82  O   UNL A   1      38.389  38.508  39.741  1.00  0.00    -0.237 OA
ATOM     83  O   UNL A   1      39.103  36.941  41.517  1.00  0.00    -0.237 OA
ATOM     84  O   UNL A   1      40.772  38.352  40.384  1.00  0.00    -0.744 OA
ENDBRANCH  80  81
ENDBRANCH  48  73
BRANCH  60  85
ATOM     85  C   UNL A   1      43.802  28.774  36.194  1.00  0.00     0.058 A 
ATOM     86  C   UNL A   1      45.122  29.229  36.315  1.00  0.00     0.135 A 
ATOM     87  C   UNL A   1      43.413  27.658  36.949  1.00  0.00     0.135 A 
ATOM     88  F   UNL A   1      45.539  30.289  35.605  1.00  0.00    -0.206 F 
ATOM     89  C   UNL A   1      46.033  28.594  37.153  1.00  0.00     0.059 A 
ATOM     90  C   UNL A   1      44.306  27.012  37.798  1.00  0.00     0.059 A 
ATOM     91  F   UNL A   1      42.159  27.187  36.864  1.00  0.00    -0.206 F 
ATOM     92  C   UNL A   1      45.617  27.481  37.886  1.00  0.00     0.060 A 
BRANCH  92  93
ATOM     93  S   UNL A   1      46.785  26.669  38.998  1.00  0.00     0.124 S 
ATOM     94  O   UNL A   1      46.973  25.384  38.337  1.00  0.00    -0.237 OA
ATOM     95  O   UNL A   1      47.935  27.568  38.976  1.00  0.00    -0.237 OA
ATOM     96  O   UNL A   1      46.059  26.628  40.265  1.00  0.00    -0.744 OA
ENDBRANCH  92  93
ENDBRANCH  60  85
ENDBRANCH  34  35
ENDBRANCH  27  29
ENDBRANCH  26  27
ENDBRANCH   1  26
TORSDOF 17
ENDMDL
MODEL 3
REMARK VINA RESULT:     -11.1      0.763      8.138
REMARK SMILES CS(=O)(=O)c1ccc(N2N=C(C(=O)OCCOC(=O)c3ccc(-c4c5nc(c(-c6c(F)cc(S(=O)(=O)[O-])cc6F)c6ccc([nH]6)c(-c6c(F)cc(S(=O)(=O)[O-])cc6F)c6nc(c(-c7c(F)cc(S(=O)(=O)[O-])cc7F)c7ccc4[nH]7)C=C6)C=C5)cc3)C[C@H]2c2cccs2)cc1
REMARK SMILES IDX 16 1 15 2 14 3 12 4 13 5 11 6 9 7 10 8 87 9 86 10 8 11 5 12
REMARK SMILES IDX 6 13 94 14 7 15 93 16 2 17 1 18 3 19 4 20 88 21 89 22 92 23
REMARK SMILES IDX 90 24 91 25 17 26 18 27 19 28 20 29 21 30 85 31 22 32 84 33
REMARK SMILES IDX 23 34 24 35 25 36 78 37 26 38 83 39 77 40 79 41 27 42 82 43
REMARK SMILES IDX 76 44 75 45 28 47 62 48 41 49 61 50 42 51 45 52 60 53 80 54
REMARK SMILES IDX 43 55 44 56 59 58 81 59 46 60 29 61 30 62 39 63 31 64 32 65
REMARK SMILES IDX 38 66 40 67 33 68 34 69 35 70 36 71 37 72 63 73 64 74 73 75
REMARK SMILES IDX 65 76 66 77 72 78 74 79 67 80 68 81 69 82 70 83 71 84 47 85
REMARK SMILES IDX 48 86 57 87 49 88 50 89 56 90 58 91 51 92 52 93 53 94 54 95
REMARK SMILES IDX 55 96
REMARK H PARENT 79 46 45 57
REMARK Flexibility Score: inf
ROOT
ATOM      1  C   UNL A   1      35.053  31.851  29.642  1.00  0.00     0.275 C 
ENDROOT
BRANCH   1   2
ATOM      2  C   UNL A   1      34.654  31.816  28.164  1.00  0.00     0.275 C 
BRANCH   2   3
ATOM      3  O   UNL A   1      33.888  30.627  27.919  1.00  0.00    -0.458 OA
BRANCH   3   4
ATOM      4  C   UNL A   1      34.572  29.600  27.385  1.00  0.00     0.354 C 
ATOM      5  O   UNL A   1      35.771  29.499  27.218  1.00  0.00    -0.245 OA
BRANCH   4   6
ATOM      6  C   UNL A   1      33.591  28.545  26.965  1.00  0.00     0.148 C 
ATOM      7  N   UNL A   1      32.770  26.772  26.179  1.00  0.00    -0.256 N 
ATOM      8  N   UNL A   1      33.942  27.394  26.479  1.00  0.00    -0.169 NA
ATOM      9  C   UNL A   1      31.584  27.615  26.339  1.00  0.00     0.154 C 
ATOM     10  C   UNL A   1      32.131  28.771  27.185  1.00  0.00     0.099 C 
BRANCH   7  11
ATOM     11  C   UNL A   1      32.728  25.460  25.739  1.00  0.00     0.060 A 
ATOM     12  C   UNL A   1      32.735  22.771  24.934  1.00  0.00     0.067 A 
ATOM     13  C   UNL A   1      33.662  23.657  24.388  1.00  0.00     0.022 A 
ATOM     14  C   UNL A   1      31.804  23.209  25.876  1.00  0.00     0.022 A 
ATOM     15  C   UNL A   1      33.651  24.996  24.792  1.00  0.00     0.029 A 
ATOM     16  C   UNL A   1      31.802  24.551  26.267  1.00  0.00     0.029 A 
BRANCH  12  17
ATOM     17  S   UNL A   1      32.795  21.045  24.507  1.00  0.00     0.175 S 
ATOM     18  C   UNL A   1      32.163  20.997  22.849  1.00  0.00     0.163 C 
ATOM     19  O   UNL A   1      31.859  20.360  25.380  1.00  0.00    -0.224 OA
ATOM     20  O   UNL A   1      34.193  20.658  24.490  1.00  0.00    -0.224 OA
ENDBRANCH  12  17
ENDBRANCH   7  11
BRANCH   9  21
ATOM     21  C   UNL A   1      30.919  28.069  25.053  1.00  0.00     0.030 A 
ATOM     22  C   UNL A   1      30.187  27.290  24.174  1.00  0.00     0.017 A 
ATOM     23  S   UNL A   1      31.067  29.679  24.469  1.00  0.00    -0.147 S 
ATOM     24  C   UNL A   1      29.739  28.018  23.035  1.00  0.00     0.012 A 
ATOM     25  C   UNL A   1      30.140  29.334  23.077  1.00  0.00     0.065 A 
ENDBRANCH   9  21
ENDBRANCH   4   6
ENDBRANCH   3   4
ENDBRANCH   2   3
ENDBRANCH   1   2
BRANCH   1  26
ATOM     26  O   UNL A   1      36.483  31.738  29.759  1.00  0.00    -0.458 OA
BRANCH  26  27
ATOM     27  C   UNL A   1      36.918  30.708  30.529  1.00  0.00     0.338 C 
ATOM     28  O   UNL A   1      36.274  30.086  31.357  1.00  0.00    -0.246 OA
BRANCH  27  29
ATOM     29  C   UNL A   1      38.271  30.324  30.085  1.00  0.00     0.060 A 
ATOM     30  C   UNL A   1      38.487  30.165  28.713  1.00  0.00     0.016 A 
ATOM     31  C   UNL A   1      39.318  30.136  30.992  1.00  0.00     0.016 A 
ATOM     32  C   UNL A   1      39.753  29.827  28.240  1.00  0.00     0.010 A 
ATOM     33  C   UNL A   1      40.583  29.781  30.518  1.00  0.00     0.010 A 
ATOM     34  C   UNL A   1      40.805  29.622  29.141  1.00  0.00    -0.014 A 
BRANCH  34  35
ATOM     35  C   UNL A   1      42.138  29.225  28.640  1.00  0.00     0.031 A 
ATOM     36  C   UNL A   1      42.396  27.802  28.245  1.00  0.00     0.074 A 
ATOM     37  C   UNL A   1      43.109  30.148  28.528  1.00  0.00     0.049 A 
ATOM     38  N   UNL A   1      43.497  27.262  27.792  1.00  0.00    -0.248 NA
ATOM     39  C   UNL A   1      41.267  26.868  28.367  1.00  0.00     0.031 C 
ATOM     40  C   UNL A   1      42.964  31.570  28.843  1.00  0.00     0.029 A 
ATOM     41  N   UNL A   1      44.412  30.023  28.119  1.00  0.00    -0.354 N 
ATOM     42  C   UNL A   1      43.196  25.927  27.565  1.00  0.00     0.074 A 
ATOM     43  C   UNL A   1      41.809  25.736  27.940  1.00  0.00     0.031 C 
ATOM     44  C   UNL A   1      44.139  32.186  28.624  1.00  0.00     0.029 A 
ATOM     45  C   UNL A   1      45.117  31.200  28.170  1.00  0.00     0.049 A 
ATOM     46  H   UNL A   1      44.803  29.172  27.819  1.00  0.00     0.167 HD
ATOM     47  C   UNL A   1      43.999  24.949  27.084  1.00  0.00     0.037 A 
ATOM     48  C   UNL A   1      46.411  31.448  27.898  1.00  0.00     0.037 A 
ATOM     49  C   UNL A   1      45.378  25.131  26.721  1.00  0.00     0.049 A 
ATOM     50  C   UNL A   1      47.310  30.326  27.470  1.00  0.00     0.074 A 
ATOM     51  C   UNL A   1      46.259  24.210  26.179  1.00  0.00     0.029 A 
ATOM     52  N   UNL A   1      46.083  26.312  26.883  1.00  0.00    -0.354 N 
ATOM     53  N   UNL A   1      47.005  29.073  27.238  1.00  0.00    -0.248 NA
ATOM     54  C   UNL A   1      48.732  30.648  27.287  1.00  0.00     0.031 C 
ATOM     55  C   UNL A   1      47.508  24.832  26.039  1.00  0.00     0.029 A 
ATOM     56  C   UNL A   1      47.397  26.140  26.483  1.00  0.00     0.049 A 
ATOM     57  H   UNL A   1      45.704  27.152  27.231  1.00  0.00     0.167 HD
ATOM     58  C   UNL A   1      48.197  28.452  26.888  1.00  0.00     0.074 A 
ATOM     59  C   UNL A   1      49.229  29.470  26.930  1.00  0.00     0.031 C 
ATOM     60  C   UNL A   1      48.415  27.155  26.560  1.00  0.00     0.037 A 
BRANCH  47  61
ATOM     61  C   UNL A   1      43.389  23.590  26.937  1.00  0.00     0.058 A 
ATOM     62  C   UNL A   1      43.203  22.758  28.052  1.00  0.00     0.135 A 
ATOM     63  C   UNL A   1      43.010  23.106  25.678  1.00  0.00     0.135 A 
ATOM     64  F   UNL A   1      43.567  23.175  29.274  1.00  0.00    -0.206 F 
ATOM     65  C   UNL A   1      42.680  21.476  27.918  1.00  0.00     0.059 A 
ATOM     66  C   UNL A   1      42.482  21.828  25.521  1.00  0.00     0.059 A 
ATOM     67  F   UNL A   1      43.184  23.863  24.583  1.00  0.00    -0.206 F 
ATOM     68  C   UNL A   1      42.337  21.015  26.645  1.00  0.00     0.060 A 
BRANCH  68  69
ATOM     69  S   UNL A   1      41.693  19.338  26.460  1.00  0.00     0.124 S 
ATOM     70  O   UNL A   1      41.944  18.785  27.787  1.00  0.00    -0.237 OA
ATOM     71  O   UNL A   1      40.292  19.563  26.123  1.00  0.00    -0.237 OA
ATOM     72  O   UNL A   1      42.510  18.786  25.383  1.00  0.00    -0.744 OA
ENDBRANCH  68  69
ENDBRANCH  47  61
BRANCH  48  73
ATOM     73  C   UNL A   1      46.937  32.824  28.056  1.00  0.00     0.058 A 
ATOM     74  C   UNL A   1      46.830  33.757  27.017  1.00  0.00     0.135 A 
ATOM     75  C   UNL A   1      47.521  33.237  29.262  1.00  0.00     0.135 A 
ATOM     76  F   UNL A   1      46.280  33.398  25.848  1.00  0.00    -0.206 F 
ATOM     77  C   UNL A   1      47.280  35.064  27.169  1.00  0.00     0.059 A 
ATOM     78  C   UNL A   1      47.972  34.540  29.439  1.00  0.00     0.059 A 
ATOM     79  F   UNL A   1      47.635  32.375  30.284  1.00  0.00    -0.206 F 
ATOM     80  C   UNL A   1      47.851  35.446  28.385  1.00  0.00     0.060 A 
BRANCH  80  81
ATOM     81  S   UNL A   1      48.371  37.159  28.626  1.00  0.00     0.124 S 
ATOM     82  O   UNL A   1      49.808  37.061  28.395  1.00  0.00    -0.237 OA
ATOM     83  O   UNL A   1      47.609  37.875  27.608  1.00  0.00    -0.237 OA
ATOM     84  O   UNL A   1      47.964  37.426  30.003  1.00  0.00    -0.744 OA
ENDBRANCH  80  81
ENDBRANCH  48  73
BRANCH  60  85
ATOM     85  C   UNL A   1      49.826  26.762  26.250  1.00  0.00     0.058 A 
ATOM     86  C   UNL A   1      50.378  27.007  24.984  1.00  0.00     0.135 A 
ATOM     87  C   UNL A   1      50.640  26.165  27.224  1.00  0.00     0.135 A 
ATOM     88  F   UNL A   1      49.633  27.569  24.020  1.00  0.00    -0.206 F 
ATOM     89  C   UNL A   1      51.693  26.666  24.689  1.00  0.00     0.059 A 
ATOM     90  C   UNL A   1      51.960  25.822  26.953  1.00  0.00     0.059 A 
ATOM     91  F   UNL A   1      50.152  25.912  28.448  1.00  0.00    -0.206 F 
ATOM     92  C   UNL A   1      52.476  26.067  25.680  1.00  0.00     0.060 A 
BRANCH  92  93
ATOM     93  S   UNL A   1      54.194  25.648  25.314  1.00  0.00     0.124 S 
ATOM     94  O   UNL A   1      54.912  26.596  26.157  1.00  0.00    -0.237 OA
ATOM     95  O   UNL A   1      54.281  24.248  25.719  1.00  0.00    -0.237 OA
ATOM     96  O   UNL A   1      54.291  25.882  23.876  1.00  0.00    -0.744 OA
ENDBRANCH  92  93
ENDBRANCH  60  85
ENDBRANCH  34  35
ENDBRANCH  27  29
ENDBRANCH  26  27
ENDBRANCH   1  26
TORSDOF 17
ENDMDL
