MODEL 1
REMARK VINA RESULT:     -11.4      0.000      0.000
REMARK SMILES Cn1c(C[N@@H+]2CCOC[C@H]2CC(=O)OCCOC(=O)c2ccc(-c3c4nc(c(-c5c(F)cc(S(=O)(=O)[O-])cc5F)c5ccc([nH]5)c(-c5c(F)cc(S(=O)(=O)[O-])cc5F)c5nc(c(-c6c(F)cc(S(=O)(=O)[O-])cc6F)c6ccc3[nH]6)C=C5)C=C4)cc2)nc2ccccc21
REMARK SMILES IDX 15 1 14 2 12 3 13 4 11 5 10 6 5 7 6 8 7 10 9 11 8 12 4 13
REMARK SMILES IDX 3 14 1 15 2 16 92 17 86 18 87 19 91 20 88 21 90 22 89 23
REMARK SMILES IDX 16 24 17 25 18 26 19 27 20 28 21 29 85 30 22 31 84 32 23 33
REMARK SMILES IDX 24 34 25 35 78 36 26 37 83 38 77 39 79 40 27 41 82 42 76 43
REMARK SMILES IDX 75 44 28 46 62 47 41 48 61 49 42 50 45 51 60 52 80 53 43 54
REMARK SMILES IDX 44 55 59 57 81 58 46 59 29 60 30 61 39 62 31 63 32 64 38 65
REMARK SMILES IDX 40 66 33 67 34 68 35 69 36 70 37 71 63 72 64 73 73 74 65 75
REMARK SMILES IDX 66 76 72 77 74 78 67 79 68 80 69 81 70 82 71 83 47 84 48 85
REMARK SMILES IDX 57 86 49 87 50 88 56 89 58 90 51 91 52 92 53 93 54 94 55 95
REMARK H PARENT 5 9 79 45 45 56
REMARK Flexibility Score: inf
ROOT
ATOM      1  C   UNL A   1      33.203  29.645  27.158  1.00  0.00     0.274 C 
ENDROOT
BRANCH   1   2
ATOM      2  O   UNL A   1      32.987  30.082  25.806  1.00  0.00    -0.462 OA
BRANCH   2   3
ATOM      3  C   UNL A   1      32.731  29.099  24.911  1.00  0.00     0.312 C 
ATOM      4  O   UNL A   1      33.351  28.938  23.864  1.00  0.00    -0.252 OA
BRANCH   3   5
ATOM      5  C   UNL A   1      31.534  28.259  25.251  1.00  0.00     0.190 C 
BRANCH   5   6
ATOM      6  C   UNL A   1      31.289  26.960  24.441  1.00  0.00     0.221 C 
ATOM      7  N   UNL A   1      32.505  26.121  24.366  1.00  0.00    -0.322 N 
ATOM      8  C   UNL A   1      32.844  25.541  25.679  1.00  0.00     0.291 C 
ATOM      9  H   UNL A   1      33.264  26.759  24.126  1.00  0.00     0.348 HD
ATOM     10  C   UNL A   1      31.663  25.086  26.570  1.00  0.00     0.221 C 
ATOM     11  C   UNL A   1      30.143  26.211  25.160  1.00  0.00     0.225 C 
ATOM     12  O   UNL A   1      30.518  25.947  26.518  1.00  0.00    -0.369 OA
BRANCH   7  13
ATOM     13  C   UNL A   1      32.557  25.169  23.233  1.00  0.00     0.339 C 
BRANCH  13  14
ATOM     14  C   UNL A   1      33.531  24.027  23.358  1.00  0.00     0.165 A 
ATOM     15  C   UNL A   1      31.975  22.231  24.253  1.00  0.00     0.152 C 
ATOM     16  N   UNL A   1      33.260  22.790  23.909  1.00  0.00    -0.326 N 
ATOM     17  C   UNL A   1      34.468  22.178  24.179  1.00  0.00     0.068 A 
ATOM     18  N   UNL A   1      34.802  24.086  22.996  1.00  0.00    -0.227 NA
ATOM     19  C   UNL A   1      35.409  23.015  23.596  1.00  0.00     0.089 A 
ATOM     20  C   UNL A   1      34.826  21.025  24.889  1.00  0.00     0.028 A 
ATOM     21  C   UNL A   1      36.776  22.734  23.730  1.00  0.00     0.030 A 
ATOM     22  C   UNL A   1      36.197  20.773  25.041  1.00  0.00     0.002 A 
ATOM     23  C   UNL A   1      37.159  21.615  24.478  1.00  0.00     0.002 A 
ENDBRANCH  13  14
ENDBRANCH   7  13
ENDBRANCH   5   6
ENDBRANCH   3   5
ENDBRANCH   2   3
ENDBRANCH   1   2
BRANCH   1  24
ATOM     24  C   UNL A   1      34.640  29.167  27.383  1.00  0.00     0.275 C 
BRANCH  24  25
ATOM     25  O   UNL A   1      35.543  30.255  27.652  1.00  0.00    -0.458 OA
BRANCH  25  26
ATOM     26  C   UNL A   1      36.125  30.241  28.873  1.00  0.00     0.338 C 
ATOM     27  O   UNL A   1      35.575  30.361  29.961  1.00  0.00    -0.246 OA
BRANCH  26  28
ATOM     28  C   UNL A   1      37.557  29.940  28.736  1.00  0.00     0.060 A 
ATOM     29  C   UNL A   1      38.075  29.723  27.455  1.00  0.00     0.016 A 
ATOM     30  C   UNL A   1      38.367  29.800  29.864  1.00  0.00     0.016 A 
ATOM     31  C   UNL A   1      39.410  29.361  27.295  1.00  0.00     0.010 A 
ATOM     32  C   UNL A   1      39.705  29.434  29.701  1.00  0.00     0.010 A 
ATOM     33  C   UNL A   1      40.232  29.204  28.418  1.00  0.00    -0.014 A 
BRANCH  33  34
ATOM     34  C   UNL A   1      41.637  28.756  28.261  1.00  0.00     0.031 A 
ATOM     35  C   UNL A   1      42.748  29.763  28.320  1.00  0.00     0.074 A 
ATOM     36  C   UNL A   1      41.907  27.455  28.052  1.00  0.00     0.049 A 
ATOM     37  N   UNL A   1      44.021  29.607  28.068  1.00  0.00    -0.248 NA
ATOM     38  C   UNL A   1      42.373  31.132  28.708  1.00  0.00     0.031 C 
ATOM     39  C   UNL A   1      40.913  26.382  28.016  1.00  0.00     0.029 A 
ATOM     40  N   UNL A   1      43.098  26.818  27.812  1.00  0.00    -0.354 N 
ATOM     41  C   UNL A   1      44.599  30.857  28.249  1.00  0.00     0.074 A 
ATOM     42  C   UNL A   1      43.533  31.766  28.615  1.00  0.00     0.031 C 
ATOM     43  C   UNL A   1      41.533  25.221  27.750  1.00  0.00     0.029 A 
ATOM     44  C   UNL A   1      42.958  25.476  27.554  1.00  0.00     0.049 A 
ATOM     45  H   UNL A   1      43.969  27.278  27.825  1.00  0.00     0.167 HD
ATOM     46  C   UNL A   1      45.901  31.211  28.120  1.00  0.00     0.037 A 
ATOM     47  C   UNL A   1      43.869  24.563  27.163  1.00  0.00     0.037 A 
ATOM     48  C   UNL A   1      46.953  30.298  27.756  1.00  0.00     0.049 A 
ATOM     49  C   UNL A   1      45.300  24.988  26.977  1.00  0.00     0.074 A 
ATOM     50  C   UNL A   1      48.302  30.557  27.590  1.00  0.00     0.029 A 
ATOM     51  N   UNL A   1      46.772  28.946  27.501  1.00  0.00    -0.354 N 
ATOM     52  N   UNL A   1      45.832  26.178  27.131  1.00  0.00    -0.248 NA
ATOM     53  C   UNL A   1      46.254  23.950  26.563  1.00  0.00     0.031 C 
ATOM     54  C   UNL A   1      48.931  29.368  27.203  1.00  0.00     0.029 A 
ATOM     55  C   UNL A   1      47.982  28.359  27.170  1.00  0.00     0.049 A 
ATOM     56  H   UNL A   1      45.910  28.472  27.549  1.00  0.00     0.167 HD
ATOM     57  C   UNL A   1      47.185  26.028  26.848  1.00  0.00     0.074 A 
ATOM     58  C   UNL A   1      47.391  24.631  26.526  1.00  0.00     0.031 C 
ATOM     59  C   UNL A   1      48.167  26.963  26.856  1.00  0.00     0.037 A 
BRANCH  46  60
ATOM     60  C   UNL A   1      46.248  32.656  28.347  1.00  0.00     0.058 A 
ATOM     61  C   UNL A   1      46.167  33.605  27.316  1.00  0.00     0.135 A 
ATOM     62  C   UNL A   1      46.662  33.099  29.613  1.00  0.00     0.135 A 
ATOM     63  F   UNL A   1      45.794  33.231  26.081  1.00  0.00    -0.206 F 
ATOM     64  C   UNL A   1      46.517  34.935  27.522  1.00  0.00     0.059 A 
ATOM     65  C   UNL A   1      46.995  34.430  29.849  1.00  0.00     0.059 A 
ATOM     66  F   UNL A   1      46.759  32.233  30.635  1.00  0.00    -0.206 F 
ATOM     67  C   UNL A   1      46.938  35.337  28.792  1.00  0.00     0.060 A 
BRANCH  67  68
ATOM     68  S   UNL A   1      47.416  37.060  29.039  1.00  0.00     0.124 S 
ATOM     69  O   UNL A   1      46.307  37.554  29.850  1.00  0.00    -0.237 OA
ATOM     70  O   UNL A   1      48.696  36.936  29.728  1.00  0.00    -0.237 OA
ATOM     71  O   UNL A   1      47.486  37.592  27.682  1.00  0.00    -0.744 OA
ENDBRANCH  67  68
ENDBRANCH  46  60
BRANCH  47  72
ATOM     72  C   UNL A   1      43.441  23.166  26.895  1.00  0.00     0.058 A 
ATOM     73  C   UNL A   1      43.368  22.667  25.588  1.00  0.00     0.135 A 
ATOM     74  C   UNL A   1      43.124  22.293  27.948  1.00  0.00     0.135 A 
ATOM     75  F   UNL A   1      43.650  23.467  24.548  1.00  0.00    -0.206 F 
ATOM     76  C   UNL A   1      42.993  21.352  25.331  1.00  0.00     0.059 A 
ATOM     77  C   UNL A   1      42.769  20.968  27.718  1.00  0.00     0.059 A 
ATOM     78  F   UNL A   1      43.188  22.721  29.219  1.00  0.00    -0.206 F 
ATOM     79  C   UNL A   1      42.699  20.509  26.404  1.00  0.00     0.060 A 
BRANCH  79  80
ATOM     80  S   UNL A   1      42.276  18.786  26.066  1.00  0.00     0.124 S 
ATOM     81  O   UNL A   1      43.218  18.455  25.003  1.00  0.00    -0.237 OA
ATOM     82  O   UNL A   1      42.521  18.148  27.357  1.00  0.00    -0.237 OA
ATOM     83  O   UNL A   1      40.873  18.857  25.669  1.00  0.00    -0.744 OA
ENDBRANCH  79  80
ENDBRANCH  47  72
BRANCH  59  84
ATOM     84  C   UNL A   1      49.560  26.501  26.534  1.00  0.00     0.058 A 
ATOM     85  C   UNL A   1      50.386  25.921  27.508  1.00  0.00     0.135 A 
ATOM     86  C   UNL A   1      50.054  26.594  25.223  1.00  0.00     0.135 A 
ATOM     87  F   UNL A   1      49.963  25.816  28.778  1.00  0.00    -0.206 F 
ATOM     88  C   UNL A   1      51.663  25.463  27.197  1.00  0.00     0.059 A 
ATOM     89  C   UNL A   1      51.318  26.123  24.885  1.00  0.00     0.059 A 
ATOM     90  F   UNL A   1      49.298  27.133  24.253  1.00  0.00    -0.206 F 
ATOM     91  C   UNL A   1      52.121  25.569  25.881  1.00  0.00     0.060 A 
BRANCH  91  92
ATOM     92  S   UNL A   1      53.764  24.939  25.480  1.00  0.00     0.124 S 
ATOM     93  O   UNL A   1      54.143  25.798  24.364  1.00  0.00    -0.237 OA
ATOM     94  O   UNL A   1      54.496  25.154  26.724  1.00  0.00    -0.237 OA
ATOM     95  O   UNL A   1      53.516  23.541  25.141  1.00  0.00    -0.744 OA
ENDBRANCH  91  92
ENDBRANCH  59  84
ENDBRANCH  33  34
ENDBRANCH  26  28
ENDBRANCH  25  26
ENDBRANCH  24  25
ENDBRANCH   1  24
TORSDOF 17
ENDMDL
MODEL 2
REMARK VINA RESULT:     -11.2      2.546      3.237
REMARK SMILES Cn1c(C[N@@H+]2CCOC[C@H]2CC(=O)OCCOC(=O)c2ccc(-c3c4nc(c(-c5c(F)cc(S(=O)(=O)[O-])cc5F)c5ccc([nH]5)c(-c5c(F)cc(S(=O)(=O)[O-])cc5F)c5nc(c(-c6c(F)cc(S(=O)(=O)[O-])cc6F)c6ccc3[nH]6)C=C5)C=C4)cc2)nc2ccccc21
REMARK SMILES IDX 15 1 14 2 12 3 13 4 11 5 10 6 5 7 6 8 7 10 9 11 8 12 4 13
REMARK SMILES IDX 3 14 1 15 2 16 92 17 86 18 87 19 91 20 88 21 90 22 89 23
REMARK SMILES IDX 16 24 17 25 18 26 19 27 20 28 21 29 85 30 22 31 84 32 23 33
REMARK SMILES IDX 24 34 25 35 78 36 26 37 83 38 77 39 79 40 27 41 82 42 76 43
REMARK SMILES IDX 75 44 28 46 62 47 41 48 61 49 42 50 45 51 60 52 80 53 43 54
REMARK SMILES IDX 44 55 59 57 81 58 46 59 29 60 30 61 39 62 31 63 32 64 38 65
REMARK SMILES IDX 40 66 33 67 34 68 35 69 36 70 37 71 63 72 64 73 73 74 65 75
REMARK SMILES IDX 66 76 72 77 74 78 67 79 68 80 69 81 70 82 71 83 47 84 48 85
REMARK SMILES IDX 57 86 49 87 50 88 56 89 58 90 51 91 52 92 53 93 54 94 55 95
REMARK H PARENT 5 9 79 45 45 56
REMARK Flexibility Score: inf
ROOT
ATOM      1  C   UNL A   1      31.982  29.468  25.602  1.00  0.00     0.274 C 
ENDROOT
BRANCH   1   2
ATOM      2  O   UNL A   1      33.008  29.248  24.620  1.00  0.00    -0.462 OA
BRANCH   2   3
ATOM      3  C   UNL A   1      32.618  28.575  23.512  1.00  0.00     0.312 C 
ATOM      4  O   UNL A   1      33.294  28.468  22.493  1.00  0.00    -0.252 OA
BRANCH   3   5
ATOM      5  C   UNL A   1      31.216  28.040  23.583  1.00  0.00     0.190 C 
BRANCH   5   6
ATOM      6  C   UNL A   1      30.973  26.555  23.212  1.00  0.00     0.221 C 
ATOM      7  N   UNL A   1      32.179  25.727  23.436  1.00  0.00    -0.322 N 
ATOM      8  C   UNL A   1      32.477  25.583  24.873  1.00  0.00     0.291 C 
ATOM      9  H   UNL A   1      32.952  26.254  23.030  1.00  0.00     0.348 HD
ATOM     10  C   UNL A   1      31.268  25.436  25.828  1.00  0.00     0.221 C 
ATOM     11  C   UNL A   1      29.799  26.074  24.096  1.00  0.00     0.225 C 
ATOM     12  O   UNL A   1      30.136  26.244  25.479  1.00  0.00    -0.369 OA
BRANCH   7  13
ATOM     13  C   UNL A   1      32.245  24.469  22.658  1.00  0.00     0.339 C 
BRANCH  13  14
ATOM     14  C   UNL A   1      33.380  23.535  22.985  1.00  0.00     0.165 A 
ATOM     15  C   UNL A   1      32.090  21.685  24.153  1.00  0.00     0.152 C 
ATOM     16  N   UNL A   1      33.285  22.378  23.734  1.00  0.00    -0.326 N 
ATOM     17  C   UNL A   1      34.561  22.020  24.118  1.00  0.00     0.068 A 
ATOM     18  N   UNL A   1      34.639  23.736  22.633  1.00  0.00    -0.227 NA
ATOM     19  C   UNL A   1      35.382  22.890  23.412  1.00  0.00     0.089 A 
ATOM     20  C   UNL A   1      35.068  21.073  25.016  1.00  0.00     0.028 A 
ATOM     21  C   UNL A   1      36.770  22.857  23.607  1.00  0.00     0.030 A 
ATOM     22  C   UNL A   1      36.455  21.072  25.224  1.00  0.00     0.002 A 
ATOM     23  C   UNL A   1      37.294  21.953  24.537  1.00  0.00     0.002 A 
ENDBRANCH  13  14
ENDBRANCH   7  13
ENDBRANCH   5   6
ENDBRANCH   3   5
ENDBRANCH   2   3
ENDBRANCH   1   2
BRANCH   1  24
ATOM     24  C   UNL A   1      32.414  29.003  26.995  1.00  0.00     0.275 C 
BRANCH  24  25
ATOM     25  O   UNL A   1      33.842  29.057  27.172  1.00  0.00    -0.458 OA
BRANCH  25  26
ATOM     26  C   UNL A   1      34.315  30.183  27.753  1.00  0.00     0.338 C 
ATOM     27  O   UNL A   1      33.690  31.202  28.019  1.00  0.00    -0.246 OA
BRANCH  26  28
ATOM     28  C   UNL A   1      35.718  29.987  28.145  1.00  0.00     0.060 A 
ATOM     29  C   UNL A   1      36.706  30.074  27.158  1.00  0.00     0.016 A 
ATOM     30  C   UNL A   1      36.051  29.646  29.456  1.00  0.00     0.016 A 
ATOM     31  C   UNL A   1      38.037  29.818  27.479  1.00  0.00     0.010 A 
ATOM     32  C   UNL A   1      37.386  29.388  29.775  1.00  0.00     0.010 A 
ATOM     33  C   UNL A   1      38.385  29.462  28.788  1.00  0.00    -0.014 A 
BRANCH  33  34
ATOM     34  C   UNL A   1      39.789  29.126  29.124  1.00  0.00     0.031 A 
ATOM     35  C   UNL A   1      40.681  30.174  29.722  1.00  0.00     0.074 A 
ATOM     36  C   UNL A   1      40.259  27.890  28.877  1.00  0.00     0.049 A 
ATOM     37  N   UNL A   1      41.966  30.131  29.957  1.00  0.00    -0.248 NA
ATOM     38  C   UNL A   1      40.040  31.443  30.101  1.00  0.00     0.031 C 
ATOM     39  C   UNL A   1      39.475  26.780  28.336  1.00  0.00     0.029 A 
ATOM     40  N   UNL A   1      41.518  27.367  29.034  1.00  0.00    -0.354 N 
ATOM     41  C   UNL A   1      42.294  31.370  30.494  1.00  0.00     0.074 A 
ATOM     42  C   UNL A   1      41.074  32.149  30.534  1.00  0.00     0.031 C 
ATOM     43  C   UNL A   1      40.274  25.711  28.188  1.00  0.00     0.029 A 
ATOM     44  C   UNL A   1      41.633  26.075  28.581  1.00  0.00     0.049 A 
ATOM     45  H   UNL A   1      42.266  27.868  29.432  1.00  0.00     0.167 HD
ATOM     46  C   UNL A   1      43.504  31.813  30.914  1.00  0.00     0.037 A 
ATOM     47  C   UNL A   1      42.719  25.287  28.458  1.00  0.00     0.037 A 
ATOM     48  C   UNL A   1      44.711  31.029  30.870  1.00  0.00     0.049 A 
ATOM     49  C   UNL A   1      44.062  25.816  28.884  1.00  0.00     0.074 A 
ATOM     50  C   UNL A   1      45.988  31.388  31.262  1.00  0.00     0.029 A 
ATOM     51  N   UNL A   1      44.788  29.724  30.403  1.00  0.00    -0.354 N 
ATOM     52  N   UNL A   1      44.363  26.997  29.371  1.00  0.00    -0.248 NA
ATOM     53  C   UNL A   1      45.210  24.912  28.741  1.00  0.00     0.031 C 
ATOM     54  C   UNL A   1      46.843  30.310  31.003  1.00  0.00     0.029 A 
ATOM     55  C   UNL A   1      46.092  29.265  30.489  1.00  0.00     0.049 A 
ATOM     56  H   UNL A   1      44.027  29.200  30.062  1.00  0.00     0.167 HD
ATOM     57  C   UNL A   1      45.734  26.971  29.609  1.00  0.00     0.074 A 
ATOM     58  C   UNL A   1      46.198  25.654  29.222  1.00  0.00     0.031 C 
ATOM     59  C   UNL A   1      46.534  27.948  30.102  1.00  0.00     0.037 A 
BRANCH  46  60
ATOM     60  C   UNL A   1      43.580  33.223  31.429  1.00  0.00     0.058 A 
ATOM     61  C   UNL A   1      43.840  34.307  30.576  1.00  0.00     0.135 A 
ATOM     62  C   UNL A   1      43.386  33.496  32.793  1.00  0.00     0.135 A 
ATOM     63  F   UNL A   1      44.051  34.101  29.266  1.00  0.00    -0.206 F 
ATOM     64  C   UNL A   1      43.939  35.607  31.061  1.00  0.00     0.059 A 
ATOM     65  C   UNL A   1      43.457  34.791  33.297  1.00  0.00     0.059 A 
ATOM     66  F   UNL A   1      43.136  32.496  33.653  1.00  0.00    -0.206 F 
ATOM     67  C   UNL A   1      43.753  35.839  32.426  1.00  0.00     0.060 A 
BRANCH  67  68
ATOM     68  S   UNL A   1      43.912  37.526  33.047  1.00  0.00     0.124 S 
ATOM     69  O   UNL A   1      43.720  38.303  31.826  1.00  0.00    -0.237 OA
ATOM     70  O   UNL A   1      42.830  37.606  34.023  1.00  0.00    -0.237 OA
ATOM     71  O   UNL A   1      45.260  37.558  33.606  1.00  0.00    -0.744 OA
ENDBRANCH  67  68
ENDBRANCH  46  60
BRANCH  47  72
ATOM     72  C   UNL A   1      42.578  23.926  27.881  1.00  0.00     0.058 A 
ATOM     73  C   UNL A   1      42.481  22.795  28.703  1.00  0.00     0.135 A 
ATOM     74  C   UNL A   1      42.507  23.734  26.491  1.00  0.00     0.135 A 
ATOM     75  F   UNL A   1      42.555  22.927  30.036  1.00  0.00    -0.206 F 
ATOM     76  C   UNL A   1      42.323  21.519  28.169  1.00  0.00     0.059 A 
ATOM     77  C   UNL A   1      42.326  22.472  25.935  1.00  0.00     0.059 A 
ATOM     78  F   UNL A   1      42.585  24.786  25.663  1.00  0.00    -0.206 F 
ATOM     79  C   UNL A   1      42.242  21.369  26.784  1.00  0.00     0.060 A 
BRANCH  79  80
ATOM     80  S   UNL A   1      41.972  19.718  26.102  1.00  0.00     0.124 S 
ATOM     81  O   UNL A   1      42.907  19.706  24.983  1.00  0.00    -0.237 OA
ATOM     82  O   UNL A   1      42.316  18.857  27.230  1.00  0.00    -0.237 OA
ATOM     83  O   UNL A   1      40.557  19.731  25.744  1.00  0.00    -0.744 OA
ENDBRANCH  79  80
ENDBRANCH  47  72
BRANCH  59  84
ATOM     84  C   UNL A   1      47.989  27.621  30.281  1.00  0.00     0.058 A 
ATOM     85  C   UNL A   1      48.486  27.111  31.490  1.00  0.00     0.135 A 
ATOM     86  C   UNL A   1      48.888  27.774  29.213  1.00  0.00     0.135 A 
ATOM     87  F   UNL A   1      47.669  26.953  32.543  1.00  0.00    -0.206 F 
ATOM     88  C   UNL A   1      49.829  26.778  31.639  1.00  0.00     0.059 A 
ATOM     89  C   UNL A   1      50.229  27.427  29.333  1.00  0.00     0.059 A 
ATOM     90  F   UNL A   1      48.459  28.250  28.033  1.00  0.00    -0.206 F 
ATOM     91  C   UNL A   1      50.693  26.940  30.554  1.00  0.00     0.060 A 
BRANCH  91  92
ATOM     92  S   UNL A   1      52.425  26.470  30.747  1.00  0.00     0.124 S 
ATOM     93  O   UNL A   1      52.854  26.353  29.357  1.00  0.00    -0.237 OA
ATOM     94  O   UNL A   1      52.978  27.599  31.488  1.00  0.00    -0.237 OA
ATOM     95  O   UNL A   1      52.355  25.216  31.490  1.00  0.00    -0.744 OA
ENDBRANCH  91  92
ENDBRANCH  59  84
ENDBRANCH  33  34
ENDBRANCH  26  28
ENDBRANCH  25  26
ENDBRANCH  24  25
ENDBRANCH   1  24
TORSDOF 17
ENDMDL
MODEL 3
REMARK VINA RESULT:     -11.2      2.523      3.471
REMARK SMILES Cn1c(C[N@@H+]2CCOC[C@H]2CC(=O)OCCOC(=O)c2ccc(-c3c4nc(c(-c5c(F)cc(S(=O)(=O)[O-])cc5F)c5ccc([nH]5)c(-c5c(F)cc(S(=O)(=O)[O-])cc5F)c5nc(c(-c6c(F)cc(S(=O)(=O)[O-])cc6F)c6ccc3[nH]6)C=C5)C=C4)cc2)nc2ccccc21
REMARK SMILES IDX 15 1 14 2 12 3 13 4 11 5 10 6 5 7 6 8 7 10 9 11 8 12 4 13
REMARK SMILES IDX 3 14 1 15 2 16 92 17 86 18 87 19 91 20 88 21 90 22 89 23
REMARK SMILES IDX 16 24 17 25 18 26 19 27 20 28 21 29 85 30 22 31 84 32 23 33
REMARK SMILES IDX 24 34 25 35 78 36 26 37 83 38 77 39 79 40 27 41 82 42 76 43
REMARK SMILES IDX 75 44 28 46 62 47 41 48 61 49 42 50 45 51 60 52 80 53 43 54
REMARK SMILES IDX 44 55 59 57 81 58 46 59 29 60 30 61 39 62 31 63 32 64 38 65
REMARK SMILES IDX 40 66 33 67 34 68 35 69 36 70 37 71 63 72 64 73 73 74 65 75
REMARK SMILES IDX 66 76 72 77 74 78 67 79 68 80 69 81 70 82 71 83 47 84 48 85
REMARK SMILES IDX 57 86 49 87 50 88 56 89 58 90 51 91 52 92 53 93 54 94 55 95
REMARK H PARENT 5 9 79 45 45 56
REMARK Flexibility Score: inf
ROOT
ATOM      1  C   UNL A   1      31.690  28.195  27.070  1.00  0.00     0.274 C 
ENDROOT
BRANCH   1   2
ATOM      2  O   UNL A   1      31.313  28.008  25.696  1.00  0.00    -0.462 OA
BRANCH   2   3
ATOM      3  C   UNL A   1      31.637  26.806  25.162  1.00  0.00     0.312 C 
ATOM      4  O   UNL A   1      32.149  26.655  24.057  1.00  0.00    -0.252 OA
BRANCH   3   5
ATOM      5  C   UNL A   1      31.220  25.632  26.000  1.00  0.00     0.190 C 
BRANCH   5   6
ATOM      6  C   UNL A   1      31.205  24.227  25.347  1.00  0.00     0.221 C 
ATOM      7  N   UNL A   1      32.572  23.737  25.064  1.00  0.00    -0.322 N 
ATOM      8  C   UNL A   1      33.305  23.431  26.307  1.00  0.00     0.291 C 
ATOM      9  H   UNL A   1      33.059  24.519  24.626  1.00  0.00     0.348 HD
ATOM     10  C   UNL A   1      32.494  22.792  27.460  1.00  0.00     0.221 C 
ATOM     11  C   UNL A   1      30.478  23.294  26.344  1.00  0.00     0.225 C 
ATOM     12  O   UNL A   1      31.163  23.305  27.602  1.00  0.00    -0.369 OA
BRANCH   7  13
ATOM     13  C   UNL A   1      32.676  22.702  24.011  1.00  0.00     0.339 C 
BRANCH  13  14
ATOM     14  C   UNL A   1      33.002  21.305  24.469  1.00  0.00     0.165 A 
ATOM     15  C   UNL A   1      35.537  21.444  24.504  1.00  0.00     0.152 C 
ATOM     16  N   UNL A   1      34.268  20.761  24.569  1.00  0.00    -0.326 N 
ATOM     17  C   UNL A   1      34.131  19.390  24.652  1.00  0.00     0.068 A 
ATOM     18  N   UNL A   1      32.098  20.393  24.787  1.00  0.00    -0.227 NA
ATOM     19  C   UNL A   1      32.762  19.196  24.786  1.00  0.00     0.089 A 
ATOM     20  C   UNL A   1      35.037  18.325  24.586  1.00  0.00     0.028 A 
ATOM     21  C   UNL A   1      32.242  17.895  24.833  1.00  0.00     0.030 A 
ATOM     22  C   UNL A   1      34.499  17.031  24.605  1.00  0.00     0.002 A 
ATOM     23  C   UNL A   1      33.124  16.815  24.720  1.00  0.00     0.002 A 
ENDBRANCH  13  14
ENDBRANCH   7  13
ENDBRANCH   5   6
ENDBRANCH   3   5
ENDBRANCH   2   3
ENDBRANCH   1   2
BRANCH   1  24
ATOM     24  C   UNL A   1      32.537  29.455  27.265  1.00  0.00     0.275 C 
BRANCH  24  25
ATOM     25  O   UNL A   1      33.912  29.150  27.563  1.00  0.00    -0.458 OA
BRANCH  25  26
ATOM     26  C   UNL A   1      34.654  30.186  28.016  1.00  0.00     0.338 C 
ATOM     27  O   UNL A   1      34.261  31.306  28.318  1.00  0.00    -0.246 OA
BRANCH  26  28
ATOM     28  C   UNL A   1      36.044  29.751  28.215  1.00  0.00     0.060 A 
ATOM     29  C   UNL A   1      36.427  29.294  29.480  1.00  0.00     0.016 A 
ATOM     30  C   UNL A   1      36.979  29.862  27.185  1.00  0.00     0.016 A 
ATOM     31  C   UNL A   1      37.753  28.948  29.724  1.00  0.00     0.010 A 
ATOM     32  C   UNL A   1      38.310  29.516  27.433  1.00  0.00     0.010 A 
ATOM     33  C   UNL A   1      38.706  29.066  28.705  1.00  0.00    -0.014 A 
BRANCH  33  34
ATOM     34  C   UNL A   1      40.132  28.760  28.973  1.00  0.00     0.031 A 
ATOM     35  C   UNL A   1      41.024  29.822  29.547  1.00  0.00     0.074 A 
ATOM     36  C   UNL A   1      40.621  27.540  28.689  1.00  0.00     0.049 A 
ATOM     37  N   UNL A   1      42.319  29.809  29.724  1.00  0.00    -0.248 NA
ATOM     38  C   UNL A   1      40.370  31.069  29.972  1.00  0.00     0.031 C 
ATOM     39  C   UNL A   1      39.841  26.418  28.167  1.00  0.00     0.029 A 
ATOM     40  N   UNL A   1      41.898  27.047  28.782  1.00  0.00    -0.354 N 
ATOM     41  C   UNL A   1      42.640  31.048  30.264  1.00  0.00     0.074 A 
ATOM     42  C   UNL A   1      41.405  31.796  30.369  1.00  0.00     0.031 C 
ATOM     43  C   UNL A   1      40.658  25.371  27.968  1.00  0.00     0.029 A 
ATOM     44  C   UNL A   1      42.024  25.764  28.306  1.00  0.00     0.049 A 
ATOM     45  H   UNL A   1      42.650  27.561  29.154  1.00  0.00     0.167 HD
ATOM     46  C   UNL A   1      43.856  31.516  30.636  1.00  0.00     0.037 A 
ATOM     47  C   UNL A   1      43.123  25.005  28.124  1.00  0.00     0.037 A 
ATOM     48  C   UNL A   1      45.079  30.763  30.527  1.00  0.00     0.049 A 
ATOM     49  C   UNL A   1      44.470  25.562  28.498  1.00  0.00     0.074 A 
ATOM     50  C   UNL A   1      46.363  31.148  30.868  1.00  0.00     0.029 A 
ATOM     51  N   UNL A   1      45.167  29.466  30.039  1.00  0.00    -0.354 N 
ATOM     52  N   UNL A   1      44.764  26.743  28.988  1.00  0.00    -0.248 NA
ATOM     53  C   UNL A   1      45.632  24.688  28.292  1.00  0.00     0.031 C 
ATOM     54  C   UNL A   1      47.232  30.095  30.556  1.00  0.00     0.029 A 
ATOM     55  C   UNL A   1      46.484  29.039  30.061  1.00  0.00     0.049 A 
ATOM     56  H   UNL A   1      44.404  28.928  29.725  1.00  0.00     0.167 HD
ATOM     57  C   UNL A   1      46.144  26.748  29.165  1.00  0.00     0.074 A 
ATOM     58  C   UNL A   1      46.622  25.448  28.739  1.00  0.00     0.031 C 
ATOM     59  C   UNL A   1      46.940  27.739  29.636  1.00  0.00     0.037 A 
BRANCH  46  60
ATOM     60  C   UNL A   1      43.921  32.920  31.168  1.00  0.00     0.058 A 
ATOM     61  C   UNL A   1      43.757  33.201  32.533  1.00  0.00     0.135 A 
ATOM     62  C   UNL A   1      44.154  34.001  30.301  1.00  0.00     0.135 A 
ATOM     63  F   UNL A   1      43.513  32.207  33.403  1.00  0.00    -0.206 F 
ATOM     64  C   UNL A   1      43.788  34.505  33.017  1.00  0.00     0.059 A 
ATOM     65  C   UNL A   1      44.212  35.311  30.766  1.00  0.00     0.059 A 
ATOM     66  F   UNL A   1      44.315  33.789  28.985  1.00  0.00    -0.206 F 
ATOM     67  C   UNL A   1      44.009  35.555  32.123  1.00  0.00     0.060 A 
BRANCH  67  68
ATOM     68  S   UNL A   1      44.019  37.244  32.759  1.00  0.00     0.124 S 
ATOM     69  O   UNL A   1      45.374  37.344  33.294  1.00  0.00    -0.237 OA
ATOM     70  O   UNL A   1      43.753  38.034  31.562  1.00  0.00    -0.237 OA
ATOM     71  O   UNL A   1      42.950  37.240  33.753  1.00  0.00    -0.744 OA
ENDBRANCH  67  68
ENDBRANCH  46  60
BRANCH  47  72
ATOM     72  C   UNL A   1      42.989  23.648  27.534  1.00  0.00     0.058 A 
ATOM     73  C   UNL A   1      43.311  23.405  26.192  1.00  0.00     0.135 A 
ATOM     74  C   UNL A   1      42.564  22.560  28.313  1.00  0.00     0.135 A 
ATOM     75  F   UNL A   1      43.711  24.416  25.405  1.00  0.00    -0.206 F 
ATOM     76  C   UNL A   1      43.213  22.132  25.640  1.00  0.00     0.059 A 
ATOM     77  C   UNL A   1      42.480  21.274  27.790  1.00  0.00     0.059 A 
ATOM     78  F   UNL A   1      42.254  22.740  29.607  1.00  0.00    -0.206 F 
ATOM     79  C   UNL A   1      42.800  21.072  26.448  1.00  0.00     0.060 A 
BRANCH  79  80
ATOM     80  S   UNL A   1      42.738  19.411  25.741  1.00  0.00     0.124 S 
ATOM     81  O   UNL A   1      43.661  19.535  24.618  1.00  0.00    -0.237 OA
ATOM     82  O   UNL A   1      43.195  18.584  26.854  1.00  0.00    -0.237 OA
ATOM     83  O   UNL A   1      41.331  19.250  25.388  1.00  0.00    -0.744 OA
ENDBRANCH  79  80
ENDBRANCH  47  72
BRANCH  59  84
ATOM     84  C   UNL A   1      48.410  27.446  29.746  1.00  0.00     0.058 A 
ATOM     85  C   UNL A   1      49.302  27.760  28.710  1.00  0.00     0.135 A 
ATOM     86  C   UNL A   1      48.937  26.891  30.923  1.00  0.00     0.135 A 
ATOM     87  F   UNL A   1      48.847  28.286  27.562  1.00  0.00    -0.206 F 
ATOM     88  C   UNL A   1      50.667  27.518  28.831  1.00  0.00     0.059 A 
ATOM     89  C   UNL A   1      50.301  26.660  31.073  1.00  0.00     0.059 A 
ATOM     90  F   UNL A   1      48.126  26.580  31.946  1.00  0.00    -0.206 F 
ATOM     91  C   UNL A   1      51.157  26.967  30.017  1.00  0.00     0.060 A 
BRANCH  91  92
ATOM     92  S   UNL A   1      52.934  26.692  30.177  1.00  0.00     0.124 S 
ATOM     93  O   UNL A   1      53.301  26.341  28.809  1.00  0.00    -0.237 OA
ATOM     94  O   UNL A   1      53.412  27.987  30.651  1.00  0.00    -0.237 OA
ATOM     95  O   UNL A   1      53.021  25.606  31.149  1.00  0.00    -0.744 OA
ENDBRANCH  91  92
ENDBRANCH  59  84
ENDBRANCH  33  34
ENDBRANCH  26  28
ENDBRANCH  25  26
ENDBRANCH  24  25
ENDBRANCH   1  24
TORSDOF 17
ENDMDL
