MODEL 1
REMARK VINA RESULT:     -11.5      0.000      0.000
REMARK SMILES C[NH+](C)CCc1nc(Nc2ccc(O)c(C(=O)OCCOC(=O)c3ccc(-c4c5nc(c(-c6c(F)cc(S(=O)(=O)[O-])cc6F)c6ccc([nH]6)c(-c6c(F)cc(S(=O)(=O)[O-])cc6F)c6nc(c(-c7c(F)cc(S(=O)(=O)[O-])cc7F)c7ccc4[nH]7)C=C6)C=C5)cc3)c2)c2ccccc2n1
REMARK SMILES IDX 19 1 18 2 16 3 17 4 15 5 10 6 11 7 90 8 12 9 13 10 9 11 8 13
REMARK SMILES IDX 6 14 7 15 97 16 96 17 91 18 95 19 92 20 94 21 93 22 5 23
REMARK SMILES IDX 4 24 2 25 1 26 3 27 14 29 20 31 21 32 22 33 23 34 24 35
REMARK SMILES IDX 25 36 89 37 26 38 88 39 27 40 28 41 29 42 82 43 30 44 87 45
REMARK SMILES IDX 81 46 83 47 31 48 86 49 80 50 79 51 32 53 66 54 45 55 65 56
REMARK SMILES IDX 46 57 49 58 64 59 84 60 47 61 48 62 63 64 85 65 50 66 33 67
REMARK SMILES IDX 34 68 43 69 35 70 36 71 42 72 44 73 37 74 38 75 39 76 40 77
REMARK SMILES IDX 41 78 67 79 68 80 77 81 69 82 70 83 76 84 78 85 71 86 72 87
REMARK SMILES IDX 73 88 74 89 75 90 51 91 52 92 61 93 53 94 54 95 60 96 62 97
REMARK SMILES IDX 55 98 56 99 57 100 58 101 59 102
REMARK H PARENT 9 12 2 28 14 30 83 52 49 63
REMARK Flexibility Score: inf
ROOT
ATOM      1  C   UNL A   1      35.391  23.299  26.376  1.00  0.00     0.275 C 
ENDROOT
BRANCH   1   2
ATOM      2  O   UNL A   1      34.620  22.137  26.740  1.00  0.00    -0.458 OA
BRANCH   2   3
ATOM      3  C   UNL A   1      33.329  22.368  27.086  1.00  0.00     0.342 C 
ATOM      4  O   UNL A   1      32.864  22.327  28.216  1.00  0.00    -0.246 OA
BRANCH   3   5
ATOM      5  C   UNL A   1      32.542  22.837  25.927  1.00  0.00     0.103 A 
ATOM      6  C   UNL A   1      30.958  24.493  25.078  1.00  0.00     0.041 A 
ATOM      7  C   UNL A   1      30.882  23.776  23.884  1.00  0.00     0.030 A 
ATOM      8  C   UNL A   1      31.756  23.985  26.105  1.00  0.00     0.045 A 
ATOM      9  C   UNL A   1      31.649  22.618  23.695  1.00  0.00     0.049 A 
ATOM     10  C   UNL A   1      32.486  22.154  24.714  1.00  0.00     0.130 A 
BRANCH   6  11
ATOM     11  N   UNL A   1      30.158  25.628  25.323  1.00  0.00    -0.340 N 
ATOM     12  H   UNL A   1      29.339  25.503  25.856  1.00  0.00     0.168 HD
BRANCH  11  13
ATOM     13  C   UNL A   1      30.445  26.935  24.860  1.00  0.00     0.142 A 
ATOM     14  C   UNL A   1      29.896  28.654  23.443  1.00  0.00     0.137 A 
ATOM     15  N   UNL A   1      29.772  27.366  23.779  1.00  0.00    -0.215 NA
ATOM     16  N   UNL A   1      30.744  29.514  24.022  1.00  0.00    -0.233 NA
ATOM     17  C   UNL A   1      31.459  29.068  25.060  1.00  0.00     0.076 A 
ATOM     18  C   UNL A   1      31.353  27.759  25.553  1.00  0.00     0.043 A 
ATOM     19  C   UNL A   1      32.309  29.958  25.704  1.00  0.00     0.029 A 
ATOM     20  C   UNL A   1      32.114  27.385  26.694  1.00  0.00     0.014 A 
ATOM     21  C   UNL A   1      33.044  29.594  26.835  1.00  0.00     0.002 A 
ATOM     22  C   UNL A   1      32.945  28.303  27.333  1.00  0.00     0.001 A 
BRANCH  14  23
ATOM     23  C   UNL A   1      28.953  29.186  22.405  1.00  0.00     0.138 C 
BRANCH  23  24
ATOM     24  C   UNL A   1      29.509  30.390  21.615  1.00  0.00     0.269 C 
BRANCH  24  25
ATOM     25  N   UNL A   1      28.856  31.710  21.704  1.00  0.00    -0.339 N 
ATOM     26  C   UNL A   1      28.098  32.065  20.505  1.00  0.00     0.332 C 
ATOM     27  C   UNL A   1      28.032  31.871  22.896  1.00  0.00     0.332 C 
ATOM     28  H   UNL A   1      29.634  32.366  21.780  1.00  0.00     0.347 HD
ENDBRANCH  24  25
ENDBRANCH  23  24
ENDBRANCH  14  23
ENDBRANCH  11  13
ENDBRANCH   6  11
BRANCH  10  29
ATOM     29  O   UNL A   1      33.199  21.003  24.531  1.00  0.00    -0.507 OA
ATOM     30  H   UNL A   1      34.028  21.030  24.095  1.00  0.00     0.293 HD
ENDBRANCH  10  29
ENDBRANCH   3   5
ENDBRANCH   2   3
ENDBRANCH   1   2
BRANCH   1  31
ATOM     31  C   UNL A   1      36.212  23.029  25.118  1.00  0.00     0.275 C 
BRANCH  31  32
ATOM     32  O   UNL A   1      37.411  23.822  25.151  1.00  0.00    -0.458 OA
BRANCH  32  33
ATOM     33  C   UNL A   1      38.474  23.257  25.768  1.00  0.00     0.338 C 
ATOM     34  O   UNL A   1      38.880  22.114  25.655  1.00  0.00    -0.246 OA
BRANCH  33  35
ATOM     35  C   UNL A   1      39.130  24.256  26.628  1.00  0.00     0.060 A 
ATOM     36  C   UNL A   1      38.841  24.284  27.989  1.00  0.00     0.016 A 
ATOM     37  C   UNL A   1      39.926  25.251  26.064  1.00  0.00     0.016 A 
ATOM     38  C   UNL A   1      39.233  25.372  28.767  1.00  0.00     0.010 A 
ATOM     39  C   UNL A   1      40.423  26.277  26.875  1.00  0.00     0.010 A 
ATOM     40  C   UNL A   1      40.041  26.382  28.226  1.00  0.00    -0.014 A 
BRANCH  40  41
ATOM     41  C   UNL A   1      40.453  27.563  29.045  1.00  0.00     0.031 A 
ATOM     42  C   UNL A   1      41.797  27.575  29.736  1.00  0.00     0.074 A 
ATOM     43  C   UNL A   1      39.639  28.631  29.177  1.00  0.00     0.049 A 
ATOM     44  N   UNL A   1      42.255  28.399  30.643  1.00  0.00    -0.248 NA
ATOM     45  C   UNL A   1      42.744  26.510  29.366  1.00  0.00     0.031 C 
ATOM     46  C   UNL A   1      38.330  28.789  28.539  1.00  0.00     0.029 A 
ATOM     47  N   UNL A   1      39.795  29.795  29.891  1.00  0.00    -0.354 N 
ATOM     48  C   UNL A   1      43.507  27.913  31.006  1.00  0.00     0.074 A 
ATOM     49  C   UNL A   1      43.740  26.723  30.214  1.00  0.00     0.031 C 
ATOM     50  C   UNL A   1      37.828  29.993  28.849  1.00  0.00     0.029 A 
ATOM     51  C   UNL A   1      38.727  30.655  29.786  1.00  0.00     0.049 A 
ATOM     52  H   UNL A   1      40.597  29.995  30.427  1.00  0.00     0.167 HD
ATOM     53  C   UNL A   1      44.381  28.407  31.916  1.00  0.00     0.037 A 
ATOM     54  C   UNL A   1      38.468  31.822  30.408  1.00  0.00     0.037 A 
ATOM     55  C   UNL A   1      44.175  29.625  32.658  1.00  0.00     0.049 A 
ATOM     56  C   UNL A   1      39.441  32.346  31.425  1.00  0.00     0.074 A 
ATOM     57  C   UNL A   1      45.008  30.217  33.592  1.00  0.00     0.029 A 
ATOM     58  N   UNL A   1      43.065  30.447  32.537  1.00  0.00    -0.354 N 
ATOM     59  N   UNL A   1      40.588  31.836  31.806  1.00  0.00    -0.248 NA
ATOM     60  C   UNL A   1      39.074  33.590  32.116  1.00  0.00     0.031 C 
ATOM     61  C   UNL A   1      44.390  31.385  34.053  1.00  0.00     0.029 A 
ATOM     62  C   UNL A   1      43.190  31.540  33.379  1.00  0.00     0.049 A 
ATOM     63  H   UNL A   1      42.299  30.279  31.941  1.00  0.00     0.167 HD
ATOM     64  C   UNL A   1      41.082  32.699  32.777  1.00  0.00     0.074 A 
ATOM     65  C   UNL A   1      40.119  33.774  32.911  1.00  0.00     0.031 C 
ATOM     66  C   UNL A   1      42.226  32.605  33.498  1.00  0.00     0.037 A 
BRANCH  53  67
ATOM     67  C   UNL A   1      45.631  27.614  32.187  1.00  0.00     0.058 A 
ATOM     68  C   UNL A   1      46.838  27.874  31.521  1.00  0.00     0.135 A 
ATOM     69  C   UNL A   1      45.622  26.588  33.147  1.00  0.00     0.135 A 
ATOM     70  F   UNL A   1      46.898  28.833  30.583  1.00  0.00    -0.206 F 
ATOM     71  C   UNL A   1      47.984  27.125  31.772  1.00  0.00     0.059 A 
ATOM     72  C   UNL A   1      46.763  25.843  33.432  1.00  0.00     0.059 A 
ATOM     73  F   UNL A   1      44.496  26.298  33.816  1.00  0.00    -0.206 F 
ATOM     74  C   UNL A   1      47.935  26.107  32.726  1.00  0.00     0.060 A 
BRANCH  74  75
ATOM     75  S   UNL A   1      49.424  25.134  33.034  1.00  0.00     0.124 S 
ATOM     76  O   UNL A   1      49.894  24.886  31.675  1.00  0.00    -0.237 OA
ATOM     77  O   UNL A   1      50.239  26.046  33.830  1.00  0.00    -0.237 OA
ATOM     78  O   UNL A   1      48.923  23.963  33.748  1.00  0.00    -0.744 OA
ENDBRANCH  74  75
ENDBRANCH  53  67
BRANCH  54  79
ATOM     79  C   UNL A   1      37.207  32.553  30.112  1.00  0.00     0.058 A 
ATOM     80  C   UNL A   1      36.032  32.277  30.825  1.00  0.00     0.135 A 
ATOM     81  C   UNL A   1      37.159  33.560  29.135  1.00  0.00     0.135 A 
ATOM     82  F   UNL A   1      36.023  31.313  31.758  1.00  0.00    -0.206 F 
ATOM     83  C   UNL A   1      34.852  32.974  30.581  1.00  0.00     0.059 A 
ATOM     84  C   UNL A   1      36.001  34.288  28.892  1.00  0.00     0.059 A 
ATOM     85  F   UNL A   1      38.262  33.867  28.433  1.00  0.00    -0.206 F 
ATOM     86  C   UNL A   1      34.849  33.983  29.615  1.00  0.00     0.060 A 
BRANCH  86  87
ATOM     87  S   UNL A   1      33.335  34.932  29.353  1.00  0.00     0.124 S 
ATOM     88  O   UNL A   1      32.649  34.117  28.357  1.00  0.00    -0.237 OA
ATOM     89  O   UNL A   1      32.742  34.944  30.687  1.00  0.00    -0.237 OA
ATOM     90  O   UNL A   1      33.828  36.223  28.885  1.00  0.00    -0.744 OA
ENDBRANCH  86  87
ENDBRANCH  54  79
BRANCH  66  91
ATOM     91  C   UNL A   1      42.514  33.709  34.473  1.00  0.00     0.058 A 
ATOM     92  C   UNL A   1      42.081  33.646  35.805  1.00  0.00     0.135 A 
ATOM     93  C   UNL A   1      43.264  34.828  34.076  1.00  0.00     0.135 A 
ATOM     94  F   UNL A   1      41.353  32.601  36.231  1.00  0.00    -0.206 F 
ATOM     95  C   UNL A   1      42.363  34.666  36.708  1.00  0.00     0.059 A 
ATOM     96  C   UNL A   1      43.576  35.849  34.967  1.00  0.00     0.059 A 
ATOM     97  F   UNL A   1      43.707  34.931  32.813  1.00  0.00    -0.206 F 
ATOM     98  C   UNL A   1      43.111  35.764  36.279  1.00  0.00     0.060 A 
BRANCH  98  99
ATOM     99  S   UNL A   1      43.495  37.070  37.465  1.00  0.00     0.124 S 
ATOM    100  O   UNL A   1      42.208  37.253  38.128  1.00  0.00    -0.237 OA
ATOM    101  O   UNL A   1      44.546  36.461  38.275  1.00  0.00    -0.237 OA
ATOM    102  O   UNL A   1      43.930  38.178  36.619  1.00  0.00    -0.744 OA
ENDBRANCH  98  99
ENDBRANCH  66  91
ENDBRANCH  40  41
ENDBRANCH  33  35
ENDBRANCH  32  33
ENDBRANCH  31  32
ENDBRANCH   1  31
TORSDOF 20
ENDMDL
MODEL 2
REMARK VINA RESULT:     -11.5      6.176     12.445
REMARK SMILES C[NH+](C)CCc1nc(Nc2ccc(O)c(C(=O)OCCOC(=O)c3ccc(-c4c5nc(c(-c6c(F)cc(S(=O)(=O)[O-])cc6F)c6ccc([nH]6)c(-c6c(F)cc(S(=O)(=O)[O-])cc6F)c6nc(c(-c7c(F)cc(S(=O)(=O)[O-])cc7F)c7ccc4[nH]7)C=C6)C=C5)cc3)c2)c2ccccc2n1
REMARK SMILES IDX 19 1 18 2 16 3 17 4 15 5 10 6 11 7 90 8 12 9 13 10 9 11 8 13
REMARK SMILES IDX 6 14 7 15 97 16 96 17 91 18 95 19 92 20 94 21 93 22 5 23
REMARK SMILES IDX 4 24 2 25 1 26 3 27 14 29 20 31 21 32 22 33 23 34 24 35
REMARK SMILES IDX 25 36 89 37 26 38 88 39 27 40 28 41 29 42 82 43 30 44 87 45
REMARK SMILES IDX 81 46 83 47 31 48 86 49 80 50 79 51 32 53 66 54 45 55 65 56
REMARK SMILES IDX 46 57 49 58 64 59 84 60 47 61 48 62 63 64 85 65 50 66 33 67
REMARK SMILES IDX 34 68 43 69 35 70 36 71 42 72 44 73 37 74 38 75 39 76 40 77
REMARK SMILES IDX 41 78 67 79 68 80 77 81 69 82 70 83 76 84 78 85 71 86 72 87
REMARK SMILES IDX 73 88 74 89 75 90 51 91 52 92 61 93 53 94 54 95 60 96 62 97
REMARK SMILES IDX 55 98 56 99 57 100 58 101 59 102
REMARK H PARENT 9 12 2 28 14 30 83 52 49 63
REMARK Flexibility Score: inf
ROOT
ATOM      1  C   UNL A   1      33.922  33.016  27.971  1.00  0.00     0.275 C 
ENDROOT
BRANCH   1   2
ATOM      2  O   UNL A   1      33.582  33.385  29.321  1.00  0.00    -0.458 OA
BRANCH   2   3
ATOM      3  C   UNL A   1      33.320  34.699  29.528  1.00  0.00     0.342 C 
ATOM      4  O   UNL A   1      32.663  35.430  28.800  1.00  0.00    -0.246 OA
BRANCH   3   5
ATOM      5  C   UNL A   1      33.808  35.139  30.851  1.00  0.00     0.103 A 
ATOM      6  C   UNL A   1      35.361  34.717  32.691  1.00  0.00     0.041 A 
ATOM      7  C   UNL A   1      34.752  35.746  33.411  1.00  0.00     0.030 A 
ATOM      8  C   UNL A   1      34.846  34.397  31.433  1.00  0.00     0.045 A 
ATOM      9  C   UNL A   1      33.703  36.488  32.851  1.00  0.00     0.049 A 
ATOM     10  C   UNL A   1      33.238  36.190  31.566  1.00  0.00     0.130 A 
BRANCH   6  11
ATOM     11  N   UNL A   1      36.379  33.914  33.246  1.00  0.00    -0.340 N 
ATOM     12  H   UNL A   1      36.140  32.997  33.515  1.00  0.00     0.168 HD
BRANCH  11  13
ATOM     13  C   UNL A   1      37.718  34.329  33.444  1.00  0.00     0.142 A 
ATOM     14  C   UNL A   1      39.334  35.025  34.917  1.00  0.00     0.137 A 
ATOM     15  N   UNL A   1      38.041  34.804  34.660  1.00  0.00    -0.215 NA
ATOM     16  N   UNL A   1      40.317  34.935  34.011  1.00  0.00    -0.233 NA
ATOM     17  C   UNL A   1      39.986  34.519  32.784  1.00  0.00     0.076 A 
ATOM     18  C   UNL A   1      38.674  34.182  32.420  1.00  0.00     0.043 A 
ATOM     19  C   UNL A   1      40.998  34.374  31.843  1.00  0.00     0.029 A 
ATOM     20  C   UNL A   1      38.421  33.700  31.107  1.00  0.00     0.014 A 
ATOM     21  C   UNL A   1      40.751  33.886  30.558  1.00  0.00     0.002 A 
ATOM     22  C   UNL A   1      39.458  33.546  30.189  1.00  0.00     0.001 A 
BRANCH  14  23
ATOM     23  C   UNL A   1      39.712  35.305  36.341  1.00  0.00     0.138 C 
BRANCH  23  24
ATOM     24  C   UNL A   1      39.520  34.100  37.287  1.00  0.00     0.269 C 
BRANCH  24  25
ATOM     25  N   UNL A   1      38.393  33.170  37.096  1.00  0.00    -0.339 N 
ATOM     26  C   UNL A   1      38.804  31.847  36.629  1.00  0.00     0.332 C 
ATOM     27  C   UNL A   1      37.531  33.055  38.266  1.00  0.00     0.332 C 
ATOM     28  H   UNL A   1      37.841  33.599  36.353  1.00  0.00     0.347 HD
ENDBRANCH  24  25
ENDBRANCH  23  24
ENDBRANCH  14  23
ENDBRANCH  11  13
ENDBRANCH   6  11
BRANCH  10  29
ATOM     29  O   UNL A   1      32.189  36.896  31.048  1.00  0.00    -0.507 OA
ATOM     30  H   UNL A   1      31.419  36.446  30.760  1.00  0.00     0.293 HD
ENDBRANCH  10  29
ENDBRANCH   3   5
ENDBRANCH   2   3
ENDBRANCH   1   2
BRANCH   1  31
ATOM     31  C   UNL A   1      34.552  31.626  27.932  1.00  0.00     0.275 C 
BRANCH  31  32
ATOM     32  O   UNL A   1      35.936  31.719  28.307  1.00  0.00    -0.458 OA
BRANCH  32  33
ATOM     33  C   UNL A   1      36.283  31.079  29.447  1.00  0.00     0.338 C 
ATOM     34  O   UNL A   1      35.680  31.064  30.505  1.00  0.00    -0.246 OA
BRANCH  33  35
ATOM     35  C   UNL A   1      37.539  30.341  29.233  1.00  0.00     0.060 A 
ATOM     36  C   UNL A   1      38.359  30.056  30.321  1.00  0.00     0.016 A 
ATOM     37  C   UNL A   1      37.970  30.051  27.941  1.00  0.00     0.016 A 
ATOM     38  C   UNL A   1      39.663  29.605  30.117  1.00  0.00     0.010 A 
ATOM     39  C   UNL A   1      39.233  29.481  27.748  1.00  0.00     0.010 A 
ATOM     40  C   UNL A   1      40.119  29.298  28.827  1.00  0.00    -0.014 A 
BRANCH  40  41
ATOM     41  C   UNL A   1      41.519  28.831  28.595  1.00  0.00     0.031 A 
ATOM     42  C   UNL A   1      42.671  29.801  28.715  1.00  0.00     0.074 A 
ATOM     43  C   UNL A   1      41.776  27.544  28.281  1.00  0.00     0.049 A 
ATOM     44  N   UNL A   1      43.922  29.650  28.363  1.00  0.00    -0.248 NA
ATOM     45  C   UNL A   1      42.372  31.120  29.298  1.00  0.00     0.031 C 
ATOM     46  C   UNL A   1      40.778  26.478  28.169  1.00  0.00     0.029 A 
ATOM     47  N   UNL A   1      42.963  26.909  28.001  1.00  0.00    -0.354 N 
ATOM     48  C   UNL A   1      44.540  30.872  28.608  1.00  0.00     0.074 A 
ATOM     49  C   UNL A   1      43.527  31.753  29.148  1.00  0.00     0.031 C 
ATOM     50  C   UNL A   1      41.394  25.320  27.894  1.00  0.00     0.029 A 
ATOM     51  C   UNL A   1      42.818  25.573  27.710  1.00  0.00     0.049 A 
ATOM     52  H   UNL A   1      43.834  27.368  28.008  1.00  0.00     0.167 HD
ATOM     53  C   UNL A   1      45.831  31.230  28.400  1.00  0.00     0.037 A 
ATOM     54  C   UNL A   1      43.716  24.657  27.294  1.00  0.00     0.037 A 
ATOM     55  C   UNL A   1      46.853  30.334  27.921  1.00  0.00     0.049 A 
ATOM     56  C   UNL A   1      45.137  25.077  27.054  1.00  0.00     0.074 A 
ATOM     57  C   UNL A   1      48.192  30.597  27.692  1.00  0.00     0.029 A 
ATOM     58  N   UNL A   1      46.652  28.996  27.615  1.00  0.00    -0.354 N 
ATOM     59  N   UNL A   1      45.688  26.254  27.226  1.00  0.00    -0.248 NA
ATOM     60  C   UNL A   1      46.055  24.050  26.540  1.00  0.00     0.031 C 
ATOM     61  C   UNL A   1      48.796  29.425  27.224  1.00  0.00     0.029 A 
ATOM     62  C   UNL A   1      47.841  28.422  27.198  1.00  0.00     0.049 A 
ATOM     63  H   UNL A   1      45.790  28.524  27.682  1.00  0.00     0.167 HD
ATOM     64  C   UNL A   1      47.017  26.109  26.845  1.00  0.00     0.074 A 
ATOM     65  C   UNL A   1      47.192  24.725  26.454  1.00  0.00     0.031 C 
ATOM     66  C   UNL A   1      48.002  27.041  26.816  1.00  0.00     0.037 A 
BRANCH  53  67
ATOM     67  C   UNL A   1      46.209  32.663  28.659  1.00  0.00     0.058 A 
ATOM     68  C   UNL A   1      46.689  33.094  29.906  1.00  0.00     0.135 A 
ATOM     69  C   UNL A   1      46.108  33.617  27.632  1.00  0.00     0.135 A 
ATOM     70  F   UNL A   1      46.790  32.227  30.926  1.00  0.00    -0.206 F 
ATOM     71  C   UNL A   1      47.023  34.425  30.136  1.00  0.00     0.059 A 
ATOM     72  C   UNL A   1      46.461  34.949  27.833  1.00  0.00     0.059 A 
ATOM     73  F   UNL A   1      45.658  33.260  26.420  1.00  0.00    -0.206 F 
ATOM     74  C   UNL A   1      46.901  35.347  29.094  1.00  0.00     0.060 A 
BRANCH  74  75
ATOM     75  S   UNL A   1      47.325  37.073  29.408  1.00  0.00     0.124 S 
ATOM     76  O   UNL A   1      46.281  37.769  28.662  1.00  0.00    -0.237 OA
ATOM     77  O   UNL A   1      47.229  37.162  30.862  1.00  0.00    -0.237 OA
ATOM     78  O   UNL A   1      48.674  37.196  28.865  1.00  0.00    -0.744 OA
ENDBRANCH  74  75
ENDBRANCH  53  67
BRANCH  54  79
ATOM     79  C   UNL A   1      43.279  23.259  27.037  1.00  0.00     0.058 A 
ATOM     80  C   UNL A   1      43.148  22.775  25.728  1.00  0.00     0.135 A 
ATOM     81  C   UNL A   1      43.015  22.371  28.093  1.00  0.00     0.135 A 
ATOM     82  F   UNL A   1      43.374  23.590  24.686  1.00  0.00    -0.206 F 
ATOM     83  C   UNL A   1      42.770  21.461  25.472  1.00  0.00     0.059 A 
ATOM     84  C   UNL A   1      42.663  21.046  27.863  1.00  0.00     0.059 A 
ATOM     85  F   UNL A   1      43.137  22.785  29.364  1.00  0.00    -0.206 F 
ATOM     86  C   UNL A   1      42.536  20.601  26.548  1.00  0.00     0.060 A 
BRANCH  86  87
ATOM     87  S   UNL A   1      42.116  18.878  26.211  1.00  0.00     0.124 S 
ATOM     88  O   UNL A   1      40.720  18.991  25.806  1.00  0.00    -0.237 OA
ATOM     89  O   UNL A   1      43.061  18.530  25.153  1.00  0.00    -0.237 OA
ATOM     90  O   UNL A   1      42.354  18.220  27.491  1.00  0.00    -0.744 OA
ENDBRANCH  86  87
ENDBRANCH  54  79
BRANCH  66  91
ATOM     91  C   UNL A   1      49.363  26.586  26.375  1.00  0.00     0.058 A 
ATOM     92  C   UNL A   1      49.831  26.822  25.074  1.00  0.00     0.135 A 
ATOM     93  C   UNL A   1      50.221  25.938  27.277  1.00  0.00     0.135 A 
ATOM     94  F   UNL A   1      49.044  27.429  24.172  1.00  0.00    -0.206 F 
ATOM     95  C   UNL A   1      51.099  26.410  24.675  1.00  0.00     0.059 A 
ATOM     96  C   UNL A   1      51.500  25.538  26.907  1.00  0.00     0.059 A 
ATOM     97  F   UNL A   1      49.820  25.697  28.536  1.00  0.00    -0.206 F 
ATOM     98  C   UNL A   1      51.925  25.768  25.598  1.00  0.00     0.060 A 
BRANCH  98  99
ATOM     99  S   UNL A   1      53.579  25.263  25.079  1.00  0.00     0.124 S 
ATOM    100  O   UNL A   1      53.552  25.587  23.657  1.00  0.00    -0.237 OA
ATOM    101  O   UNL A   1      54.440  26.103  25.906  1.00  0.00    -0.237 OA
ATOM    102  O   UNL A   1      53.613  23.838  25.398  1.00  0.00    -0.744 OA
ENDBRANCH  98  99
ENDBRANCH  66  91
ENDBRANCH  40  41
ENDBRANCH  33  35
ENDBRANCH  32  33
ENDBRANCH  31  32
ENDBRANCH   1  31
TORSDOF 20
ENDMDL
MODEL 3
REMARK VINA RESULT:     -10.9      5.490      7.866
REMARK SMILES C[NH+](C)CCc1nc(Nc2ccc(O)c(C(=O)OCCOC(=O)c3ccc(-c4c5nc(c(-c6c(F)cc(S(=O)(=O)[O-])cc6F)c6ccc([nH]6)c(-c6c(F)cc(S(=O)(=O)[O-])cc6F)c6nc(c(-c7c(F)cc(S(=O)(=O)[O-])cc7F)c7ccc4[nH]7)C=C6)C=C5)cc3)c2)c2ccccc2n1
REMARK SMILES IDX 19 1 18 2 16 3 17 4 15 5 10 6 11 7 90 8 12 9 13 10 9 11 8 13
REMARK SMILES IDX 6 14 7 15 97 16 96 17 91 18 95 19 92 20 94 21 93 22 5 23
REMARK SMILES IDX 4 24 2 25 1 26 3 27 14 29 20 31 21 32 22 33 23 34 24 35
REMARK SMILES IDX 25 36 89 37 26 38 88 39 27 40 28 41 29 42 82 43 30 44 87 45
REMARK SMILES IDX 81 46 83 47 31 48 86 49 80 50 79 51 32 53 66 54 45 55 65 56
REMARK SMILES IDX 46 57 49 58 64 59 84 60 47 61 48 62 63 64 85 65 50 66 33 67
REMARK SMILES IDX 34 68 43 69 35 70 36 71 42 72 44 73 37 74 38 75 39 76 40 77
REMARK SMILES IDX 41 78 67 79 68 80 77 81 69 82 70 83 76 84 78 85 71 86 72 87
REMARK SMILES IDX 73 88 74 89 75 90 51 91 52 92 61 93 53 94 54 95 60 96 62 97
REMARK SMILES IDX 55 98 56 99 57 100 58 101 59 102
REMARK H PARENT 9 12 2 28 14 30 83 52 49 63
REMARK Flexibility Score: inf
ROOT
ATOM      1  C   UNL A   1      42.302  19.202  26.881  1.00  0.00     0.275 C 
ENDROOT
BRANCH   1   2
ATOM      2  O   UNL A   1      41.606  20.400  26.483  1.00  0.00    -0.458 OA
BRANCH   2   3
ATOM      3  C   UNL A   1      40.320  20.233  26.085  1.00  0.00     0.342 C 
ATOM      4  O   UNL A   1      39.789  19.176  25.778  1.00  0.00    -0.246 OA
BRANCH   3   5
ATOM      5  C   UNL A   1      39.557  21.492  26.207  1.00  0.00     0.103 A 
ATOM      6  C   UNL A   1      37.665  22.812  25.399  1.00  0.00     0.041 A 
ATOM      7  C   UNL A   1      38.086  23.868  26.207  1.00  0.00     0.030 A 
ATOM      8  C   UNL A   1      38.438  21.649  25.376  1.00  0.00     0.045 A 
ATOM      9  C   UNL A   1      39.211  23.734  27.032  1.00  0.00     0.049 A 
ATOM     10  C   UNL A   1      39.940  22.541  27.039  1.00  0.00     0.130 A 
BRANCH   6  11
ATOM     11  N   UNL A   1      36.574  22.932  24.514  1.00  0.00    -0.340 N 
ATOM     12  H   UNL A   1      36.765  23.206  23.587  1.00  0.00     0.168 HD
BRANCH  11  13
ATOM     13  C   UNL A   1      35.222  22.690  24.860  1.00  0.00     0.142 A 
ATOM     14  C   UNL A   1      33.594  21.151  25.358  1.00  0.00     0.137 A 
ATOM     15  N   UNL A   1      34.807  21.411  24.859  1.00  0.00    -0.215 NA
ATOM     16  N   UNL A   1      32.710  22.084  25.737  1.00  0.00    -0.233 NA
ATOM     17  C   UNL A   1      33.103  23.361  25.681  1.00  0.00     0.076 A 
ATOM     18  C   UNL A   1      34.380  23.749  25.250  1.00  0.00     0.043 A 
ATOM     19  C   UNL A   1      32.218  24.341  26.115  1.00  0.00     0.029 A 
ATOM     20  C   UNL A   1      34.730  25.126  25.272  1.00  0.00     0.014 A 
ATOM     21  C   UNL A   1      32.568  25.692  26.150  1.00  0.00     0.002 A 
ATOM     22  C   UNL A   1      33.830  26.087  25.730  1.00  0.00     0.001 A 
BRANCH  14  23
ATOM     23  C   UNL A   1      33.242  19.712  25.591  1.00  0.00     0.138 C 
BRANCH  23  24
ATOM     24  C   UNL A   1      33.943  18.733  24.625  1.00  0.00     0.269 C 
BRANCH  24  25
ATOM     25  N   UNL A   1      33.159  17.741  23.865  1.00  0.00    -0.339 N 
ATOM     26  C   UNL A   1      32.536  18.292  22.662  1.00  0.00     0.332 C 
ATOM     27  C   UNL A   1      33.908  16.532  23.545  1.00  0.00     0.332 C 
ATOM     28  H   UNL A   1      32.410  17.476  24.504  1.00  0.00     0.347 HD
ENDBRANCH  24  25
ENDBRANCH  23  24
ENDBRANCH  14  23
ENDBRANCH  11  13
ENDBRANCH   6  11
BRANCH  10  29
ATOM     29  O   UNL A   1      41.057  22.438  27.820  1.00  0.00    -0.507 OA
ATOM     30  H   UNL A   1      41.493  21.613  27.906  1.00  0.00     0.293 HD
ENDBRANCH  10  29
ENDBRANCH   3   5
ENDBRANCH   2   3
ENDBRANCH   1   2
BRANCH   1  31
ATOM     31  C   UNL A   1      42.799  18.435  25.659  1.00  0.00     0.275 C 
BRANCH  31  32
ATOM     32  O   UNL A   1      44.210  18.656  25.497  1.00  0.00    -0.458 OA
BRANCH  32  33
ATOM     33  C   UNL A   1      44.566  19.466  24.474  1.00  0.00     0.338 C 
ATOM     34  O   UNL A   1      44.862  19.143  23.337  1.00  0.00    -0.246 OA
BRANCH  33  35
ATOM     35  C   UNL A   1      44.527  20.868  24.921  1.00  0.00     0.060 A 
ATOM     36  C   UNL A   1      44.086  21.854  24.044  1.00  0.00     0.016 A 
ATOM     37  C   UNL A   1      45.054  21.222  26.161  1.00  0.00     0.016 A 
ATOM     38  C   UNL A   1      44.290  23.201  24.343  1.00  0.00     0.010 A 
ATOM     39  C   UNL A   1      45.142  22.575  26.510  1.00  0.00     0.010 A 
ATOM     40  C   UNL A   1      44.811  23.585  25.587  1.00  0.00    -0.014 A 
BRANCH  40  41
ATOM     41  C   UNL A   1      45.052  25.023  25.912  1.00  0.00     0.031 A 
ATOM     42  C   UNL A   1      46.416  25.634  25.688  1.00  0.00     0.074 A 
ATOM     43  C   UNL A   1      44.060  25.797  26.402  1.00  0.00     0.049 A 
ATOM     44  N   UNL A   1      46.883  26.789  26.087  1.00  0.00    -0.248 NA
ATOM     45  C   UNL A   1      47.387  24.830  24.927  1.00  0.00     0.031 C 
ATOM     46  C   UNL A   1      42.679  25.368  26.634  1.00  0.00     0.029 A 
ATOM     47  N   UNL A   1      44.061  27.116  26.792  1.00  0.00    -0.354 N 
ATOM     48  C   UNL A   1      48.216  26.821  25.693  1.00  0.00     0.074 A 
ATOM     49  C   UNL A   1      48.483  25.569  25.017  1.00  0.00     0.031 C 
ATOM     50  C   UNL A   1      41.960  26.409  27.075  1.00  0.00     0.029 A 
ATOM     51  C   UNL A   1      42.843  27.554  27.256  1.00  0.00     0.049 A 
ATOM     52  H   UNL A   1      44.858  27.691  26.743  1.00  0.00     0.167 HD
ATOM     53  C   UNL A   1      49.136  27.799  25.881  1.00  0.00     0.037 A 
ATOM     54  C   UNL A   1      42.480  28.727  27.812  1.00  0.00     0.037 A 
ATOM     55  C   UNL A   1      48.853  29.070  26.499  1.00  0.00     0.049 A 
ATOM     56  C   UNL A   1      43.517  29.792  28.026  1.00  0.00     0.074 A 
ATOM     57  C   UNL A   1      49.713  30.131  26.721  1.00  0.00     0.029 A 
ATOM     58  N   UNL A   1      47.610  29.456  26.978  1.00  0.00    -0.354 N 
ATOM     59  N   UNL A   1      44.789  29.777  27.710  1.00  0.00    -0.248 NA
ATOM     60  C   UNL A   1      43.074  31.024  28.694  1.00  0.00     0.031 C 
ATOM     61  C   UNL A   1      48.996  31.151  27.356  1.00  0.00     0.029 A 
ATOM     62  C   UNL A   1      47.681  30.740  27.495  1.00  0.00     0.049 A 
ATOM     63  H   UNL A   1      46.797  28.902  26.954  1.00  0.00     0.167 HD
ATOM     64  C   UNL A   1      45.299  30.998  28.137  1.00  0.00     0.074 A 
ATOM     65  C   UNL A   1      44.193  31.735  28.714  1.00  0.00     0.031 C 
ATOM     66  C   UNL A   1      46.570  31.463  28.063  1.00  0.00     0.037 A 
BRANCH  53  67
ATOM     67  C   UNL A   1      50.548  27.523  25.439  1.00  0.00     0.058 A 
ATOM     68  C   UNL A   1      51.539  27.095  26.336  1.00  0.00     0.135 A 
ATOM     69  C   UNL A   1      50.908  27.670  24.089  1.00  0.00     0.135 A 
ATOM     70  F   UNL A   1      51.253  26.954  27.640  1.00  0.00    -0.206 F 
ATOM     71  C   UNL A   1      52.844  26.855  25.917  1.00  0.00     0.059 A 
ATOM     72  C   UNL A   1      52.201  27.411  23.643  1.00  0.00     0.059 A 
ATOM     73  F   UNL A   1      49.999  28.074  23.188  1.00  0.00    -0.206 F 
ATOM     74  C   UNL A   1      53.167  27.021  24.568  1.00  0.00     0.060 A 
BRANCH  74  75
ATOM     75  S   UNL A   1      54.866  26.718  24.039  1.00  0.00     0.124 S 
ATOM     76  O   UNL A   1      54.720  26.706  22.586  1.00  0.00    -0.237 OA
ATOM     77  O   UNL A   1      55.578  27.865  24.594  1.00  0.00    -0.237 OA
ATOM     78  O   UNL A   1      55.188  25.431  24.648  1.00  0.00    -0.744 OA
ENDBRANCH  74  75
ENDBRANCH  53  67
BRANCH  54  79
ATOM     79  C   UNL A   1      41.072  28.934  28.245  1.00  0.00     0.058 A 
ATOM     80  C   UNL A   1      40.718  28.866  29.600  1.00  0.00     0.135 A 
ATOM     81  C   UNL A   1      40.061  29.236  27.318  1.00  0.00     0.135 A 
ATOM     82  F   UNL A   1      41.646  28.565  30.521  1.00  0.00    -0.206 F 
ATOM     83  C   UNL A   1      39.412  29.088  30.023  1.00  0.00     0.059 A 
ATOM     84  C   UNL A   1      38.754  29.489  27.719  1.00  0.00     0.059 A 
ATOM     85  F   UNL A   1      40.353  29.323  26.011  1.00  0.00    -0.206 F 
ATOM     86  C   UNL A   1      38.437  29.406  29.074  1.00  0.00     0.060 A 
BRANCH  86  87
ATOM     87  S   UNL A   1      36.758  29.764  29.636  1.00  0.00     0.124 S 
ATOM     88  O   UNL A   1      35.966  29.304  28.502  1.00  0.00    -0.237 OA
ATOM     89  O   UNL A   1      36.661  28.960  30.851  1.00  0.00    -0.237 OA
ATOM     90  O   UNL A   1      36.780  31.207  29.850  1.00  0.00    -0.744 OA
ENDBRANCH  86  87
ENDBRANCH  54  79
BRANCH  66  91
ATOM     91  C   UNL A   1      46.827  32.844  28.592  1.00  0.00     0.058 A 
ATOM     92  C   UNL A   1      46.689  33.980  27.780  1.00  0.00     0.135 A 
ATOM     93  C   UNL A   1      47.181  33.035  29.937  1.00  0.00     0.135 A 
ATOM     94  F   UNL A   1      46.361  33.849  26.485  1.00  0.00    -0.206 F 
ATOM     95  C   UNL A   1      46.914  35.258  28.279  1.00  0.00     0.059 A 
ATOM     96  C   UNL A   1      47.390  34.304  30.462  1.00  0.00     0.059 A 
ATOM     97  F   UNL A   1      47.318  31.979  30.755  1.00  0.00    -0.206 F 
ATOM     98  C   UNL A   1      47.266  35.410  29.622  1.00  0.00     0.060 A 
BRANCH  98  99
ATOM     99  S   UNL A   1      47.530  37.076  30.267  1.00  0.00     0.124 S 
ATOM    100  O   UNL A   1      47.230  36.893  31.683  1.00  0.00    -0.237 OA
ATOM    101  O   UNL A   1      48.932  37.322  29.941  1.00  0.00    -0.237 OA
ATOM    102  O   UNL A   1      46.570  37.884  29.520  1.00  0.00    -0.744 OA
ENDBRANCH  98  99
ENDBRANCH  66  91
ENDBRANCH  40  41
ENDBRANCH  33  35
ENDBRANCH  32  33
ENDBRANCH  31  32
ENDBRANCH   1  31
TORSDOF 20
ENDMDL
