MODEL 1
REMARK VINA RESULT:     -12.2      0.000      0.000
REMARK SMILES CCc1ccc2[nH]c(C(=O)c3cc(C)ccn3)c(CC(=O)OCCOC(=O)c3ccc(-c4c5nc(c(-c6c(F)cc(S(=O)(=O)[O-])cc6F)c6ccc([nH]6)c(-c6c(F)cc(S(=O)(=O)[O-])cc6F)c6nc(c(-c7c(F)cc(S(=O)(=O)[O-])cc7F)c7ccc4[nH]7)C=C6)C=C5)cc3)c2c1
REMARK SMILES IDX 23 1 22 2 20 3 21 4 19 5 18 6 3 7 4 8 95 9 5 10 94 11 6 12
REMARK SMILES IDX 7 13 8 14 2 16 1 17 9 18 10 19 11 20 12 21 17 22 13 23 16 24
REMARK SMILES IDX 14 25 15 26 24 27 25 28 26 29 27 30 28 31 29 32 93 33 30 34
REMARK SMILES IDX 92 35 31 36 32 37 33 38 86 39 34 40 91 41 85 42 87 43 35 44
REMARK SMILES IDX 90 45 84 46 83 47 36 49 70 50 49 51 69 52 50 53 53 54 68 55
REMARK SMILES IDX 88 56 51 57 52 58 67 60 89 61 54 62 37 63 38 64 47 65 39 66
REMARK SMILES IDX 40 67 46 68 48 69 41 70 42 71 43 72 44 73 45 74 71 75 72 76
REMARK SMILES IDX 81 77 73 78 74 79 80 80 82 81 75 82 76 83 77 84 78 85 79 86
REMARK SMILES IDX 55 87 56 88 65 89 57 90 58 91 64 92 66 93 59 94 60 95 61 96
REMARK SMILES IDX 62 97 63 98
REMARK H PARENT 7 15 87 48 53 59
REMARK Flexibility Score: inf
ROOT
ATOM      1  C   UNL A   1      33.198  30.672  27.095  1.00  0.00     0.274 C 
ENDROOT
BRANCH   1   2
ATOM      2  O   UNL A   1      33.483  29.414  26.450  1.00  0.00    -0.462 OA
BRANCH   2   3
ATOM      3  C   UNL A   1      32.790  28.343  26.926  1.00  0.00     0.310 C 
ATOM      4  O   UNL A   1      32.168  28.345  27.986  1.00  0.00    -0.252 OA
BRANCH   3   5
ATOM      5  C   UNL A   1      32.785  27.132  26.020  1.00  0.00     0.161 C 
BRANCH   5   6
ATOM      6  C   UNL A   1      31.445  26.565  25.658  1.00  0.00     0.000 A 
ATOM      7  C   UNL A   1      29.529  28.722  23.154  1.00  0.00    -0.048 A 
ATOM      8  C   UNL A   1      28.459  27.829  23.007  1.00  0.00     0.006 A 
ATOM      9  C   UNL A   1      30.516  28.444  24.110  1.00  0.00     0.014 A 
ATOM     10  C   UNL A   1      28.376  26.644  23.752  1.00  0.00     0.027 A 
ATOM     11  C   UNL A   1      30.498  27.220  24.810  1.00  0.00     0.004 A 
ATOM     12  C   UNL A   1      29.428  26.354  24.624  1.00  0.00     0.046 A 
ATOM     13  N   UNL A   1      29.669  25.249  25.409  1.00  0.00    -0.352 N 
ATOM     14  C   UNL A   1      30.967  25.271  25.878  1.00  0.00     0.093 A 
ATOM     15  H   UNL A   1      29.010  24.545  25.607  1.00  0.00     0.167 HD
BRANCH   7  16
ATOM     16  C   UNL A   1      29.614  29.960  22.291  1.00  0.00     0.032 C 
ATOM     17  C   UNL A   1      28.374  30.851  22.347  1.00  0.00     0.009 C 
ENDBRANCH   7  16
BRANCH  14  18
ATOM     18  C   UNL A   1      31.689  24.112  26.382  1.00  0.00     0.227 C 
ATOM     19  O   UNL A   1      31.597  23.725  27.545  1.00  0.00    -0.285 OA
BRANCH  18  20
ATOM     20  C   UNL A   1      32.676  23.421  25.520  1.00  0.00     0.113 A 
ATOM     21  C   UNL A   1      33.791  22.826  26.097  1.00  0.00     0.036 A 
ATOM     22  N   UNL A   1      32.364  23.335  24.207  1.00  0.00    -0.253 NA
ATOM     23  C   UNL A   1      34.641  22.082  25.274  1.00  0.00    -0.047 A 
ATOM     24  C   UNL A   1      33.156  22.551  23.452  1.00  0.00     0.112 A 
ATOM     25  C   UNL A   1      35.870  21.416  25.819  1.00  0.00     0.044 C 
ATOM     26  C   UNL A   1      34.293  21.916  23.931  1.00  0.00     0.023 A 
ENDBRANCH  18  20
ENDBRANCH  14  18
ENDBRANCH   5   6
ENDBRANCH   3   5
ENDBRANCH   2   3
ENDBRANCH   1   2
BRANCH   1  27
ATOM     27  C   UNL A   1      34.467  31.268  27.696  1.00  0.00     0.275 C 
BRANCH  27  28
ATOM     28  O   UNL A   1      35.297  30.216  28.216  1.00  0.00    -0.458 OA
BRANCH  28  29
ATOM     29  C   UNL A   1      36.065  30.565  29.273  1.00  0.00     0.338 C 
ATOM     30  O   UNL A   1      35.731  31.280  30.209  1.00  0.00    -0.246 OA
BRANCH  29  31
ATOM     31  C   UNL A   1      37.428  30.020  29.123  1.00  0.00     0.060 A 
ATOM     32  C   UNL A   1      38.190  29.641  30.227  1.00  0.00     0.016 A 
ATOM     33  C   UNL A   1      37.981  29.970  27.843  1.00  0.00     0.016 A 
ATOM     34  C   UNL A   1      39.534  29.299  30.059  1.00  0.00     0.010 A 
ATOM     35  C   UNL A   1      39.292  29.522  27.667  1.00  0.00     0.010 A 
ATOM     36  C   UNL A   1      40.094  29.208  28.776  1.00  0.00    -0.014 A 
BRANCH  36  37
ATOM     37  C   UNL A   1      41.505  28.770  28.582  1.00  0.00     0.031 A 
ATOM     38  C   UNL A   1      42.643  29.745  28.743  1.00  0.00     0.074 A 
ATOM     39  C   UNL A   1      41.768  27.496  28.230  1.00  0.00     0.049 A 
ATOM     40  N   UNL A   1      43.906  29.600  28.430  1.00  0.00    -0.248 NA
ATOM     41  C   UNL A   1      42.314  31.060  29.315  1.00  0.00     0.031 C 
ATOM     42  C   UNL A   1      40.771  26.437  28.073  1.00  0.00     0.029 A 
ATOM     43  N   UNL A   1      42.959  26.874  27.944  1.00  0.00    -0.354 N 
ATOM     44  C   UNL A   1      44.515  30.815  28.722  1.00  0.00     0.074 A 
ATOM     45  C   UNL A   1      43.479  31.689  29.232  1.00  0.00     0.031 C 
ATOM     46  C   UNL A   1      41.392  25.288  27.771  1.00  0.00     0.029 A 
ATOM     47  C   UNL A   1      42.820  25.545  27.624  1.00  0.00     0.049 A 
ATOM     48  H   UNL A   1      43.828  27.335  27.968  1.00  0.00     0.167 HD
ATOM     49  C   UNL A   1      45.817  31.167  28.578  1.00  0.00     0.037 A 
ATOM     50  C   UNL A   1      43.729  24.637  27.221  1.00  0.00     0.037 A 
ATOM     51  C   UNL A   1      46.854  30.281  28.113  1.00  0.00     0.049 A 
ATOM     52  C   UNL A   1      45.155  25.059  27.031  1.00  0.00     0.074 A 
ATOM     53  C   UNL A   1      48.203  30.543  27.944  1.00  0.00     0.029 A 
ATOM     54  N   UNL A   1      46.660  28.954  27.756  1.00  0.00    -0.354 N 
ATOM     55  N   UNL A   1      45.703  26.230  27.245  1.00  0.00    -0.248 NA
ATOM     56  C   UNL A   1      46.081  24.042  26.515  1.00  0.00     0.031 C 
ATOM     57  C   UNL A   1      48.821  29.381  27.461  1.00  0.00     0.029 A 
ATOM     58  C   UNL A   1      47.862  28.387  27.357  1.00  0.00     0.049 A 
ATOM     59  H   UNL A   1      45.796  28.483  27.781  1.00  0.00     0.167 HD
ATOM     60  C   UNL A   1      47.039  26.092  26.895  1.00  0.00     0.074 A 
ATOM     61  C   UNL A   1      47.221  24.719  26.468  1.00  0.00     0.031 C 
ATOM     62  C   UNL A   1      48.026  27.022  26.925  1.00  0.00     0.037 A 
BRANCH  49  63
ATOM     63  C   UNL A   1      46.183  32.590  28.898  1.00  0.00     0.058 A 
ATOM     64  C   UNL A   1      46.531  32.993  30.196  1.00  0.00     0.135 A 
ATOM     65  C   UNL A   1      46.183  33.567  27.888  1.00  0.00     0.135 A 
ATOM     66  F   UNL A   1      46.537  32.104  31.202  1.00  0.00    -0.206 F 
ATOM     67  C   UNL A   1      46.822  34.321  30.492  1.00  0.00     0.059 A 
ATOM     68  C   UNL A   1      46.492  34.897  28.156  1.00  0.00     0.059 A 
ATOM     69  F   UNL A   1      45.863  33.234  26.627  1.00  0.00    -0.206 F 
ATOM     70  C   UNL A   1      46.786  35.269  29.466  1.00  0.00     0.060 A 
BRANCH  70  71
ATOM     71  S   UNL A   1      47.112  36.999  29.869  1.00  0.00     0.124 S 
ATOM     72  O   UNL A   1      47.371  37.559  28.545  1.00  0.00    -0.237 OA
ATOM     73  O   UNL A   1      45.865  37.421  30.500  1.00  0.00    -0.237 OA
ATOM     74  O   UNL A   1      48.267  36.928  30.759  1.00  0.00    -0.744 OA
ENDBRANCH  70  71
ENDBRANCH  49  63
BRANCH  50  75
ATOM     75  C   UNL A   1      43.297  23.241  26.958  1.00  0.00     0.058 A 
ATOM     76  C   UNL A   1      43.280  22.735  25.652  1.00  0.00     0.135 A 
ATOM     77  C   UNL A   1      42.961  22.371  28.007  1.00  0.00     0.135 A 
ATOM     78  F   UNL A   1      43.586  23.535  24.619  1.00  0.00    -0.206 F 
ATOM     79  C   UNL A   1      42.954  21.408  25.392  1.00  0.00     0.059 A 
ATOM     80  C   UNL A   1      42.651  21.036  27.773  1.00  0.00     0.059 A 
ATOM     81  F   UNL A   1      42.975  22.809  29.276  1.00  0.00    -0.206 F 
ATOM     82  C   UNL A   1      42.649  20.564  26.461  1.00  0.00     0.060 A 
BRANCH  82  83
ATOM     83  S   UNL A   1      42.317  18.821  26.127  1.00  0.00     0.124 S 
ATOM     84  O   UNL A   1      42.641  18.210  27.411  1.00  0.00    -0.237 OA
ATOM     85  O   UNL A   1      40.903  18.835  25.767  1.00  0.00    -0.237 OA
ATOM     86  O   UNL A   1      43.230  18.512  25.031  1.00  0.00    -0.744 OA
ENDBRANCH  82  83
ENDBRANCH  50  75
BRANCH  62  87
ATOM     87  C   UNL A   1      49.393  26.575  26.494  1.00  0.00     0.058 A 
ATOM     88  C   UNL A   1      50.265  25.927  27.383  1.00  0.00     0.135 A 
ATOM     89  C   UNL A   1      49.828  26.781  25.177  1.00  0.00     0.135 A 
ATOM     90  F   UNL A   1      49.897  25.716  28.657  1.00  0.00    -0.206 F 
ATOM     91  C   UNL A   1      51.532  25.516  26.984  1.00  0.00     0.059 A 
ATOM     92  C   UNL A   1      51.085  26.363  24.752  1.00  0.00     0.059 A 
ATOM     93  F   UNL A   1      49.029  27.392  24.288  1.00  0.00    -0.206 F 
ATOM     94  C   UNL A   1      51.936  25.742  25.667  1.00  0.00     0.060 A 
BRANCH  94  95
ATOM     95  S   UNL A   1      53.575  25.189  25.150  1.00  0.00     0.124 S 
ATOM     96  O   UNL A   1      54.437  25.928  26.066  1.00  0.00    -0.237 OA
ATOM     97  O   UNL A   1      53.507  23.747  25.369  1.00  0.00    -0.237 OA
ATOM     98  O   UNL A   1      53.644  25.600  23.752  1.00  0.00    -0.744 OA
ENDBRANCH  94  95
ENDBRANCH  62  87
ENDBRANCH  36  37
ENDBRANCH  29  31
ENDBRANCH  28  29
ENDBRANCH  27  28
ENDBRANCH   1  27
TORSDOF 18
ENDMDL
MODEL 2
REMARK VINA RESULT:     -11.9      6.656     11.728
REMARK SMILES CCc1ccc2[nH]c(C(=O)c3cc(C)ccn3)c(CC(=O)OCCOC(=O)c3ccc(-c4c5nc(c(-c6c(F)cc(S(=O)(=O)[O-])cc6F)c6ccc([nH]6)c(-c6c(F)cc(S(=O)(=O)[O-])cc6F)c6nc(c(-c7c(F)cc(S(=O)(=O)[O-])cc7F)c7ccc4[nH]7)C=C6)C=C5)cc3)c2c1
REMARK SMILES IDX 23 1 22 2 20 3 21 4 19 5 18 6 3 7 4 8 95 9 5 10 94 11 6 12
REMARK SMILES IDX 7 13 8 14 2 16 1 17 9 18 10 19 11 20 12 21 17 22 13 23 16 24
REMARK SMILES IDX 14 25 15 26 24 27 25 28 26 29 27 30 28 31 29 32 93 33 30 34
REMARK SMILES IDX 92 35 31 36 32 37 33 38 86 39 34 40 91 41 85 42 87 43 35 44
REMARK SMILES IDX 90 45 84 46 83 47 36 49 70 50 49 51 69 52 50 53 53 54 68 55
REMARK SMILES IDX 88 56 51 57 52 58 67 60 89 61 54 62 37 63 38 64 47 65 39 66
REMARK SMILES IDX 40 67 46 68 48 69 41 70 42 71 43 72 44 73 45 74 71 75 72 76
REMARK SMILES IDX 81 77 73 78 74 79 80 80 82 81 75 82 76 83 77 84 78 85 79 86
REMARK SMILES IDX 55 87 56 88 65 89 57 90 58 91 64 92 66 93 59 94 60 95 61 96
REMARK SMILES IDX 62 97 63 98
REMARK H PARENT 7 15 87 48 53 59
REMARK Flexibility Score: inf
ROOT
ATOM      1  C   UNL A   1      39.186  21.845  26.130  1.00  0.00     0.274 C 
ENDROOT
BRANCH   1   2
ATOM      2  O   UNL A   1      37.934  22.556  26.053  1.00  0.00    -0.462 OA
BRANCH   2   3
ATOM      3  C   UNL A   1      36.993  21.996  25.246  1.00  0.00     0.310 C 
ATOM      4  O   UNL A   1      37.161  21.774  24.048  1.00  0.00    -0.252 OA
BRANCH   3   5
ATOM      5  C   UNL A   1      35.708  21.602  25.940  1.00  0.00     0.161 C 
BRANCH   5   6
ATOM      6  C   UNL A   1      34.502  21.409  25.071  1.00  0.00     0.000 A 
ATOM      7  C   UNL A   1      33.867  17.749  24.179  1.00  0.00    -0.048 A 
ATOM      8  C   UNL A   1      32.662  17.987  23.505  1.00  0.00     0.006 A 
ATOM      9  C   UNL A   1      34.618  18.844  24.632  1.00  0.00     0.014 A 
ATOM     10  C   UNL A   1      32.163  19.285  23.315  1.00  0.00     0.027 A 
ATOM     11  C   UNL A   1      34.098  20.150  24.527  1.00  0.00     0.004 A 
ATOM     12  C   UNL A   1      32.891  20.343  23.866  1.00  0.00     0.046 A 
ATOM     13  N   UNL A   1      32.619  21.691  23.921  1.00  0.00    -0.352 N 
ATOM     14  C   UNL A   1      33.470  22.314  24.811  1.00  0.00     0.093 A 
ATOM     15  H   UNL A   1      31.918  22.145  23.400  1.00  0.00     0.167 HD
BRANCH   7  16
ATOM     16  C   UNL A   1      34.341  16.334  24.415  1.00  0.00     0.032 C 
ATOM     17  C   UNL A   1      33.420  15.502  25.306  1.00  0.00     0.009 C 
ENDBRANCH   7  16
BRANCH  14  18
ATOM     18  C   UNL A   1      33.230  23.613  25.422  1.00  0.00     0.227 C 
ATOM     19  O   UNL A   1      32.913  23.745  26.602  1.00  0.00    -0.285 OA
BRANCH  18  20
ATOM     20  C   UNL A   1      33.241  24.837  24.588  1.00  0.00     0.113 A 
ATOM     21  C   UNL A   1      33.394  26.078  25.195  1.00  0.00     0.036 A 
ATOM     22  N   UNL A   1      33.192  24.648  23.250  1.00  0.00    -0.253 NA
ATOM     23  C   UNL A   1      33.518  27.202  24.375  1.00  0.00    -0.047 A 
ATOM     24  C   UNL A   1      33.390  25.737  22.482  1.00  0.00     0.112 A 
ATOM     25  C   UNL A   1      33.678  28.577  24.953  1.00  0.00     0.044 C 
ATOM     26  C   UNL A   1      33.550  27.017  22.990  1.00  0.00     0.023 A 
ENDBRANCH  18  20
ENDBRANCH  14  18
ENDBRANCH   5   6
ENDBRANCH   3   5
ENDBRANCH   2   3
ENDBRANCH   1   2
BRANCH   1  27
ATOM     27  C   UNL A   1      40.294  22.759  26.644  1.00  0.00     0.275 C 
BRANCH  27  28
ATOM     28  O   UNL A   1      39.897  24.132  26.495  1.00  0.00    -0.458 OA
BRANCH  28  29
ATOM     29  C   UNL A   1      40.915  25.023  26.498  1.00  0.00     0.338 C 
ATOM     30  O   UNL A   1      41.890  25.014  25.758  1.00  0.00    -0.246 OA
BRANCH  29  31
ATOM     31  C   UNL A   1      40.739  26.003  27.586  1.00  0.00     0.060 A 
ATOM     32  C   UNL A   1      41.649  27.040  27.792  1.00  0.00     0.016 A 
ATOM     33  C   UNL A   1      39.676  25.822  28.472  1.00  0.00     0.016 A 
ATOM     34  C   UNL A   1      41.547  27.837  28.934  1.00  0.00     0.010 A 
ATOM     35  C   UNL A   1      39.515  26.690  29.554  1.00  0.00     0.010 A 
ATOM     36  C   UNL A   1      40.464  27.691  29.815  1.00  0.00    -0.014 A 
BRANCH  36  37
ATOM     37  C   UNL A   1      40.306  28.587  30.995  1.00  0.00     0.031 A 
ATOM     38  C   UNL A   1      39.280  29.689  30.993  1.00  0.00     0.074 A 
ATOM     39  C   UNL A   1      41.109  28.429  32.066  1.00  0.00     0.049 A 
ATOM     40  N   UNL A   1      39.127  30.678  31.838  1.00  0.00    -0.248 NA
ATOM     41  C   UNL A   1      38.308  29.690  29.889  1.00  0.00     0.031 C 
ATOM     42  C   UNL A   1      42.120  27.384  32.222  1.00  0.00     0.029 A 
ATOM     43  N   UNL A   1      41.195  29.148  33.233  1.00  0.00    -0.354 N 
ATOM     44  C   UNL A   1      38.077  31.444  31.346  1.00  0.00     0.074 A 
ATOM     45  C   UNL A   1      37.633  30.807  30.123  1.00  0.00     0.031 C 
ATOM     46  C   UNL A   1      42.690  27.497  33.430  1.00  0.00     0.029 A 
ATOM     47  C   UNL A   1      42.149  28.673  34.101  1.00  0.00     0.049 A 
ATOM     48  H   UNL A   1      40.628  29.928  33.429  1.00  0.00     0.167 HD
ATOM     49  C   UNL A   1      37.534  32.573  31.866  1.00  0.00     0.037 A 
ATOM     50  C   UNL A   1      42.572  29.146  35.288  1.00  0.00     0.037 A 
ATOM     51  C   UNL A   1      37.948  33.180  33.106  1.00  0.00     0.049 A 
ATOM     52  C   UNL A   1      41.986  30.417  35.825  1.00  0.00     0.074 A 
ATOM     53  C   UNL A   1      37.452  34.318  33.720  1.00  0.00     0.029 A 
ATOM     54  N   UNL A   1      38.951  32.689  33.931  1.00  0.00    -0.354 N 
ATOM     55  N   UNL A   1      41.041  31.168  35.315  1.00  0.00    -0.248 NA
ATOM     56  C   UNL A   1      42.545  30.922  37.086  1.00  0.00     0.031 C 
ATOM     57  C   UNL A   1      38.171  34.529  34.904  1.00  0.00     0.029 A 
ATOM     58  C   UNL A   1      39.095  33.506  35.043  1.00  0.00     0.049 A 
ATOM     59  H   UNL A   1      39.482  31.880  33.753  1.00  0.00     0.167 HD
ATOM     60  C   UNL A   1      40.887  32.232  36.193  1.00  0.00     0.074 A 
ATOM     61  C   UNL A   1      41.827  32.021  37.275  1.00  0.00     0.031 C 
ATOM     62  C   UNL A   1      40.042  33.290  36.107  1.00  0.00     0.037 A 
BRANCH  49  63
ATOM     63  C   UNL A   1      36.450  33.245  31.068  1.00  0.00     0.058 A 
ATOM     64  C   UNL A   1      36.731  33.991  29.915  1.00  0.00     0.135 A 
ATOM     65  C   UNL A   1      35.108  33.141  31.469  1.00  0.00     0.135 A 
ATOM     66  F   UNL A   1      37.998  34.132  29.492  1.00  0.00    -0.206 F 
ATOM     67  C   UNL A   1      35.727  34.648  29.210  1.00  0.00     0.059 A 
ATOM     68  C   UNL A   1      34.084  33.771  30.769  1.00  0.00     0.059 A 
ATOM     69  F   UNL A   1      34.782  32.434  32.563  1.00  0.00    -0.206 F 
ATOM     70  C   UNL A   1      34.407  34.543  29.654  1.00  0.00     0.060 A 
BRANCH  70  71
ATOM     71  S   UNL A   1      33.117  35.443  28.766  1.00  0.00     0.124 S 
ATOM     72  O   UNL A   1      33.909  36.391  27.989  1.00  0.00    -0.237 OA
ATOM     73  O   UNL A   1      32.463  34.388  27.998  1.00  0.00    -0.237 OA
ATOM     74  O   UNL A   1      32.311  36.024  29.836  1.00  0.00    -0.744 OA
ENDBRANCH  70  71
ENDBRANCH  49  63
BRANCH  50  75
ATOM     75  C   UNL A   1      43.622  28.407  36.034  1.00  0.00     0.058 A 
ATOM     76  C   UNL A   1      43.289  27.299  36.825  1.00  0.00     0.135 A 
ATOM     77  C   UNL A   1      44.978  28.751  35.918  1.00  0.00     0.135 A 
ATOM     78  F   UNL A   1      42.004  26.942  36.970  1.00  0.00    -0.206 F 
ATOM     79  C   UNL A   1      44.266  26.548  37.469  1.00  0.00     0.059 A 
ATOM     80  C   UNL A   1      45.973  28.002  36.536  1.00  0.00     0.059 A 
ATOM     81  F   UNL A   1      45.345  29.797  35.162  1.00  0.00    -0.206 F 
ATOM     82  C   UNL A   1      45.607  26.903  37.312  1.00  0.00     0.060 A 
BRANCH  82  83
ATOM     83  S   UNL A   1      46.876  25.869  38.074  1.00  0.00     0.124 S 
ATOM     84  O   UNL A   1      46.067  24.846  38.726  1.00  0.00    -0.237 OA
ATOM     85  O   UNL A   1      47.653  25.427  36.921  1.00  0.00    -0.237 OA
ATOM     86  O   UNL A   1      47.567  26.794  38.967  1.00  0.00    -0.744 OA
ENDBRANCH  82  83
ENDBRANCH  50  75
BRANCH  62  87
ATOM     87  C   UNL A   1      40.092  34.290  37.226  1.00  0.00     0.058 A 
ATOM     88  C   UNL A   1      40.875  35.451  37.134  1.00  0.00     0.135 A 
ATOM     89  C   UNL A   1      39.340  34.092  38.393  1.00  0.00     0.135 A 
ATOM     90  F   UNL A   1      41.620  35.679  36.041  1.00  0.00    -0.206 F 
ATOM     91  C   UNL A   1      40.924  36.374  38.173  1.00  0.00     0.059 A 
ATOM     92  C   UNL A   1      39.361  35.011  39.438  1.00  0.00     0.059 A 
ATOM     93  F   UNL A   1      38.573  32.998  38.526  1.00  0.00    -0.206 F 
ATOM     94  C   UNL A   1      40.167  36.144  39.323  1.00  0.00     0.060 A 
BRANCH  94  95
ATOM     95  S   UNL A   1      40.220  37.357  40.660  1.00  0.00     0.124 S 
ATOM     96  O   UNL A   1      38.852  37.861  40.654  1.00  0.00    -0.237 OA
ATOM     97  O   UNL A   1      40.590  36.542  41.813  1.00  0.00    -0.237 OA
ATOM     98  O   UNL A   1      41.241  38.302  40.217  1.00  0.00    -0.744 OA
ENDBRANCH  94  95
ENDBRANCH  62  87
ENDBRANCH  36  37
ENDBRANCH  29  31
ENDBRANCH  28  29
ENDBRANCH  27  28
ENDBRANCH   1  27
TORSDOF 18
ENDMDL
MODEL 3
REMARK VINA RESULT:     -11.8      6.461     12.030
REMARK SMILES CCc1ccc2[nH]c(C(=O)c3cc(C)ccn3)c(CC(=O)OCCOC(=O)c3ccc(-c4c5nc(c(-c6c(F)cc(S(=O)(=O)[O-])cc6F)c6ccc([nH]6)c(-c6c(F)cc(S(=O)(=O)[O-])cc6F)c6nc(c(-c7c(F)cc(S(=O)(=O)[O-])cc7F)c7ccc4[nH]7)C=C6)C=C5)cc3)c2c1
REMARK SMILES IDX 23 1 22 2 20 3 21 4 19 5 18 6 3 7 4 8 95 9 5 10 94 11 6 12
REMARK SMILES IDX 7 13 8 14 2 16 1 17 9 18 10 19 11 20 12 21 17 22 13 23 16 24
REMARK SMILES IDX 14 25 15 26 24 27 25 28 26 29 27 30 28 31 29 32 93 33 30 34
REMARK SMILES IDX 92 35 31 36 32 37 33 38 86 39 34 40 91 41 85 42 87 43 35 44
REMARK SMILES IDX 90 45 84 46 83 47 36 49 70 50 49 51 69 52 50 53 53 54 68 55
REMARK SMILES IDX 88 56 51 57 52 58 67 60 89 61 54 62 37 63 38 64 47 65 39 66
REMARK SMILES IDX 40 67 46 68 48 69 41 70 42 71 43 72 44 73 45 74 71 75 72 76
REMARK SMILES IDX 81 77 73 78 74 79 80 80 82 81 75 82 76 83 77 84 78 85 79 86
REMARK SMILES IDX 55 87 56 88 65 89 57 90 58 91 64 92 66 93 59 94 60 95 61 96
REMARK SMILES IDX 62 97 63 98
REMARK H PARENT 7 15 87 48 53 59
REMARK Flexibility Score: inf
ROOT
ATOM      1  C   UNL A   1      38.212  22.031  25.410  1.00  0.00     0.274 C 
ENDROOT
BRANCH   1   2
ATOM      2  O   UNL A   1      36.984  21.915  26.156  1.00  0.00    -0.462 OA
BRANCH   2   3
ATOM      3  C   UNL A   1      35.849  22.205  25.463  1.00  0.00     0.310 C 
ATOM      4  O   UNL A   1      35.811  22.967  24.499  1.00  0.00    -0.252 OA
BRANCH   3   5
ATOM      5  C   UNL A   1      34.611  21.473  25.930  1.00  0.00     0.161 C 
BRANCH   5   6
ATOM      6  C   UNL A   1      33.673  20.986  24.866  1.00  0.00     0.000 A 
ATOM      7  C   UNL A   1      34.039  17.254  24.136  1.00  0.00    -0.048 A 
ATOM      8  C   UNL A   1      32.970  17.193  23.232  1.00  0.00     0.006 A 
ATOM      9  C   UNL A   1      34.429  18.503  24.642  1.00  0.00     0.014 A 
ATOM     10  C   UNL A   1      32.249  18.338  22.861  1.00  0.00     0.027 A 
ATOM     11  C   UNL A   1      33.669  19.653  24.348  1.00  0.00     0.004 A 
ATOM     12  C   UNL A   1      32.605  19.548  23.461  1.00  0.00     0.046 A 
ATOM     13  N   UNL A   1      32.041  20.801  23.366  1.00  0.00    -0.352 N 
ATOM     14  C   UNL A   1      32.542  21.625  24.353  1.00  0.00     0.093 A 
ATOM     15  H   UNL A   1      31.376  21.069  22.692  1.00  0.00     0.167 HD
BRANCH   7  16
ATOM     16  C   UNL A   1      34.753  15.991  24.558  1.00  0.00     0.032 C 
ATOM     17  C   UNL A   1      35.881  16.212  25.565  1.00  0.00     0.009 C 
ENDBRANCH   7  16
BRANCH  14  18
ATOM     18  C   UNL A   1      31.908  22.852  24.814  1.00  0.00     0.227 C 
ATOM     19  O   UNL A   1      30.741  22.896  25.194  1.00  0.00    -0.285 OA
BRANCH  18  20
ATOM     20  C   UNL A   1      32.633  24.141  24.719  1.00  0.00     0.113 A 
ATOM     21  C   UNL A   1      32.759  24.766  23.484  1.00  0.00     0.036 A 
ATOM     22  N   UNL A   1      33.052  24.677  25.888  1.00  0.00    -0.253 NA
ATOM     23  C   UNL A   1      33.344  26.034  23.444  1.00  0.00    -0.047 A 
ATOM     24  C   UNL A   1      33.542  25.931  25.831  1.00  0.00     0.112 A 
ATOM     25  C   UNL A   1      33.524  26.771  22.150  1.00  0.00     0.044 C 
ATOM     26  C   UNL A   1      33.711  26.638  24.650  1.00  0.00     0.023 A 
ENDBRANCH  18  20
ENDBRANCH  14  18
ENDBRANCH   5   6
ENDBRANCH   3   5
ENDBRANCH   2   3
ENDBRANCH   1   2
BRANCH   1  27
ATOM     27  C   UNL A   1      39.403  22.173  26.352  1.00  0.00     0.275 C 
BRANCH  27  28
ATOM     28  O   UNL A   1      39.392  23.478  26.953  1.00  0.00    -0.458 OA
BRANCH  28  29
ATOM     29  C   UNL A   1      40.557  24.159  26.861  1.00  0.00     0.338 C 
ATOM     30  O   UNL A   1      41.532  23.842  26.191  1.00  0.00    -0.246 OA
BRANCH  29  31
ATOM     31  C   UNL A   1      40.540  25.333  27.753  1.00  0.00     0.060 A 
ATOM     32  C   UNL A   1      41.569  26.275  27.743  1.00  0.00     0.016 A 
ATOM     33  C   UNL A   1      39.504  25.442  28.682  1.00  0.00     0.016 A 
ATOM     34  C   UNL A   1      41.608  27.272  28.720  1.00  0.00     0.010 A 
ATOM     35  C   UNL A   1      39.489  26.505  29.588  1.00  0.00     0.010 A 
ATOM     36  C   UNL A   1      40.555  27.417  29.637  1.00  0.00    -0.014 A 
BRANCH  36  37
ATOM     37  C   UNL A   1      40.550  28.524  30.634  1.00  0.00     0.031 A 
ATOM     38  C   UNL A   1      41.561  28.559  31.751  1.00  0.00     0.074 A 
ATOM     39  C   UNL A   1      39.615  29.491  30.556  1.00  0.00     0.049 A 
ATOM     40  N   UNL A   1      41.594  29.325  32.812  1.00  0.00    -0.248 NA
ATOM     41  C   UNL A   1      42.670  27.595  31.673  1.00  0.00     0.031 C 
ATOM     42  C   UNL A   1      38.598  29.605  29.510  1.00  0.00     0.029 A 
ATOM     43  N   UNL A   1      39.371  30.569  31.372  1.00  0.00    -0.354 N 
ATOM     44  C   UNL A   1      42.695  28.909  33.551  1.00  0.00     0.074 A 
ATOM     45  C   UNL A   1      43.301  27.816  32.819  1.00  0.00     0.031 C 
ATOM     46  C   UNL A   1      37.874  30.714  29.717  1.00  0.00     0.029 A 
ATOM     47  C   UNL A   1      38.314  31.343  30.957  1.00  0.00     0.049 A 
ATOM     48  H   UNL A   1      39.902  30.767  32.176  1.00  0.00     0.167 HD
ATOM     49  C   UNL A   1      43.157  29.393  34.731  1.00  0.00     0.037 A 
ATOM     50  C   UNL A   1      37.736  32.418  31.523  1.00  0.00     0.037 A 
ATOM     51  C   UNL A   1      42.580  30.510  35.435  1.00  0.00     0.049 A 
ATOM     52  C   UNL A   1      38.237  32.912  32.846  1.00  0.00     0.074 A 
ATOM     53  C   UNL A   1      42.983  31.081  36.631  1.00  0.00     0.029 A 
ATOM     54  N   UNL A   1      41.480  31.238  35.000  1.00  0.00    -0.354 N 
ATOM     55  N   UNL A   1      39.236  32.466  33.567  1.00  0.00    -0.248 NA
ATOM     56  C   UNL A   1      37.513  34.040  33.449  1.00  0.00     0.031 C 
ATOM     57  C   UNL A   1      42.113  32.138  36.931  1.00  0.00     0.029 A 
ATOM     58  C   UNL A   1      41.186  32.244  35.908  1.00  0.00     0.049 A 
ATOM     59  H   UNL A   1      40.983  31.065  34.169  1.00  0.00     0.167 HD
ATOM     60  C   UNL A   1      39.267  33.259  34.706  1.00  0.00     0.074 A 
ATOM     61  C   UNL A   1      38.193  34.223  34.573  1.00  0.00     0.031 C 
ATOM     62  C   UNL A   1      40.109  33.191  35.768  1.00  0.00     0.037 A 
BRANCH  49  63
ATOM     63  C   UNL A   1      44.333  28.688  35.350  1.00  0.00     0.058 A 
ATOM     64  C   UNL A   1      45.654  29.083  35.094  1.00  0.00     0.135 A 
ATOM     65  C   UNL A   1      44.131  27.598  36.212  1.00  0.00     0.135 A 
ATOM     66  F   UNL A   1      45.905  30.112  34.269  1.00  0.00    -0.206 F 
ATOM     67  C   UNL A   1      46.737  28.395  35.634  1.00  0.00     0.059 A 
ATOM     68  C   UNL A   1      45.197  26.908  36.782  1.00  0.00     0.059 A 
ATOM     69  F   UNL A   1      42.886  27.182  36.497  1.00  0.00    -0.206 F 
ATOM     70  C   UNL A   1      46.498  27.299  36.466  1.00  0.00     0.060 A 
BRANCH  70  71
ATOM     71  S   UNL A   1      47.908  26.379  37.119  1.00  0.00     0.124 S 
ATOM     72  O   UNL A   1      48.459  27.336  38.074  1.00  0.00    -0.237 OA
ATOM     73  O   UNL A   1      47.276  25.199  37.702  1.00  0.00    -0.237 OA
ATOM     74  O   UNL A   1      48.725  26.126  35.936  1.00  0.00    -0.744 OA
ENDBRANCH  70  71
ENDBRANCH  49  63
BRANCH  50  75
ATOM     75  C   UNL A   1      36.601  33.083  30.833  1.00  0.00     0.058 A 
ATOM     76  C   UNL A   1      35.301  32.992  31.349  1.00  0.00     0.135 A 
ATOM     77  C   UNL A   1      36.803  33.873  29.691  1.00  0.00     0.135 A 
ATOM     78  F   UNL A   1      35.062  32.240  32.435  1.00  0.00    -0.206 F 
ATOM     79  C   UNL A   1      34.239  33.670  30.762  1.00  0.00     0.059 A 
ATOM     80  C   UNL A   1      35.760  34.576  29.099  1.00  0.00     0.059 A 
ATOM     81  F   UNL A   1      38.033  33.999  29.168  1.00  0.00    -0.206 F 
ATOM     82  C   UNL A   1      34.479  34.467  29.641  1.00  0.00     0.060 A 
BRANCH  82  83
ATOM     83  S   UNL A   1      33.115  35.418  28.940  1.00  0.00     0.124 S 
ATOM     84  O   UNL A   1      32.309  35.691  30.125  1.00  0.00    -0.237 OA
ATOM     85  O   UNL A   1      33.801  36.567  28.359  1.00  0.00    -0.237 OA
ATOM     86  O   UNL A   1      32.527  34.496  27.974  1.00  0.00    -0.744 OA
ENDBRANCH  82  83
ENDBRANCH  50  75
BRANCH  62  87
ATOM     87  C   UNL A   1      39.905  34.201  36.860  1.00  0.00     0.058 A 
ATOM     88  C   UNL A   1      39.096  33.922  37.972  1.00  0.00     0.135 A 
ATOM     89  C   UNL A   1      40.537  35.452  36.801  1.00  0.00     0.135 A 
ATOM     90  F   UNL A   1      38.462  32.743  38.068  1.00  0.00    -0.206 F 
ATOM     91  C   UNL A   1      38.904  34.859  38.981  1.00  0.00     0.059 A 
ATOM     92  C   UNL A   1      40.373  36.398  37.807  1.00  0.00     0.059 A 
ATOM     93  F   UNL A   1      41.324  35.763  35.759  1.00  0.00    -0.206 F 
ATOM     94  C   UNL A   1      39.544  36.098  38.889  1.00  0.00     0.060 A 
BRANCH  94  95
ATOM     95  S   UNL A   1      39.306  37.303  40.212  1.00  0.00     0.124 S 
ATOM     96  O   UNL A   1      38.482  38.308  39.549  1.00  0.00    -0.237 OA
ATOM     97  O   UNL A   1      38.638  36.515  41.242  1.00  0.00    -0.237 OA
ATOM     98  O   UNL A   1      40.667  37.720  40.536  1.00  0.00    -0.744 OA
ENDBRANCH  94  95
ENDBRANCH  62  87
ENDBRANCH  36  37
ENDBRANCH  29  31
ENDBRANCH  28  29
ENDBRANCH  27  28
ENDBRANCH   1  27
TORSDOF 18
ENDMDL
