MODEL 1
REMARK VINA RESULT:     -12.3      0.000      0.000
REMARK SMILES Cc1cc2c(cc1C(=O)c1ccccc1C(=O)OCCOC(=O)c1ccc(-c3c4nc(c(-c5c(F)cc(S(=O)(=O)[O-])cc5F)c5ccc([nH]5)c(-c5c(F)cc(S(=O)(=O)[O-])cc5F)c5nc(c(-c6c(F)cc(S(=O)(=O)[O-])cc6F)c6ccc3[nH]6)C=C5)C=C4)cc1)CCCC2
REMARK SMILES IDX 20 1 19 2 18 3 16 4 17 5 15 6 10 7 11 8 12 9 14 10 13 11
REMARK SMILES IDX 8 12 9 13 7 14 1 15 2 16 3 17 4 18 6 19 5 20 93 21 90 22
REMARK SMILES IDX 92 23 91 24 21 25 22 26 23 27 24 28 25 29 89 30 26 31 88 32
REMARK SMILES IDX 27 33 28 34 29 35 82 36 30 37 87 38 81 39 83 40 31 41 86 42
REMARK SMILES IDX 80 43 79 44 32 46 66 47 45 48 65 49 46 50 49 51 64 52 84 53
REMARK SMILES IDX 47 54 48 55 63 57 85 58 50 59 33 60 34 61 43 62 35 63 36 64
REMARK SMILES IDX 42 65 44 66 37 67 38 68 39 69 40 70 41 71 67 72 68 73 77 74
REMARK SMILES IDX 69 75 70 76 76 77 78 78 71 79 72 80 73 81 74 82 75 83 51 84
REMARK SMILES IDX 52 85 61 86 53 87 54 88 60 89 62 90 55 91 56 92 57 93 58 94
REMARK SMILES IDX 59 95
REMARK H PARENT 83 45 49 56
REMARK Flexibility Score: inf
ROOT
ATOM      1  C   UNL A   1      32.393  28.752  27.396  1.00  0.00     0.275 C 
ENDROOT
BRANCH   1   2
ATOM      2  C   UNL A   1      32.008  27.683  26.371  1.00  0.00     0.275 C 
BRANCH   2   3
ATOM      3  O   UNL A   1      33.084  26.746  26.173  1.00  0.00    -0.458 OA
BRANCH   3   4
ATOM      4  C   UNL A   1      33.755  26.839  24.999  1.00  0.00     0.339 C 
ATOM      5  O   UNL A   1      34.148  27.867  24.477  1.00  0.00    -0.246 OA
BRANCH   4   6
ATOM      6  C   UNL A   1      34.100  25.497  24.460  1.00  0.00     0.071 A 
ATOM      7  C   UNL A   1      33.629  24.980  23.245  1.00  0.00     0.037 A 
ATOM      8  C   UNL A   1      34.061  23.715  22.809  1.00  0.00     0.013 A 
ATOM      9  C   UNL A   1      34.866  22.922  23.628  1.00  0.00     0.001 A 
ATOM     10  C   UNL A   1      34.972  24.714  25.236  1.00  0.00     0.016 A 
ATOM     11  C   UNL A   1      35.318  23.419  24.845  1.00  0.00     0.001 A 
BRANCH   7  12
ATOM     12  C   UNL A   1      32.783  25.781  22.346  1.00  0.00     0.194 C 
ATOM     13  O   UNL A   1      33.178  25.884  21.184  1.00  0.00    -0.289 OA
BRANCH  12  14
ATOM     14  C   UNL A   1      31.460  26.374  22.748  1.00  0.00     0.026 A 
ATOM     15  C   UNL A   1      30.577  24.470  24.275  1.00  0.00     0.045 C 
ATOM     16  C   UNL A   1      30.461  25.781  23.546  1.00  0.00    -0.040 A 
ATOM     17  C   UNL A   1      29.226  26.452  23.690  1.00  0.00     0.008 A 
ATOM     18  C   UNL A   1      29.003  27.729  23.162  1.00  0.00    -0.044 A 
ATOM     19  C   UNL A   1      31.236  27.676  22.251  1.00  0.00     0.016 A 
ATOM     20  C   UNL A   1      30.029  28.361  22.455  1.00  0.00    -0.044 A 
ATOM     21  C   UNL A   1      27.646  28.369  23.318  1.00  0.00     0.036 C 
ATOM     22  C   UNL A   1      29.901  29.785  21.978  1.00  0.00     0.036 C 
ATOM     23  C   UNL A   1      27.672  29.883  23.124  1.00  0.00     0.005 C 
ATOM     24  C   UNL A   1      28.451  30.250  21.867  1.00  0.00     0.005 C 
ENDBRANCH  12  14
ENDBRANCH   7  12
ENDBRANCH   4   6
ENDBRANCH   3   4
ENDBRANCH   2   3
ENDBRANCH   1   2
BRANCH   1  25
ATOM     25  O   UNL A   1      33.805  28.725  27.666  1.00  0.00    -0.458 OA
BRANCH  25  26
ATOM     26  C   UNL A   1      34.375  29.939  27.848  1.00  0.00     0.338 C 
ATOM     27  O   UNL A   1      33.819  31.026  27.875  1.00  0.00    -0.246 OA
BRANCH  26  28
ATOM     28  C   UNL A   1      35.790  29.753  28.205  1.00  0.00     0.060 A 
ATOM     29  C   UNL A   1      36.195  29.378  29.484  1.00  0.00     0.016 A 
ATOM     30  C   UNL A   1      36.729  29.919  27.186  1.00  0.00     0.016 A 
ATOM     31  C   UNL A   1      37.559  29.183  29.736  1.00  0.00     0.010 A 
ATOM     32  C   UNL A   1      38.085  29.722  27.434  1.00  0.00     0.010 A 
ATOM     33  C   UNL A   1      38.514  29.350  28.713  1.00  0.00    -0.014 A 
BRANCH  33  34
ATOM     34  C   UNL A   1      39.951  29.060  28.954  1.00  0.00     0.031 A 
ATOM     35  C   UNL A   1      40.541  27.714  28.631  1.00  0.00     0.074 A 
ATOM     36  C   UNL A   1      40.719  30.015  29.514  1.00  0.00     0.049 A 
ATOM     37  N   UNL A   1      41.787  27.322  28.716  1.00  0.00    -0.248 NA
ATOM     38  C   UNL A   1      39.613  26.666  28.179  1.00  0.00     0.031 C 
ATOM     39  C   UNL A   1      40.237  31.325  29.958  1.00  0.00     0.029 A 
ATOM     40  N   UNL A   1      42.060  30.041  29.799  1.00  0.00    -0.354 N 
ATOM     41  C   UNL A   1      41.797  25.991  28.317  1.00  0.00     0.074 A 
ATOM     42  C   UNL A   1      40.422  25.622  28.053  1.00  0.00     0.031 C 
ATOM     43  C   UNL A   1      41.276  32.046  30.407  1.00  0.00     0.029 A 
ATOM     44  C   UNL A   1      42.492  31.245  30.304  1.00  0.00     0.049 A 
ATOM     45  H   UNL A   1      42.657  29.270  29.654  1.00  0.00     0.167 HD
ATOM     46  C   UNL A   1      42.858  25.164  28.155  1.00  0.00     0.037 A 
ATOM     47  C   UNL A   1      43.731  31.664  30.628  1.00  0.00     0.037 A 
ATOM     48  C   UNL A   1      44.225  25.548  28.409  1.00  0.00     0.049 A 
ATOM     49  C   UNL A   1      44.896  30.738  30.422  1.00  0.00     0.074 A 
ATOM     50  C   UNL A   1      45.377  24.807  28.211  1.00  0.00     0.029 A 
ATOM     51  N   UNL A   1      44.623  26.775  28.919  1.00  0.00    -0.354 N 
ATOM     52  N   UNL A   1      44.900  29.513  29.951  1.00  0.00    -0.248 NA
ATOM     53  C   UNL A   1      46.226  31.247  30.785  1.00  0.00     0.031 C 
ATOM     54  C   UNL A   1      46.468  25.569  28.640  1.00  0.00     0.029 A 
ATOM     55  C   UNL A   1      46.001  26.804  29.064  1.00  0.00     0.049 A 
ATOM     56  H   UNL A   1      44.016  27.516  29.146  1.00  0.00     0.167 HD
ATOM     57  C   UNL A   1      46.231  29.112  29.946  1.00  0.00     0.074 A 
ATOM     58  C   UNL A   1      47.006  30.229  30.445  1.00  0.00     0.031 C 
ATOM     59  C   UNL A   1      46.760  27.923  29.565  1.00  0.00     0.037 A 
BRANCH  46  60
ATOM     60  C   UNL A   1      42.597  23.772  27.647  1.00  0.00     0.058 A 
ATOM     61  C   UNL A   1      42.564  23.493  26.270  1.00  0.00     0.135 A 
ATOM     62  C   UNL A   1      42.449  22.692  28.533  1.00  0.00     0.135 A 
ATOM     63  F   UNL A   1      42.693  24.487  25.376  1.00  0.00    -0.206 F 
ATOM     64  C   UNL A   1      42.372  22.201  25.791  1.00  0.00     0.059 A 
ATOM     65  C   UNL A   1      42.283  21.387  28.076  1.00  0.00     0.059 A 
ATOM     66  F   UNL A   1      42.478  22.898  29.859  1.00  0.00    -0.206 F 
ATOM     67  C   UNL A   1      42.234  21.153  26.703  1.00  0.00     0.060 A 
BRANCH  67  68
ATOM     68  S   UNL A   1      42.008  19.482  26.059  1.00  0.00     0.124 S 
ATOM     69  O   UNL A   1      42.510  18.672  27.165  1.00  0.00    -0.237 OA
ATOM     70  O   UNL A   1      40.567  19.426  25.837  1.00  0.00    -0.237 OA
ATOM     71  O   UNL A   1      42.827  19.467  24.850  1.00  0.00    -0.744 OA
ENDBRANCH  67  68
ENDBRANCH  46  60
BRANCH  47  72
ATOM     72  C   UNL A   1      43.930  33.054  31.117  1.00  0.00     0.058 A 
ATOM     73  C   UNL A   1      44.135  34.108  30.215  1.00  0.00     0.135 A 
ATOM     74  C   UNL A   1      43.866  33.366  32.484  1.00  0.00     0.135 A 
ATOM     75  F   UNL A   1      44.206  33.859  28.898  1.00  0.00    -0.206 F 
ATOM     76  C   UNL A   1      44.276  35.422  30.648  1.00  0.00     0.059 A 
ATOM     77  C   UNL A   1      43.980  34.675  32.940  1.00  0.00     0.059 A 
ATOM     78  F   UNL A   1      43.652  32.396  33.385  1.00  0.00    -0.206 F 
ATOM     79  C   UNL A   1      44.189  35.696  32.014  1.00  0.00     0.060 A 
BRANCH  79  80
ATOM     80  S   UNL A   1      44.304  37.416  32.557  1.00  0.00     0.124 S 
ATOM     81  O   UNL A   1      43.284  37.464  33.597  1.00  0.00    -0.237 OA
ATOM     82  O   UNL A   1      45.688  37.498  33.014  1.00  0.00    -0.237 OA
ATOM     83  O   UNL A   1      44.006  38.172  31.344  1.00  0.00    -0.744 OA
ENDBRANCH  79  80
ENDBRANCH  47  72
BRANCH  59  84
ATOM     84  C   UNL A   1      48.250  27.758  29.671  1.00  0.00     0.058 A 
ATOM     85  C   UNL A   1      48.847  27.226  30.825  1.00  0.00     0.135 A 
ATOM     86  C   UNL A   1      49.082  28.052  28.578  1.00  0.00     0.135 A 
ATOM     87  F   UNL A   1      48.097  26.936  31.900  1.00  0.00    -0.206 F 
ATOM     88  C   UNL A   1      50.216  26.996  30.894  1.00  0.00     0.059 A 
ATOM     89  C   UNL A   1      50.451  27.807  28.616  1.00  0.00     0.059 A 
ATOM     90  F   UNL A   1      48.560  28.555  27.448  1.00  0.00    -0.206 F 
ATOM     91  C   UNL A   1      51.010  27.281  29.781  1.00  0.00     0.060 A 
BRANCH  91  92
ATOM     92  S   UNL A   1      52.776  26.919  29.867  1.00  0.00     0.124 S 
ATOM     93  O   UNL A   1      53.027  26.354  28.545  1.00  0.00    -0.237 OA
ATOM     94  O   UNL A   1      53.352  28.238  30.113  1.00  0.00    -0.237 OA
ATOM     95  O   UNL A   1      52.878  25.979  30.979  1.00  0.00    -0.744 OA
ENDBRANCH  91  92
ENDBRANCH  59  84
ENDBRANCH  33  34
ENDBRANCH  26  28
ENDBRANCH  25  26
ENDBRANCH   1  25
TORSDOF 16
ENDMDL
MODEL 2
REMARK VINA RESULT:     -12.1      5.336      9.760
REMARK SMILES Cc1cc2c(cc1C(=O)c1ccccc1C(=O)OCCOC(=O)c1ccc(-c3c4nc(c(-c5c(F)cc(S(=O)(=O)[O-])cc5F)c5ccc([nH]5)c(-c5c(F)cc(S(=O)(=O)[O-])cc5F)c5nc(c(-c6c(F)cc(S(=O)(=O)[O-])cc6F)c6ccc3[nH]6)C=C5)C=C4)cc1)CCCC2
REMARK SMILES IDX 20 1 19 2 18 3 16 4 17 5 15 6 10 7 11 8 12 9 14 10 13 11
REMARK SMILES IDX 8 12 9 13 7 14 1 15 2 16 3 17 4 18 6 19 5 20 93 21 90 22
REMARK SMILES IDX 92 23 91 24 21 25 22 26 23 27 24 28 25 29 89 30 26 31 88 32
REMARK SMILES IDX 27 33 28 34 29 35 82 36 30 37 87 38 81 39 83 40 31 41 86 42
REMARK SMILES IDX 80 43 79 44 32 46 66 47 45 48 65 49 46 50 49 51 64 52 84 53
REMARK SMILES IDX 47 54 48 55 63 57 85 58 50 59 33 60 34 61 43 62 35 63 36 64
REMARK SMILES IDX 42 65 44 66 37 67 38 68 39 69 40 70 41 71 67 72 68 73 77 74
REMARK SMILES IDX 69 75 70 76 76 77 78 78 71 79 72 80 73 81 74 82 75 83 51 84
REMARK SMILES IDX 52 85 61 86 53 87 54 88 60 89 62 90 55 91 56 92 57 93 58 94
REMARK SMILES IDX 59 95
REMARK H PARENT 83 45 49 56
REMARK Flexibility Score: inf
ROOT
ATOM      1  C   UNL A   1      38.697  23.165  26.179  1.00  0.00     0.275 C 
ENDROOT
BRANCH   1   2
ATOM      2  C   UNL A   1      37.582  22.902  25.165  1.00  0.00     0.275 C 
BRANCH   2   3
ATOM      3  O   UNL A   1      36.610  21.980  25.694  1.00  0.00    -0.458 OA
BRANCH   3   4
ATOM      4  C   UNL A   1      35.392  22.495  25.993  1.00  0.00     0.339 C 
ATOM      5  O   UNL A   1      35.169  23.395  26.784  1.00  0.00    -0.246 OA
BRANCH   4   6
ATOM      6  C   UNL A   1      34.330  21.926  25.123  1.00  0.00     0.071 A 
ATOM      7  C   UNL A   1      33.896  22.494  23.917  1.00  0.00     0.037 A 
ATOM      8  C   UNL A   1      32.916  21.840  23.149  1.00  0.00     0.013 A 
ATOM      9  C   UNL A   1      32.292  20.689  23.631  1.00  0.00     0.001 A 
ATOM     10  C   UNL A   1      33.743  20.723  25.555  1.00  0.00     0.016 A 
ATOM     11  C   UNL A   1      32.701  20.133  24.837  1.00  0.00     0.001 A 
BRANCH   7  12
ATOM     12  C   UNL A   1      34.528  23.704  23.367  1.00  0.00     0.194 C 
ATOM     13  O   UNL A   1      35.565  23.525  22.727  1.00  0.00    -0.289 OA
BRANCH  12  14
ATOM     14  C   UNL A   1      33.931  25.081  23.468  1.00  0.00     0.026 A 
ATOM     15  C   UNL A   1      32.848  25.257  21.116  1.00  0.00     0.045 C 
ATOM     16  C   UNL A   1      33.243  25.793  22.465  1.00  0.00    -0.040 A 
ATOM     17  C   UNL A   1      32.883  27.135  22.718  1.00  0.00     0.008 A 
ATOM     18  C   UNL A   1      33.086  27.743  23.964  1.00  0.00    -0.044 A 
ATOM     19  C   UNL A   1      34.099  25.691  24.730  1.00  0.00     0.016 A 
ATOM     20  C   UNL A   1      33.678  27.003  24.991  1.00  0.00    -0.044 A 
ATOM     21  C   UNL A   1      32.715  29.192  24.151  1.00  0.00     0.036 C 
ATOM     22  C   UNL A   1      33.802  27.552  26.390  1.00  0.00     0.036 C 
ATOM     23  C   UNL A   1      32.552  29.584  25.617  1.00  0.00     0.005 C 
ATOM     24  C   UNL A   1      33.727  29.076  26.443  1.00  0.00     0.005 C 
ENDBRANCH  12  14
ENDBRANCH   7  12
ENDBRANCH   4   6
ENDBRANCH   3   4
ENDBRANCH   2   3
ENDBRANCH   1   2
BRANCH   1  25
ATOM     25  O   UNL A   1      38.909  24.577  26.359  1.00  0.00    -0.458 OA
BRANCH  25  26
ATOM     26  C   UNL A   1      40.195  24.937  26.579  1.00  0.00     0.338 C 
ATOM     27  O   UNL A   1      41.166  24.692  25.881  1.00  0.00    -0.246 OA
BRANCH  26  28
ATOM     28  C   UNL A   1      40.243  25.858  27.726  1.00  0.00     0.060 A 
ATOM     29  C   UNL A   1      41.146  26.917  27.796  1.00  0.00     0.016 A 
ATOM     30  C   UNL A   1      39.303  25.660  28.738  1.00  0.00     0.016 A 
ATOM     31  C   UNL A   1      41.104  27.773  28.904  1.00  0.00     0.010 A 
ATOM     32  C   UNL A   1      39.258  26.513  29.838  1.00  0.00     0.010 A 
ATOM     33  C   UNL A   1      40.159  27.580  29.932  1.00  0.00    -0.014 A 
BRANCH  33  34
ATOM     34  C   UNL A   1      40.055  28.536  31.064  1.00  0.00     0.031 A 
ATOM     35  C   UNL A   1      40.936  28.408  32.277  1.00  0.00     0.074 A 
ATOM     36  C   UNL A   1      39.120  29.503  31.010  1.00  0.00     0.049 A 
ATOM     37  N   UNL A   1      41.020  29.198  33.318  1.00  0.00    -0.248 NA
ATOM     38  C   UNL A   1      41.819  27.233  32.345  1.00  0.00     0.031 C 
ATOM     39  C   UNL A   1      38.145  29.668  29.929  1.00  0.00     0.029 A 
ATOM     40  N   UNL A   1      38.837  30.533  31.871  1.00  0.00    -0.354 N 
ATOM     41  C   UNL A   1      41.969  28.626  34.156  1.00  0.00     0.074 A 
ATOM     42  C   UNL A   1      42.387  27.388  33.534  1.00  0.00     0.031 C 
ATOM     43  C   UNL A   1      37.410  30.766  30.164  1.00  0.00     0.029 A 
ATOM     44  C   UNL A   1      37.844  31.370  31.420  1.00  0.00     0.049 A 
ATOM     45  H   UNL A   1      39.303  30.661  32.730  1.00  0.00     0.167 HD
ATOM     46  C   UNL A   1      42.470  29.108  35.320  1.00  0.00     0.037 A 
ATOM     47  C   UNL A   1      37.353  32.509  31.947  1.00  0.00     0.037 A 
ATOM     48  C   UNL A   1      42.056  30.351  35.923  1.00  0.00     0.049 A 
ATOM     49  C   UNL A   1      37.935  33.035  33.229  1.00  0.00     0.074 A 
ATOM     50  C   UNL A   1      42.549  30.960  37.064  1.00  0.00     0.029 A 
ATOM     51  N   UNL A   1      41.047  31.171  35.437  1.00  0.00    -0.354 N 
ATOM     52  N   UNL A   1      38.902  32.533  33.960  1.00  0.00    -0.248 NA
ATOM     53  C   UNL A   1      37.368  34.283  33.757  1.00  0.00     0.031 C 
ATOM     54  C   UNL A   1      41.812  32.127  37.291  1.00  0.00     0.029 A 
ATOM     55  C   UNL A   1      40.889  32.269  36.267  1.00  0.00     0.049 A 
ATOM     56  H   UNL A   1      40.522  30.999  34.623  1.00  0.00     0.167 HD
ATOM     57  C   UNL A   1      39.069  33.411  35.025  1.00  0.00     0.074 A 
ATOM     58  C   UNL A   1      38.116  34.484  34.834  1.00  0.00     0.031 C 
ATOM     59  C   UNL A   1      39.933  33.330  36.066  1.00  0.00     0.037 A 
BRANCH  46  60
ATOM     60  C   UNL A   1      43.547  28.313  36.007  1.00  0.00     0.058 A 
ATOM     61  C   UNL A   1      43.231  27.238  36.854  1.00  0.00     0.135 A 
ATOM     62  C   UNL A   1      44.906  28.575  35.768  1.00  0.00     0.135 A 
ATOM     63  F   UNL A   1      41.949  26.945  37.125  1.00  0.00    -0.206 F 
ATOM     64  C   UNL A   1      44.220  26.466  37.455  1.00  0.00     0.059 A 
ATOM     65  C   UNL A   1      45.913  27.799  36.338  1.00  0.00     0.059 A 
ATOM     66  F   UNL A   1      45.268  29.586  34.963  1.00  0.00    -0.206 F 
ATOM     67  C   UNL A   1      45.560  26.753  37.189  1.00  0.00     0.060 A 
BRANCH  67  68
ATOM     68  S   UNL A   1      46.827  25.726  37.963  1.00  0.00     0.124 S 
ATOM     69  O   UNL A   1      47.656  26.731  38.621  1.00  0.00    -0.237 OA
ATOM     70  O   UNL A   1      46.040  24.876  38.850  1.00  0.00    -0.237 OA
ATOM     71  O   UNL A   1      47.449  25.042  36.834  1.00  0.00    -0.744 OA
ENDBRANCH  67  68
ENDBRANCH  46  60
BRANCH  47  72
ATOM     72  C   UNL A   1      36.294  33.257  31.219  1.00  0.00     0.058 A 
ATOM     73  C   UNL A   1      34.996  33.351  31.740  1.00  0.00     0.135 A 
ATOM     74  C   UNL A   1      36.569  33.934  30.020  1.00  0.00     0.135 A 
ATOM     75  F   UNL A   1      34.684  32.718  32.882  1.00  0.00    -0.206 F 
ATOM     76  C   UNL A   1      34.004  34.084  31.098  1.00  0.00     0.059 A 
ATOM     77  C   UNL A   1      35.601  34.693  29.371  1.00  0.00     0.059 A 
ATOM     78  F   UNL A   1      37.801  33.891  29.491  1.00  0.00    -0.206 F 
ATOM     79  C   UNL A   1      34.319  34.759  29.917  1.00  0.00     0.060 A 
BRANCH  79  80
ATOM     80  S   UNL A   1      33.040  35.765  29.131  1.00  0.00     0.124 S 
ATOM     81  O   UNL A   1      33.835  36.817  28.509  1.00  0.00    -0.237 OA
ATOM     82  O   UNL A   1      32.420  34.809  28.219  1.00  0.00    -0.237 OA
ATOM     83  O   UNL A   1      32.205  36.183  30.253  1.00  0.00    -0.744 OA
ENDBRANCH  79  80
ENDBRANCH  47  72
BRANCH  59  84
ATOM     84  C   UNL A   1      39.893  34.430  37.090  1.00  0.00     0.058 A 
ATOM     85  C   UNL A   1      40.580  35.638  36.893  1.00  0.00     0.135 A 
ATOM     86  C   UNL A   1      39.092  34.311  38.238  1.00  0.00     0.135 A 
ATOM     87  F   UNL A   1      41.366  35.799  35.816  1.00  0.00    -0.206 F 
ATOM     88  C   UNL A   1      40.478  36.688  37.799  1.00  0.00     0.059 A 
ATOM     89  C   UNL A   1      38.956  35.357  39.145  1.00  0.00     0.059 A 
ATOM     90  F   UNL A   1      38.409  33.179  38.470  1.00  0.00    -0.206 F 
ATOM     91  C   UNL A   1      39.657  36.541  38.919  1.00  0.00     0.060 A 
BRANCH  91  92
ATOM     92  S   UNL A   1      39.490  37.936  40.052  1.00  0.00     0.124 S 
ATOM     93  O   UNL A   1      38.261  38.560  39.573  1.00  0.00    -0.237 OA
ATOM     94  O   UNL A   1      39.399  37.273  41.350  1.00  0.00    -0.237 OA
ATOM     95  O   UNL A   1      40.711  38.704  39.831  1.00  0.00    -0.744 OA
ENDBRANCH  91  92
ENDBRANCH  59  84
ENDBRANCH  33  34
ENDBRANCH  26  28
ENDBRANCH  25  26
ENDBRANCH   1  25
TORSDOF 16
ENDMDL
MODEL 3
REMARK VINA RESULT:     -11.9      5.255     10.378
REMARK SMILES Cc1cc2c(cc1C(=O)c1ccccc1C(=O)OCCOC(=O)c1ccc(-c3c4nc(c(-c5c(F)cc(S(=O)(=O)[O-])cc5F)c5ccc([nH]5)c(-c5c(F)cc(S(=O)(=O)[O-])cc5F)c5nc(c(-c6c(F)cc(S(=O)(=O)[O-])cc6F)c6ccc3[nH]6)C=C5)C=C4)cc1)CCCC2
REMARK SMILES IDX 20 1 19 2 18 3 16 4 17 5 15 6 10 7 11 8 12 9 14 10 13 11
REMARK SMILES IDX 8 12 9 13 7 14 1 15 2 16 3 17 4 18 6 19 5 20 93 21 90 22
REMARK SMILES IDX 92 23 91 24 21 25 22 26 23 27 24 28 25 29 89 30 26 31 88 32
REMARK SMILES IDX 27 33 28 34 29 35 82 36 30 37 87 38 81 39 83 40 31 41 86 42
REMARK SMILES IDX 80 43 79 44 32 46 66 47 45 48 65 49 46 50 49 51 64 52 84 53
REMARK SMILES IDX 47 54 48 55 63 57 85 58 50 59 33 60 34 61 43 62 35 63 36 64
REMARK SMILES IDX 42 65 44 66 37 67 38 68 39 69 40 70 41 71 67 72 68 73 77 74
REMARK SMILES IDX 69 75 70 76 76 77 78 78 71 79 72 80 73 81 74 82 75 83 51 84
REMARK SMILES IDX 52 85 61 86 53 87 54 88 60 89 62 90 55 91 56 92 57 93 58 94
REMARK SMILES IDX 59 95
REMARK H PARENT 83 45 49 56
REMARK Flexibility Score: inf
ROOT
ATOM      1  C   UNL A   1      38.952  22.688  26.197  1.00  0.00     0.275 C 
ENDROOT
BRANCH   1   2
ATOM      2  C   UNL A   1      37.830  22.447  25.186  1.00  0.00     0.275 C 
BRANCH   2   3
ATOM      3  O   UNL A   1      36.751  21.698  25.780  1.00  0.00    -0.458 OA
BRANCH   3   4
ATOM      4  C   UNL A   1      35.600  22.378  26.004  1.00  0.00     0.339 C 
ATOM      5  O   UNL A   1      35.482  23.391  26.671  1.00  0.00    -0.246 OA
BRANCH   4   6
ATOM      6  C   UNL A   1      34.473  21.819  25.210  1.00  0.00     0.071 A 
ATOM      7  C   UNL A   1      33.981  22.375  24.022  1.00  0.00     0.037 A 
ATOM      8  C   UNL A   1      32.941  21.732  23.327  1.00  0.00     0.013 A 
ATOM      9  C   UNL A   1      32.320  20.606  23.868  1.00  0.00     0.001 A 
ATOM     10  C   UNL A   1      33.885  20.639  25.701  1.00  0.00     0.016 A 
ATOM     11  C   UNL A   1      32.789  20.062  25.058  1.00  0.00     0.001 A 
BRANCH   7  12
ATOM     12  C   UNL A   1      34.607  23.559  23.412  1.00  0.00     0.194 C 
ATOM     13  O   UNL A   1      35.634  23.351  22.764  1.00  0.00    -0.289 OA
BRANCH  12  14
ATOM     14  C   UNL A   1      34.014  24.941  23.463  1.00  0.00     0.026 A 
ATOM     15  C   UNL A   1      32.946  25.043  21.100  1.00  0.00     0.045 C 
ATOM     16  C   UNL A   1      33.335  25.622  22.433  1.00  0.00    -0.040 A 
ATOM     17  C   UNL A   1      32.979  26.973  22.638  1.00  0.00     0.008 A 
ATOM     18  C   UNL A   1      33.176  27.620  23.864  1.00  0.00    -0.044 A 
ATOM     19  C   UNL A   1      34.177  25.593  24.704  1.00  0.00     0.016 A 
ATOM     20  C   UNL A   1      33.759  26.914  24.919  1.00  0.00    -0.044 A 
ATOM     21  C   UNL A   1      32.809  29.077  24.001  1.00  0.00     0.036 C 
ATOM     22  C   UNL A   1      33.877  27.508  26.300  1.00  0.00     0.036 C 
ATOM     23  C   UNL A   1      32.638  29.518  25.452  1.00  0.00     0.005 C 
ATOM     24  C   UNL A   1      33.807  29.034  26.302  1.00  0.00     0.005 C 
ENDBRANCH  12  14
ENDBRANCH   7  12
ENDBRANCH   4   6
ENDBRANCH   3   4
ENDBRANCH   2   3
ENDBRANCH   1   2
BRANCH   1  25
ATOM     25  O   UNL A   1      39.154  24.095  26.419  1.00  0.00    -0.458 OA
BRANCH  25  26
ATOM     26  C   UNL A   1      40.388  24.432  26.862  1.00  0.00     0.338 C 
ATOM     27  O   UNL A   1      41.464  24.056  26.425  1.00  0.00    -0.246 OA
BRANCH  26  28
ATOM     28  C   UNL A   1      40.259  25.498  27.868  1.00  0.00     0.060 A 
ATOM     29  C   UNL A   1      39.204  25.542  28.778  1.00  0.00     0.016 A 
ATOM     30  C   UNL A   1      41.273  26.455  27.914  1.00  0.00     0.016 A 
ATOM     31  C   UNL A   1      39.171  26.568  29.731  1.00  0.00     0.010 A 
ATOM     32  C   UNL A   1      41.243  27.473  28.863  1.00  0.00     0.010 A 
ATOM     33  C   UNL A   1      40.190  27.540  29.783  1.00  0.00    -0.014 A 
BRANCH  33  34
ATOM     34  C   UNL A   1      40.204  28.577  30.846  1.00  0.00     0.031 A 
ATOM     35  C   UNL A   1      39.253  29.743  30.811  1.00  0.00     0.074 A 
ATOM     36  C   UNL A   1      41.119  28.484  31.829  1.00  0.00     0.049 A 
ATOM     37  N   UNL A   1      39.089  30.694  31.695  1.00  0.00    -0.248 NA
ATOM     38  C   UNL A   1      38.393  29.873  29.625  1.00  0.00     0.031 C 
ATOM     39  C   UNL A   1      42.155  27.451  31.916  1.00  0.00     0.029 A 
ATOM     40  N   UNL A   1      41.326  29.255  32.945  1.00  0.00    -0.354 N 
ATOM     41  C   UNL A   1      38.102  31.527  31.181  1.00  0.00     0.074 A 
ATOM     42  C   UNL A   1      37.751  31.006  29.877  1.00  0.00     0.031 C 
ATOM     43  C   UNL A   1      42.850  27.621  33.051  1.00  0.00     0.029 A 
ATOM     44  C   UNL A   1      42.327  28.784  33.761  1.00  0.00     0.049 A 
ATOM     45  H   UNL A   1      40.806  30.069  33.141  1.00  0.00     0.167 HD
ATOM     46  C   UNL A   1      37.521  32.607  31.758  1.00  0.00     0.037 A 
ATOM     47  C   UNL A   1      42.760  29.226  34.959  1.00  0.00     0.037 A 
ATOM     48  C   UNL A   1      37.870  33.108  33.064  1.00  0.00     0.049 A 
ATOM     49  C   UNL A   1      42.089  30.413  35.589  1.00  0.00     0.074 A 
ATOM     50  C   UNL A   1      37.295  34.153  33.766  1.00  0.00     0.029 A 
ATOM     51  N   UNL A   1      38.888  32.605  33.862  1.00  0.00    -0.354 N 
ATOM     52  N   UNL A   1      41.090  31.131  35.134  1.00  0.00    -0.248 NA
ATOM     53  C   UNL A   1      42.595  30.849  36.898  1.00  0.00     0.031 C 
ATOM     54  C   UNL A   1      37.990  34.309  34.970  1.00  0.00     0.029 A 
ATOM     55  C   UNL A   1      38.971  33.332  35.038  1.00  0.00     0.049 A 
ATOM     56  H   UNL A   1      39.466  31.844  33.626  1.00  0.00     0.167 HD
ATOM     57  C   UNL A   1      40.839  32.093  36.105  1.00  0.00     0.074 A 
ATOM     58  C   UNL A   1      41.779  31.856  37.180  1.00  0.00     0.031 C 
ATOM     59  C   UNL A   1      39.915  33.085  36.101  1.00  0.00     0.037 A 
BRANCH  46  60
ATOM     60  C   UNL A   1      36.420  33.303  31.004  1.00  0.00     0.058 A 
ATOM     61  C   UNL A   1      35.082  33.213  31.420  1.00  0.00     0.135 A 
ATOM     62  C   UNL A   1      36.704  34.126  29.902  1.00  0.00     0.135 A 
ATOM     63  F   UNL A   1      34.749  32.436  32.464  1.00  0.00    -0.206 F 
ATOM     64  C   UNL A   1      34.064  33.892  30.759  1.00  0.00     0.059 A 
ATOM     65  C   UNL A   1      35.706  34.837  29.241  1.00  0.00     0.059 A 
ATOM     66  F   UNL A   1      37.967  34.255  29.463  1.00  0.00    -0.206 F 
ATOM     67  C   UNL A   1      34.386  34.704  29.671  1.00  0.00     0.060 A 
BRANCH  67  68
ATOM     68  S   UNL A   1      33.052  35.595  28.841  1.00  0.00     0.124 S 
ATOM     69  O   UNL A   1      33.798  36.568  28.050  1.00  0.00    -0.237 OA
ATOM     70  O   UNL A   1      32.394  34.535  28.084  1.00  0.00    -0.237 OA
ATOM     71  O   UNL A   1      32.273  36.149  29.944  1.00  0.00    -0.744 OA
ENDBRANCH  67  68
ENDBRANCH  46  60
BRANCH  47  72
ATOM     72  C   UNL A   1      43.845  28.491  35.662  1.00  0.00     0.058 A 
ATOM     73  C   UNL A   1      45.190  28.817  35.441  1.00  0.00     0.135 A 
ATOM     74  C   UNL A   1      43.560  27.490  36.603  1.00  0.00     0.135 A 
ATOM     75  F   UNL A   1      45.513  29.766  34.548  1.00  0.00    -0.206 F 
ATOM     76  C   UNL A   1      46.218  28.175  36.123  1.00  0.00     0.059 A 
ATOM     77  C   UNL A   1      44.569  26.848  37.315  1.00  0.00     0.059 A 
ATOM     78  F   UNL A   1      42.288  27.154  36.864  1.00  0.00    -0.206 F 
ATOM     79  C   UNL A   1      45.896  27.196  37.065  1.00  0.00     0.060 A 
BRANCH  79  80
ATOM     80  S   UNL A   1      47.237  26.419  37.994  1.00  0.00     0.124 S 
ATOM     81  O   UNL A   1      46.511  25.805  39.099  1.00  0.00    -0.237 OA
ATOM     82  O   UNL A   1      47.797  25.500  37.007  1.00  0.00    -0.237 OA
ATOM     83  O   UNL A   1      48.095  27.545  38.350  1.00  0.00    -0.744 OA
ENDBRANCH  79  80
ENDBRANCH  47  72
BRANCH  59  84
ATOM     84  C   UNL A   1      39.868  33.997  37.296  1.00  0.00     0.058 A 
ATOM     85  C   UNL A   1      40.525  35.237  37.295  1.00  0.00     0.135 A 
ATOM     86  C   UNL A   1      39.087  33.668  38.416  1.00  0.00     0.135 A 
ATOM     87  F   UNL A   1      41.290  35.595  36.252  1.00  0.00    -0.206 F 
ATOM     88  C   UNL A   1      40.414  36.118  38.366  1.00  0.00     0.059 A 
ATOM     89  C   UNL A   1      38.943  34.544  39.487  1.00  0.00     0.059 A 
ATOM     90  F   UNL A   1      38.432  32.497  38.462  1.00  0.00    -0.206 F 
ATOM     91  C   UNL A   1      39.614  35.766  39.455  1.00  0.00     0.060 A 
BRANCH  91  92
ATOM     92  S   UNL A   1      39.433  36.947  40.808  1.00  0.00     0.124 S 
ATOM     93  O   UNL A   1      40.822  37.314  41.067  1.00  0.00    -0.237 OA
ATOM     94  O   UNL A   1      38.605  37.987  40.204  1.00  0.00    -0.237 OA
ATOM     95  O   UNL A   1      38.785  36.167  41.857  1.00  0.00    -0.744 OA
ENDBRANCH  91  92
ENDBRANCH  59  84
ENDBRANCH  33  34
ENDBRANCH  26  28
ENDBRANCH  25  26
ENDBRANCH   1  25
TORSDOF 16
ENDMDL
