MODEL 1
REMARK VINA RESULT:     -12.2      0.000      0.000
REMARK SMILES O=C(OCCOC(=O)c1ccc2c(=O)[nH]c(N3CC[NH2+]CC3)nc2c1)c1ccc(-c2c3nc(c(-c4c(F)cc(S(=O)(=O)[O-])cc4F)c4ccc([nH]4)c(-c4c(F)cc(S(=O)(=O)[O-])cc4F)c4nc(c(-c5c(F)cc(S(=O)(=O)[O-])cc5F)c5ccc2[nH]5)C=C4)C=C3)cc1
REMARK SMILES IDX 4 1 3 2 2 3 1 4 26 5 27 6 91 7 28 8 90 9 29 10 30 11 31 12
REMARK SMILES IDX 84 13 32 14 89 15 83 16 85 17 33 18 88 19 82 20 81 21 34 23
REMARK SMILES IDX 68 24 47 25 67 26 48 27 51 28 66 29 86 30 49 31 50 32 65 34
REMARK SMILES IDX 87 35 52 36 35 37 36 38 45 39 37 40 38 41 44 42 46 43 39 44
REMARK SMILES IDX 40 45 41 46 42 47 43 48 69 49 70 50 79 51 71 52 72 53 78 54
REMARK SMILES IDX 80 55 73 56 74 57 75 58 76 59 77 60 53 61 54 62 63 63 55 64
REMARK SMILES IDX 56 65 62 66 64 67 57 68 58 69 59 70 60 71 61 72 5 73 6 74
REMARK SMILES IDX 7 75 8 76 9 77 10 78 25 79 11 80 24 81 12 82 23 83 13 84
REMARK SMILES IDX 16 85 14 86 15 87 17 89 18 90 22 91 19 92 21 93 20 94
REMARK H PARENT 85 22 51 33 15 88 20 95 20 96
REMARK Flexibility Score: inf
ROOT
ATOM      1  C   UNL A   1      40.239  22.717  27.192  1.00  0.00     0.275 C 
ENDROOT
BRANCH   1   2
ATOM      2  O   UNL A   1      41.220  23.641  26.690  1.00  0.00    -0.458 OA
BRANCH   2   3
ATOM      3  C   UNL A   1      41.148  24.981  26.506  1.00  0.00     0.338 C 
ATOM      4  O   UNL A   1      41.378  25.430  25.384  1.00  0.00    -0.246 OA
BRANCH   3   5
ATOM      5  C   UNL A   1      40.930  25.964  27.617  1.00  0.00     0.060 A 
ATOM      6  C   UNL A   1      39.818  26.015  28.463  1.00  0.00     0.016 A 
ATOM      7  C   UNL A   1      41.949  26.913  27.820  1.00  0.00     0.016 A 
ATOM      8  C   UNL A   1      39.761  26.911  29.533  1.00  0.00     0.010 A 
ATOM      9  C   UNL A   1      41.896  27.817  28.887  1.00  0.00     0.010 A 
ATOM     10  C   UNL A   1      40.801  27.810  29.756  1.00  0.00    -0.014 A 
BRANCH  10  11
ATOM     11  C   UNL A   1      40.666  28.839  30.807  1.00  0.00     0.031 A 
ATOM     12  C   UNL A   1      41.439  28.653  32.076  1.00  0.00     0.074 A 
ATOM     13  C   UNL A   1      39.893  29.925  30.619  1.00  0.00     0.049 A 
ATOM     14  N   UNL A   1      41.448  29.396  33.146  1.00  0.00    -0.248 NA
ATOM     15  C   UNL A   1      42.358  27.502  32.128  1.00  0.00     0.031 C 
ATOM     16  C   UNL A   1      39.213  30.268  29.373  1.00  0.00     0.029 A 
ATOM     17  N   UNL A   1      39.517  30.924  31.479  1.00  0.00    -0.354 N 
ATOM     18  C   UNL A   1      42.390  28.822  33.988  1.00  0.00     0.074 A 
ATOM     19  C   UNL A   1      42.900  27.642  33.328  1.00  0.00     0.031 C 
ATOM     20  C   UNL A   1      38.402  31.320  29.582  1.00  0.00     0.029 A 
ATOM     21  C   UNL A   1      38.524  31.735  30.972  1.00  0.00     0.049 A 
ATOM     22  H   UNL A   1      39.916  31.050  32.371  1.00  0.00     0.167 HD
ATOM     23  C   UNL A   1      42.804  29.267  35.195  1.00  0.00     0.037 A 
ATOM     24  C   UNL A   1      37.779  32.678  31.580  1.00  0.00     0.037 A 
ATOM     25  C   UNL A   1      42.266  30.438  35.830  1.00  0.00     0.049 A 
ATOM     26  C   UNL A   1      38.127  33.039  32.999  1.00  0.00     0.074 A 
ATOM     27  C   UNL A   1      42.631  31.007  37.035  1.00  0.00     0.029 A 
ATOM     28  N   UNL A   1      41.224  31.201  35.321  1.00  0.00    -0.354 N 
ATOM     29  N   UNL A   1      39.078  32.544  33.758  1.00  0.00    -0.248 NA
ATOM     30  C   UNL A   1      37.344  34.106  33.634  1.00  0.00     0.031 C 
ATOM     31  C   UNL A   1      41.763  32.073  37.287  1.00  0.00     0.029 A 
ATOM     32  C   UNL A   1      40.894  32.204  36.213  1.00  0.00     0.049 A 
ATOM     33  H   UNL A   1      40.784  31.050  34.453  1.00  0.00     0.167 HD
ATOM     34  C   UNL A   1      39.040  33.272  34.939  1.00  0.00     0.074 A 
ATOM     35  C   UNL A   1      37.969  34.238  34.796  1.00  0.00     0.031 C 
ATOM     36  C   UNL A   1      39.830  33.162  36.035  1.00  0.00     0.037 A 
BRANCH  23  37
ATOM     37  C   UNL A   1      43.857  28.472  35.905  1.00  0.00     0.058 A 
ATOM     38  C   UNL A   1      43.529  27.419  36.776  1.00  0.00     0.135 A 
ATOM     39  C   UNL A   1      45.216  28.748  35.690  1.00  0.00     0.135 A 
ATOM     40  F   UNL A   1      42.244  27.134  37.040  1.00  0.00    -0.206 F 
ATOM     41  C   UNL A   1      44.514  26.675  37.415  1.00  0.00     0.059 A 
ATOM     42  C   UNL A   1      46.217  28.002  36.301  1.00  0.00     0.059 A 
ATOM     43  F   UNL A   1      45.579  29.755  34.881  1.00  0.00    -0.206 F 
ATOM     44  C   UNL A   1      45.856  26.971  37.167  1.00  0.00     0.060 A 
BRANCH  44  45
ATOM     45  S   UNL A   1      47.121  25.973  37.980  1.00  0.00     0.124 S 
ATOM     46  O   UNL A   1      46.505  25.722  39.279  1.00  0.00    -0.237 OA
ATOM     47  O   UNL A   1      47.223  24.818  37.094  1.00  0.00    -0.237 OA
ATOM     48  O   UNL A   1      48.288  26.851  37.998  1.00  0.00    -0.744 OA
ENDBRANCH  44  45
ENDBRANCH  23  37
BRANCH  24  49
ATOM     49  C   UNL A   1      36.632  33.318  30.878  1.00  0.00     0.058 A 
ATOM     50  C   UNL A   1      36.819  34.264  29.861  1.00  0.00     0.135 A 
ATOM     51  C   UNL A   1      35.308  33.019  31.245  1.00  0.00     0.135 A 
ATOM     52  F   UNL A   1      38.060  34.592  29.472  1.00  0.00    -0.206 F 
ATOM     53  C   UNL A   1      35.742  34.913  29.258  1.00  0.00     0.059 A 
ATOM     54  C   UNL A   1      34.215  33.635  30.643  1.00  0.00     0.059 A 
ATOM     55  F   UNL A   1      35.069  32.119  32.209  1.00  0.00    -0.206 F 
ATOM     56  C   UNL A   1      34.443  34.595  29.658  1.00  0.00     0.060 A 
BRANCH  56  57
ATOM     57  S   UNL A   1      33.058  35.448  28.870  1.00  0.00     0.124 S 
ATOM     58  O   UNL A   1      32.445  34.370  28.102  1.00  0.00    -0.237 OA
ATOM     59  O   UNL A   1      32.299  35.922  30.022  1.00  0.00    -0.237 OA
ATOM     60  O   UNL A   1      33.706  36.492  28.083  1.00  0.00    -0.744 OA
ENDBRANCH  56  57
ENDBRANCH  24  49
BRANCH  36  61
ATOM     61  C   UNL A   1      39.592  34.132  37.155  1.00  0.00     0.058 A 
ATOM     62  C   UNL A   1      38.873  33.765  38.302  1.00  0.00     0.135 A 
ATOM     63  C   UNL A   1      40.173  35.409  37.117  1.00  0.00     0.135 A 
ATOM     64  F   UNL A   1      38.289  32.559  38.377  1.00  0.00    -0.206 F 
ATOM     65  C   UNL A   1      38.736  34.635  39.375  1.00  0.00     0.059 A 
ATOM     66  C   UNL A   1      40.075  36.284  38.193  1.00  0.00     0.059 A 
ATOM     67  F   UNL A   1      40.877  35.803  36.043  1.00  0.00    -0.206 F 
ATOM     68  C   UNL A   1      39.352  35.888  39.316  1.00  0.00     0.060 A 
BRANCH  68  69
ATOM     69  S   UNL A   1      39.234  36.973  40.752  1.00  0.00     0.124 S 
ATOM     70  O   UNL A   1      38.410  38.061  40.233  1.00  0.00    -0.237 OA
ATOM     71  O   UNL A   1      38.597  36.111  41.742  1.00  0.00    -0.237 OA
ATOM     72  O   UNL A   1      40.624  37.319  41.033  1.00  0.00    -0.744 OA
ENDBRANCH  68  69
ENDBRANCH  36  61
ENDBRANCH  10  11
ENDBRANCH   3   5
ENDBRANCH   2   3
ENDBRANCH   1   2
BRANCH   1  73
ATOM     73  C   UNL A   1      39.215  22.227  26.164  1.00  0.00     0.275 C 
BRANCH  73  74
ATOM     74  O   UNL A   1      37.992  22.976  26.152  1.00  0.00    -0.458 OA
BRANCH  74  75
ATOM     75  C   UNL A   1      37.046  22.527  25.280  1.00  0.00     0.338 C 
ATOM     76  O   UNL A   1      37.227  21.817  24.315  1.00  0.00    -0.246 OA
BRANCH  75  77
ATOM     77  C   UNL A   1      35.711  22.953  25.758  1.00  0.00     0.062 A 
ATOM     78  C   UNL A   1      34.909  22.082  26.499  1.00  0.00     0.016 A 
ATOM     79  C   UNL A   1      35.260  24.245  25.439  1.00  0.00     0.045 A 
ATOM     80  C   UNL A   1      33.641  22.495  26.899  1.00  0.00     0.017 A 
ATOM     81  C   UNL A   1      33.972  24.653  25.801  1.00  0.00     0.081 A 
ATOM     82  C   UNL A   1      33.177  23.758  26.523  1.00  0.00     0.066 A 
ATOM     83  N   UNL A   1      33.522  25.942  25.443  1.00  0.00    -0.214 NA
ATOM     84  C   UNL A   1      31.823  24.191  26.881  1.00  0.00     0.260 A 
ATOM     85  C   UNL A   1      32.345  26.310  25.843  1.00  0.00     0.206 A 
ATOM     86  O   UNL A   1      31.033  23.467  27.470  1.00  0.00    -0.269 OA
ATOM     87  N   UNL A   1      31.511  25.469  26.523  1.00  0.00    -0.292 N 
ATOM     88  H   UNL A   1      30.622  25.809  26.772  1.00  0.00     0.173 HD
BRANCH  85  89
ATOM     89  N   UNL A   1      31.818  27.553  25.647  1.00  0.00    -0.331 N 
ATOM     90  C   UNL A   1      31.852  28.592  26.672  1.00  0.00     0.181 C 
ATOM     91  C   UNL A   1      30.882  27.796  24.547  1.00  0.00     0.181 C 
ATOM     92  C   UNL A   1      32.091  29.965  25.994  1.00  0.00     0.282 C 
ATOM     93  C   UNL A   1      31.146  29.178  23.922  1.00  0.00     0.282 C 
ATOM     94  N   UNL A   1      31.126  30.276  24.912  1.00  0.00    -0.343 N 
ATOM     95  H   UNL A   1      31.390  31.152  24.459  1.00  0.00     0.346 HD
ATOM     96  H   UNL A   1      30.188  30.373  25.301  1.00  0.00     0.346 HD
ENDBRANCH  85  89
ENDBRANCH  75  77
ENDBRANCH  74  75
ENDBRANCH  73  74
ENDBRANCH   1  73
TORSDOF 15
ENDMDL
MODEL 2
REMARK VINA RESULT:     -12.1      4.914     10.675
REMARK SMILES O=C(OCCOC(=O)c1ccc2c(=O)[nH]c(N3CC[NH2+]CC3)nc2c1)c1ccc(-c2c3nc(c(-c4c(F)cc(S(=O)(=O)[O-])cc4F)c4ccc([nH]4)c(-c4c(F)cc(S(=O)(=O)[O-])cc4F)c4nc(c(-c5c(F)cc(S(=O)(=O)[O-])cc5F)c5ccc2[nH]5)C=C4)C=C3)cc1
REMARK SMILES IDX 4 1 3 2 2 3 1 4 26 5 27 6 91 7 28 8 90 9 29 10 30 11 31 12
REMARK SMILES IDX 84 13 32 14 89 15 83 16 85 17 33 18 88 19 82 20 81 21 34 23
REMARK SMILES IDX 68 24 47 25 67 26 48 27 51 28 66 29 86 30 49 31 50 32 65 34
REMARK SMILES IDX 87 35 52 36 35 37 36 38 45 39 37 40 38 41 44 42 46 43 39 44
REMARK SMILES IDX 40 45 41 46 42 47 43 48 69 49 70 50 79 51 71 52 72 53 78 54
REMARK SMILES IDX 80 55 73 56 74 57 75 58 76 59 77 60 53 61 54 62 63 63 55 64
REMARK SMILES IDX 56 65 62 66 64 67 57 68 58 69 59 70 60 71 61 72 5 73 6 74
REMARK SMILES IDX 7 75 8 76 9 77 10 78 25 79 11 80 24 81 12 82 23 83 13 84
REMARK SMILES IDX 16 85 14 86 15 87 17 89 18 90 22 91 19 92 21 93 20 94
REMARK H PARENT 85 22 51 33 15 88 20 95 20 96
REMARK Flexibility Score: inf
ROOT
ATOM      1  C   UNL A   1      32.320  29.606  27.061  1.00  0.00     0.275 C 
ENDROOT
BRANCH   1   2
ATOM      2  O   UNL A   1      33.751  29.678  27.179  1.00  0.00    -0.458 OA
BRANCH   2   3
ATOM      3  C   UNL A   1      34.526  30.445  27.982  1.00  0.00     0.338 C 
ATOM      4  O   UNL A   1      34.114  31.558  28.304  1.00  0.00    -0.246 OA
BRANCH   3   5
ATOM      5  C   UNL A   1      35.916  30.071  28.402  1.00  0.00     0.060 A 
ATOM      6  C   UNL A   1      36.307  29.660  29.679  1.00  0.00     0.016 A 
ATOM      7  C   UNL A   1      36.908  30.136  27.405  1.00  0.00     0.016 A 
ATOM      8  C   UNL A   1      37.613  29.237  29.938  1.00  0.00     0.010 A 
ATOM      9  C   UNL A   1      38.220  29.719  27.658  1.00  0.00     0.010 A 
ATOM     10  C   UNL A   1      38.574  29.257  28.930  1.00  0.00    -0.014 A 
BRANCH  10  11
ATOM     11  C   UNL A   1      39.979  28.935  29.250  1.00  0.00     0.031 A 
ATOM     12  C   UNL A   1      40.845  30.030  29.790  1.00  0.00     0.074 A 
ATOM     13  C   UNL A   1      40.458  27.688  29.088  1.00  0.00     0.049 A 
ATOM     14  N   UNL A   1      42.110  29.996  30.102  1.00  0.00    -0.248 NA
ATOM     15  C   UNL A   1      40.189  31.322  30.057  1.00  0.00     0.031 C 
ATOM     16  C   UNL A   1      39.664  26.524  28.702  1.00  0.00     0.029 A 
ATOM     17  N   UNL A   1      41.732  27.191  29.189  1.00  0.00    -0.354 N 
ATOM     18  C   UNL A   1      42.397  31.248  30.627  1.00  0.00     0.074 A 
ATOM     19  C   UNL A   1      41.190  32.037  30.550  1.00  0.00     0.031 C 
ATOM     20  C   UNL A   1      40.481  25.482  28.472  1.00  0.00     0.029 A 
ATOM     21  C   UNL A   1      41.854  25.902  28.716  1.00  0.00     0.049 A 
ATOM     22  H   UNL A   1      42.485  27.704  29.562  1.00  0.00     0.167 HD
ATOM     23  C   UNL A   1      43.565  31.679  31.151  1.00  0.00     0.037 A 
ATOM     24  C   UNL A   1      42.956  25.166  28.477  1.00  0.00     0.037 A 
ATOM     25  C   UNL A   1      44.753  30.872  31.200  1.00  0.00     0.049 A 
ATOM     26  C   UNL A   1      44.284  25.737  28.894  1.00  0.00     0.074 A 
ATOM     27  C   UNL A   1      45.985  31.188  31.739  1.00  0.00     0.029 A 
ATOM     28  N   UNL A   1      44.861  29.597  30.661  1.00  0.00    -0.354 N 
ATOM     29  N   UNL A   1      44.533  26.893  29.467  1.00  0.00    -0.248 NA
ATOM     30  C   UNL A   1      45.473  24.904  28.679  1.00  0.00     0.031 C 
ATOM     31  C   UNL A   1      46.858  30.131  31.464  1.00  0.00     0.029 A 
ATOM     32  C   UNL A   1      46.155  29.133  30.805  1.00  0.00     0.049 A 
ATOM     33  H   UNL A   1      44.125  29.097  30.239  1.00  0.00     0.167 HD
ATOM     34  C   UNL A   1      45.896  26.903  29.726  1.00  0.00     0.074 A 
ATOM     35  C   UNL A   1      46.420  25.641  29.242  1.00  0.00     0.031 C 
ATOM     36  C   UNL A   1      46.644  27.863  30.324  1.00  0.00     0.037 A 
BRANCH  23  37
ATOM     37  C   UNL A   1      43.616  33.082  31.675  1.00  0.00     0.058 A 
ATOM     38  C   UNL A   1      44.024  34.160  30.871  1.00  0.00     0.135 A 
ATOM     39  C   UNL A   1      43.224  33.358  32.994  1.00  0.00     0.135 A 
ATOM     40  F   UNL A   1      44.437  33.946  29.612  1.00  0.00    -0.206 F 
ATOM     41  C   UNL A   1      44.048  35.460  31.361  1.00  0.00     0.059 A 
ATOM     42  C   UNL A   1      43.219  34.654  33.498  1.00  0.00     0.059 A 
ATOM     43  F   UNL A   1      42.844  32.360  33.806  1.00  0.00    -0.206 F 
ATOM     44  C   UNL A   1      43.639  35.698  32.675  1.00  0.00     0.060 A 
BRANCH  44  45
ATOM     45  S   UNL A   1      43.646  37.396  33.285  1.00  0.00     0.124 S 
ATOM     46  O   UNL A   1      44.917  37.442  34.004  1.00  0.00    -0.237 OA
ATOM     47  O   UNL A   1      43.590  38.170  32.049  1.00  0.00    -0.237 OA
ATOM     48  O   UNL A   1      42.451  37.464  34.120  1.00  0.00    -0.744 OA
ENDBRANCH  44  45
ENDBRANCH  23  37
BRANCH  24  49
ATOM     49  C   UNL A   1      42.861  23.844  27.796  1.00  0.00     0.058 A 
ATOM     50  C   UNL A   1      42.621  22.659  28.505  1.00  0.00     0.135 A 
ATOM     51  C   UNL A   1      43.053  23.737  26.408  1.00  0.00     0.135 A 
ATOM     52  F   UNL A   1      42.435  22.700  29.834  1.00  0.00    -0.206 F 
ATOM     53  C   UNL A   1      42.606  21.417  27.872  1.00  0.00     0.059 A 
ATOM     54  C   UNL A   1      43.019  22.511  25.747  1.00  0.00     0.059 A 
ATOM     55  F   UNL A   1      43.282  24.837  25.678  1.00  0.00    -0.206 F 
ATOM     56  C   UNL A   1      42.810  21.353  26.493  1.00  0.00     0.060 A 
BRANCH  56  57
ATOM     57  S   UNL A   1      42.792  19.735  25.688  1.00  0.00     0.124 S 
ATOM     58  O   UNL A   1      41.375  19.573  25.379  1.00  0.00    -0.237 OA
ATOM     59  O   UNL A   1      43.672  19.955  24.545  1.00  0.00    -0.237 OA
ATOM     60  O   UNL A   1      43.318  18.839  26.712  1.00  0.00    -0.744 OA
ENDBRANCH  56  57
ENDBRANCH  24  49
BRANCH  36  61
ATOM     61  C   UNL A   1      48.103  27.575  30.523  1.00  0.00     0.058 A 
ATOM     62  C   UNL A   1      48.556  26.800  31.601  1.00  0.00     0.135 A 
ATOM     63  C   UNL A   1      49.042  28.001  29.571  1.00  0.00     0.135 A 
ATOM     64  F   UNL A   1      47.695  26.382  32.542  1.00  0.00    -0.206 F 
ATOM     65  C   UNL A   1      49.896  26.459  31.729  1.00  0.00     0.059 A 
ATOM     66  C   UNL A   1      50.383  27.644  29.664  1.00  0.00     0.059 A 
ATOM     67  F   UNL A   1      48.655  28.739  28.519  1.00  0.00    -0.206 F 
ATOM     68  C   UNL A   1      50.799  26.875  30.748  1.00  0.00     0.060 A 
BRANCH  68  69
ATOM     69  S   UNL A   1      52.520  26.353  30.886  1.00  0.00     0.124 S 
ATOM     70  O   UNL A   1      52.395  25.136  31.683  1.00  0.00    -0.237 OA
ATOM     71  O   UNL A   1      52.900  26.161  29.491  1.00  0.00    -0.237 OA
ATOM     72  O   UNL A   1      53.165  27.478  31.557  1.00  0.00    -0.744 OA
ENDBRANCH  68  69
ENDBRANCH  36  61
ENDBRANCH  10  11
ENDBRANCH   3   5
ENDBRANCH   2   3
ENDBRANCH   1   2
BRANCH   1  73
ATOM     73  C   UNL A   1      31.776  29.699  25.632  1.00  0.00     0.275 C 
BRANCH  73  74
ATOM     74  O   UNL A   1      32.207  28.636  24.770  1.00  0.00    -0.458 OA
BRANCH  74  75
ATOM     75  C   UNL A   1      31.314  27.619  24.614  1.00  0.00     0.338 C 
ATOM     76  O   UNL A   1      30.274  27.654  23.991  1.00  0.00    -0.246 OA
BRANCH  75  77
ATOM     77  C   UNL A   1      31.865  26.395  25.238  1.00  0.00     0.062 A 
ATOM     78  C   UNL A   1      31.078  25.611  26.085  1.00  0.00     0.016 A 
ATOM     79  C   UNL A   1      33.200  26.045  24.975  1.00  0.00     0.045 A 
ATOM     80  C   UNL A   1      31.636  24.489  26.691  1.00  0.00     0.017 A 
ATOM     81  C   UNL A   1      33.780  24.943  25.611  1.00  0.00     0.081 A 
ATOM     82  C   UNL A   1      32.982  24.185  26.472  1.00  0.00     0.066 A 
ATOM     83  N   UNL A   1      35.133  24.626  25.362  1.00  0.00    -0.214 NA
ATOM     84  C   UNL A   1      33.607  23.043  27.147  1.00  0.00     0.260 A 
ATOM     85  C   UNL A   1      35.624  23.565  25.923  1.00  0.00     0.206 A 
ATOM     86  O   UNL A   1      33.009  22.345  27.954  1.00  0.00    -0.269 OA
ATOM     87  N   UNL A   1      34.903  22.804  26.798  1.00  0.00    -0.292 N 
ATOM     88  H   UNL A   1      35.350  22.028  27.205  1.00  0.00     0.173 HD
BRANCH  85  89
ATOM     89  N   UNL A   1      36.883  23.090  25.703  1.00  0.00    -0.331 N 
ATOM     90  C   UNL A   1      38.082  23.830  26.088  1.00  0.00     0.181 C 
ATOM     91  C   UNL A   1      37.108  21.994  24.757  1.00  0.00     0.181 C 
ATOM     92  C   UNL A   1      39.155  22.832  26.593  1.00  0.00     0.282 C 
ATOM     93  C   UNL A   1      38.194  21.045  25.294  1.00  0.00     0.282 C 
ATOM     94  N   UNL A   1      39.454  21.738  25.638  1.00  0.00    -0.343 N 
ATOM     95  H   UNL A   1      40.103  21.078  26.066  1.00  0.00     0.346 HD
ATOM     96  H   UNL A   1      39.878  22.122  24.793  1.00  0.00     0.346 HD
ENDBRANCH  85  89
ENDBRANCH  75  77
ENDBRANCH  74  75
ENDBRANCH  73  74
ENDBRANCH   1  73
TORSDOF 15
ENDMDL
MODEL 3
REMARK VINA RESULT:     -12.0      5.131     10.757
REMARK SMILES O=C(OCCOC(=O)c1ccc2c(=O)[nH]c(N3CC[NH2+]CC3)nc2c1)c1ccc(-c2c3nc(c(-c4c(F)cc(S(=O)(=O)[O-])cc4F)c4ccc([nH]4)c(-c4c(F)cc(S(=O)(=O)[O-])cc4F)c4nc(c(-c5c(F)cc(S(=O)(=O)[O-])cc5F)c5ccc2[nH]5)C=C4)C=C3)cc1
REMARK SMILES IDX 4 1 3 2 2 3 1 4 26 5 27 6 91 7 28 8 90 9 29 10 30 11 31 12
REMARK SMILES IDX 84 13 32 14 89 15 83 16 85 17 33 18 88 19 82 20 81 21 34 23
REMARK SMILES IDX 68 24 47 25 67 26 48 27 51 28 66 29 86 30 49 31 50 32 65 34
REMARK SMILES IDX 87 35 52 36 35 37 36 38 45 39 37 40 38 41 44 42 46 43 39 44
REMARK SMILES IDX 40 45 41 46 42 47 43 48 69 49 70 50 79 51 71 52 72 53 78 54
REMARK SMILES IDX 80 55 73 56 74 57 75 58 76 59 77 60 53 61 54 62 63 63 55 64
REMARK SMILES IDX 56 65 62 66 64 67 57 68 58 69 59 70 60 71 61 72 5 73 6 74
REMARK SMILES IDX 7 75 8 76 9 77 10 78 25 79 11 80 24 81 12 82 23 83 13 84
REMARK SMILES IDX 16 85 14 86 15 87 17 89 18 90 22 91 19 92 21 93 20 94
REMARK H PARENT 85 22 51 33 15 88 20 95 20 96
REMARK Flexibility Score: inf
ROOT
ATOM      1  C   UNL A   1      32.898  29.252  26.122  1.00  0.00     0.275 C 
ENDROOT
BRANCH   1   2
ATOM      2  O   UNL A   1      33.430  29.547  27.425  1.00  0.00    -0.458 OA
BRANCH   2   3
ATOM      3  C   UNL A   1      34.364  30.451  27.806  1.00  0.00     0.338 C 
ATOM      4  O   UNL A   1      34.104  31.647  27.688  1.00  0.00    -0.246 OA
BRANCH   3   5
ATOM      5  C   UNL A   1      35.749  30.081  28.247  1.00  0.00     0.060 A 
ATOM      6  C   UNL A   1      36.135  29.742  29.546  1.00  0.00     0.016 A 
ATOM      7  C   UNL A   1      36.741  30.072  27.248  1.00  0.00     0.016 A 
ATOM      8  C   UNL A   1      37.434  29.315  29.830  1.00  0.00     0.010 A 
ATOM      9  C   UNL A   1      38.046  29.651  27.525  1.00  0.00     0.010 A 
ATOM     10  C   UNL A   1      38.394  29.260  28.822  1.00  0.00    -0.014 A 
BRANCH  10  11
ATOM     11  C   UNL A   1      39.795  28.936  29.161  1.00  0.00     0.031 A 
ATOM     12  C   UNL A   1      40.662  30.036  29.691  1.00  0.00     0.074 A 
ATOM     13  C   UNL A   1      40.269  27.684  29.023  1.00  0.00     0.049 A 
ATOM     14  N   UNL A   1      41.923  30.000  30.015  1.00  0.00    -0.248 NA
ATOM     15  C   UNL A   1      40.009  31.336  29.930  1.00  0.00     0.031 C 
ATOM     16  C   UNL A   1      39.473  26.519  28.648  1.00  0.00     0.029 A 
ATOM     17  N   UNL A   1      41.540  27.183  29.144  1.00  0.00    -0.354 N 
ATOM     18  C   UNL A   1      42.211  31.259  30.522  1.00  0.00     0.074 A 
ATOM     19  C   UNL A   1      41.009  32.054  30.421  1.00  0.00     0.031 C 
ATOM     20  C   UNL A   1      40.287  25.469  28.443  1.00  0.00     0.029 A 
ATOM     21  C   UNL A   1      41.659  25.886  28.693  1.00  0.00     0.049 A 
ATOM     22  H   UNL A   1      42.292  27.698  29.516  1.00  0.00     0.167 HD
ATOM     23  C   UNL A   1      43.377  31.694  31.049  1.00  0.00     0.037 A 
ATOM     24  C   UNL A   1      42.760  25.140  28.477  1.00  0.00     0.037 A 
ATOM     25  C   UNL A   1      44.561  30.882  31.123  1.00  0.00     0.049 A 
ATOM     26  C   UNL A   1      44.087  25.712  28.897  1.00  0.00     0.074 A 
ATOM     27  C   UNL A   1      45.789  31.200  31.668  1.00  0.00     0.029 A 
ATOM     28  N   UNL A   1      44.667  29.598  30.606  1.00  0.00    -0.354 N 
ATOM     29  N   UNL A   1      44.336  26.875  29.453  1.00  0.00    -0.248 NA
ATOM     30  C   UNL A   1      45.274  24.869  28.706  1.00  0.00     0.031 C 
ATOM     31  C   UNL A   1      46.659  30.135  31.418  1.00  0.00     0.029 A 
ATOM     32  C   UNL A   1      45.957  29.129  30.769  1.00  0.00     0.049 A 
ATOM     33  H   UNL A   1      43.933  29.094  30.185  1.00  0.00     0.167 HD
ATOM     34  C   UNL A   1      45.697  26.884  29.724  1.00  0.00     0.074 A 
ATOM     35  C   UNL A   1      46.219  25.611  29.266  1.00  0.00     0.031 C 
ATOM     36  C   UNL A   1      46.444  27.849  30.314  1.00  0.00     0.037 A 
BRANCH  23  37
ATOM     37  C   UNL A   1      43.430  33.105  31.551  1.00  0.00     0.058 A 
ATOM     38  C   UNL A   1      43.131  33.428  32.885  1.00  0.00     0.135 A 
ATOM     39  C   UNL A   1      43.812  34.146  30.693  1.00  0.00     0.135 A 
ATOM     40  F   UNL A   1      42.731  32.473  33.740  1.00  0.00    -0.206 F 
ATOM     41  C   UNL A   1      43.201  34.738  33.346  1.00  0.00     0.059 A 
ATOM     42  C   UNL A   1      43.911  35.460  31.138  1.00  0.00     0.059 A 
ATOM     43  F   UNL A   1      44.090  33.890  29.405  1.00  0.00    -0.206 F 
ATOM     44  C   UNL A   1      43.597  35.746  32.466  1.00  0.00     0.060 A 
BRANCH  44  45
ATOM     45  S   UNL A   1      43.715  37.436  33.089  1.00  0.00     0.124 S 
ATOM     46  O   UNL A   1      43.614  38.209  31.855  1.00  0.00    -0.237 OA
ATOM     47  O   UNL A   1      42.565  37.518  33.983  1.00  0.00    -0.237 OA
ATOM     48  O   UNL A   1      45.019  37.468  33.744  1.00  0.00    -0.744 OA
ENDBRANCH  44  45
ENDBRANCH  23  37
BRANCH  24  49
ATOM     49  C   UNL A   1      42.665  23.808  27.816  1.00  0.00     0.058 A 
ATOM     50  C   UNL A   1      42.543  22.622  28.553  1.00  0.00     0.135 A 
ATOM     51  C   UNL A   1      42.735  23.694  26.417  1.00  0.00     0.135 A 
ATOM     52  F   UNL A   1      42.476  22.669  29.892  1.00  0.00    -0.206 F 
ATOM     53  C   UNL A   1      42.528  21.373  27.932  1.00  0.00     0.059 A 
ATOM     54  C   UNL A   1      42.698  22.461  25.771  1.00  0.00     0.059 A 
ATOM     55  F   UNL A   1      42.847  24.795  25.662  1.00  0.00    -0.206 F 
ATOM     56  C   UNL A   1      42.610  21.303  26.541  1.00  0.00     0.060 A 
BRANCH  56  57
ATOM     57  S   UNL A   1      42.594  19.677  25.752  1.00  0.00     0.124 S 
ATOM     58  O   UNL A   1      41.184  19.530  25.406  1.00  0.00    -0.237 OA
ATOM     59  O   UNL A   1      43.508  19.873  24.632  1.00  0.00    -0.237 OA
ATOM     60  O   UNL A   1      43.080  18.786  26.800  1.00  0.00    -0.744 OA
ENDBRANCH  56  57
ENDBRANCH  24  49
BRANCH  36  61
ATOM     61  C   UNL A   1      47.900  27.558  30.531  1.00  0.00     0.058 A 
ATOM     62  C   UNL A   1      48.336  26.769  31.605  1.00  0.00     0.135 A 
ATOM     63  C   UNL A   1      48.854  27.995  29.599  1.00  0.00     0.135 A 
ATOM     64  F   UNL A   1      47.461  26.339  32.528  1.00  0.00    -0.206 F 
ATOM     65  C   UNL A   1      49.673  26.424  31.750  1.00  0.00     0.059 A 
ATOM     66  C   UNL A   1      50.192  27.636  29.707  1.00  0.00     0.059 A 
ATOM     67  F   UNL A   1      48.483  28.747  28.550  1.00  0.00    -0.206 F 
ATOM     68  C   UNL A   1      50.592  26.852  30.787  1.00  0.00     0.060 A 
BRANCH  68  69
ATOM     69  S   UNL A   1      52.310  26.327  30.945  1.00  0.00     0.124 S 
ATOM     70  O   UNL A   1      52.905  27.466  31.637  1.00  0.00    -0.237 OA
ATOM     71  O   UNL A   1      52.190  25.101  31.728  1.00  0.00    -0.237 OA
ATOM     72  O   UNL A   1      52.738  26.140  29.561  1.00  0.00    -0.744 OA
ENDBRANCH  68  69
ENDBRANCH  36  61
ENDBRANCH  10  11
ENDBRANCH   3   5
ENDBRANCH   2   3
ENDBRANCH   1   2
BRANCH   1  73
ATOM     73  C   UNL A   1      33.613  28.130  25.362  1.00  0.00     0.275 C 
BRANCH  73  74
ATOM     74  O   UNL A   1      33.673  26.886  26.075  1.00  0.00    -0.458 OA
BRANCH  74  75
ATOM     75  C   UNL A   1      32.936  25.875  25.536  1.00  0.00     0.338 C 
ATOM     76  O   UNL A   1      31.828  25.960  25.053  1.00  0.00    -0.246 OA
BRANCH  75  77
ATOM     77  C   UNL A   1      33.753  24.640  25.524  1.00  0.00     0.062 A 
ATOM     78  C   UNL A   1      35.132  24.696  25.738  1.00  0.00     0.016 A 
ATOM     79  C   UNL A   1      33.116  23.411  25.278  1.00  0.00     0.045 A 
ATOM     80  C   UNL A   1      35.880  23.523  25.678  1.00  0.00     0.017 A 
ATOM     81  C   UNL A   1      33.865  22.235  25.176  1.00  0.00     0.081 A 
ATOM     82  C   UNL A   1      35.247  22.316  25.371  1.00  0.00     0.066 A 
ATOM     83  N   UNL A   1      33.214  21.015  24.895  1.00  0.00    -0.214 NA
ATOM     84  C   UNL A   1      36.024  21.079  25.244  1.00  0.00     0.260 A 
ATOM     85  C   UNL A   1      33.930  19.935  24.863  1.00  0.00     0.206 A 
ATOM     86  O   UNL A   1      37.241  21.050  25.349  1.00  0.00    -0.269 OA
ATOM     87  N   UNL A   1      35.287  19.955  25.014  1.00  0.00    -0.292 N 
ATOM     88  H   UNL A   1      35.767  19.098  24.952  1.00  0.00     0.173 HD
BRANCH  85  89
ATOM     89  N   UNL A   1      33.423  18.680  24.692  1.00  0.00    -0.331 N 
ATOM     90  C   UNL A   1      33.282  18.061  23.377  1.00  0.00     0.181 C 
ATOM     91  C   UNL A   1      32.667  18.032  25.767  1.00  0.00     0.181 C 
ATOM     92  C   UNL A   1      33.605  16.549  23.490  1.00  0.00     0.282 C 
ATOM     93  C   UNL A   1      33.006  16.532  25.824  1.00  0.00     0.282 C 
ATOM     94  N   UNL A   1      32.817  15.843  24.529  1.00  0.00    -0.343 N 
ATOM     95  H   UNL A   1      33.137  14.877  24.604  1.00  0.00     0.346 HD
ATOM     96  H   UNL A   1      31.828  15.848  24.277  1.00  0.00     0.346 HD
ENDBRANCH  85  89
ENDBRANCH  75  77
ENDBRANCH  74  75
ENDBRANCH  73  74
ENDBRANCH   1  73
TORSDOF 15
ENDMDL
