MODEL 1
REMARK VINA RESULT:     -10.9      0.000      0.000
REMARK SMILES CSc1ccc(CNc2ccc(N3CCOCC3)c(C(=O)OCCOC(=O)c3ccc(-c4c5nc(c(-c6c(F)cc(S(=O)(=O)[O-])cc6F)c6ccc([nH]6)c(-c6c(F)cc(S(=O)(=O)[O-])cc6F)c6nc(c(-c7c(F)cc(S(=O)(=O)[O-])cc7F)c7ccc4[nH]7)C=C6)C=C5)cc3)c2)cc1
REMARK SMILES IDX 23 1 22 2 20 3 21 4 19 5 9 6 10 7 94 8 11 9 12 10 8 11 7 13
REMARK SMILES IDX 6 14 3 15 4 16 96 17 5 18 95 19 2 20 1 21 13 22 14 23 18 24
REMARK SMILES IDX 15 25 17 26 16 27 24 28 25 29 26 30 27 31 28 32 29 33 93 34
REMARK SMILES IDX 30 35 92 36 31 37 32 38 33 39 86 40 34 41 91 42 85 43 87 44
REMARK SMILES IDX 35 45 90 46 84 47 83 48 36 50 70 51 49 52 69 53 50 54 53 55
REMARK SMILES IDX 68 56 88 57 51 58 52 59 67 61 89 62 54 63 37 64 38 65 47 66
REMARK SMILES IDX 39 67 40 68 46 69 48 70 41 71 42 72 43 73 44 74 45 75 71 76
REMARK SMILES IDX 72 77 81 78 73 79 74 80 80 81 82 82 75 83 76 84 77 85 78 86
REMARK SMILES IDX 79 87 55 88 56 89 65 90 57 91 58 92 64 93 66 94 59 95 60 96
REMARK SMILES IDX 61 97 62 98 63 99
REMARK H PARENT 8 12 87 49 53 60
REMARK Flexibility Score: inf
ROOT
ATOM      1  C   UNL A   1      31.766  29.402  26.653  1.00  0.00     0.275 C 
ENDROOT
BRANCH   1   2
ATOM      2  O   UNL A   1      32.526  28.394  25.973  1.00  0.00    -0.458 OA
BRANCH   2   3
ATOM      3  C   UNL A   1      32.165  27.106  26.209  1.00  0.00     0.340 C 
ATOM      4  O   UNL A   1      31.417  26.718  27.091  1.00  0.00    -0.246 OA
BRANCH   3   5
ATOM      5  C   UNL A   1      32.771  26.276  25.141  1.00  0.00     0.085 A 
ATOM      6  C   UNL A   1      34.599  24.754  24.571  1.00  0.00     0.035 A 
ATOM      7  C   UNL A   1      34.058  24.671  23.289  1.00  0.00     0.028 A 
ATOM      8  C   UNL A   1      33.959  25.596  25.476  1.00  0.00     0.043 A 
ATOM      9  C   UNL A   1      32.865  25.332  22.953  1.00  0.00     0.029 A 
ATOM     10  C   UNL A   1      32.164  26.121  23.879  1.00  0.00     0.052 A 
BRANCH   6  11
ATOM     11  N   UNL A   1      35.670  23.955  24.917  1.00  0.00    -0.381 N 
ATOM     12  H   UNL A   1      36.481  23.998  24.359  1.00  0.00     0.160 HD
BRANCH  11  13
ATOM     13  C   UNL A   1      35.668  23.054  26.056  1.00  0.00     0.148 C 
BRANCH  13  14
ATOM     14  C   UNL A   1      34.997  21.749  25.689  1.00  0.00    -0.029 A 
ATOM     15  C   UNL A   1      33.743  19.326  24.925  1.00  0.00     0.007 A 
ATOM     16  C   UNL A   1      35.115  19.506  24.738  1.00  0.00     0.015 A 
ATOM     17  C   UNL A   1      33.005  20.376  25.489  1.00  0.00     0.015 A 
ATOM     18  C   UNL A   1      35.733  20.706  25.107  1.00  0.00     0.007 A 
ATOM     19  C   UNL A   1      33.620  21.575  25.863  1.00  0.00     0.007 A 
BRANCH  15  20
ATOM     20  S   UNL A   1      32.844  17.832  24.522  1.00  0.00    -0.130 SA
ATOM     21  C   UNL A   1      34.083  16.812  23.681  1.00  0.00     0.091 C 
ENDBRANCH  15  20
ENDBRANCH  13  14
ENDBRANCH  11  13
ENDBRANCH   6  11
BRANCH  10  22
ATOM     22  N   UNL A   1      30.940  26.677  23.551  1.00  0.00    -0.366 N 
ATOM     23  C   UNL A   1      30.864  27.891  22.731  1.00  0.00     0.145 C 
ATOM     24  C   UNL A   1      29.704  25.881  23.525  1.00  0.00     0.145 C 
ATOM     25  C   UNL A   1      29.617  28.716  23.056  1.00  0.00     0.181 C 
ATOM     26  C   UNL A   1      28.520  26.800  23.879  1.00  0.00     0.181 C 
ATOM     27  O   UNL A   1      28.426  27.919  22.982  1.00  0.00    -0.378 OA
ENDBRANCH  10  22
ENDBRANCH   3   5
ENDBRANCH   2   3
ENDBRANCH   1   2
BRANCH   1  28
ATOM     28  C   UNL A   1      32.690  30.569  27.004  1.00  0.00     0.275 C 
BRANCH  28  29
ATOM     29  O   UNL A   1      33.979  30.087  27.439  1.00  0.00    -0.458 OA
BRANCH  29  30
ATOM     30  C   UNL A   1      34.669  30.906  28.280  1.00  0.00     0.338 C 
ATOM     31  O   UNL A   1      34.219  31.853  28.901  1.00  0.00    -0.246 OA
BRANCH  30  32
ATOM     32  C   UNL A   1      36.055  30.392  28.442  1.00  0.00     0.060 A 
ATOM     33  C   UNL A   1      36.436  29.883  29.691  1.00  0.00     0.016 A 
ATOM     34  C   UNL A   1      36.953  30.333  27.366  1.00  0.00     0.016 A 
ATOM     35  C   UNL A   1      37.690  29.277  29.850  1.00  0.00     0.010 A 
ATOM     36  C   UNL A   1      38.210  29.736  27.529  1.00  0.00     0.010 A 
ATOM     37  C   UNL A   1      38.586  29.193  28.770  1.00  0.00    -0.014 A 
BRANCH  37  38
ATOM     38  C   UNL A   1      39.979  28.721  28.997  1.00  0.00     0.031 A 
ATOM     39  C   UNL A   1      40.922  29.675  29.671  1.00  0.00     0.074 A 
ATOM     40  C   UNL A   1      40.424  27.503  28.626  1.00  0.00     0.049 A 
ATOM     41  N   UNL A   1      42.148  29.483  30.080  1.00  0.00    -0.248 NA
ATOM     42  C   UNL A   1      40.405  31.033  29.911  1.00  0.00     0.031 C 
ATOM     43  C   UNL A   1      39.644  26.485  27.931  1.00  0.00     0.029 A 
ATOM     44  N   UNL A   1      41.660  26.915  28.782  1.00  0.00    -0.354 N 
ATOM     45  C   UNL A   1      42.534  30.680  30.665  1.00  0.00     0.074 A 
ATOM     46  C   UNL A   1      41.436  31.610  30.503  1.00  0.00     0.031 C 
ATOM     47  C   UNL A   1      40.410  25.398  27.725  1.00  0.00     0.029 A 
ATOM     48  C   UNL A   1      41.747  25.642  28.263  1.00  0.00     0.049 A 
ATOM     49  H   UNL A   1      42.415  27.366  29.226  1.00  0.00     0.167 HD
ATOM     50  C   UNL A   1      43.691  30.982  31.293  1.00  0.00     0.037 A 
ATOM     51  C   UNL A   1      42.784  24.776  28.227  1.00  0.00     0.037 A 
ATOM     52  C   UNL A   1      44.821  30.100  31.381  1.00  0.00     0.049 A 
ATOM     53  C   UNL A   1      44.103  25.170  28.854  1.00  0.00     0.074 A 
ATOM     54  C   UNL A   1      46.049  30.333  31.972  1.00  0.00     0.029 A 
ATOM     55  N   UNL A   1      44.873  28.829  30.831  1.00  0.00    -0.354 N 
ATOM     56  N   UNL A   1      44.421  26.273  29.490  1.00  0.00    -0.248 NA
ATOM     57  C   UNL A   1      45.202  24.195  28.769  1.00  0.00     0.031 C 
ATOM     58  C   UNL A   1      46.865  29.222  31.732  1.00  0.00     0.029 A 
ATOM     59  C   UNL A   1      46.122  28.271  31.050  1.00  0.00     0.049 A 
ATOM     60  H   UNL A   1      44.133  28.387  30.355  1.00  0.00     0.167 HD
ATOM     61  C   UNL A   1      45.736  26.101  29.922  1.00  0.00     0.074 A 
ATOM     62  C   UNL A   1      46.153  24.790  29.475  1.00  0.00     0.031 C 
ATOM     63  C   UNL A   1      46.521  26.951  30.630  1.00  0.00     0.037 A 
BRANCH  50  64
ATOM     64  C   UNL A   1      43.779  32.348  31.906  1.00  0.00     0.058 A 
ATOM     65  C   UNL A   1      44.255  33.445  31.168  1.00  0.00     0.135 A 
ATOM     66  C   UNL A   1      43.427  32.556  33.248  1.00  0.00     0.135 A 
ATOM     67  F   UNL A   1      44.632  33.288  29.889  1.00  0.00    -0.206 F 
ATOM     68  C   UNL A   1      44.415  34.695  31.752  1.00  0.00     0.059 A 
ATOM     69  C   UNL A   1      43.552  33.806  33.844  1.00  0.00     0.059 A 
ATOM     70  F   UNL A   1      42.981  31.537  33.997  1.00  0.00    -0.206 F 
ATOM     71  C   UNL A   1      44.066  34.863  33.093  1.00  0.00     0.060 A 
BRANCH  71  72
ATOM     72  S   UNL A   1      44.306  36.486  33.842  1.00  0.00     0.124 S 
ATOM     73  O   UNL A   1      43.437  36.396  35.012  1.00  0.00    -0.237 OA
ATOM     74  O   UNL A   1      45.739  36.495  34.117  1.00  0.00    -0.237 OA
ATOM     75  O   UNL A   1      43.863  37.410  32.802  1.00  0.00    -0.744 OA
ENDBRANCH  71  72
ENDBRANCH  50  64
BRANCH  51  76
ATOM     76  C   UNL A   1      42.642  23.431  27.593  1.00  0.00     0.058 A 
ATOM     77  C   UNL A   1      42.199  22.323  28.336  1.00  0.00     0.135 A 
ATOM     78  C   UNL A   1      43.012  23.207  26.258  1.00  0.00     0.135 A 
ATOM     79  F   UNL A   1      41.849  22.477  29.623  1.00  0.00    -0.206 F 
ATOM     80  C   UNL A   1      42.162  21.042  27.792  1.00  0.00     0.059 A 
ATOM     81  C   UNL A   1      42.957  21.939  25.683  1.00  0.00     0.059 A 
ATOM     82  F   UNL A   1      43.443  24.228  25.500  1.00  0.00    -0.206 F 
ATOM     83  C   UNL A   1      42.546  20.859  26.464  1.00  0.00     0.060 A 
BRANCH  83  84
ATOM     84  S   UNL A   1      42.482  19.192  25.766  1.00  0.00     0.124 S 
ATOM     85  O   UNL A   1      43.149  18.412  26.802  1.00  0.00    -0.237 OA
ATOM     86  O   UNL A   1      41.046  18.974  25.628  1.00  0.00    -0.237 OA
ATOM     87  O   UNL A   1      43.212  19.326  24.508  1.00  0.00    -0.744 OA
ENDBRANCH  83  84
ENDBRANCH  51  76
BRANCH  63  88
ATOM     88  C   UNL A   1      47.889  26.475  31.045  1.00  0.00     0.058 A 
ATOM     89  C   UNL A   1      49.021  26.635  30.231  1.00  0.00     0.135 A 
ATOM     90  C   UNL A   1      48.078  25.917  32.322  1.00  0.00     0.135 A 
ATOM     91  F   UNL A   1      48.901  27.161  29.002  1.00  0.00    -0.206 F 
ATOM     92  C   UNL A   1      50.286  26.236  30.657  1.00  0.00     0.059 A 
ATOM     93  C   UNL A   1      49.336  25.541  32.780  1.00  0.00     0.059 A 
ATOM     94  F   UNL A   1      47.032  25.754  33.150  1.00  0.00    -0.206 F 
ATOM     95  C   UNL A   1      50.434  25.693  31.935  1.00  0.00     0.060 A 
BRANCH  95  96
ATOM     96  S   UNL A   1      52.084  25.218  32.493  1.00  0.00     0.124 S 
ATOM     97  O   UNL A   1      52.096  23.790  32.196  1.00  0.00    -0.237 OA
ATOM     98  O   UNL A   1      52.947  26.047  31.657  1.00  0.00    -0.237 OA
ATOM     99  O   UNL A   1      52.077  25.564  33.911  1.00  0.00    -0.744 OA
ENDBRANCH  95  96
ENDBRANCH  63  88
ENDBRANCH  37  38
ENDBRANCH  30  32
ENDBRANCH  29  30
ENDBRANCH  28  29
ENDBRANCH   1  28
TORSDOF 19
ENDMDL
MODEL 2
REMARK VINA RESULT:     -10.8      2.452      3.175
REMARK SMILES CSc1ccc(CNc2ccc(N3CCOCC3)c(C(=O)OCCOC(=O)c3ccc(-c4c5nc(c(-c6c(F)cc(S(=O)(=O)[O-])cc6F)c6ccc([nH]6)c(-c6c(F)cc(S(=O)(=O)[O-])cc6F)c6nc(c(-c7c(F)cc(S(=O)(=O)[O-])cc7F)c7ccc4[nH]7)C=C6)C=C5)cc3)c2)cc1
REMARK SMILES IDX 23 1 22 2 20 3 21 4 19 5 9 6 10 7 94 8 11 9 12 10 8 11 7 13
REMARK SMILES IDX 6 14 3 15 4 16 96 17 5 18 95 19 2 20 1 21 13 22 14 23 18 24
REMARK SMILES IDX 15 25 17 26 16 27 24 28 25 29 26 30 27 31 28 32 29 33 93 34
REMARK SMILES IDX 30 35 92 36 31 37 32 38 33 39 86 40 34 41 91 42 85 43 87 44
REMARK SMILES IDX 35 45 90 46 84 47 83 48 36 50 70 51 49 52 69 53 50 54 53 55
REMARK SMILES IDX 68 56 88 57 51 58 52 59 67 61 89 62 54 63 37 64 38 65 47 66
REMARK SMILES IDX 39 67 40 68 46 69 48 70 41 71 42 72 43 73 44 74 45 75 71 76
REMARK SMILES IDX 72 77 81 78 73 79 74 80 80 81 82 82 75 83 76 84 77 85 78 86
REMARK SMILES IDX 79 87 55 88 56 89 65 90 57 91 58 92 64 93 66 94 59 95 60 96
REMARK SMILES IDX 61 97 62 98 63 99
REMARK H PARENT 8 12 87 49 53 60
REMARK Flexibility Score: inf
ROOT
ATOM      1  C   UNL A   1      31.811  28.489  27.253  1.00  0.00     0.275 C 
ENDROOT
BRANCH   1   2
ATOM      2  O   UNL A   1      32.269  27.521  26.299  1.00  0.00    -0.458 OA
BRANCH   2   3
ATOM      3  C   UNL A   1      31.324  26.704  25.766  1.00  0.00     0.340 C 
ATOM      4  O   UNL A   1      30.284  26.362  26.303  1.00  0.00    -0.246 OA
BRANCH   3   5
ATOM      5  C   UNL A   1      31.745  26.388  24.381  1.00  0.00     0.085 A 
ATOM      6  C   UNL A   1      33.147  24.948  22.986  1.00  0.00     0.035 A 
ATOM      7  C   UNL A   1      32.662  25.641  21.878  1.00  0.00     0.028 A 
ATOM      8  C   UNL A   1      32.704  25.364  24.238  1.00  0.00     0.043 A 
ATOM      9  C   UNL A   1      31.694  26.650  22.012  1.00  0.00     0.029 A 
ATOM     10  C   UNL A   1      31.177  27.026  23.262  1.00  0.00     0.052 A 
BRANCH   6  11
ATOM     11  N   UNL A   1      33.962  23.849  22.805  1.00  0.00    -0.381 N 
ATOM     12  H   UNL A   1      33.997  23.439  21.909  1.00  0.00     0.160 HD
BRANCH  11  13
ATOM     13  C   UNL A   1      34.769  23.261  23.860  1.00  0.00     0.148 C 
BRANCH  13  14
ATOM     14  C   UNL A   1      34.274  21.868  24.181  1.00  0.00    -0.029 A 
ATOM     15  C   UNL A   1      33.385  19.233  24.720  1.00  0.00     0.007 A 
ATOM     16  C   UNL A   1      34.701  19.611  24.999  1.00  0.00     0.015 A 
ATOM     17  C   UNL A   1      32.524  20.186  24.160  1.00  0.00     0.015 A 
ATOM     18  C   UNL A   1      35.142  20.910  24.725  1.00  0.00     0.007 A 
ATOM     19  C   UNL A   1      32.961  21.487  23.888  1.00  0.00     0.007 A 
BRANCH  15  20
ATOM     20  S   UNL A   1      32.695  17.615  25.050  1.00  0.00    -0.130 SA
ATOM     21  C   UNL A   1      33.573  16.540  23.886  1.00  0.00     0.091 C 
ENDBRANCH  15  20
ENDBRANCH  13  14
ENDBRANCH  11  13
ENDBRANCH   6  11
BRANCH  10  22
ATOM     22  N   UNL A   1      30.151  27.952  23.353  1.00  0.00    -0.366 N 
ATOM     23  C   UNL A   1      28.760  27.515  23.507  1.00  0.00     0.145 C 
ATOM     24  C   UNL A   1      30.383  29.328  23.815  1.00  0.00     0.145 C 
ATOM     25  C   UNL A   1      27.781  28.520  22.897  1.00  0.00     0.181 C 
ATOM     26  C   UNL A   1      29.360  30.254  23.133  1.00  0.00     0.181 C 
ATOM     27  O   UNL A   1      28.007  29.846  23.400  1.00  0.00    -0.378 OA
ENDBRANCH  10  22
ENDBRANCH   3   5
ENDBRANCH   2   3
ENDBRANCH   1   2
BRANCH   1  28
ATOM     28  C   UNL A   1      32.281  29.878  26.817  1.00  0.00     0.275 C 
BRANCH  28  29
ATOM     29  O   UNL A   1      33.722  29.953  26.818  1.00  0.00    -0.458 OA
BRANCH  29  30
ATOM     30  C   UNL A   1      34.266  30.970  27.541  1.00  0.00     0.338 C 
ATOM     31  O   UNL A   1      33.766  32.062  27.747  1.00  0.00    -0.246 OA
BRANCH  30  32
ATOM     32  C   UNL A   1      35.532  30.506  28.170  1.00  0.00     0.060 A 
ATOM     33  C   UNL A   1      36.747  30.951  27.631  1.00  0.00     0.016 A 
ATOM     34  C   UNL A   1      35.535  29.709  29.323  1.00  0.00     0.016 A 
ATOM     35  C   UNL A   1      37.955  30.638  28.269  1.00  0.00     0.010 A 
ATOM     36  C   UNL A   1      36.745  29.388  29.954  1.00  0.00     0.010 A 
ATOM     37  C   UNL A   1      37.965  29.859  29.439  1.00  0.00    -0.014 A 
BRANCH  37  38
ATOM     38  C   UNL A   1      39.257  29.376  29.998  1.00  0.00     0.031 A 
ATOM     39  C   UNL A   1      39.768  30.066  31.230  1.00  0.00     0.074 A 
ATOM     40  C   UNL A   1      39.977  28.373  29.455  1.00  0.00     0.049 A 
ATOM     41  N   UNL A   1      40.802  29.778  31.974  1.00  0.00    -0.248 NA
ATOM     42  C   UNL A   1      39.004  31.243  31.674  1.00  0.00     0.031 C 
ATOM     43  C   UNL A   1      39.633  27.634  28.244  1.00  0.00     0.029 A 
ATOM     44  N   UNL A   1      41.163  27.801  29.858  1.00  0.00    -0.354 N 
ATOM     45  C   UNL A   1      40.789  30.712  33.000  1.00  0.00     0.074 A 
ATOM     46  C   UNL A   1      39.681  31.609  32.749  1.00  0.00     0.031 C 
ATOM     47  C   UNL A   1      40.577  26.706  28.004  1.00  0.00     0.029 A 
ATOM     48  C   UNL A   1      41.607  26.787  29.038  1.00  0.00     0.049 A 
ATOM     49  H   UNL A   1      41.651  28.092  30.662  1.00  0.00     0.167 HD
ATOM     50  C   UNL A   1      41.613  30.810  34.067  1.00  0.00     0.037 A 
ATOM     51  C   UNL A   1      42.714  26.015  29.114  1.00  0.00     0.037 A 
ATOM     52  C   UNL A   1      42.767  29.984  34.280  1.00  0.00     0.049 A 
ATOM     53  C   UNL A   1      43.674  26.206  30.266  1.00  0.00     0.074 A 
ATOM     54  C   UNL A   1      43.680  30.032  35.318  1.00  0.00     0.029 A 
ATOM     55  N   UNL A   1      43.188  28.981  33.421  1.00  0.00    -0.354 N 
ATOM     56  N   UNL A   1      43.594  27.031  31.284  1.00  0.00    -0.248 NA
ATOM     57  C   UNL A   1      44.872  25.350  30.287  1.00  0.00     0.031 C 
ATOM     58  C   UNL A   1      44.685  29.095  35.058  1.00  0.00     0.029 A 
ATOM     59  C   UNL A   1      44.361  28.417  33.894  1.00  0.00     0.049 A 
ATOM     60  H   UNL A   1      42.723  28.710  32.596  1.00  0.00     0.167 HD
ATOM     61  C   UNL A   1      44.701  26.758  32.087  1.00  0.00     0.074 A 
ATOM     62  C   UNL A   1      45.434  25.692  31.438  1.00  0.00     0.031 C 
ATOM     63  C   UNL A   1      45.070  27.333  33.259  1.00  0.00     0.037 A 
BRANCH  50  64
ATOM     64  C   UNL A   1      41.287  31.884  35.062  1.00  0.00     0.058 A 
ATOM     65  C   UNL A   1      40.311  31.682  36.053  1.00  0.00     0.135 A 
ATOM     66  C   UNL A   1      41.920  33.133  35.002  1.00  0.00     0.135 A 
ATOM     67  F   UNL A   1      39.656  30.513  36.131  1.00  0.00    -0.206 F 
ATOM     68  C   UNL A   1      39.947  32.699  36.927  1.00  0.00     0.059 A 
ATOM     69  C   UNL A   1      41.592  34.155  35.886  1.00  0.00     0.059 A 
ATOM     70  F   UNL A   1      42.849  33.378  34.065  1.00  0.00    -0.206 F 
ATOM     71  C   UNL A   1      40.590  33.935  36.830  1.00  0.00     0.060 A 
BRANCH  71  72
ATOM     72  S   UNL A   1      40.086  35.251  37.955  1.00  0.00     0.124 S 
ATOM     73  O   UNL A   1      41.238  35.326  38.849  1.00  0.00    -0.237 OA
ATOM     74  O   UNL A   1      39.911  36.384  37.051  1.00  0.00    -0.237 OA
ATOM     75  O   UNL A   1      38.859  34.735  38.555  1.00  0.00    -0.744 OA
ENDBRANCH  71  72
ENDBRANCH  50  64
BRANCH  51  76
ATOM     76  C   UNL A   1      42.992  24.967  28.087  1.00  0.00     0.058 A 
ATOM     77  C   UNL A   1      42.684  23.617  28.327  1.00  0.00     0.135 A 
ATOM     78  C   UNL A   1      43.637  25.277  26.879  1.00  0.00     0.135 A 
ATOM     79  F   UNL A   1      42.084  23.262  29.474  1.00  0.00    -0.206 F 
ATOM     80  C   UNL A   1      43.034  22.613  27.428  1.00  0.00     0.059 A 
ATOM     81  C   UNL A   1      43.971  24.294  25.951  1.00  0.00     0.059 A 
ATOM     82  F   UNL A   1      43.956  26.550  26.596  1.00  0.00    -0.206 F 
ATOM     83  C   UNL A   1      43.680  22.961  26.242  1.00  0.00     0.060 A 
BRANCH  83  84
ATOM     84  S   UNL A   1      44.119  21.649  25.078  1.00  0.00     0.124 S 
ATOM     85  O   UNL A   1      43.924  22.315  23.795  1.00  0.00    -0.237 OA
ATOM     86  O   UNL A   1      45.503  21.366  25.445  1.00  0.00    -0.237 OA
ATOM     87  O   UNL A   1      43.165  20.589  25.391  1.00  0.00    -0.744 OA
ENDBRANCH  83  84
ENDBRANCH  51  76
BRANCH  63  88
ATOM     88  C   UNL A   1      46.277  26.782  33.973  1.00  0.00     0.058 A 
ATOM     89  C   UNL A   1      47.568  27.293  33.773  1.00  0.00     0.135 A 
ATOM     90  C   UNL A   1      46.118  25.768  34.934  1.00  0.00     0.135 A 
ATOM     91  F   UNL A   1      47.780  28.261  32.867  1.00  0.00    -0.206 F 
ATOM     92  C   UNL A   1      48.662  26.804  34.483  1.00  0.00     0.059 A 
ATOM     93  C   UNL A   1      47.191  25.287  35.677  1.00  0.00     0.059 A 
ATOM     94  F   UNL A   1      44.902  25.251  35.177  1.00  0.00    -0.206 F 
ATOM     95  C   UNL A   1      48.462  25.803  35.436  1.00  0.00     0.060 A 
BRANCH  95  96
ATOM     96  S   UNL A   1      49.880  25.205  36.381  1.00  0.00     0.124 S 
ATOM     97  O   UNL A   1      49.433  25.422  37.752  1.00  0.00    -0.237 OA
ATOM     98  O   UNL A   1      49.974  23.812  35.957  1.00  0.00    -0.237 OA
ATOM     99  O   UNL A   1      50.973  26.064  35.935  1.00  0.00    -0.744 OA
ENDBRANCH  95  96
ENDBRANCH  63  88
ENDBRANCH  37  38
ENDBRANCH  30  32
ENDBRANCH  29  30
ENDBRANCH  28  29
ENDBRANCH   1  28
TORSDOF 19
ENDMDL
MODEL 3
REMARK VINA RESULT:     -10.7      2.904      3.852
REMARK SMILES CSc1ccc(CNc2ccc(N3CCOCC3)c(C(=O)OCCOC(=O)c3ccc(-c4c5nc(c(-c6c(F)cc(S(=O)(=O)[O-])cc6F)c6ccc([nH]6)c(-c6c(F)cc(S(=O)(=O)[O-])cc6F)c6nc(c(-c7c(F)cc(S(=O)(=O)[O-])cc7F)c7ccc4[nH]7)C=C6)C=C5)cc3)c2)cc1
REMARK SMILES IDX 23 1 22 2 20 3 21 4 19 5 9 6 10 7 94 8 11 9 12 10 8 11 7 13
REMARK SMILES IDX 6 14 3 15 4 16 96 17 5 18 95 19 2 20 1 21 13 22 14 23 18 24
REMARK SMILES IDX 15 25 17 26 16 27 24 28 25 29 26 30 27 31 28 32 29 33 93 34
REMARK SMILES IDX 30 35 92 36 31 37 32 38 33 39 86 40 34 41 91 42 85 43 87 44
REMARK SMILES IDX 35 45 90 46 84 47 83 48 36 50 70 51 49 52 69 53 50 54 53 55
REMARK SMILES IDX 68 56 88 57 51 58 52 59 67 61 89 62 54 63 37 64 38 65 47 66
REMARK SMILES IDX 39 67 40 68 46 69 48 70 41 71 42 72 43 73 44 74 45 75 71 76
REMARK SMILES IDX 72 77 81 78 73 79 74 80 80 81 82 82 75 83 76 84 77 85 78 86
REMARK SMILES IDX 79 87 55 88 56 89 65 90 57 91 58 92 64 93 66 94 59 95 60 96
REMARK SMILES IDX 61 97 62 98 63 99
REMARK H PARENT 8 12 87 49 53 60
REMARK Flexibility Score: inf
ROOT
ATOM      1  C   UNL A   1      31.819  29.495  25.901  1.00  0.00     0.275 C 
ENDROOT
BRANCH   1   2
ATOM      2  O   UNL A   1      31.523  30.121  24.645  1.00  0.00    -0.458 OA
BRANCH   2   3
ATOM      3  C   UNL A   1      31.603  29.330  23.543  1.00  0.00     0.340 C 
ATOM      4  O   UNL A   1      32.465  29.381  22.683  1.00  0.00    -0.246 OA
BRANCH   3   5
ATOM      5  C   UNL A   1      30.508  28.336  23.634  1.00  0.00     0.085 A 
ATOM      6  C   UNL A   1      29.905  26.067  24.322  1.00  0.00     0.035 A 
ATOM      7  C   UNL A   1      28.607  26.339  23.890  1.00  0.00     0.028 A 
ATOM      8  C   UNL A   1      30.854  27.070  24.149  1.00  0.00     0.043 A 
ATOM      9  C   UNL A   1      28.252  27.603  23.392  1.00  0.00     0.029 A 
ATOM     10  C   UNL A   1      29.180  28.652  23.287  1.00  0.00     0.052 A 
BRANCH   6  11
ATOM     11  N   UNL A   1      30.178  24.878  24.967  1.00  0.00    -0.381 N 
ATOM     12  H   UNL A   1      30.090  24.851  25.948  1.00  0.00     0.160 HD
BRANCH  11  13
ATOM     13  C   UNL A   1      30.588  23.665  24.281  1.00  0.00     0.148 C 
BRANCH  13  14
ATOM     14  C   UNL A   1      32.097  23.560  24.264  1.00  0.00    -0.029 A 
ATOM     15  C   UNL A   1      34.928  23.441  24.224  1.00  0.00     0.007 A 
ATOM     16  C   UNL A   1      34.251  23.884  25.362  1.00  0.00     0.015 A 
ATOM     17  C   UNL A   1      34.172  23.068  23.104  1.00  0.00     0.015 A 
ATOM     18  C   UNL A   1      32.853  23.952  25.379  1.00  0.00     0.007 A 
ATOM     19  C   UNL A   1      32.774  23.130  23.119  1.00  0.00     0.007 A 
BRANCH  15  20
ATOM     20  S   UNL A   1      36.705  23.284  24.088  1.00  0.00    -0.130 SA
ATOM     21  C   UNL A   1      37.168  22.435  25.620  1.00  0.00     0.091 C 
ENDBRANCH  15  20
ENDBRANCH  13  14
ENDBRANCH  11  13
ENDBRANCH   6  11
BRANCH  10  22
ATOM     22  N   UNL A   1      28.777  29.914  22.888  1.00  0.00    -0.366 N 
ATOM     23  C   UNL A   1      28.167  30.125  21.571  1.00  0.00     0.145 C 
ATOM     24  C   UNL A   1      28.446  30.969  23.857  1.00  0.00     0.145 C 
ATOM     25  C   UNL A   1      28.444  31.533  21.039  1.00  0.00     0.181 C 
ATOM     26  C   UNL A   1      28.776  32.335  23.229  1.00  0.00     0.181 C 
ATOM     27  O   UNL A   1      28.072  32.539  21.992  1.00  0.00    -0.378 OA
ENDBRANCH  10  22
ENDBRANCH   3   5
ENDBRANCH   2   3
ENDBRANCH   1   2
BRANCH   1  28
ATOM     28  C   UNL A   1      32.331  30.556  26.876  1.00  0.00     0.275 C 
BRANCH  28  29
ATOM     29  O   UNL A   1      33.773  30.534  26.946  1.00  0.00    -0.458 OA
BRANCH  29  30
ATOM     30  C   UNL A   1      34.350  31.534  27.668  1.00  0.00     0.338 C 
ATOM     31  O   UNL A   1      33.862  32.621  27.920  1.00  0.00    -0.246 OA
BRANCH  30  32
ATOM     32  C   UNL A   1      35.640  31.053  28.231  1.00  0.00     0.060 A 
ATOM     33  C   UNL A   1      35.747  29.704  28.596  1.00  0.00     0.016 A 
ATOM     34  C   UNL A   1      36.761  31.889  28.330  1.00  0.00     0.016 A 
ATOM     35  C   UNL A   1      36.980  29.185  29.014  1.00  0.00     0.010 A 
ATOM     36  C   UNL A   1      37.991  31.371  28.758  1.00  0.00     0.010 A 
ATOM     37  C   UNL A   1      38.114  30.012  29.093  1.00  0.00    -0.014 A 
BRANCH  37  38
ATOM     38  C   UNL A   1      39.365  29.497  29.715  1.00  0.00     0.031 A 
ATOM     39  C   UNL A   1      39.816  30.155  30.987  1.00  0.00     0.074 A 
ATOM     40  C   UNL A   1      40.099  28.492  29.194  1.00  0.00     0.049 A 
ATOM     41  N   UNL A   1      40.801  29.837  31.783  1.00  0.00    -0.248 NA
ATOM     42  C   UNL A   1      39.046  31.337  31.410  1.00  0.00     0.031 C 
ATOM     43  C   UNL A   1      39.813  27.783  27.951  1.00  0.00     0.029 A 
ATOM     44  N   UNL A   1      41.251  27.894  29.652  1.00  0.00    -0.354 N 
ATOM     45  C   UNL A   1      40.743  30.751  32.825  1.00  0.00     0.074 A 
ATOM     46  C   UNL A   1      39.666  31.672  32.529  1.00  0.00     0.031 C 
ATOM     47  C   UNL A   1      40.755  26.843  27.747  1.00  0.00     0.029 A 
ATOM     48  C   UNL A   1      41.725  26.888  28.839  1.00  0.00     0.049 A 
ATOM     49  H   UNL A   1      41.697  28.161  30.489  1.00  0.00     0.167 HD
ATOM     50  C   UNL A   1      41.507  30.816  33.938  1.00  0.00     0.037 A 
ATOM     51  C   UNL A   1      42.814  26.096  28.963  1.00  0.00     0.037 A 
ATOM     52  C   UNL A   1      42.634  29.967  34.200  1.00  0.00     0.049 A 
ATOM     53  C   UNL A   1      43.709  26.250  30.171  1.00  0.00     0.074 A 
ATOM     54  C   UNL A   1      43.487  29.981  35.289  1.00  0.00     0.029 A 
ATOM     55  N   UNL A   1      43.088  28.973  33.347  1.00  0.00    -0.354 N 
ATOM     56  N   UNL A   1      43.585  27.057  31.198  1.00  0.00    -0.248 NA
ATOM     57  C   UNL A   1      44.891  25.374  30.243  1.00  0.00     0.031 C 
ATOM     58  C   UNL A   1      44.490  29.032  35.068  1.00  0.00     0.029 A 
ATOM     59  C   UNL A   1      44.223  28.381  33.874  1.00  0.00     0.049 A 
ATOM     60  H   UNL A   1      42.666  28.725  32.492  1.00  0.00     0.167 HD
ATOM     61  C   UNL A   1      44.639  26.750  32.058  1.00  0.00     0.074 A 
ATOM     62  C   UNL A   1      45.391  25.685  31.431  1.00  0.00     0.031 C 
ATOM     63  C   UNL A   1      44.950  27.297  33.260  1.00  0.00     0.037 A 
BRANCH  50  64
ATOM     64  C   UNL A   1      41.141  31.876  34.934  1.00  0.00     0.058 A 
ATOM     65  C   UNL A   1      40.138  31.656  35.893  1.00  0.00     0.135 A 
ATOM     66  C   UNL A   1      41.766  33.132  34.907  1.00  0.00     0.135 A 
ATOM     67  F   UNL A   1      39.491  30.480  35.938  1.00  0.00    -0.206 F 
ATOM     68  C   UNL A   1      39.739  32.660  36.766  1.00  0.00     0.059 A 
ATOM     69  C   UNL A   1      41.402  34.141  35.790  1.00  0.00     0.059 A 
ATOM     70  F   UNL A   1      42.720  33.393  34.001  1.00  0.00    -0.206 F 
ATOM     71  C   UNL A   1      40.373  33.902  36.701  1.00  0.00     0.060 A 
BRANCH  71  72
ATOM     72  S   UNL A   1      39.824  35.203  37.823  1.00  0.00     0.124 S 
ATOM     73  O   UNL A   1      38.579  34.637  38.336  1.00  0.00    -0.237 OA
ATOM     74  O   UNL A   1      40.925  35.279  38.777  1.00  0.00    -0.237 OA
ATOM     75  O   UNL A   1      39.672  36.363  36.950  1.00  0.00    -0.744 OA
ENDBRANCH  71  72
ENDBRANCH  50  64
BRANCH  51  76
ATOM     76  C   UNL A   1      43.134  25.063  27.933  1.00  0.00     0.058 A 
ATOM     77  C   UNL A   1      42.682  23.739  28.070  1.00  0.00     0.135 A 
ATOM     78  C   UNL A   1      43.956  25.354  26.833  1.00  0.00     0.135 A 
ATOM     79  F   UNL A   1      41.908  23.401  29.112  1.00  0.00    -0.206 F 
ATOM     80  C   UNL A   1      43.059  22.739  27.177  1.00  0.00     0.059 A 
ATOM     81  C   UNL A   1      44.324  24.377  25.911  1.00  0.00     0.059 A 
ATOM     82  F   UNL A   1      44.418  26.601  26.652  1.00  0.00    -0.206 F 
ATOM     83  C   UNL A   1      43.884  23.067  26.101  1.00  0.00     0.060 A 
BRANCH  83  84
ATOM     84  S   UNL A   1      44.357  21.761  24.944  1.00  0.00     0.124 S 
ATOM     85  O   UNL A   1      43.417  20.702  25.292  1.00  0.00    -0.237 OA
ATOM     86  O   UNL A   1      44.141  22.406  23.652  1.00  0.00    -0.237 OA
ATOM     87  O   UNL A   1      45.754  21.503  25.281  1.00  0.00    -0.744 OA
ENDBRANCH  83  84
ENDBRANCH  51  76
BRANCH  63  88
ATOM     88  C   UNL A   1      46.105  26.713  34.030  1.00  0.00     0.058 A 
ATOM     89  C   UNL A   1      47.421  27.176  33.880  1.00  0.00     0.135 A 
ATOM     90  C   UNL A   1      45.870  25.717  34.994  1.00  0.00     0.135 A 
ATOM     91  F   UNL A   1      47.705  28.125  32.974  1.00  0.00    -0.206 F 
ATOM     92  C   UNL A   1      48.466  26.657  34.641  1.00  0.00     0.059 A 
ATOM     93  C   UNL A   1      46.893  25.207  35.788  1.00  0.00     0.059 A 
ATOM     94  F   UNL A   1      44.628  25.246  35.191  1.00  0.00    -0.206 F 
ATOM     95  C   UNL A   1      48.191  25.675  35.595  1.00  0.00     0.060 A 
BRANCH  95  96
ATOM     96  S   UNL A   1      49.546  25.040  36.606  1.00  0.00     0.124 S 
ATOM     97  O   UNL A   1      49.239  25.621  37.908  1.00  0.00    -0.237 OA
ATOM     98  O   UNL A   1      49.367  23.596  36.497  1.00  0.00    -0.237 OA
ATOM     99  O   UNL A   1      50.738  25.569  35.949  1.00  0.00    -0.744 OA
ENDBRANCH  95  96
ENDBRANCH  63  88
ENDBRANCH  37  38
ENDBRANCH  30  32
ENDBRANCH  29  30
ENDBRANCH  28  29
ENDBRANCH   1  28
TORSDOF 19
ENDMDL
