MODEL 1
REMARK VINA RESULT:     -13.4      0.000      0.000
REMARK SMILES C[C@H]1CC[C@H]([NH2+]Cc2c(C(=O)OCCOC(=O)c3ccc(-c4c5nc(c(-c6c(F)cc(S(=O)(=O)[O-])cc6F)c6ccc([nH]6)c(-c6c(F)cc(S(=O)(=O)[O-])cc6F)c6nc(c(-c7c(F)cc(S(=O)(=O)[O-])cc7F)c7ccc4[nH]7)C=C6)C=C5)cc3)n(Cc3ccccc3F)c3ccccc23)CC1
REMARK SMILES IDX 13 1 12 2 10 3 11 4 9 5 8 6 98 7 84 8 93 9 97 10 94 11 96 12
REMARK SMILES IDX 95 13 7 14 6 15 5 18 1 19 2 20 3 21 100 22 4 23 99 24 85 25
REMARK SMILES IDX 86 26 87 27 91 28 88 29 90 30 92 31 89 32 14 33 15 34 16 35
REMARK SMILES IDX 17 36 18 37 19 38 83 39 20 40 82 41 21 42 22 43 23 44 76 45
REMARK SMILES IDX 24 46 81 47 75 48 77 49 25 50 80 51 74 52 73 53 26 55 60 56
REMARK SMILES IDX 39 57 59 58 40 59 43 60 58 61 78 62 41 63 42 64 57 66 79 67
REMARK SMILES IDX 44 68 27 69 28 70 37 71 29 72 30 73 36 74 38 75 31 76 32 77
REMARK SMILES IDX 33 78 34 79 35 80 61 81 62 82 71 83 63 84 64 85 70 86 72 87
REMARK SMILES IDX 65 88 66 89 67 90 68 91 69 92 45 93 46 94 55 95 47 96 48 97
REMARK SMILES IDX 54 98 56 99 49 100 50 101 51 102 52 103 53 104
REMARK H PARENT 6 16 6 17 77 54 43 65
REMARK Flexibility Score: inf
ROOT
ATOM      1  C   UNL A   1      37.226  22.261  25.462  1.00  0.00     0.275 C 
ENDROOT
BRANCH   1   2
ATOM      2  O   UNL A   1      36.790  23.420  24.688  1.00  0.00    -0.457 OA
BRANCH   2   3
ATOM      3  C   UNL A   1      35.817  23.223  23.756  1.00  0.00     0.355 C 
ATOM      4  O   UNL A   1      36.069  23.123  22.575  1.00  0.00    -0.244 OA
BRANCH   3   5
ATOM      5  C   UNL A   1      34.464  23.188  24.303  1.00  0.00     0.137 A 
ATOM      6  C   UNL A   1      33.850  22.265  25.175  1.00  0.00     0.047 A 
ATOM      7  C   UNL A   1      32.513  22.758  25.425  1.00  0.00     0.009 A 
ATOM      8  N   UNL A   1      33.567  24.274  24.161  1.00  0.00    -0.330 N 
ATOM      9  C   UNL A   1      32.410  24.032  24.884  1.00  0.00     0.050 A 
ATOM     10  C   UNL A   1      31.423  22.258  26.179  1.00  0.00     0.011 A 
ATOM     11  C   UNL A   1      31.309  24.860  25.179  1.00  0.00     0.027 A 
ATOM     12  C   UNL A   1      30.297  23.054  26.410  1.00  0.00     0.001 A 
ATOM     13  C   UNL A   1      30.254  24.353  25.933  1.00  0.00     0.002 A 
BRANCH   6  14
ATOM     14  C   UNL A   1      34.321  21.004  25.888  1.00  0.00     0.300 C 
BRANCH  14  15
ATOM     15  N   UNL A   1      34.897  19.933  25.083  1.00  0.00    -0.340 N 
ATOM     16  H   UNL A   1      35.299  20.361  24.249  1.00  0.00     0.346 HD
ATOM     17  H   UNL A   1      35.559  19.471  25.706  1.00  0.00     0.346 HD
BRANCH  15  18
ATOM     18  C   UNL A   1      33.999  18.851  24.632  1.00  0.00     0.182 C 
ATOM     19  C   UNL A   1      32.584  14.702  25.437  1.00  0.00     0.007 C 
ATOM     20  C   UNL A   1      33.248  16.075  25.420  1.00  0.00    -0.014 C 
ATOM     21  C   UNL A   1      32.211  17.196  25.441  1.00  0.00     0.009 C 
ATOM     22  C   UNL A   1      34.134  16.286  24.191  1.00  0.00     0.009 C 
ATOM     23  C   UNL A   1      32.909  18.531  25.652  1.00  0.00     0.065 C 
ATOM     24  C   UNL A   1      34.873  17.628  24.258  1.00  0.00     0.065 C 
ENDBRANCH  15  18
ENDBRANCH  14  15
ENDBRANCH   6  14
BRANCH   8  25
ATOM     25  C   UNL A   1      33.898  25.628  23.684  1.00  0.00     0.161 C 
BRANCH  25  26
ATOM     26  C   UNL A   1      33.594  26.833  24.547  1.00  0.00     0.008 A 
ATOM     27  C   UNL A   1      34.028  26.910  25.882  1.00  0.00     0.008 A 
ATOM     28  C   UNL A   1      33.099  28.008  23.972  1.00  0.00     0.128 A 
ATOM     29  C   UNL A   1      33.999  28.116  26.593  1.00  0.00     0.001 A 
ATOM     30  C   UNL A   1      33.082  29.220  24.669  1.00  0.00     0.039 A 
ATOM     31  F   UNL A   1      32.701  28.016  22.693  1.00  0.00    -0.207 F 
ATOM     32  C   UNL A   1      33.543  29.277  25.982  1.00  0.00     0.003 A 
ENDBRANCH  25  26
ENDBRANCH   8  25
ENDBRANCH   3   5
ENDBRANCH   2   3
ENDBRANCH   1   2
BRANCH   1  33
ATOM     33  C   UNL A   1      38.675  21.753  25.348  1.00  0.00     0.275 C 
BRANCH  33  34
ATOM     34  O   UNL A   1      39.266  21.810  26.666  1.00  0.00    -0.458 OA
BRANCH  34  35
ATOM     35  C   UNL A   1      40.506  22.365  26.726  1.00  0.00     0.338 C 
ATOM     36  O   UNL A   1      41.448  22.086  26.001  1.00  0.00    -0.246 OA
BRANCH  35  37
ATOM     37  C   UNL A   1      40.412  23.573  27.589  1.00  0.00     0.060 A 
ATOM     38  C   UNL A   1      39.280  24.396  27.587  1.00  0.00     0.016 A 
ATOM     39  C   UNL A   1      41.600  24.027  28.169  1.00  0.00     0.016 A 
ATOM     40  C   UNL A   1      39.394  25.727  28.002  1.00  0.00     0.010 A 
ATOM     41  C   UNL A   1      41.698  25.357  28.586  1.00  0.00     0.010 A 
ATOM     42  C   UNL A   1      40.629  26.248  28.407  1.00  0.00    -0.014 A 
BRANCH  42  43
ATOM     43  C   UNL A   1      40.764  27.679  28.730  1.00  0.00     0.031 A 
ATOM     44  C   UNL A   1      41.924  28.408  28.186  1.00  0.00     0.074 A 
ATOM     45  C   UNL A   1      39.901  28.501  29.366  1.00  0.00     0.049 A 
ATOM     46  N   UNL A   1      43.093  28.502  28.719  1.00  0.00    -0.248 NA
ATOM     47  C   UNL A   1      41.777  29.095  26.895  1.00  0.00     0.031 C 
ATOM     48  C   UNL A   1      38.473  28.342  29.572  1.00  0.00     0.029 A 
ATOM     49  N   UNL A   1      40.168  29.722  29.939  1.00  0.00    -0.354 N 
ATOM     50  C   UNL A   1      43.783  29.412  27.938  1.00  0.00     0.074 A 
ATOM     51  C   UNL A   1      42.996  29.619  26.744  1.00  0.00     0.031 C 
ATOM     52  C   UNL A   1      37.968  29.452  30.161  1.00  0.00     0.029 A 
ATOM     53  C   UNL A   1      39.062  30.353  30.495  1.00  0.00     0.049 A 
ATOM     54  H   UNL A   1      41.070  30.116  29.954  1.00  0.00     0.167 HD
ATOM     55  C   UNL A   1      44.853  30.103  28.410  1.00  0.00     0.037 A 
ATOM     56  C   UNL A   1      39.050  31.513  31.201  1.00  0.00     0.037 A 
ATOM     57  C   UNL A   1      45.205  29.734  29.755  1.00  0.00     0.049 A 
ATOM     58  C   UNL A   1      40.419  31.739  31.736  1.00  0.00     0.074 A 
ATOM     59  C   UNL A   1      45.658  28.591  30.379  1.00  0.00     0.029 A 
ATOM     60  N   UNL A   1      44.726  30.556  30.748  1.00  0.00    -0.354 N 
ATOM     61  N   UNL A   1      40.986  30.995  32.645  1.00  0.00    -0.248 NA
ATOM     62  C   UNL A   1      41.303  32.704  31.091  1.00  0.00     0.031 C 
ATOM     63  C   UNL A   1      45.117  28.624  31.700  1.00  0.00     0.029 A 
ATOM     64  C   UNL A   1      44.345  29.780  31.819  1.00  0.00     0.049 A 
ATOM     65  H   UNL A   1      44.665  31.537  30.701  1.00  0.00     0.167 HD
ATOM     66  C   UNL A   1      42.343  31.118  32.412  1.00  0.00     0.074 A 
ATOM     67  C   UNL A   1      42.478  32.304  31.583  1.00  0.00     0.031 C 
ATOM     68  C   UNL A   1      43.193  30.079  32.651  1.00  0.00     0.037 A 
BRANCH  55  69
ATOM     69  C   UNL A   1      45.386  31.340  27.765  1.00  0.00     0.058 A 
ATOM     70  C   UNL A   1      46.635  31.309  27.126  1.00  0.00     0.135 A 
ATOM     71  C   UNL A   1      44.775  32.602  27.905  1.00  0.00     0.135 A 
ATOM     72  F   UNL A   1      47.302  30.151  26.995  1.00  0.00    -0.206 F 
ATOM     73  C   UNL A   1      47.238  32.464  26.633  1.00  0.00     0.059 A 
ATOM     74  C   UNL A   1      45.334  33.761  27.380  1.00  0.00     0.059 A 
ATOM     75  F   UNL A   1      43.641  32.750  28.608  1.00  0.00    -0.206 F 
ATOM     76  C   UNL A   1      46.577  33.685  26.764  1.00  0.00     0.060 A 
BRANCH  76  77
ATOM     77  S   UNL A   1      47.354  35.183  26.132  1.00  0.00     0.124 S 
ATOM     78  O   UNL A   1      48.116  35.625  27.294  1.00  0.00    -0.237 OA
ATOM     79  O   UNL A   1      48.138  34.682  25.007  1.00  0.00    -0.237 OA
ATOM     80  O   UNL A   1      46.211  36.015  25.767  1.00  0.00    -0.744 OA
ENDBRANCH  76  77
ENDBRANCH  55  69
BRANCH  56  81
ATOM     81  C   UNL A   1      37.960  32.496  31.437  1.00  0.00     0.058 A 
ATOM     82  C   UNL A   1      37.503  33.350  30.413  1.00  0.00     0.135 A 
ATOM     83  C   UNL A   1      37.164  32.442  32.594  1.00  0.00     0.135 A 
ATOM     84  F   UNL A   1      38.177  33.450  29.257  1.00  0.00    -0.206 F 
ATOM     85  C   UNL A   1      36.305  34.065  30.513  1.00  0.00     0.059 A 
ATOM     86  C   UNL A   1      35.976  33.162  32.727  1.00  0.00     0.059 A 
ATOM     87  F   UNL A   1      37.471  31.607  33.596  1.00  0.00    -0.206 F 
ATOM     88  C   UNL A   1      35.538  33.949  31.670  1.00  0.00     0.060 A 
BRANCH  88  89
ATOM     89  S   UNL A   1      33.903  34.718  31.724  1.00  0.00     0.124 S 
ATOM     90  O   UNL A   1      33.243  33.956  32.777  1.00  0.00    -0.237 OA
ATOM     91  O   UNL A   1      34.226  36.105  32.046  1.00  0.00    -0.237 OA
ATOM     92  O   UNL A   1      33.384  34.503  30.375  1.00  0.00    -0.744 OA
ENDBRANCH  88  89
ENDBRANCH  56  81
BRANCH  68  93
ATOM     93  C   UNL A   1      42.750  29.035  33.642  1.00  0.00     0.058 A 
ATOM     94  C   UNL A   1      41.973  27.912  33.310  1.00  0.00     0.135 A 
ATOM     95  C   UNL A   1      43.213  29.124  34.964  1.00  0.00     0.135 A 
ATOM     96  F   UNL A   1      41.567  27.702  32.051  1.00  0.00    -0.206 F 
ATOM     97  C   UNL A   1      41.639  26.942  34.256  1.00  0.00     0.059 A 
ATOM     98  C   UNL A   1      42.923  28.149  35.918  1.00  0.00     0.059 A 
ATOM     99  F   UNL A   1      44.000  30.148  35.334  1.00  0.00    -0.206 F 
ATOM    100  C   UNL A   1      42.123  27.065  35.558  1.00  0.00     0.060 A 
BRANCH 100 101
ATOM    101  S   UNL A   1      41.790  25.746  36.745  1.00  0.00     0.124 S 
ATOM    102  O   UNL A   1      41.621  24.586  35.876  1.00  0.00    -0.237 OA
ATOM    103  O   UNL A   1      42.996  25.746  37.572  1.00  0.00    -0.237 OA
ATOM    104  O   UNL A   1      40.581  26.201  37.427  1.00  0.00    -0.744 OA
ENDBRANCH 100 101
ENDBRANCH  68  93
ENDBRANCH  42  43
ENDBRANCH  35  37
ENDBRANCH  34  35
ENDBRANCH  33  34
ENDBRANCH   1  33
TORSDOF 19
ENDMDL
MODEL 2
REMARK VINA RESULT:     -13.0      2.978      9.063
REMARK SMILES C[C@H]1CC[C@H]([NH2+]Cc2c(C(=O)OCCOC(=O)c3ccc(-c4c5nc(c(-c6c(F)cc(S(=O)(=O)[O-])cc6F)c6ccc([nH]6)c(-c6c(F)cc(S(=O)(=O)[O-])cc6F)c6nc(c(-c7c(F)cc(S(=O)(=O)[O-])cc7F)c7ccc4[nH]7)C=C6)C=C5)cc3)n(Cc3ccccc3F)c3ccccc23)CC1
REMARK SMILES IDX 13 1 12 2 10 3 11 4 9 5 8 6 98 7 84 8 93 9 97 10 94 11 96 12
REMARK SMILES IDX 95 13 7 14 6 15 5 18 1 19 2 20 3 21 100 22 4 23 99 24 85 25
REMARK SMILES IDX 86 26 87 27 91 28 88 29 90 30 92 31 89 32 14 33 15 34 16 35
REMARK SMILES IDX 17 36 18 37 19 38 83 39 20 40 82 41 21 42 22 43 23 44 76 45
REMARK SMILES IDX 24 46 81 47 75 48 77 49 25 50 80 51 74 52 73 53 26 55 60 56
REMARK SMILES IDX 39 57 59 58 40 59 43 60 58 61 78 62 41 63 42 64 57 66 79 67
REMARK SMILES IDX 44 68 27 69 28 70 37 71 29 72 30 73 36 74 38 75 31 76 32 77
REMARK SMILES IDX 33 78 34 79 35 80 61 81 62 82 71 83 63 84 64 85 70 86 72 87
REMARK SMILES IDX 65 88 66 89 67 90 68 91 69 92 45 93 46 94 55 95 47 96 48 97
REMARK SMILES IDX 54 98 56 99 49 100 50 101 51 102 52 103 53 104
REMARK H PARENT 6 16 6 17 77 54 43 65
REMARK Flexibility Score: inf
ROOT
ATOM      1  C   UNL A   1      33.197  30.179  27.012  1.00  0.00     0.275 C 
ENDROOT
BRANCH   1   2
ATOM      2  O   UNL A   1      33.289  29.248  25.892  1.00  0.00    -0.457 OA
BRANCH   2   3
ATOM      3  C   UNL A   1      32.438  28.185  25.887  1.00  0.00     0.355 C 
ATOM      4  O   UNL A   1      31.556  28.064  26.709  1.00  0.00    -0.244 OA
BRANCH   3   5
ATOM      5  C   UNL A   1      32.713  27.204  24.841  1.00  0.00     0.137 A 
ATOM      6  C   UNL A   1      33.109  25.854  24.931  1.00  0.00     0.047 A 
ATOM      7  C   UNL A   1      33.181  25.352  23.576  1.00  0.00     0.009 A 
ATOM      8  N   UNL A   1      32.415  27.452  23.480  1.00  0.00    -0.330 N 
ATOM      9  C   UNL A   1      32.649  26.313  22.726  1.00  0.00     0.050 A 
ATOM     10  C   UNL A   1      33.551  24.100  23.026  1.00  0.00     0.011 A 
ATOM     11  C   UNL A   1      32.362  26.014  21.381  1.00  0.00     0.027 A 
ATOM     12  C   UNL A   1      33.333  23.829  21.671  1.00  0.00     0.001 A 
ATOM     13  C   UNL A   1      32.721  24.771  20.864  1.00  0.00     0.002 A 
BRANCH   6  14
ATOM     14  C   UNL A   1      33.378  24.901  26.090  1.00  0.00     0.300 C 
BRANCH  14  15
ATOM     15  N   UNL A   1      34.725  24.362  26.238  1.00  0.00    -0.340 N 
ATOM     16  H   UNL A   1      35.257  24.643  25.415  1.00  0.00     0.346 HD
ATOM     17  H   UNL A   1      35.055  24.739  27.127  1.00  0.00     0.346 HD
BRANCH  15  18
ATOM     18  C   UNL A   1      34.871  22.901  26.380  1.00  0.00     0.182 C 
ATOM     19  C   UNL A   1      34.060  18.947  24.490  1.00  0.00     0.007 C 
ATOM     20  C   UNL A   1      34.196  20.416  24.876  1.00  0.00    -0.014 C 
ATOM     21  C   UNL A   1      35.652  20.786  25.150  1.00  0.00     0.009 C 
ATOM     22  C   UNL A   1      33.384  20.776  26.121  1.00  0.00     0.009 C 
ATOM     23  C   UNL A   1      35.772  22.295  25.305  1.00  0.00     0.065 C 
ATOM     24  C   UNL A   1      33.453  22.279  26.418  1.00  0.00     0.065 C 
ENDBRANCH  15  18
ENDBRANCH  14  15
ENDBRANCH   6  14
BRANCH   8  25
ATOM     25  C   UNL A   1      31.607  28.563  22.948  1.00  0.00     0.161 C 
BRANCH  25  26
ATOM     26  C   UNL A   1      30.103  28.432  22.853  1.00  0.00     0.008 A 
ATOM     27  C   UNL A   1      29.412  27.398  23.509  1.00  0.00     0.008 A 
ATOM     28  C   UNL A   1      29.333  29.476  22.327  1.00  0.00     0.128 A 
ATOM     29  C   UNL A   1      28.020  27.428  23.660  1.00  0.00     0.001 A 
ATOM     30  C   UNL A   1      27.945  29.522  22.488  1.00  0.00     0.039 A 
ATOM     31  F   UNL A   1      29.928  30.511  21.721  1.00  0.00    -0.207 F 
ATOM     32  C   UNL A   1      27.286  28.499  23.165  1.00  0.00     0.003 A 
ENDBRANCH  25  26
ENDBRANCH   8  25
ENDBRANCH   3   5
ENDBRANCH   2   3
ENDBRANCH   1   2
BRANCH   1  33
ATOM     33  C   UNL A   1      34.315  31.208  27.260  1.00  0.00     0.275 C 
BRANCH  33  34
ATOM     34  O   UNL A   1      34.470  31.355  28.690  1.00  0.00    -0.458 OA
BRANCH  34  35
ATOM     35  C   UNL A   1      35.262  32.385  29.088  1.00  0.00     0.338 C 
ATOM     36  O   UNL A   1      34.912  33.548  29.211  1.00  0.00    -0.246 OA
BRANCH  35  37
ATOM     37  C   UNL A   1      36.508  31.797  29.651  1.00  0.00     0.060 A 
ATOM     38  C   UNL A   1      37.769  32.088  29.118  1.00  0.00     0.016 A 
ATOM     39  C   UNL A   1      36.355  30.717  30.525  1.00  0.00     0.016 A 
ATOM     40  C   UNL A   1      38.826  31.194  29.320  1.00  0.00     0.010 A 
ATOM     41  C   UNL A   1      37.421  29.836  30.723  1.00  0.00     0.010 A 
ATOM     42  C   UNL A   1      38.634  30.008  30.038  1.00  0.00    -0.014 A 
BRANCH  42  43
ATOM     43  C   UNL A   1      39.719  29.019  30.146  1.00  0.00     0.031 A 
ATOM     44  C   UNL A   1      40.322  28.788  31.472  1.00  0.00     0.074 A 
ATOM     45  C   UNL A   1      40.194  28.159  29.217  1.00  0.00     0.049 A 
ATOM     46  N   UNL A   1      41.295  29.446  32.000  1.00  0.00    -0.248 NA
ATOM     47  C   UNL A   1      39.769  27.720  32.316  1.00  0.00     0.031 C 
ATOM     48  C   UNL A   1      39.557  27.685  28.003  1.00  0.00     0.029 A 
ATOM     49  N   UNL A   1      41.395  27.489  29.226  1.00  0.00    -0.354 N 
ATOM     50  C   UNL A   1      41.614  28.765  33.161  1.00  0.00     0.074 A 
ATOM     51  C   UNL A   1      40.548  27.818  33.395  1.00  0.00     0.031 C 
ATOM     52  C   UNL A   1      40.334  26.745  27.413  1.00  0.00     0.029 A 
ATOM     53  C   UNL A   1      41.591  26.644  28.141  1.00  0.00     0.049 A 
ATOM     54  H   UNL A   1      42.060  27.600  29.942  1.00  0.00     0.167 HD
ATOM     55  C   UNL A   1      42.834  28.869  33.748  1.00  0.00     0.037 A 
ATOM     56  C   UNL A   1      42.713  25.936  27.846  1.00  0.00     0.037 A 
ATOM     57  C   UNL A   1      43.702  29.795  33.068  1.00  0.00     0.049 A 
ATOM     58  C   UNL A   1      43.858  26.581  28.541  1.00  0.00     0.074 A 
ATOM     59  C   UNL A   1      43.697  31.151  32.817  1.00  0.00     0.029 A 
ATOM     60  N   UNL A   1      44.601  29.240  32.188  1.00  0.00    -0.354 N 
ATOM     61  N   UNL A   1      44.324  27.764  28.249  1.00  0.00    -0.248 NA
ATOM     62  C   UNL A   1      44.392  25.995  29.765  1.00  0.00     0.031 C 
ATOM     63  C   UNL A   1      44.344  31.319  31.555  1.00  0.00     0.029 A 
ATOM     64  C   UNL A   1      44.703  30.056  31.085  1.00  0.00     0.049 A 
ATOM     65  H   UNL A   1      45.092  28.398  32.325  1.00  0.00     0.167 HD
ATOM     66  C   UNL A   1      44.889  28.225  29.422  1.00  0.00     0.074 A 
ATOM     67  C   UNL A   1      45.064  27.042  30.249  1.00  0.00     0.031 C 
ATOM     68  C   UNL A   1      44.875  29.553  29.734  1.00  0.00     0.037 A 
BRANCH  55  69
ATOM     69  C   UNL A   1      43.352  27.896  34.754  1.00  0.00     0.058 A 
ATOM     70  C   UNL A   1      43.578  28.314  36.075  1.00  0.00     0.135 A 
ATOM     71  C   UNL A   1      43.793  26.602  34.414  1.00  0.00     0.135 A 
ATOM     72  F   UNL A   1      43.229  29.551  36.465  1.00  0.00    -0.206 F 
ATOM     73  C   UNL A   1      44.190  27.487  37.014  1.00  0.00     0.059 A 
ATOM     74  C   UNL A   1      44.362  25.741  35.344  1.00  0.00     0.059 A 
ATOM     75  F   UNL A   1      43.732  26.159  33.148  1.00  0.00    -0.206 F 
ATOM     76  C   UNL A   1      44.576  26.201  36.638  1.00  0.00     0.060 A 
BRANCH  76  77
ATOM     77  S   UNL A   1      45.371  25.127  37.848  1.00  0.00     0.124 S 
ATOM     78  O   UNL A   1      45.034  23.808  37.326  1.00  0.00    -0.237 OA
ATOM     79  O   UNL A   1      46.774  25.516  37.743  1.00  0.00    -0.237 OA
ATOM     80  O   UNL A   1      44.717  25.502  39.098  1.00  0.00    -0.744 OA
ENDBRANCH  76  77
ENDBRANCH  55  69
BRANCH  56  81
ATOM     81  C   UNL A   1      42.899  24.703  27.037  1.00  0.00     0.058 A 
ATOM     82  C   UNL A   1      43.384  24.754  25.716  1.00  0.00     0.135 A 
ATOM     83  C   UNL A   1      42.855  23.427  27.628  1.00  0.00     0.135 A 
ATOM     84  F   UNL A   1      43.491  25.927  25.074  1.00  0.00    -0.206 F 
ATOM     85  C   UNL A   1      43.842  23.617  25.042  1.00  0.00     0.059 A 
ATOM     86  C   UNL A   1      43.287  22.276  26.969  1.00  0.00     0.059 A 
ATOM     87  F   UNL A   1      42.479  23.278  28.905  1.00  0.00    -0.206 F 
ATOM     88  C   UNL A   1      43.807  22.383  25.686  1.00  0.00     0.060 A 
BRANCH  88  89
ATOM     89  S   UNL A   1      44.574  20.951  24.891  1.00  0.00     0.124 S 
ATOM     90  O   UNL A   1      45.880  20.907  25.539  1.00  0.00    -0.237 OA
ATOM     91  O   UNL A   1      43.652  19.875  25.241  1.00  0.00    -0.237 OA
ATOM     92  O   UNL A   1      44.588  21.318  23.477  1.00  0.00    -0.744 OA
ENDBRANCH  88  89
ENDBRANCH  56  81
BRANCH  68  93
ATOM     93  C   UNL A   1      44.742  30.530  28.596  1.00  0.00     0.058 A 
ATOM     94  C   UNL A   1      43.524  31.093  28.177  1.00  0.00     0.135 A 
ATOM     95  C   UNL A   1      45.909  30.991  27.965  1.00  0.00     0.135 A 
ATOM     96  F   UNL A   1      42.374  30.777  28.788  1.00  0.00    -0.206 F 
ATOM     97  C   UNL A   1      43.463  32.040  27.155  1.00  0.00     0.059 A 
ATOM     98  C   UNL A   1      45.877  31.963  26.966  1.00  0.00     0.059 A 
ATOM     99  F   UNL A   1      47.110  30.528  28.351  1.00  0.00    -0.206 F 
ATOM    100  C   UNL A   1      44.646  32.474  26.558  1.00  0.00     0.060 A 
BRANCH 100 101
ATOM    101  S   UNL A   1      44.572  33.789  25.321  1.00  0.00     0.124 S 
ATOM    102  O   UNL A   1      45.934  34.311  25.348  1.00  0.00    -0.237 OA
ATOM    103  O   UNL A   1      44.195  33.068  24.107  1.00  0.00    -0.237 OA
ATOM    104  O   UNL A   1      43.545  34.688  25.843  1.00  0.00    -0.744 OA
ENDBRANCH 100 101
ENDBRANCH  68  93
ENDBRANCH  42  43
ENDBRANCH  35  37
ENDBRANCH  34  35
ENDBRANCH  33  34
ENDBRANCH   1  33
TORSDOF 19
ENDMDL
MODEL 3
REMARK VINA RESULT:     -12.9      1.417      4.341
REMARK SMILES C[C@H]1CC[C@H]([NH2+]Cc2c(C(=O)OCCOC(=O)c3ccc(-c4c5nc(c(-c6c(F)cc(S(=O)(=O)[O-])cc6F)c6ccc([nH]6)c(-c6c(F)cc(S(=O)(=O)[O-])cc6F)c6nc(c(-c7c(F)cc(S(=O)(=O)[O-])cc7F)c7ccc4[nH]7)C=C6)C=C5)cc3)n(Cc3ccccc3F)c3ccccc23)CC1
REMARK SMILES IDX 13 1 12 2 10 3 11 4 9 5 8 6 98 7 84 8 93 9 97 10 94 11 96 12
REMARK SMILES IDX 95 13 7 14 6 15 5 18 1 19 2 20 3 21 100 22 4 23 99 24 85 25
REMARK SMILES IDX 86 26 87 27 91 28 88 29 90 30 92 31 89 32 14 33 15 34 16 35
REMARK SMILES IDX 17 36 18 37 19 38 83 39 20 40 82 41 21 42 22 43 23 44 76 45
REMARK SMILES IDX 24 46 81 47 75 48 77 49 25 50 80 51 74 52 73 53 26 55 60 56
REMARK SMILES IDX 39 57 59 58 40 59 43 60 58 61 78 62 41 63 42 64 57 66 79 67
REMARK SMILES IDX 44 68 27 69 28 70 37 71 29 72 30 73 36 74 38 75 31 76 32 77
REMARK SMILES IDX 33 78 34 79 35 80 61 81 62 82 71 83 63 84 64 85 70 86 72 87
REMARK SMILES IDX 65 88 66 89 67 90 68 91 69 92 45 93 46 94 55 95 47 96 48 97
REMARK SMILES IDX 54 98 56 99 49 100 50 101 51 102 52 103 53 104
REMARK H PARENT 6 16 6 17 77 54 43 65
REMARK Flexibility Score: inf
ROOT
ATOM      1  C   UNL A   1      38.074  20.947  25.201  1.00  0.00     0.275 C 
ENDROOT
BRANCH   1   2
ATOM      2  O   UNL A   1      37.024  21.906  25.533  1.00  0.00    -0.457 OA
BRANCH   2   3
ATOM      3  C   UNL A   1      36.223  22.335  24.519  1.00  0.00     0.355 C 
ATOM      4  O   UNL A   1      36.567  22.277  23.359  1.00  0.00    -0.244 OA
BRANCH   3   5
ATOM      5  C   UNL A   1      34.952  22.901  24.961  1.00  0.00     0.137 A 
ATOM      6  C   UNL A   1      34.291  24.086  24.576  1.00  0.00     0.047 A 
ATOM      7  C   UNL A   1      33.038  24.115  25.298  1.00  0.00     0.009 A 
ATOM      8  N   UNL A   1      34.048  22.177  25.775  1.00  0.00    -0.330 N 
ATOM      9  C   UNL A   1      32.872  22.892  25.933  1.00  0.00     0.050 A 
ATOM     10  C   UNL A   1      31.977  25.052  25.358  1.00  0.00     0.011 A 
ATOM     11  C   UNL A   1      31.639  22.535  26.512  1.00  0.00     0.027 A 
ATOM     12  C   UNL A   1      30.778  24.725  25.998  1.00  0.00     0.001 A 
ATOM     13  C   UNL A   1      30.604  23.467  26.548  1.00  0.00     0.002 A 
BRANCH   6  14
ATOM     14  C   UNL A   1      34.598  25.195  23.577  1.00  0.00     0.300 C 
BRANCH  14  15
ATOM     15  N   UNL A   1      33.682  25.386  22.459  1.00  0.00    -0.340 N 
ATOM     16  H   UNL A   1      34.191  25.153  21.606  1.00  0.00     0.346 HD
ATOM     17  H   UNL A   1      32.885  24.786  22.675  1.00  0.00     0.346 HD
BRANCH  15  18
ATOM     18  C   UNL A   1      33.095  26.726  22.268  1.00  0.00     0.182 C 
ATOM     19  C   UNL A   1      30.292  29.760  23.944  1.00  0.00     0.007 C 
ATOM     20  C   UNL A   1      31.167  28.552  23.626  1.00  0.00    -0.014 C 
ATOM     21  C   UNL A   1      32.631  28.953  23.461  1.00  0.00     0.009 C 
ATOM     22  C   UNL A   1      30.737  27.832  22.347  1.00  0.00     0.009 C 
ATOM     23  C   UNL A   1      33.494  27.702  23.374  1.00  0.00     0.065 C 
ATOM     24  C   UNL A   1      31.563  26.562  22.115  1.00  0.00     0.065 C 
ENDBRANCH  15  18
ENDBRANCH  14  15
ENDBRANCH   6  14
BRANCH   8  25
ATOM     25  C   UNL A   1      34.114  20.740  26.094  1.00  0.00     0.161 C 
BRANCH  25  26
ATOM     26  C   UNL A   1      34.003  19.711  24.990  1.00  0.00     0.008 A 
ATOM     27  C   UNL A   1      35.002  18.743  24.785  1.00  0.00     0.008 A 
ATOM     28  C   UNL A   1      32.793  19.529  24.311  1.00  0.00     0.128 A 
ATOM     29  C   UNL A   1      34.784  17.629  23.964  1.00  0.00     0.001 A 
ATOM     30  C   UNL A   1      32.561  18.411  23.504  1.00  0.00     0.039 A 
ATOM     31  F   UNL A   1      31.786  20.393  24.488  1.00  0.00    -0.207 F 
ATOM     32  C   UNL A   1      33.557  17.452  23.337  1.00  0.00     0.003 A 
ENDBRANCH  25  26
ENDBRANCH   8  25
ENDBRANCH   3   5
ENDBRANCH   2   3
ENDBRANCH   1   2
BRANCH   1  33
ATOM     33  C   UNL A   1      39.317  20.816  26.101  1.00  0.00     0.275 C 
BRANCH  33  34
ATOM     34  O   UNL A   1      39.739  22.151  26.465  1.00  0.00    -0.458 OA
BRANCH  34  35
ATOM     35  C   UNL A   1      40.726  22.216  27.398  1.00  0.00     0.338 C 
ATOM     36  O   UNL A   1      41.331  21.264  27.864  1.00  0.00    -0.246 OA
BRANCH  35  37
ATOM     37  C   UNL A   1      41.151  23.639  27.496  1.00  0.00     0.060 A 
ATOM     38  C   UNL A   1      41.905  24.112  28.575  1.00  0.00     0.016 A 
ATOM     39  C   UNL A   1      40.521  24.545  26.638  1.00  0.00     0.016 A 
ATOM     40  C   UNL A   1      41.875  25.474  28.893  1.00  0.00     0.010 A 
ATOM     41  C   UNL A   1      40.505  25.903  26.963  1.00  0.00     0.010 A 
ATOM     42  C   UNL A   1      41.091  26.366  28.151  1.00  0.00    -0.014 A 
BRANCH  42  43
ATOM     43  C   UNL A   1      40.974  27.775  28.564  1.00  0.00     0.031 A 
ATOM     44  C   UNL A   1      42.057  28.702  28.186  1.00  0.00     0.074 A 
ATOM     45  C   UNL A   1      39.938  28.416  29.149  1.00  0.00     0.049 A 
ATOM     46  N   UNL A   1      43.141  28.928  28.844  1.00  0.00    -0.248 NA
ATOM     47  C   UNL A   1      41.931  29.450  26.927  1.00  0.00     0.031 C 
ATOM     48  C   UNL A   1      38.539  28.035  29.194  1.00  0.00     0.029 A 
ATOM     49  N   UNL A   1      39.960  29.619  29.813  1.00  0.00    -0.354 N 
ATOM     50  C   UNL A   1      43.755  29.983  28.192  1.00  0.00     0.074 A 
ATOM     51  C   UNL A   1      43.064  30.155  26.935  1.00  0.00     0.031 C 
ATOM     52  C   UNL A   1      37.815  29.015  29.787  1.00  0.00     0.029 A 
ATOM     53  C   UNL A   1      38.722  30.041  30.283  1.00  0.00     0.049 A 
ATOM     54  H   UNL A   1      40.785  30.139  29.945  1.00  0.00     0.167 HD
ATOM     55  C   UNL A   1      44.656  30.788  28.811  1.00  0.00     0.037 A 
ATOM     56  C   UNL A   1      38.465  31.134  31.047  1.00  0.00     0.037 A 
ATOM     57  C   UNL A   1      44.929  30.381  30.165  1.00  0.00     0.049 A 
ATOM     58  C   UNL A   1      39.725  31.521  31.735  1.00  0.00     0.074 A 
ATOM     59  C   UNL A   1      45.490  29.276  30.769  1.00  0.00     0.029 A 
ATOM     60  N   UNL A   1      44.237  31.052  31.145  1.00  0.00    -0.354 N 
ATOM     61  N   UNL A   1      40.309  30.806  32.656  1.00  0.00    -0.248 NA
ATOM     62  C   UNL A   1      40.509  32.646  31.241  1.00  0.00     0.031 C 
ATOM     63  C   UNL A   1      44.825  29.137  32.025  1.00  0.00     0.029 A 
ATOM     64  C   UNL A   1      43.878  30.156  32.126  1.00  0.00     0.049 A 
ATOM     65  H   UNL A   1      44.032  32.015  31.145  1.00  0.00     0.167 HD
ATOM     66  C   UNL A   1      41.647  31.141  32.575  1.00  0.00     0.074 A 
ATOM     67  C   UNL A   1      41.679  32.390  31.832  1.00  0.00     0.031 C 
ATOM     68  C   UNL A   1      42.619  30.224  32.845  1.00  0.00     0.037 A 
BRANCH  55  69
ATOM     69  C   UNL A   1      45.054  32.132  28.295  1.00  0.00     0.058 A 
ATOM     70  C   UNL A   1      46.376  32.356  27.882  1.00  0.00     0.135 A 
ATOM     71  C   UNL A   1      44.207  33.257  28.353  1.00  0.00     0.135 A 
ATOM     72  F   UNL A   1      47.257  31.343  27.846  1.00  0.00    -0.206 F 
ATOM     73  C   UNL A   1      46.831  33.623  27.527  1.00  0.00     0.059 A 
ATOM     74  C   UNL A   1      44.624  34.522  27.958  1.00  0.00     0.059 A 
ATOM     75  F   UNL A   1      42.964  33.164  28.851  1.00  0.00    -0.206 F 
ATOM     76  C   UNL A   1      45.945  34.700  27.567  1.00  0.00     0.060 A 
BRANCH  76  77
ATOM     77  S   UNL A   1      46.529  36.343  27.110  1.00  0.00     0.124 S 
ATOM     78  O   UNL A   1      47.973  36.176  27.219  1.00  0.00    -0.237 OA
ATOM     79  O   UNL A   1      46.004  36.500  25.757  1.00  0.00    -0.237 OA
ATOM     80  O   UNL A   1      45.910  37.201  28.117  1.00  0.00    -0.744 OA
ENDBRANCH  76  77
ENDBRANCH  55  69
BRANCH  56  81
ATOM     81  C   UNL A   1      37.220  31.928  31.219  1.00  0.00     0.058 A 
ATOM     82  C   UNL A   1      36.533  31.965  32.449  1.00  0.00     0.135 A 
ATOM     83  C   UNL A   1      36.818  32.876  30.261  1.00  0.00     0.135 A 
ATOM     84  F   UNL A   1      36.861  31.121  33.438  1.00  0.00    -0.206 F 
ATOM     85  C   UNL A   1      35.545  32.916  32.726  1.00  0.00     0.059 A 
ATOM     86  C   UNL A   1      35.821  33.820  30.506  1.00  0.00     0.059 A 
ATOM     87  F   UNL A   1      37.456  32.973  29.087  1.00  0.00    -0.206 F 
ATOM     88  C   UNL A   1      35.209  33.853  31.753  1.00  0.00     0.060 A 
BRANCH  88  89
ATOM     89  S   UNL A   1      34.075  35.196  32.175  1.00  0.00     0.124 S 
ATOM     90  O   UNL A   1      32.992  34.481  32.842  1.00  0.00    -0.237 OA
ATOM     91  O   UNL A   1      34.903  36.040  33.031  1.00  0.00    -0.237 OA
ATOM     92  O   UNL A   1      33.737  35.773  30.877  1.00  0.00    -0.744 OA
ENDBRANCH  88  89
ENDBRANCH  56  81
BRANCH  68  93
ATOM     93  C   UNL A   1      42.247  29.060  33.726  1.00  0.00     0.058 A 
ATOM     94  C   UNL A   1      41.769  27.829  33.245  1.00  0.00     0.135 A 
ATOM     95  C   UNL A   1      42.477  29.161  35.107  1.00  0.00     0.135 A 
ATOM     96  F   UNL A   1      41.609  27.617  31.932  1.00  0.00    -0.206 F 
ATOM     97  C   UNL A   1      41.495  26.761  34.100  1.00  0.00     0.059 A 
ATOM     98  C   UNL A   1      42.245  28.096  35.976  1.00  0.00     0.059 A 
ATOM     99  F   UNL A   1      42.979  30.295  35.625  1.00  0.00    -0.206 F 
ATOM    100  C   UNL A   1      41.741  26.900  35.465  1.00  0.00     0.060 A 
BRANCH 100 101
ATOM    101  S   UNL A   1      41.502  25.476  36.549  1.00  0.00     0.124 S 
ATOM    102  O   UNL A   1      42.805  25.361  37.196  1.00  0.00    -0.237 OA
ATOM    103  O   UNL A   1      40.404  25.910  37.411  1.00  0.00    -0.237 OA
ATOM    104  O   UNL A   1      41.163  24.398  35.623  1.00  0.00    -0.744 OA
ENDBRANCH 100 101
ENDBRANCH  68  93
ENDBRANCH  42  43
ENDBRANCH  35  37
ENDBRANCH  34  35
ENDBRANCH  33  34
ENDBRANCH   1  33
TORSDOF 19
ENDMDL
