MODEL 1
REMARK VINA RESULT:     -12.1      0.000      0.000
REMARK SMILES CN(C)c1nccnc1N1CCC(Oc2ccc3ccccc3c2)(C(=O)OCCOC(=O)c2ccc(-c3c4nc(c(-c5c(F)cc(S(=O)(=O)[O-])cc5F)c5ccc([nH]5)c(-c5c(F)cc(S(=O)(=O)[O-])cc5F)c5nc(c(-c6c(F)cc(S(=O)(=O)[O-])cc6F)c6ccc3[nH]6)C=C5)C=C4)cc2)CC1
REMARK SMILES IDX 29 1 28 2 27 3 25 4 26 5 13 6 10 7 11 8 100 9 12 10 99 11
REMARK SMILES IDX 9 12 4 13 5 14 6 15 8 16 7 17 2 18 1 19 3 20 14 21 15 22
REMARK SMILES IDX 16 23 24 24 17 25 23 26 18 27 22 28 19 29 21 30 20 31 30 32
REMARK SMILES IDX 31 33 32 34 33 35 34 36 98 37 35 38 97 39 36 40 37 41 38 42
REMARK SMILES IDX 91 43 39 44 96 45 90 46 92 47 40 48 95 49 89 50 88 51 41 53
REMARK SMILES IDX 75 54 54 55 74 56 55 57 58 58 73 59 93 60 56 61 57 62 72 64
REMARK SMILES IDX 94 65 59 66 42 67 43 68 52 69 44 70 45 71 51 72 53 73 46 74
REMARK SMILES IDX 47 75 48 76 49 77 50 78 76 79 77 80 86 81 78 82 79 83 85 84
REMARK SMILES IDX 87 85 80 86 81 87 82 88 83 89 84 90 60 91 61 92 70 93 62 94
REMARK SMILES IDX 63 95 69 96 71 97 64 98 65 99 66 100 67 101 68 102
REMARK H PARENT 92 52 58 63
REMARK Flexibility Score: inf
ROOT
ATOM      1  C   UNL A   1      34.526  30.855  28.102  1.00  0.00     0.275 C 
ENDROOT
BRANCH   1   2
ATOM      2  C   UNL A   1      33.464  30.137  27.275  1.00  0.00     0.274 C 
BRANCH   2   3
ATOM      3  O   UNL A   1      33.624  28.703  27.311  1.00  0.00    -0.459 OA
BRANCH   3   4
ATOM      4  C   UNL A   1      32.520  27.985  26.955  1.00  0.00     0.350 C 
ATOM      5  O   UNL A   1      31.567  27.800  27.707  1.00  0.00    -0.247 OA
BRANCH   4   6
ATOM      6  C   UNL A   1      32.627  27.336  25.559  1.00  0.00     0.209 C 
ATOM      7  N   UNL A   1      32.504  24.509  25.728  1.00  0.00    -0.353 N 
ATOM      8  C   UNL A   1      31.237  25.189  25.794  1.00  0.00     0.123 C 
ATOM      9  C   UNL A   1      33.669  25.140  26.300  1.00  0.00     0.123 C 
ATOM     10  C   UNL A   1      31.372  26.548  25.123  1.00  0.00     0.082 C 
ATOM     11  C   UNL A   1      33.900  26.452  25.558  1.00  0.00     0.082 C 
BRANCH   7  12
ATOM     12  C   UNL A   1      32.612  23.187  25.349  1.00  0.00     0.171 A 
ATOM     13  C   UNL A   1      33.175  22.781  24.097  1.00  0.00     0.171 A 
ATOM     14  N   UNL A   1      33.017  21.509  23.649  1.00  0.00    -0.234 NA
ATOM     15  C   UNL A   1      32.325  20.666  24.435  1.00  0.00     0.134 A 
ATOM     16  N   UNL A   1      31.977  22.298  26.157  1.00  0.00    -0.234 NA
ATOM     17  C   UNL A   1      31.830  21.049  25.664  1.00  0.00     0.134 A 
BRANCH  13  18
ATOM     18  N   UNL A   1      33.907  23.666  23.283  1.00  0.00    -0.360 N 
ATOM     19  C   UNL A   1      33.225  24.041  22.057  1.00  0.00     0.145 C 
ATOM     20  C   UNL A   1      35.315  23.329  23.141  1.00  0.00     0.145 C 
ENDBRANCH  13  18
ENDBRANCH   7  12
BRANCH   6  21
ATOM     21  O   UNL A   1      32.726  28.567  24.768  1.00  0.00    -0.475 OA
BRANCH  21  22
ATOM     22  C   UNL A   1      31.629  28.884  24.020  1.00  0.00     0.121 A 
ATOM     23  C   UNL A   1      31.296  28.135  22.898  1.00  0.00     0.047 A 
ATOM     24  C   UNL A   1      30.812  29.933  24.437  1.00  0.00     0.055 A 
ATOM     25  C   UNL A   1      30.205  28.507  22.115  1.00  0.00     0.012 A 
ATOM     26  C   UNL A   1      29.697  30.308  23.670  1.00  0.00    -0.015 A 
ATOM     27  C   UNL A   1      29.405  29.598  22.482  1.00  0.00    -0.018 A 
ATOM     28  C   UNL A   1      28.870  31.378  24.045  1.00  0.00     0.009 A 
ATOM     29  C   UNL A   1      28.317  29.993  21.689  1.00  0.00     0.009 A 
ATOM     30  C   UNL A   1      27.784  31.753  23.251  1.00  0.00     0.001 A 
ATOM     31  C   UNL A   1      27.512  31.065  22.072  1.00  0.00     0.001 A 
ENDBRANCH  21  22
ENDBRANCH   6  21
ENDBRANCH   4   6
ENDBRANCH   3   4
ENDBRANCH   2   3
ENDBRANCH   1   2
BRANCH   1  32
ATOM     32  O   UNL A   1      35.487  29.915  28.610  1.00  0.00    -0.458 OA
BRANCH  32  33
ATOM     33  C   UNL A   1      36.257  30.359  29.629  1.00  0.00     0.338 C 
ATOM     34  O   UNL A   1      35.873  30.841  30.682  1.00  0.00    -0.246 OA
BRANCH  33  35
ATOM     35  C   UNL A   1      37.687  30.205  29.301  1.00  0.00     0.060 A 
ATOM     36  C   UNL A   1      38.090  29.936  27.995  1.00  0.00     0.016 A 
ATOM     37  C   UNL A   1      38.623  30.188  30.335  1.00  0.00     0.016 A 
ATOM     38  C   UNL A   1      39.389  29.490  27.751  1.00  0.00     0.010 A 
ATOM     39  C   UNL A   1      39.960  29.880  30.059  1.00  0.00     0.010 A 
ATOM     40  C   UNL A   1      40.349  29.462  28.777  1.00  0.00    -0.014 A 
BRANCH  40  41
ATOM     41  C   UNL A   1      41.742  29.018  28.479  1.00  0.00     0.031 A 
ATOM     42  C   UNL A   1      42.910  29.977  28.506  1.00  0.00     0.074 A 
ATOM     43  C   UNL A   1      41.982  27.713  28.236  1.00  0.00     0.049 A 
ATOM     44  N   UNL A   1      44.194  29.714  28.506  1.00  0.00    -0.248 NA
ATOM     45  C   UNL A   1      42.611  31.412  28.581  1.00  0.00     0.031 C 
ATOM     46  C   UNL A   1      40.966  26.660  28.179  1.00  0.00     0.029 A 
ATOM     47  N   UNL A   1      43.158  27.051  27.990  1.00  0.00    -0.354 N 
ATOM     48  C   UNL A   1      44.836  30.933  28.698  1.00  0.00     0.074 A 
ATOM     49  C   UNL A   1      43.811  31.947  28.750  1.00  0.00     0.031 C 
ATOM     50  C   UNL A   1      41.561  25.487  27.925  1.00  0.00     0.029 A 
ATOM     51  C   UNL A   1      42.991  25.713  27.737  1.00  0.00     0.049 A 
ATOM     52  H   UNL A   1      44.037  27.494  27.994  1.00  0.00     0.167 HD
ATOM     53  C   UNL A   1      46.160  31.192  28.812  1.00  0.00     0.037 A 
ATOM     54  C   UNL A   1      43.877  24.776  27.349  1.00  0.00     0.037 A 
ATOM     55  C   UNL A   1      47.193  30.228  28.555  1.00  0.00     0.049 A 
ATOM     56  C   UNL A   1      45.316  25.155  27.175  1.00  0.00     0.074 A 
ATOM     57  C   UNL A   1      48.565  30.397  28.592  1.00  0.00     0.029 A 
ATOM     58  N   UNL A   1      46.961  28.932  28.124  1.00  0.00    -0.354 N 
ATOM     59  N   UNL A   1      45.911  26.283  27.478  1.00  0.00    -0.248 NA
ATOM     60  C   UNL A   1      46.202  24.146  26.581  1.00  0.00     0.031 C 
ATOM     61  C   UNL A   1      49.160  29.230  28.094  1.00  0.00     0.029 A 
ATOM     62  C   UNL A   1      48.157  28.321  27.797  1.00  0.00     0.049 A 
ATOM     63  H   UNL A   1      46.074  28.509  28.061  1.00  0.00     0.167 HD
ATOM     64  C   UNL A   1      47.242  26.121  27.115  1.00  0.00     0.074 A 
ATOM     65  C   UNL A   1      47.367  24.781  26.577  1.00  0.00     0.031 C 
ATOM     66  C   UNL A   1      48.266  27.003  27.224  1.00  0.00     0.037 A 
BRANCH  53  67
ATOM     67  C   UNL A   1      46.559  32.591  29.179  1.00  0.00     0.058 A 
ATOM     68  C   UNL A   1      46.689  32.974  30.524  1.00  0.00     0.135 A 
ATOM     69  C   UNL A   1      46.836  33.550  28.193  1.00  0.00     0.135 A 
ATOM     70  F   UNL A   1      46.425  32.096  31.504  1.00  0.00    -0.206 F 
ATOM     71  C   UNL A   1      47.074  34.262  30.879  1.00  0.00     0.059 A 
ATOM     72  C   UNL A   1      47.229  34.843  28.525  1.00  0.00     0.059 A 
ATOM     73  F   UNL A   1      46.710  33.236  26.895  1.00  0.00    -0.206 F 
ATOM     74  C   UNL A   1      47.339  35.192  29.872  1.00  0.00     0.060 A 
BRANCH  74  75
ATOM     75  S   UNL A   1      47.831  36.864  30.347  1.00  0.00     0.124 S 
ATOM     76  O   UNL A   1      49.274  36.819  30.130  1.00  0.00    -0.237 OA
ATOM     77  O   UNL A   1      47.075  37.691  29.411  1.00  0.00    -0.237 OA
ATOM     78  O   UNL A   1      47.411  36.959  31.742  1.00  0.00    -0.744 OA
ENDBRANCH  74  75
ENDBRANCH  53  67
BRANCH  54  79
ATOM     79  C   UNL A   1      43.388  23.415  27.013  1.00  0.00     0.058 A 
ATOM     80  C   UNL A   1      43.221  23.003  25.686  1.00  0.00     0.135 A 
ATOM     81  C   UNL A   1      43.131  22.480  28.031  1.00  0.00     0.135 A 
ATOM     82  F   UNL A   1      43.443  23.864  24.682  1.00  0.00    -0.206 F 
ATOM     83  C   UNL A   1      42.828  21.705  25.374  1.00  0.00     0.059 A 
ATOM     84  C   UNL A   1      42.760  21.172  27.745  1.00  0.00     0.059 A 
ATOM     85  F   UNL A   1      43.283  22.828  29.318  1.00  0.00    -0.206 F 
ATOM     86  C   UNL A   1      42.608  20.794  26.412  1.00  0.00     0.060 A 
BRANCH  86  87
ATOM     87  S   UNL A   1      42.187  19.085  26.010  1.00  0.00     0.124 S 
ATOM     88  O   UNL A   1      42.554  18.397  27.243  1.00  0.00    -0.237 OA
ATOM     89  O   UNL A   1      40.759  19.170  25.727  1.00  0.00    -0.237 OA
ATOM     90  O   UNL A   1      43.030  18.801  24.852  1.00  0.00    -0.744 OA
ENDBRANCH  86  87
ENDBRANCH  54  79
BRANCH  66  91
ATOM     91  C   UNL A   1      49.608  26.558  26.726  1.00  0.00     0.058 A 
ATOM     92  C   UNL A   1      50.460  25.783  27.527  1.00  0.00     0.135 A 
ATOM     93  C   UNL A   1      50.035  26.879  25.428  1.00  0.00     0.135 A 
ATOM     94  F   UNL A   1      50.099  25.458  28.779  1.00  0.00    -0.206 F 
ATOM     95  C   UNL A   1      51.700  25.356  27.065  1.00  0.00     0.059 A 
ATOM     96  C   UNL A   1      51.262  26.446  24.938  1.00  0.00     0.059 A 
ATOM     97  F   UNL A   1      49.251  27.611  24.620  1.00  0.00    -0.206 F 
ATOM     98  C   UNL A   1      52.094  25.695  25.770  1.00  0.00     0.060 A 
BRANCH  98  99
ATOM     99  S   UNL A   1      53.693  25.119  25.163  1.00  0.00     0.124 S 
ATOM    100  O   UNL A   1      53.579  23.679  25.360  1.00  0.00    -0.237 OA
ATOM    101  O   UNL A   1      53.689  25.571  23.774  1.00  0.00    -0.237 OA
ATOM    102  O   UNL A   1      54.647  25.801  26.032  1.00  0.00    -0.744 OA
ENDBRANCH  98  99
ENDBRANCH  66  91
ENDBRANCH  40  41
ENDBRANCH  33  35
ENDBRANCH  32  33
ENDBRANCH   1  32
TORSDOF 18
ENDMDL
MODEL 2
REMARK VINA RESULT:     -11.9      4.848      9.798
REMARK SMILES CN(C)c1nccnc1N1CCC(Oc2ccc3ccccc3c2)(C(=O)OCCOC(=O)c2ccc(-c3c4nc(c(-c5c(F)cc(S(=O)(=O)[O-])cc5F)c5ccc([nH]5)c(-c5c(F)cc(S(=O)(=O)[O-])cc5F)c5nc(c(-c6c(F)cc(S(=O)(=O)[O-])cc6F)c6ccc3[nH]6)C=C5)C=C4)cc2)CC1
REMARK SMILES IDX 29 1 28 2 27 3 25 4 26 5 13 6 10 7 11 8 100 9 12 10 99 11
REMARK SMILES IDX 9 12 4 13 5 14 6 15 8 16 7 17 2 18 1 19 3 20 14 21 15 22
REMARK SMILES IDX 16 23 24 24 17 25 23 26 18 27 22 28 19 29 21 30 20 31 30 32
REMARK SMILES IDX 31 33 32 34 33 35 34 36 98 37 35 38 97 39 36 40 37 41 38 42
REMARK SMILES IDX 91 43 39 44 96 45 90 46 92 47 40 48 95 49 89 50 88 51 41 53
REMARK SMILES IDX 75 54 54 55 74 56 55 57 58 58 73 59 93 60 56 61 57 62 72 64
REMARK SMILES IDX 94 65 59 66 42 67 43 68 52 69 44 70 45 71 51 72 53 73 46 74
REMARK SMILES IDX 47 75 48 76 49 77 50 78 76 79 77 80 86 81 78 82 79 83 85 84
REMARK SMILES IDX 87 85 80 86 81 87 82 88 83 89 84 90 60 91 61 92 70 93 62 94
REMARK SMILES IDX 63 95 69 96 71 97 64 98 65 99 66 100 67 101 68 102
REMARK H PARENT 92 52 58 63
REMARK Flexibility Score: inf
ROOT
ATOM      1  C   UNL A   1      33.995  27.742  26.537  1.00  0.00     0.275 C 
ENDROOT
BRANCH   1   2
ATOM      2  C   UNL A   1      32.644  27.451  25.891  1.00  0.00     0.274 C 
BRANCH   2   3
ATOM      3  O   UNL A   1      32.647  26.206  25.160  1.00  0.00    -0.459 OA
BRANCH   3   4
ATOM      4  C   UNL A   1      32.320  25.102  25.891  1.00  0.00     0.350 C 
ATOM      5  O   UNL A   1      31.616  25.146  26.897  1.00  0.00    -0.247 OA
BRANCH   4   6
ATOM      6  C   UNL A   1      33.005  23.809  25.401  1.00  0.00     0.209 C 
ATOM      7  N   UNL A   1      35.760  23.788  26.067  1.00  0.00    -0.353 N 
ATOM      8  C   UNL A   1      34.862  23.425  27.133  1.00  0.00     0.123 C 
ATOM      9  C   UNL A   1      35.337  24.770  25.098  1.00  0.00     0.123 C 
ATOM     10  C   UNL A   1      33.562  22.914  26.529  1.00  0.00     0.082 C 
ATOM     11  C   UNL A   1      34.103  24.224  24.389  1.00  0.00     0.082 C 
BRANCH   7  12
ATOM     12  C   UNL A   1      37.087  23.411  26.062  1.00  0.00     0.171 A 
ATOM     13  C   UNL A   1      37.543  22.180  25.490  1.00  0.00     0.171 A 
ATOM     14  N   UNL A   1      38.796  21.724  25.742  1.00  0.00    -0.234 NA
ATOM     15  C   UNL A   1      39.575  22.482  26.534  1.00  0.00     0.134 A 
ATOM     16  N   UNL A   1      37.916  24.193  26.803  1.00  0.00    -0.234 NA
ATOM     17  C   UNL A   1      39.148  23.693  27.040  1.00  0.00     0.134 A 
BRANCH  13  18
ATOM     18  N   UNL A   1      36.727  21.396  24.653  1.00  0.00    -0.360 N 
ATOM     19  C   UNL A   1      36.940  19.967  24.792  1.00  0.00     0.145 C 
ATOM     20  C   UNL A   1      36.619  21.885  23.287  1.00  0.00     0.145 C 
ENDBRANCH  13  18
ENDBRANCH   7  12
BRANCH   6  21
ATOM     21  O   UNL A   1      31.827  23.166  24.809  1.00  0.00    -0.475 OA
BRANCH  21  22
ATOM     22  C   UNL A   1      32.039  21.942  24.244  1.00  0.00     0.121 A 
ATOM     23  C   UNL A   1      31.990  21.780  22.864  1.00  0.00     0.047 A 
ATOM     24  C   UNL A   1      32.368  20.868  25.069  1.00  0.00     0.055 A 
ATOM     25  C   UNL A   1      32.153  20.513  22.309  1.00  0.00     0.012 A 
ATOM     26  C   UNL A   1      32.556  19.588  24.522  1.00  0.00    -0.015 A 
ATOM     27  C   UNL A   1      32.424  19.407  23.125  1.00  0.00    -0.018 A 
ATOM     28  C   UNL A   1      32.859  18.480  25.328  1.00  0.00     0.009 A 
ATOM     29  C   UNL A   1      32.569  18.124  22.577  1.00  0.00     0.009 A 
ATOM     30  C   UNL A   1      33.012  17.210  24.766  1.00  0.00     0.001 A 
ATOM     31  C   UNL A   1      32.860  17.032  23.394  1.00  0.00     0.001 A 
ENDBRANCH  21  22
ENDBRANCH   6  21
ENDBRANCH   4   6
ENDBRANCH   3   4
ENDBRANCH   2   3
ENDBRANCH   1   2
BRANCH   1  32
ATOM     32  O   UNL A   1      34.464  29.045  26.154  1.00  0.00    -0.458 OA
BRANCH  32  33
ATOM     33  C   UNL A   1      34.414  29.991  27.120  1.00  0.00     0.338 C 
ATOM     34  O   UNL A   1      33.501  30.770  27.337  1.00  0.00    -0.246 OA
BRANCH  33  35
ATOM     35  C   UNL A   1      35.660  29.988  27.909  1.00  0.00     0.060 A 
ATOM     36  C   UNL A   1      36.897  30.126  27.283  1.00  0.00     0.016 A 
ATOM     37  C   UNL A   1      35.600  29.702  29.273  1.00  0.00     0.016 A 
ATOM     38  C   UNL A   1      38.064  29.815  27.982  1.00  0.00     0.010 A 
ATOM     39  C   UNL A   1      36.782  29.534  30.002  1.00  0.00     0.010 A 
ATOM     40  C   UNL A   1      38.028  29.521  29.356  1.00  0.00    -0.014 A 
BRANCH  40  41
ATOM     41  C   UNL A   1      39.296  29.231  30.086  1.00  0.00     0.031 A 
ATOM     42  C   UNL A   1      40.186  28.069  29.712  1.00  0.00     0.074 A 
ATOM     43  C   UNL A   1      39.695  30.061  31.071  1.00  0.00     0.049 A 
ATOM     44  N   UNL A   1      41.419  27.822  30.082  1.00  0.00    -0.248 NA
ATOM     45  C   UNL A   1      39.650  27.074  28.777  1.00  0.00     0.031 C 
ATOM     46  C   UNL A   1      38.952  31.230  31.549  1.00  0.00     0.029 A 
ATOM     47  N   UNL A   1      40.825  30.048  31.849  1.00  0.00    -0.354 N 
ATOM     48  C   UNL A   1      41.831  26.721  29.338  1.00  0.00     0.074 A 
ATOM     49  C   UNL A   1      40.704  26.306  28.538  1.00  0.00     0.031 C 
ATOM     50  C   UNL A   1      39.648  31.824  32.528  1.00  0.00     0.029 A 
ATOM     51  C   UNL A   1      40.853  31.044  32.792  1.00  0.00     0.049 A 
ATOM     52  H   UNL A   1      41.546  29.386  31.741  1.00  0.00     0.167 HD
ATOM     53  C   UNL A   1      43.035  26.102  29.323  1.00  0.00     0.037 A 
ATOM     54  C   UNL A   1      41.723  31.281  33.792  1.00  0.00     0.037 A 
ATOM     55  C   UNL A   1      44.090  26.373  30.258  1.00  0.00     0.049 A 
ATOM     56  C   UNL A   1      42.912  30.383  33.958  1.00  0.00     0.074 A 
ATOM     57  C   UNL A   1      45.330  25.770  30.364  1.00  0.00     0.029 A 
ATOM     58  N   UNL A   1      43.990  27.271  31.308  1.00  0.00    -0.354 N 
ATOM     59  N   UNL A   1      43.336  29.426  33.169  1.00  0.00    -0.248 NA
ATOM     60  C   UNL A   1      43.727  30.576  35.165  1.00  0.00     0.031 C 
ATOM     61  C   UNL A   1      45.941  26.239  31.536  1.00  0.00     0.029 A 
ATOM     62  C   UNL A   1      45.100  27.169  32.125  1.00  0.00     0.049 A 
ATOM     63  H   UNL A   1      43.237  27.890  31.451  1.00  0.00     0.167 HD
ATOM     64  C   UNL A   1      44.468  28.903  33.779  1.00  0.00     0.074 A 
ATOM     65  C   UNL A   1      44.669  29.657  35.001  1.00  0.00     0.031 C 
ATOM     66  C   UNL A   1      45.270  27.893  33.360  1.00  0.00     0.037 A 
BRANCH  53  67
ATOM     67  C   UNL A   1      43.246  25.031  28.293  1.00  0.00     0.058 A 
ATOM     68  C   UNL A   1      43.016  23.680  28.602  1.00  0.00     0.135 A 
ATOM     69  C   UNL A   1      43.655  25.347  26.990  1.00  0.00     0.135 A 
ATOM     70  F   UNL A   1      42.633  23.325  29.838  1.00  0.00    -0.206 F 
ATOM     71  C   UNL A   1      43.191  22.678  27.653  1.00  0.00     0.059 A 
ATOM     72  C   UNL A   1      43.832  24.361  26.022  1.00  0.00     0.059 A 
ATOM     73  F   UNL A   1      43.904  26.621  26.652  1.00  0.00    -0.206 F 
ATOM     74  C   UNL A   1      43.603  23.028  26.365  1.00  0.00     0.060 A 
BRANCH  74  75
ATOM     75  S   UNL A   1      43.834  21.715  25.146  1.00  0.00     0.124 S 
ATOM     76  O   UNL A   1      43.679  22.448  23.893  1.00  0.00    -0.237 OA
ATOM     77  O   UNL A   1      45.184  21.247  25.443  1.00  0.00    -0.237 OA
ATOM     78  O   UNL A   1      42.765  20.771  25.455  1.00  0.00    -0.744 OA
ENDBRANCH  74  75
ENDBRANCH  53  67
BRANCH  54  79
ATOM     79  C   UNL A   1      41.433  32.368  34.760  1.00  0.00     0.058 A 
ATOM     80  C   UNL A   1      41.964  33.654  34.601  1.00  0.00     0.135 A 
ATOM     81  C   UNL A   1      40.565  32.144  35.842  1.00  0.00     0.135 A 
ATOM     82  F   UNL A   1      42.807  33.911  33.589  1.00  0.00    -0.206 F 
ATOM     83  C   UNL A   1      41.635  34.687  35.473  1.00  0.00     0.059 A 
ATOM     84  C   UNL A   1      40.203  33.164  36.713  1.00  0.00     0.059 A 
ATOM     85  F   UNL A   1      40.027  30.929  36.032  1.00  0.00    -0.206 F 
ATOM     86  C   UNL A   1      40.747  34.433  36.522  1.00  0.00     0.060 A 
BRANCH  86  87
ATOM     87  S   UNL A   1      40.245  35.792  37.601  1.00  0.00     0.124 S 
ATOM     88  O   UNL A   1      41.521  36.184  38.188  1.00  0.00    -0.237 OA
ATOM     89  O   UNL A   1      39.657  36.739  36.660  1.00  0.00    -0.237 OA
ATOM     90  O   UNL A   1      39.298  35.157  38.512  1.00  0.00    -0.744 OA
ENDBRANCH  86  87
ENDBRANCH  54  79
BRANCH  66  91
ATOM     91  C   UNL A   1      46.423  27.524  34.242  1.00  0.00     0.058 A 
ATOM     92  C   UNL A   1      46.310  26.498  35.194  1.00  0.00     0.135 A 
ATOM     93  C   UNL A   1      47.661  28.173  34.117  1.00  0.00     0.135 A 
ATOM     94  F   UNL A   1      45.144  25.853  35.357  1.00  0.00    -0.206 F 
ATOM     95  C   UNL A   1      47.381  26.142  36.007  1.00  0.00     0.059 A 
ATOM     96  C   UNL A   1      48.751  27.819  34.905  1.00  0.00     0.059 A 
ATOM     97  F   UNL A   1      47.822  29.154  33.215  1.00  0.00    -0.206 F 
ATOM     98  C   UNL A   1      48.597  26.811  35.856  1.00  0.00     0.060 A 
BRANCH  98  99
ATOM     99  S   UNL A   1      49.993  26.330  36.895  1.00  0.00     0.124 S 
ATOM    100  O   UNL A   1      50.818  27.532  36.851  1.00  0.00    -0.237 OA
ATOM    101  O   UNL A   1      49.354  26.046  38.177  1.00  0.00    -0.237 OA
ATOM    102  O   UNL A   1      50.539  25.165  36.205  1.00  0.00    -0.744 OA
ENDBRANCH  98  99
ENDBRANCH  66  91
ENDBRANCH  40  41
ENDBRANCH  33  35
ENDBRANCH  32  33
ENDBRANCH   1  32
TORSDOF 18
ENDMDL
MODEL 3
REMARK VINA RESULT:     -11.9      4.797      8.967
REMARK SMILES CN(C)c1nccnc1N1CCC(Oc2ccc3ccccc3c2)(C(=O)OCCOC(=O)c2ccc(-c3c4nc(c(-c5c(F)cc(S(=O)(=O)[O-])cc5F)c5ccc([nH]5)c(-c5c(F)cc(S(=O)(=O)[O-])cc5F)c5nc(c(-c6c(F)cc(S(=O)(=O)[O-])cc6F)c6ccc3[nH]6)C=C5)C=C4)cc2)CC1
REMARK SMILES IDX 29 1 28 2 27 3 25 4 26 5 13 6 10 7 11 8 100 9 12 10 99 11
REMARK SMILES IDX 9 12 4 13 5 14 6 15 8 16 7 17 2 18 1 19 3 20 14 21 15 22
REMARK SMILES IDX 16 23 24 24 17 25 23 26 18 27 22 28 19 29 21 30 20 31 30 32
REMARK SMILES IDX 31 33 32 34 33 35 34 36 98 37 35 38 97 39 36 40 37 41 38 42
REMARK SMILES IDX 91 43 39 44 96 45 90 46 92 47 40 48 95 49 89 50 88 51 41 53
REMARK SMILES IDX 75 54 54 55 74 56 55 57 58 58 73 59 93 60 56 61 57 62 72 64
REMARK SMILES IDX 94 65 59 66 42 67 43 68 52 69 44 70 45 71 51 72 53 73 46 74
REMARK SMILES IDX 47 75 48 76 49 77 50 78 76 79 77 80 86 81 78 82 79 83 85 84
REMARK SMILES IDX 87 85 80 86 81 87 82 88 83 89 84 90 60 91 61 92 70 93 62 94
REMARK SMILES IDX 63 95 69 96 71 97 64 98 65 99 66 100 67 101 68 102
REMARK H PARENT 92 52 58 63
REMARK Flexibility Score: inf
ROOT
ATOM      1  C   UNL A   1      32.397  29.917  27.149  1.00  0.00     0.275 C 
ENDROOT
BRANCH   1   2
ATOM      2  C   UNL A   1      31.967  28.531  27.623  1.00  0.00     0.274 C 
BRANCH   2   3
ATOM      3  O   UNL A   1      32.575  27.478  26.847  1.00  0.00    -0.459 OA
BRANCH   3   4
ATOM      4  C   UNL A   1      31.702  26.598  26.277  1.00  0.00     0.350 C 
ATOM      5  O   UNL A   1      30.598  26.344  26.751  1.00  0.00    -0.247 OA
BRANCH   4   6
ATOM      6  C   UNL A   1      32.274  25.869  25.042  1.00  0.00     0.209 C 
ATOM      7  N   UNL A   1      32.585  23.096  25.537  1.00  0.00    -0.353 N 
ATOM      8  C   UNL A   1      31.249  23.520  25.209  1.00  0.00     0.123 C 
ATOM      9  C   UNL A   1      33.439  23.985  26.286  1.00  0.00     0.123 C 
ATOM     10  C   UNL A   1      31.325  24.821  24.423  1.00  0.00     0.082 C 
ATOM     11  C   UNL A   1      33.633  25.252  25.461  1.00  0.00     0.082 C 
BRANCH   7  12
ATOM     12  C   UNL A   1      33.006  21.793  25.368  1.00  0.00     0.171 A 
ATOM     13  C   UNL A   1      34.318  21.455  24.904  1.00  0.00     0.171 A 
ATOM     14  N   UNL A   1      34.601  20.192  24.495  1.00  0.00    -0.234 NA
ATOM     15  C   UNL A   1      33.605  19.291  24.560  1.00  0.00     0.134 A 
ATOM     16  N   UNL A   1      32.037  20.849  25.489  1.00  0.00    -0.234 NA
ATOM     17  C   UNL A   1      32.358  19.610  25.057  1.00  0.00     0.134 A 
BRANCH  13  18
ATOM     18  N   UNL A   1      35.359  22.400  24.848  1.00  0.00    -0.360 N 
ATOM     19  C   UNL A   1      35.662  22.867  23.507  1.00  0.00     0.145 C 
ATOM     20  C   UNL A   1      36.511  22.076  25.676  1.00  0.00     0.145 C 
ENDBRANCH  13  18
ENDBRANCH   7  12
BRANCH   6  21
ATOM     21  O   UNL A   1      32.369  27.028  24.147  1.00  0.00    -0.475 OA
BRANCH  21  22
ATOM     22  C   UNL A   1      31.190  27.648  23.851  1.00  0.00     0.121 A 
ATOM     23  C   UNL A   1      30.100  26.918  23.392  1.00  0.00     0.047 A 
ATOM     24  C   UNL A   1      31.076  29.019  24.076  1.00  0.00     0.055 A 
ATOM     25  C   UNL A   1      28.923  27.575  23.042  1.00  0.00     0.012 A 
ATOM     26  C   UNL A   1      29.889  29.693  23.747  1.00  0.00    -0.015 A 
ATOM     27  C   UNL A   1      28.807  28.962  23.202  1.00  0.00    -0.018 A 
ATOM     28  C   UNL A   1      29.751  31.077  23.934  1.00  0.00     0.009 A 
ATOM     29  C   UNL A   1      27.633  29.636  22.832  1.00  0.00     0.009 A 
ATOM     30  C   UNL A   1      28.572  31.732  23.571  1.00  0.00     0.001 A 
ATOM     31  C   UNL A   1      27.518  31.013  23.015  1.00  0.00     0.001 A 
ENDBRANCH  21  22
ENDBRANCH   6  21
ENDBRANCH   4   6
ENDBRANCH   3   4
ENDBRANCH   2   3
ENDBRANCH   1   2
BRANCH   1  32
ATOM     32  O   UNL A   1      33.807  29.936  26.873  1.00  0.00    -0.458 OA
BRANCH  32  33
ATOM     33  C   UNL A   1      34.516  30.890  27.518  1.00  0.00     0.338 C 
ATOM     34  O   UNL A   1      34.238  32.074  27.612  1.00  0.00    -0.246 OA
BRANCH  33  35
ATOM     35  C   UNL A   1      35.738  30.312  28.110  1.00  0.00     0.060 A 
ATOM     36  C   UNL A   1      35.677  29.591  29.301  1.00  0.00     0.016 A 
ATOM     37  C   UNL A   1      36.976  30.616  27.544  1.00  0.00     0.016 A 
ATOM     38  C   UNL A   1      36.850  29.321  30.005  1.00  0.00     0.010 A 
ATOM     39  C   UNL A   1      38.153  30.213  28.186  1.00  0.00     0.010 A 
ATOM     40  C   UNL A   1      38.109  29.620  29.457  1.00  0.00    -0.014 A 
BRANCH  40  41
ATOM     41  C   UNL A   1      39.349  29.283  30.216  1.00  0.00     0.031 A 
ATOM     42  C   UNL A   1      40.233  28.122  29.826  1.00  0.00     0.074 A 
ATOM     43  C   UNL A   1      39.729  30.070  31.243  1.00  0.00     0.049 A 
ATOM     44  N   UNL A   1      41.450  27.841  30.226  1.00  0.00    -0.248 NA
ATOM     45  C   UNL A   1      39.713  27.170  28.839  1.00  0.00     0.031 C 
ATOM     46  C   UNL A   1      38.988  31.232  31.741  1.00  0.00     0.029 A 
ATOM     47  N   UNL A   1      40.833  30.011  32.055  1.00  0.00    -0.354 N 
ATOM     48  C   UNL A   1      41.869  26.762  29.454  1.00  0.00     0.074 A 
ATOM     49  C   UNL A   1      40.762  26.395  28.605  1.00  0.00     0.031 C 
ATOM     50  C   UNL A   1      39.661  31.779  32.763  1.00  0.00     0.029 A 
ATOM     51  C   UNL A   1      40.846  30.971  33.034  1.00  0.00     0.049 A 
ATOM     52  H   UNL A   1      41.547  29.342  31.945  1.00  0.00     0.167 HD
ATOM     53  C   UNL A   1      43.064  26.125  29.454  1.00  0.00     0.037 A 
ATOM     54  C   UNL A   1      41.687  31.157  34.069  1.00  0.00     0.037 A 
ATOM     55  C   UNL A   1      44.093  26.345  30.431  1.00  0.00     0.049 A 
ATOM     56  C   UNL A   1      42.856  30.235  34.239  1.00  0.00     0.074 A 
ATOM     57  C   UNL A   1      45.320  25.719  30.554  1.00  0.00     0.029 A 
ATOM     58  N   UNL A   1      43.972  27.205  31.510  1.00  0.00    -0.354 N 
ATOM     59  N   UNL A   1      43.291  29.301  33.428  1.00  0.00    -0.248 NA
ATOM     60  C   UNL A   1      43.635  30.370  35.478  1.00  0.00     0.031 C 
ATOM     61  C   UNL A   1      45.900  26.135  31.761  1.00  0.00     0.029 A 
ATOM     62  C   UNL A   1      45.054  27.056  32.358  1.00  0.00     0.049 A 
ATOM     63  H   UNL A   1      43.225  27.831  31.652  1.00  0.00     0.167 HD
ATOM     64  C   UNL A   1      44.395  28.738  34.054  1.00  0.00     0.074 A 
ATOM     65  C   UNL A   1      44.568  29.443  35.309  1.00  0.00     0.031 C 
ATOM     66  C   UNL A   1      45.195  27.732  33.623  1.00  0.00     0.037 A 
BRANCH  53  67
ATOM     67  C   UNL A   1      43.292  25.089  28.392  1.00  0.00     0.058 A 
ATOM     68  C   UNL A   1      43.098  23.725  28.664  1.00  0.00     0.135 A 
ATOM     69  C   UNL A   1      43.681  25.452  27.095  1.00  0.00     0.135 A 
ATOM     70  F   UNL A   1      42.736  23.326  29.894  1.00  0.00    -0.206 F 
ATOM     71  C   UNL A   1      43.290  22.755  27.686  1.00  0.00     0.059 A 
ATOM     72  C   UNL A   1      43.873  24.499  26.099  1.00  0.00     0.059 A 
ATOM     73  F   UNL A   1      43.895  26.742  26.792  1.00  0.00    -0.206 F 
ATOM     74  C   UNL A   1      43.681  23.151  26.405  1.00  0.00     0.060 A 
BRANCH  74  75
ATOM     75  S   UNL A   1      43.933  21.880  25.147  1.00  0.00     0.124 S 
ATOM     76  O   UNL A   1      42.821  20.973  25.419  1.00  0.00    -0.237 OA
ATOM     77  O   UNL A   1      43.837  22.645  23.907  1.00  0.00    -0.237 OA
ATOM     78  O   UNL A   1      45.259  21.355  25.454  1.00  0.00    -0.744 OA
ENDBRANCH  74  75
ENDBRANCH  53  67
BRANCH  54  79
ATOM     79  C   UNL A   1      41.382  32.213  35.068  1.00  0.00     0.058 A 
ATOM     80  C   UNL A   1      41.946  33.491  34.980  1.00  0.00     0.135 A 
ATOM     81  C   UNL A   1      40.467  31.967  36.106  1.00  0.00     0.135 A 
ATOM     82  F   UNL A   1      42.834  33.768  34.013  1.00  0.00    -0.206 F 
ATOM     83  C   UNL A   1      41.605  34.497  35.879  1.00  0.00     0.059 A 
ATOM     84  C   UNL A   1      40.093  32.960  37.001  1.00  0.00     0.059 A 
ATOM     85  F   UNL A   1      39.896  30.758  36.227  1.00  0.00    -0.206 F 
ATOM     86  C   UNL A   1      40.671  34.224  36.882  1.00  0.00     0.060 A 
BRANCH  86  87
ATOM     87  S   UNL A   1      40.156  35.551  37.993  1.00  0.00     0.124 S 
ATOM     88  O   UNL A   1      41.314  35.658  38.874  1.00  0.00    -0.237 OA
ATOM     89  O   UNL A   1      39.946  36.665  37.076  1.00  0.00    -0.237 OA
ATOM     90  O   UNL A   1      38.943  35.018  38.604  1.00  0.00    -0.744 OA
ENDBRANCH  86  87
ENDBRANCH  54  79
BRANCH  66  91
ATOM     91  C   UNL A   1      46.314  27.311  34.527  1.00  0.00     0.058 A 
ATOM     92  C   UNL A   1      46.153  26.260  35.442  1.00  0.00     0.135 A 
ATOM     93  C   UNL A   1      47.567  27.940  34.459  1.00  0.00     0.135 A 
ATOM     94  F   UNL A   1      44.970  25.634  35.550  1.00  0.00    -0.206 F 
ATOM     95  C   UNL A   1      47.192  25.857  36.274  1.00  0.00     0.059 A 
ATOM     96  C   UNL A   1      48.626  27.540  35.266  1.00  0.00     0.059 A 
ATOM     97  F   UNL A   1      47.774  28.945  33.593  1.00  0.00    -0.206 F 
ATOM     98  C   UNL A   1      48.424  26.505  36.181  1.00  0.00     0.060 A 
BRANCH  98  99
ATOM     99  S   UNL A   1      49.779  25.964  37.244  1.00  0.00     0.124 S 
ATOM    100  O   UNL A   1      49.933  24.572  36.836  1.00  0.00    -0.237 OA
ATOM    101  O   UNL A   1      50.865  26.861  36.858  1.00  0.00    -0.237 OA
ATOM    102  O   UNL A   1      49.253  26.172  38.590  1.00  0.00    -0.744 OA
ENDBRANCH  98  99
ENDBRANCH  66  91
ENDBRANCH  40  41
ENDBRANCH  33  35
ENDBRANCH  32  33
ENDBRANCH   1  32
TORSDOF 18
ENDMDL
