MODEL 1
REMARK VINA RESULT:      -9.9      0.000      0.000
REMARK SMILES CC(C)[C@](C)(CC(=O)NC#N)C(=O)OCCOC(=O)c1ccc(-c2c3nc(c(-c4c(F)cc(S(=O)(=O)[O-])cc4F)c4ccc([nH]4)c(-c4c(F)cc(S(=O)(=O)[O-])cc4F)c4nc(c(-c5c(F)cc(S(=O)(=O)[O-])cc5F)c5ccc2[nH]5)C=C4)C=C3)cc1
REMARK SMILES IDX 15 1 14 2 12 3 13 4 4 5 5 6 2 7 1 8 3 9 6 10 7 11 8 12 9 13
REMARK SMILES IDX 10 15 11 16 16 17 17 18 18 19 19 20 20 21 21 22 85 23 22 24
REMARK SMILES IDX 84 25 23 26 24 27 25 28 78 29 26 30 83 31 77 32 79 33 27 34
REMARK SMILES IDX 82 35 76 36 75 37 28 39 62 40 41 41 61 42 42 43 45 44 60 45
REMARK SMILES IDX 80 46 43 47 44 48 59 50 81 51 46 52 29 53 30 54 39 55 31 56
REMARK SMILES IDX 32 57 38 58 40 59 33 60 34 61 35 62 36 63 37 64 63 65 64 66
REMARK SMILES IDX 73 67 65 68 66 69 72 70 74 71 67 72 68 73 69 74 70 75 71 76
REMARK SMILES IDX 47 77 48 78 57 79 49 80 50 81 56 82 58 83 51 84 52 85 53 86
REMARK SMILES IDX 54 87 55 88
REMARK H PARENT 9 14 79 38 45 49
REMARK Flexibility Score: inf
ROOT
ATOM      1  C   UNL A   1      32.648  30.069  25.814  1.00  0.00     0.274 C 
ENDROOT
BRANCH   1   2
ATOM      2  O   UNL A   1      31.387  29.362  25.814  1.00  0.00    -0.462 OA
BRANCH   2   3
ATOM      3  C   UNL A   1      31.437  28.088  26.280  1.00  0.00     0.312 C 
ATOM      4  O   UNL A   1      31.392  27.803  27.472  1.00  0.00    -0.252 OA
BRANCH   3   5
ATOM      5  C   UNL A   1      31.720  27.038  25.191  1.00  0.00     0.076 C 
ATOM      6  C   UNL A   1      30.435  26.197  25.009  1.00  0.00     0.024 C 
BRANCH   5   7
ATOM      7  C   UNL A   1      32.810  26.015  25.746  1.00  0.00     0.000 C 
ATOM      8  C   UNL A   1      32.251  24.646  26.149  1.00  0.00     0.008 C 
ATOM      9  C   UNL A   1      34.036  25.797  24.847  1.00  0.00     0.008 C 
ENDBRANCH   5   7
BRANCH   5  10
ATOM     10  C   UNL A   1      32.107  27.648  23.812  1.00  0.00     0.119 C 
BRANCH  10  11
ATOM     11  C   UNL A   1      31.154  27.551  22.624  1.00  0.00     0.234 C 
ATOM     12  O   UNL A   1      30.207  28.333  22.522  1.00  0.00    -0.274 OA
ATOM     13  N   UNL A   1      31.410  26.686  21.605  1.00  0.00    -0.263 N 
ATOM     14  H   UNL A   1      30.679  26.645  20.947  1.00  0.00     0.182 HD
BRANCH  13  15
ATOM     15  C   UNL A   1      32.432  25.879  21.295  1.00  0.00     0.183 C 
ATOM     16  N   UNL A   1      33.307  25.170  21.026  1.00  0.00    -0.172 NA
ENDBRANCH  13  15
ENDBRANCH  10  11
ENDBRANCH   5  10
ENDBRANCH   3   5
ENDBRANCH   2   3
ENDBRANCH   1   2
BRANCH   1  17
ATOM     17  C   UNL A   1      32.945  30.748  27.150  1.00  0.00     0.275 C 
BRANCH  17  18
ATOM     18  O   UNL A   1      33.874  29.971  27.926  1.00  0.00    -0.458 OA
BRANCH  18  19
ATOM     19  C   UNL A   1      34.799  30.698  28.587  1.00  0.00     0.338 C 
ATOM     20  O   UNL A   1      34.641  31.767  29.155  1.00  0.00    -0.246 OA
BRANCH  19  21
ATOM     21  C   UNL A   1      36.101  30.030  28.631  1.00  0.00     0.060 A 
ATOM     22  C   UNL A   1      36.611  29.627  29.857  1.00  0.00     0.016 A 
ATOM     23  C   UNL A   1      36.926  30.075  27.512  1.00  0.00     0.016 A 
ATOM     24  C   UNL A   1      37.974  29.418  30.010  1.00  0.00     0.010 A 
ATOM     25  C   UNL A   1      38.267  29.709  27.635  1.00  0.00     0.010 A 
ATOM     26  C   UNL A   1      38.818  29.414  28.894  1.00  0.00    -0.014 A 
BRANCH  26  27
ATOM     27  C   UNL A   1      40.259  29.082  29.043  1.00  0.00     0.031 A 
ATOM     28  C   UNL A   1      41.243  30.135  29.481  1.00  0.00     0.074 A 
ATOM     29  C   UNL A   1      40.688  27.837  28.752  1.00  0.00     0.049 A 
ATOM     30  N   UNL A   1      42.550  30.114  29.437  1.00  0.00    -0.248 NA
ATOM     31  C   UNL A   1      40.684  31.388  30.016  1.00  0.00     0.031 C 
ATOM     32  C   UNL A   1      39.833  26.711  28.361  1.00  0.00     0.029 A 
ATOM     33  N   UNL A   1      41.953  27.304  28.730  1.00  0.00    -0.354 N 
ATOM     34  C   UNL A   1      42.968  31.365  29.878  1.00  0.00     0.074 A 
ATOM     35  C   UNL A   1      41.774  32.126  30.177  1.00  0.00     0.031 C 
ATOM     36  C   UNL A   1      40.588  25.620  28.176  1.00  0.00     0.029 A 
ATOM     37  C   UNL A   1      41.987  25.994  28.314  1.00  0.00     0.049 A 
ATOM     38  H   UNL A   1      42.757  27.810  28.986  1.00  0.00     0.167 HD
ATOM     39  C   UNL A   1      44.234  31.829  30.015  1.00  0.00     0.037 A 
ATOM     40  C   UNL A   1      43.024  25.192  28.009  1.00  0.00     0.037 A 
ATOM     41  C   UNL A   1      45.409  31.034  29.753  1.00  0.00     0.049 A 
ATOM     42  C   UNL A   1      44.414  25.746  28.115  1.00  0.00     0.074 A 
ATOM     43  C   UNL A   1      46.738  31.394  29.882  1.00  0.00     0.029 A 
ATOM     44  N   UNL A   1      45.395  29.715  29.315  1.00  0.00    -0.354 N 
ATOM     45  N   UNL A   1      44.796  26.942  28.495  1.00  0.00    -0.248 NA
ATOM     46  C   UNL A   1      45.513  24.851  27.737  1.00  0.00     0.031 C 
ATOM     47  C   UNL A   1      47.526  30.316  29.467  1.00  0.00     0.029 A 
ATOM     48  C   UNL A   1      46.691  29.259  29.143  1.00  0.00     0.049 A 
ATOM     49  H   UNL A   1      44.583  29.185  29.150  1.00  0.00     0.167 HD
ATOM     50  C   UNL A   1      46.183  26.934  28.428  1.00  0.00     0.074 A 
ATOM     51  C   UNL A   1      46.570  25.609  27.985  1.00  0.00     0.031 C 
ATOM     52  C   UNL A   1      47.058  27.932  28.710  1.00  0.00     0.037 A 
BRANCH  39  53
ATOM     53  C   UNL A   1      44.423  33.268  30.421  1.00  0.00     0.058 A 
ATOM     54  C   UNL A   1      44.607  33.655  31.757  1.00  0.00     0.135 A 
ATOM     55  C   UNL A   1      44.463  34.276  29.442  1.00  0.00     0.135 A 
ATOM     56  F   UNL A   1      44.566  32.740  32.739  1.00  0.00    -0.206 F 
ATOM     57  C   UNL A   1      44.792  34.990  32.112  1.00  0.00     0.059 A 
ATOM     58  C   UNL A   1      44.679  35.612  29.770  1.00  0.00     0.059 A 
ATOM     59  F   UNL A   1      44.293  33.968  28.147  1.00  0.00    -0.206 F 
ATOM     60  C   UNL A   1      44.828  35.961  31.110  1.00  0.00     0.060 A 
BRANCH  60  61
ATOM     61  S   UNL A   1      45.073  37.685  31.587  1.00  0.00     0.124 S 
ATOM     62  O   UNL A   1      44.128  37.819  32.692  1.00  0.00    -0.237 OA
ATOM     63  O   UNL A   1      46.485  37.710  31.954  1.00  0.00    -0.237 OA
ATOM     64  O   UNL A   1      44.729  38.427  30.377  1.00  0.00    -0.744 OA
ENDBRANCH  60  61
ENDBRANCH  39  53
BRANCH  40  65
ATOM     65  C   UNL A   1      42.775  23.804  27.536  1.00  0.00     0.058 A 
ATOM     66  C   UNL A   1      42.644  22.746  28.445  1.00  0.00     0.135 A 
ATOM     67  C   UNL A   1      42.637  23.509  26.169  1.00  0.00     0.135 A 
ATOM     68  F   UNL A   1      42.774  22.974  29.761  1.00  0.00    -0.206 F 
ATOM     69  C   UNL A   1      42.401  21.444  28.020  1.00  0.00     0.059 A 
ATOM     70  C   UNL A   1      42.357  22.223  25.720  1.00  0.00     0.059 A 
ATOM     71  F   UNL A   1      42.735  24.488  25.254  1.00  0.00    -0.206 F 
ATOM     72  C   UNL A   1      42.253  21.194  26.654  1.00  0.00     0.060 A 
BRANCH  72  73
ATOM     73  S   UNL A   1      41.895  19.508  26.118  1.00  0.00     0.124 S 
ATOM     74  O   UNL A   1      40.462  19.582  25.859  1.00  0.00    -0.237 OA
ATOM     75  O   UNL A   1      42.751  19.371  24.944  1.00  0.00    -0.237 OA
ATOM     76  O   UNL A   1      42.287  18.699  27.268  1.00  0.00    -0.744 OA
ENDBRANCH  72  73
ENDBRANCH  40  65
BRANCH  52  77
ATOM     77  C   UNL A   1      48.522  27.612  28.595  1.00  0.00     0.058 A 
ATOM     78  C   UNL A   1      49.239  27.829  27.409  1.00  0.00     0.135 A 
ATOM     79  C   UNL A   1      49.223  27.116  29.706  1.00  0.00     0.135 A 
ATOM     80  F   UNL A   1      48.613  28.291  26.314  1.00  0.00    -0.206 F 
ATOM     81  C   UNL A   1      50.597  27.542  27.320  1.00  0.00     0.059 A 
ATOM     82  C   UNL A   1      50.588  26.854  29.650  1.00  0.00     0.059 A 
ATOM     83  F   UNL A   1      48.586  26.897  30.867  1.00  0.00    -0.206 F 
ATOM     84  C   UNL A   1      51.264  27.059  28.448  1.00  0.00     0.060 A 
BRANCH  84  85
ATOM     85  S   UNL A   1      53.033  26.726  28.329  1.00  0.00     0.124 S 
ATOM     86  O   UNL A   1      53.065  25.658  27.335  1.00  0.00    -0.237 OA
ATOM     87  O   UNL A   1      53.563  28.014  27.892  1.00  0.00    -0.237 OA
ATOM     88  O   UNL A   1      53.398  26.331  29.686  1.00  0.00    -0.744 OA
ENDBRANCH  84  85
ENDBRANCH  52  77
ENDBRANCH  26  27
ENDBRANCH  19  21
ENDBRANCH  18  19
ENDBRANCH  17  18
ENDBRANCH   1  17
TORSDOF 18
ENDMDL
MODEL 2
REMARK VINA RESULT:      -9.8      6.128     11.403
REMARK SMILES CC(C)[C@](C)(CC(=O)NC#N)C(=O)OCCOC(=O)c1ccc(-c2c3nc(c(-c4c(F)cc(S(=O)(=O)[O-])cc4F)c4ccc([nH]4)c(-c4c(F)cc(S(=O)(=O)[O-])cc4F)c4nc(c(-c5c(F)cc(S(=O)(=O)[O-])cc5F)c5ccc2[nH]5)C=C4)C=C3)cc1
REMARK SMILES IDX 15 1 14 2 12 3 13 4 4 5 5 6 2 7 1 8 3 9 6 10 7 11 8 12 9 13
REMARK SMILES IDX 10 15 11 16 16 17 17 18 18 19 19 20 20 21 21 22 85 23 22 24
REMARK SMILES IDX 84 25 23 26 24 27 25 28 78 29 26 30 83 31 77 32 79 33 27 34
REMARK SMILES IDX 82 35 76 36 75 37 28 39 62 40 41 41 61 42 42 43 45 44 60 45
REMARK SMILES IDX 80 46 43 47 44 48 59 50 81 51 46 52 29 53 30 54 39 55 31 56
REMARK SMILES IDX 32 57 38 58 40 59 33 60 34 61 35 62 36 63 37 64 63 65 64 66
REMARK SMILES IDX 73 67 65 68 66 69 72 70 74 71 67 72 68 73 69 74 70 75 71 76
REMARK SMILES IDX 47 77 48 78 57 79 49 80 50 81 56 82 58 83 51 84 52 85 53 86
REMARK SMILES IDX 54 87 55 88
REMARK H PARENT 9 14 79 38 45 49
REMARK Flexibility Score: inf
ROOT
ATOM      1  C   UNL A   1      38.201  22.285  25.451  1.00  0.00     0.274 C 
ENDROOT
BRANCH   1   2
ATOM      2  O   UNL A   1      36.948  21.565  25.488  1.00  0.00    -0.462 OA
BRANCH   2   3
ATOM      3  C   UNL A   1      36.062  21.892  24.513  1.00  0.00     0.312 C 
ATOM      4  O   UNL A   1      36.390  22.401  23.447  1.00  0.00    -0.252 OA
BRANCH   3   5
ATOM      5  C   UNL A   1      34.589  21.719  24.928  1.00  0.00     0.076 C 
ATOM      6  C   UNL A   1      33.717  22.374  23.831  1.00  0.00     0.024 C 
BRANCH   5   7
ATOM      7  C   UNL A   1      34.328  22.588  26.239  1.00  0.00     0.000 C 
ATOM      8  C   UNL A   1      33.287  23.700  26.068  1.00  0.00     0.008 C 
ATOM      9  C   UNL A   1      33.989  21.791  27.507  1.00  0.00     0.008 C 
ENDBRANCH   5   7
BRANCH   5  10
ATOM     10  C   UNL A   1      34.148  20.234  25.085  1.00  0.00     0.119 C 
BRANCH  10  11
ATOM     11  C   UNL A   1      32.709  19.816  24.796  1.00  0.00     0.234 C 
ATOM     12  O   UNL A   1      31.773  20.548  25.123  1.00  0.00    -0.274 OA
ATOM     13  N   UNL A   1      32.451  18.697  24.065  1.00  0.00    -0.263 N 
ATOM     14  H   UNL A   1      31.492  18.481  24.027  1.00  0.00     0.182 HD
BRANCH  13  15
ATOM     15  C   UNL A   1      33.207  17.826  23.387  1.00  0.00     0.183 C 
ATOM     16  N   UNL A   1      33.868  17.070  22.811  1.00  0.00    -0.172 NA
ENDBRANCH  13  15
ENDBRANCH  10  11
ENDBRANCH   5  10
ENDBRANCH   3   5
ENDBRANCH   2   3
ENDBRANCH   1   2
BRANCH   1  17
ATOM     17  C   UNL A   1      38.198  23.522  26.348  1.00  0.00     0.275 C 
BRANCH  17  18
ATOM     18  O   UNL A   1      39.453  23.659  27.038  1.00  0.00    -0.458 OA
BRANCH  18  19
ATOM     19  C   UNL A   1      40.130  24.790  26.751  1.00  0.00     0.338 C 
ATOM     20  O   UNL A   1      40.498  25.182  25.655  1.00  0.00    -0.246 OA
BRANCH  19  21
ATOM     21  C   UNL A   1      40.360  25.614  27.939  1.00  0.00     0.060 A 
ATOM     22  C   UNL A   1      39.347  25.741  28.879  1.00  0.00     0.016 A 
ATOM     23  C   UNL A   1      41.449  26.480  27.964  1.00  0.00     0.016 A 
ATOM     24  C   UNL A   1      39.335  26.823  29.748  1.00  0.00     0.010 A 
ATOM     25  C   UNL A   1      41.513  27.472  28.944  1.00  0.00     0.010 A 
ATOM     26  C   UNL A   1      40.436  27.682  29.823  1.00  0.00    -0.014 A 
BRANCH  26  27
ATOM     27  C   UNL A   1      40.469  28.775  30.831  1.00  0.00     0.031 A 
ATOM     28  C   UNL A   1      41.438  28.720  31.983  1.00  0.00     0.074 A 
ATOM     29  C   UNL A   1      39.603  29.802  30.726  1.00  0.00     0.049 A 
ATOM     30  N   UNL A   1      41.458  29.433  33.079  1.00  0.00    -0.248 NA
ATOM     31  C   UNL A   1      42.510  27.714  31.906  1.00  0.00     0.031 C 
ATOM     32  C   UNL A   1      38.644  30.000  29.632  1.00  0.00     0.029 A 
ATOM     33  N   UNL A   1      39.377  30.876  31.550  1.00  0.00    -0.354 N 
ATOM     34  C   UNL A   1      42.502  28.925  33.846  1.00  0.00     0.074 A 
ATOM     35  C   UNL A   1      43.085  27.836  33.094  1.00  0.00     0.031 C 
ATOM     36  C   UNL A   1      37.965  31.136  29.834  1.00  0.00     0.029 A 
ATOM     37  C   UNL A   1      38.349  31.685  31.125  1.00  0.00     0.049 A 
ATOM     38  H   UNL A   1      39.899  31.050  32.366  1.00  0.00     0.167 HD
ATOM     39  C   UNL A   1      42.924  29.334  35.068  1.00  0.00     0.037 A 
ATOM     40  C   UNL A   1      37.731  32.716  31.731  1.00  0.00     0.037 A 
ATOM     41  C   UNL A   1      42.353  30.453  35.777  1.00  0.00     0.049 A 
ATOM     42  C   UNL A   1      38.180  33.115  33.105  1.00  0.00     0.074 A 
ATOM     43  C   UNL A   1      42.719  30.970  37.006  1.00  0.00     0.029 A 
ATOM     44  N   UNL A   1      41.300  31.233  35.316  1.00  0.00    -0.354 N 
ATOM     45  N   UNL A   1      39.140  32.602  33.838  1.00  0.00    -0.248 NA
ATOM     46  C   UNL A   1      37.454  34.218  33.744  1.00  0.00     0.031 C 
ATOM     47  C   UNL A   1      41.851  32.022  37.316  1.00  0.00     0.029 A 
ATOM     48  C   UNL A   1      40.986  32.207  36.249  1.00  0.00     0.049 A 
ATOM     49  H   UNL A   1      40.843  31.110  34.453  1.00  0.00     0.167 HD
ATOM     50  C   UNL A   1      39.153  33.341  35.014  1.00  0.00     0.074 A 
ATOM     51  C   UNL A   1      38.113  34.342  34.886  1.00  0.00     0.031 C 
ATOM     52  C   UNL A   1      39.953  33.203  36.101  1.00  0.00     0.037 A 
BRANCH  39  53
ATOM     53  C   UNL A   1      44.022  28.550  35.739  1.00  0.00     0.058 A 
ATOM     54  C   UNL A   1      43.760  27.469  36.595  1.00  0.00     0.135 A 
ATOM     55  C   UNL A   1      45.368  28.864  35.484  1.00  0.00     0.135 A 
ATOM     56  F   UNL A   1      42.494  27.130  36.889  1.00  0.00    -0.206 F 
ATOM     57  C   UNL A   1      44.789  26.749  37.197  1.00  0.00     0.059 A 
ATOM     58  C   UNL A   1      46.413  28.137  36.048  1.00  0.00     0.059 A 
ATOM     59  F   UNL A   1      45.682  29.887  34.673  1.00  0.00    -0.206 F 
ATOM     60  C   UNL A   1      46.113  27.090  36.916  1.00  0.00     0.060 A 
BRANCH  60  61
ATOM     61  S   UNL A   1      47.435  26.143  37.702  1.00  0.00     0.124 S 
ATOM     62  O   UNL A   1      47.010  24.772  37.434  1.00  0.00    -0.237 OA
ATOM     63  O   UNL A   1      48.617  26.593  36.973  1.00  0.00    -0.237 OA
ATOM     64  O   UNL A   1      47.367  26.557  39.100  1.00  0.00    -0.744 OA
ENDBRANCH  60  61
ENDBRANCH  39  53
BRANCH  40  65
ATOM     65  C   UNL A   1      36.599  33.404  31.054  1.00  0.00     0.058 A 
ATOM     66  C   UNL A   1      36.818  34.230  29.944  1.00  0.00     0.135 A 
ATOM     67  C   UNL A   1      35.272  33.229  31.484  1.00  0.00     0.135 A 
ATOM     68  F   UNL A   1      38.067  34.434  29.498  1.00  0.00    -0.206 F 
ATOM     69  C   UNL A   1      35.770  34.872  29.293  1.00  0.00     0.059 A 
ATOM     70  C   UNL A   1      34.203  33.829  30.828  1.00  0.00     0.059 A 
ATOM     71  F   UNL A   1      35.002  32.433  32.532  1.00  0.00    -0.206 F 
ATOM     72  C   UNL A   1      34.464  34.660  29.741  1.00  0.00     0.060 A 
BRANCH  72  73
ATOM     73  S   UNL A   1      33.108  35.464  28.860  1.00  0.00     0.124 S 
ATOM     74  O   UNL A   1      32.325  36.008  29.964  1.00  0.00    -0.237 OA
ATOM     75  O   UNL A   1      33.815  36.439  28.035  1.00  0.00    -0.237 OA
ATOM     76  O   UNL A   1      32.486  34.366  28.126  1.00  0.00    -0.744 OA
ENDBRANCH  72  73
ENDBRANCH  40  65
BRANCH  52  77
ATOM     77  C   UNL A   1      39.768  34.193  37.217  1.00  0.00     0.058 A 
ATOM     78  C   UNL A   1      38.953  33.918  38.325  1.00  0.00     0.135 A 
ATOM     79  C   UNL A   1      40.451  35.419  37.191  1.00  0.00     0.135 A 
ATOM     80  F   UNL A   1      38.268  32.764  38.394  1.00  0.00    -0.206 F 
ATOM     81  C   UNL A   1      38.801  34.836  39.359  1.00  0.00     0.059 A 
ATOM     82  C   UNL A   1      40.341  36.338  38.230  1.00  0.00     0.059 A 
ATOM     83  F   UNL A   1      41.249  35.729  36.157  1.00  0.00    -0.206 F 
ATOM     84  C   UNL A   1      39.503  36.042  39.304  1.00  0.00     0.060 A 
BRANCH  84  85
ATOM     85  S   UNL A   1      39.325  37.209  40.669  1.00  0.00     0.124 S 
ATOM     86  O   UNL A   1      40.687  37.715  40.804  1.00  0.00    -0.237 OA
ATOM     87  O   UNL A   1      38.346  38.155  40.143  1.00  0.00    -0.237 OA
ATOM     88  O   UNL A   1      38.854  36.375  41.771  1.00  0.00    -0.744 OA
ENDBRANCH  84  85
ENDBRANCH  52  77
ENDBRANCH  26  27
ENDBRANCH  19  21
ENDBRANCH  18  19
ENDBRANCH  17  18
ENDBRANCH   1  17
TORSDOF 18
ENDMDL
MODEL 3
REMARK VINA RESULT:      -9.7      2.840      5.152
REMARK SMILES CC(C)[C@](C)(CC(=O)NC#N)C(=O)OCCOC(=O)c1ccc(-c2c3nc(c(-c4c(F)cc(S(=O)(=O)[O-])cc4F)c4ccc([nH]4)c(-c4c(F)cc(S(=O)(=O)[O-])cc4F)c4nc(c(-c5c(F)cc(S(=O)(=O)[O-])cc5F)c5ccc2[nH]5)C=C4)C=C3)cc1
REMARK SMILES IDX 15 1 14 2 12 3 13 4 4 5 5 6 2 7 1 8 3 9 6 10 7 11 8 12 9 13
REMARK SMILES IDX 10 15 11 16 16 17 17 18 18 19 19 20 20 21 21 22 85 23 22 24
REMARK SMILES IDX 84 25 23 26 24 27 25 28 78 29 26 30 83 31 77 32 79 33 27 34
REMARK SMILES IDX 82 35 76 36 75 37 28 39 62 40 41 41 61 42 42 43 45 44 60 45
REMARK SMILES IDX 80 46 43 47 44 48 59 50 81 51 46 52 29 53 30 54 39 55 31 56
REMARK SMILES IDX 32 57 38 58 40 59 33 60 34 61 35 62 36 63 37 64 63 65 64 66
REMARK SMILES IDX 73 67 65 68 66 69 72 70 74 71 67 72 68 73 69 74 70 75 71 76
REMARK SMILES IDX 47 77 48 78 57 79 49 80 50 81 56 82 58 83 51 84 52 85 53 86
REMARK SMILES IDX 54 87 55 88
REMARK H PARENT 9 14 79 38 45 49
REMARK Flexibility Score: inf
ROOT
ATOM      1  C   UNL A   1      34.866  32.960  28.619  1.00  0.00     0.274 C 
ENDROOT
BRANCH   1   2
ATOM      2  O   UNL A   1      34.593  33.832  29.739  1.00  0.00    -0.462 OA
BRANCH   2   3
ATOM      3  C   UNL A   1      34.832  33.298  30.963  1.00  0.00     0.312 C 
ATOM      4  O   UNL A   1      34.067  32.517  31.520  1.00  0.00    -0.252 OA
BRANCH   3   5
ATOM      5  C   UNL A   1      36.070  33.884  31.667  1.00  0.00     0.076 C 
ATOM      6  C   UNL A   1      37.171  34.066  30.596  1.00  0.00     0.024 C 
BRANCH   5   7
ATOM      7  C   UNL A   1      36.646  32.788  32.672  1.00  0.00     0.000 C 
ATOM      8  C   UNL A   1      37.245  31.552  31.990  1.00  0.00     0.008 C 
ATOM      9  C   UNL A   1      37.648  33.304  33.715  1.00  0.00     0.008 C 
ENDBRANCH   5   7
BRANCH   5  10
ATOM     10  C   UNL A   1      35.815  35.260  32.349  1.00  0.00     0.119 C 
BRANCH  10  11
ATOM     11  C   UNL A   1      34.688  35.428  33.364  1.00  0.00     0.234 C 
ATOM     12  O   UNL A   1      34.903  35.248  34.565  1.00  0.00    -0.274 OA
ATOM     13  N   UNL A   1      33.473  35.898  32.971  1.00  0.00    -0.263 N 
ATOM     14  H   UNL A   1      32.804  35.872  33.693  1.00  0.00     0.182 HD
BRANCH  13  15
ATOM     15  C   UNL A   1      32.982  36.388  31.827  1.00  0.00     0.183 C 
ATOM     16  N   UNL A   1      32.568  36.820  30.836  1.00  0.00    -0.172 NA
ENDBRANCH  13  15
ENDBRANCH  10  11
ENDBRANCH   5  10
ENDBRANCH   3   5
ENDBRANCH   2   3
ENDBRANCH   1   2
BRANCH   1  17
ATOM     17  C   UNL A   1      33.739  31.961  28.360  1.00  0.00     0.275 C 
BRANCH  17  18
ATOM     18  O   UNL A   1      34.074  31.078  27.275  1.00  0.00    -0.458 OA
BRANCH  18  19
ATOM     19  C   UNL A   1      34.509  29.859  27.658  1.00  0.00     0.338 C 
ATOM     20  O   UNL A   1      33.903  28.801  27.607  1.00  0.00    -0.246 OA
BRANCH  19  21
ATOM     21  C   UNL A   1      35.898  29.887  28.120  1.00  0.00     0.060 A 
ATOM     22  C   UNL A   1      36.900  30.231  27.225  1.00  0.00     0.016 A 
ATOM     23  C   UNL A   1      36.221  29.292  29.336  1.00  0.00     0.016 A 
ATOM     24  C   UNL A   1      38.212  29.845  27.465  1.00  0.00     0.010 A 
ATOM     25  C   UNL A   1      37.560  29.050  29.645  1.00  0.00     0.010 A 
ATOM     26  C   UNL A   1      38.570  29.286  28.696  1.00  0.00    -0.014 A 
BRANCH  26  27
ATOM     27  C   UNL A   1      39.993  28.975  28.995  1.00  0.00     0.031 A 
ATOM     28  C   UNL A   1      40.901  30.032  29.564  1.00  0.00     0.074 A 
ATOM     29  C   UNL A   1      40.475  27.745  28.722  1.00  0.00     0.049 A 
ATOM     30  N   UNL A   1      42.205  30.034  29.662  1.00  0.00    -0.248 NA
ATOM     31  C   UNL A   1      40.263  31.261  30.064  1.00  0.00     0.031 C 
ATOM     32  C   UNL A   1      39.690  26.615  28.212  1.00  0.00     0.029 A 
ATOM     33  N   UNL A   1      41.745  27.235  28.826  1.00  0.00    -0.354 N 
ATOM     34  C   UNL A   1      42.548  31.281  30.177  1.00  0.00     0.074 A 
ATOM     35  C   UNL A   1      41.314  32.013  30.361  1.00  0.00     0.031 C 
ATOM     36  C   UNL A   1      40.482  25.543  28.085  1.00  0.00     0.029 A 
ATOM     37  C   UNL A   1      41.850  25.936  28.385  1.00  0.00     0.049 A 
ATOM     38  H   UNL A   1      42.506  27.747  29.182  1.00  0.00     0.167 HD
ATOM     39  C   UNL A   1      43.782  31.762  30.463  1.00  0.00     0.037 A 
ATOM     40  C   UNL A   1      42.929  25.161  28.176  1.00  0.00     0.037 A 
ATOM     41  C   UNL A   1      44.994  30.994  30.313  1.00  0.00     0.049 A 
ATOM     42  C   UNL A   1      44.289  25.735  28.448  1.00  0.00     0.074 A 
ATOM     43  C   UNL A   1      46.294  31.373  30.596  1.00  0.00     0.029 A 
ATOM     44  N   UNL A   1      45.054  29.687  29.844  1.00  0.00    -0.354 N 
ATOM     45  N   UNL A   1      44.603  26.927  28.896  1.00  0.00    -0.248 NA
ATOM     46  C   UNL A   1      45.439  24.869  28.171  1.00  0.00     0.031 C 
ATOM     47  C   UNL A   1      47.144  30.320  30.243  1.00  0.00     0.029 A 
ATOM     48  C   UNL A   1      46.370  29.258  29.804  1.00  0.00     0.049 A 
ATOM     49  H   UNL A   1      44.275  29.147  29.578  1.00  0.00     0.167 HD
ATOM     50  C   UNL A   1      45.989  26.944  28.982  1.00  0.00     0.074 A 
ATOM     51  C   UNL A   1      46.448  25.638  28.552  1.00  0.00     0.031 C 
ATOM     52  C   UNL A   1      46.808  27.949  29.382  1.00  0.00     0.037 A 
BRANCH  39  53
ATOM     53  C   UNL A   1      43.898  33.192  30.923  1.00  0.00     0.058 A 
ATOM     54  C   UNL A   1      44.049  34.262  30.026  1.00  0.00     0.135 A 
ATOM     55  C   UNL A   1      43.812  33.501  32.292  1.00  0.00     0.135 A 
ATOM     56  F   UNL A   1      44.152  34.031  28.708  1.00  0.00    -0.206 F 
ATOM     57  C   UNL A   1      44.142  35.579  30.471  1.00  0.00     0.059 A 
ATOM     58  C   UNL A   1      43.870  34.812  32.756  1.00  0.00     0.059 A 
ATOM     59  F   UNL A   1      43.667  32.521  33.198  1.00  0.00    -0.206 F 
ATOM     60  C   UNL A   1      44.050  35.844  31.838  1.00  0.00     0.060 A 
BRANCH  60  61
ATOM     61  S   UNL A   1      44.168  37.557  32.396  1.00  0.00     0.124 S 
ATOM     62  O   UNL A   1      43.244  37.560  33.526  1.00  0.00    -0.237 OA
ATOM     63  O   UNL A   1      45.583  37.678  32.734  1.00  0.00    -0.237 OA
ATOM     64  O   UNL A   1      43.735  38.326  31.233  1.00  0.00    -0.744 OA
ENDBRANCH  60  61
ENDBRANCH  39  53
BRANCH  40  65
ATOM     65  C   UNL A   1      42.762  23.781  27.645  1.00  0.00     0.058 A 
ATOM     66  C   UNL A   1      42.589  22.693  28.510  1.00  0.00     0.135 A 
ATOM     67  C   UNL A   1      42.744  23.525  26.263  1.00  0.00     0.135 A 
ATOM     68  F   UNL A   1      42.605  22.883  29.838  1.00  0.00    -0.206 F 
ATOM     69  C   UNL A   1      42.419  21.398  28.029  1.00  0.00     0.059 A 
ATOM     70  C   UNL A   1      42.539  22.246  25.757  1.00  0.00     0.059 A 
ATOM     71  F   UNL A   1      42.886  24.534  25.388  1.00  0.00    -0.206 F 
ATOM     72  C   UNL A   1      42.391  21.186  26.649  1.00  0.00     0.060 A 
BRANCH  72  73
ATOM     73  S   UNL A   1      42.127  19.508  26.038  1.00  0.00     0.124 S 
ATOM     74  O   UNL A   1      42.529  18.711  27.190  1.00  0.00    -0.237 OA
ATOM     75  O   UNL A   1      40.701  19.516  25.731  1.00  0.00    -0.237 OA
ATOM     76  O   UNL A   1      43.010  19.431  24.878  1.00  0.00    -0.744 OA
ENDBRANCH  72  73
ENDBRANCH  40  65
BRANCH  52  77
ATOM     77  C   UNL A   1      48.282  27.657  29.421  1.00  0.00     0.058 A 
ATOM     78  C   UNL A   1      48.927  27.246  30.598  1.00  0.00     0.135 A 
ATOM     79  C   UNL A   1      49.050  27.752  28.249  1.00  0.00     0.135 A 
ATOM     80  F   UNL A   1      48.240  27.149  31.748  1.00  0.00    -0.206 F 
ATOM     81  C   UNL A   1      50.289  26.964  30.618  1.00  0.00     0.059 A 
ATOM     82  C   UNL A   1      50.406  27.443  28.239  1.00  0.00     0.059 A 
ATOM     83  F   UNL A   1      48.481  28.134  27.096  1.00  0.00    -0.206 F 
ATOM     84  C   UNL A   1      51.018  27.062  29.431  1.00  0.00     0.060 A 
BRANCH  84  85
ATOM     85  S   UNL A   1      52.777  26.658  29.464  1.00  0.00     0.124 S 
ATOM     86  O   UNL A   1      53.378  27.976  29.644  1.00  0.00    -0.237 OA
ATOM     87  O   UNL A   1      52.868  25.759  30.611  1.00  0.00    -0.237 OA
ATOM     88  O   UNL A   1      53.009  26.035  28.165  1.00  0.00    -0.744 OA
ENDBRANCH  84  85
ENDBRANCH  52  77
ENDBRANCH  26  27
ENDBRANCH  19  21
ENDBRANCH  18  19
ENDBRANCH  17  18
ENDBRANCH   1  17
TORSDOF 18
ENDMDL
