MODEL 1
REMARK VINA RESULT:     -10.8      0.000      0.000
REMARK SMILES Cc1cccc(-c2cc(C(=O)OCCOC(=O)c3ccc(-c4c5nc(c(-c6c(F)cc(S(=O)(=O)[O-])cc6F)c6ccc([nH]6)c(-c6c(F)cc(S(=O)(=O)[O-])cc6F)c6nc(c(-c7c(F)cc(S(=O)(=O)[O-])cc7F)c7ccc4[nH]7)C=C6)C=C5)cc3)ccn2)c1
REMARK SMILES IDX 14 1 13 2 12 3 10 4 11 5 9 6 7 7 8 8 86 9 85 10 84 11 6 12
REMARK SMILES IDX 1 13 2 14 3 15 87 16 4 17 5 18 15 19 16 20 17 21 18 22 19 23
REMARK SMILES IDX 83 24 20 25 82 26 21 27 22 28 23 29 76 30 24 31 81 32 75 33
REMARK SMILES IDX 77 34 25 35 80 36 74 37 73 38 26 40 60 41 39 42 59 43 40 44
REMARK SMILES IDX 43 45 58 46 78 47 41 48 42 49 57 51 79 52 44 53 27 54 28 55
REMARK SMILES IDX 37 56 29 57 30 58 36 59 38 60 31 61 32 62 33 63 34 64 35 65
REMARK SMILES IDX 61 66 62 67 71 68 63 69 64 70 70 71 72 72 65 73 66 74 67 75
REMARK SMILES IDX 68 76 69 77 45 78 46 79 55 80 47 81 48 82 54 83 56 84 49 85
REMARK SMILES IDX 50 86 51 87 52 88 53 89
REMARK H PARENT 77 39 43 50
REMARK Flexibility Score: inf
ROOT
ATOM      1  C   UNL A   1      47.281  24.830  24.903  1.00  0.00     0.275 C 
ENDROOT
BRANCH   1   2
ATOM      2  C   UNL A   1      45.776  24.615  24.897  1.00  0.00     0.275 C 
BRANCH   2   3
ATOM      3  O   UNL A   1      45.700  23.434  24.137  1.00  0.00    -0.458 OA
BRANCH   3   4
ATOM      4  C   UNL A   1      44.498  22.931  23.918  1.00  0.00     0.338 C 
ATOM      5  O   UNL A   1      44.248  22.119  23.053  1.00  0.00    -0.246 OA
BRANCH   4   6
ATOM      6  C   UNL A   1      43.617  23.369  25.093  1.00  0.00     0.063 A 
ATOM      7  C   UNL A   1      41.663  24.765  27.299  1.00  0.00     0.071 A 
ATOM      8  C   UNL A   1      42.534  24.955  25.746  1.00  0.00     0.044 A 
ATOM      9  N   UNL A   1      41.773  23.308  28.167  1.00  0.00    -0.256 NA
ATOM     10  C   UNL A   1      42.680  21.967  27.608  1.00  0.00     0.112 A 
ATOM     11  C   UNL A   1      43.594  21.908  26.152  1.00  0.00     0.036 A 
BRANCH   7  12
ATOM     12  C   UNL A   1      41.024  25.872  28.005  1.00  0.00     0.000 A 
ATOM     13  C   UNL A   1      41.744  29.387  29.310  1.00  0.00     0.044 C 
ATOM     14  C   UNL A   1      41.044  28.093  29.019  1.00  0.00    -0.050 A 
ATOM     15  C   UNL A   1      39.759  27.867  29.528  1.00  0.00     0.003 A 
ATOM     16  C   UNL A   1      41.665  27.091  28.256  1.00  0.00     0.013 A 
ATOM     17  C   UNL A   1      39.091  26.678  29.246  1.00  0.00     0.001 A 
ATOM     18  C   UNL A   1      39.717  25.697  28.481  1.00  0.00     0.010 A 
ENDBRANCH   7  12
ENDBRANCH   4   6
ENDBRANCH   3   4
ENDBRANCH   2   3
ENDBRANCH   1   2
BRANCH   1  19
ATOM     19  O   UNL A   1      47.932  25.653  26.003  1.00  0.00    -0.458 OA
BRANCH  19  20
ATOM     20  C   UNL A   1      47.612  26.321  27.163  1.00  0.00     0.338 C 
ATOM     21  O   UNL A   1      47.763  27.535  27.257  1.00  0.00    -0.246 OA
BRANCH  20  22
ATOM     22  C   UNL A   1      46.961  25.630  28.308  1.00  0.00     0.060 A 
ATOM     23  C   UNL A   1      45.236  25.048  28.260  1.00  0.00     0.016 A 
ATOM     24  C   UNL A   1      47.687  25.961  29.852  1.00  0.00     0.016 A 
ATOM     25  C   UNL A   1      44.217  24.977  30.016  1.00  0.00     0.010 A 
ATOM     26  C   UNL A   1      46.800  25.957  31.347  1.00  0.00     0.010 A 
ATOM     27  C   UNL A   1      45.098  25.521  31.487  1.00  0.00    -0.014 A 
BRANCH  27  28
ATOM     28  C   UNL A   1      44.685  25.694  32.855  1.00  0.00     0.031 A 
ATOM     29  C   UNL A   1      44.041  26.970  33.153  1.00  0.00     0.074 A 
ATOM     30  C   UNL A   1      44.399  24.582  33.570  1.00  0.00     0.049 A 
ATOM     31  N   UNL A   1      43.852  27.446  34.328  1.00  0.00    -0.248 NA
ATOM     32  C   UNL A   1      43.628  27.880  32.091  1.00  0.00     0.031 C 
ATOM     33  C   UNL A   1      43.321  24.386  34.533  1.00  0.00     0.029 A 
ATOM     34  N   UNL A   1      45.024  23.359  33.570  1.00  0.00    -0.354 N 
ATOM     35  C   UNL A   1      42.993  28.514  34.173  1.00  0.00     0.074 A 
ATOM     36  C   UNL A   1      43.117  28.885  32.793  1.00  0.00     0.031 C 
ATOM     37  C   UNL A   1      43.482  23.199  35.153  1.00  0.00     0.029 A 
ATOM     38  C   UNL A   1      44.741  22.618  34.710  1.00  0.00     0.049 A 
ATOM     39  H   UNL A   1      45.607  23.043  32.843  1.00  0.00     0.167 HD
ATOM     40  C   UNL A   1      42.098  28.795  35.165  1.00  0.00     0.037 A 
ATOM     41  C   UNL A   1      45.781  22.251  35.519  1.00  0.00     0.037 A 
ATOM     42  C   UNL A   1      42.258  27.813  36.253  1.00  0.00     0.049 A 
ATOM     43  C   UNL A   1      45.890  23.198  36.699  1.00  0.00     0.074 A 
ATOM     44  C   UNL A   1      41.534  26.690  36.623  1.00  0.00     0.029 A 
ATOM     45  N   UNL A   1      43.493  27.695  36.889  1.00  0.00    -0.354 N 
ATOM     46  N   UNL A   1      45.111  24.238  36.845  1.00  0.00    -0.248 NA
ATOM     47  C   UNL A   1      46.821  23.071  37.817  1.00  0.00     0.031 C 
ATOM     48  C   UNL A   1      42.385  25.853  37.404  1.00  0.00     0.029 A 
ATOM     49  C   UNL A   1      43.617  26.474  37.533  1.00  0.00     0.049 A 
ATOM     50  H   UNL A   1      44.189  28.392  36.881  1.00  0.00     0.167 HD
ATOM     51  C   UNL A   1      45.450  24.952  37.950  1.00  0.00     0.074 A 
ATOM     52  C   UNL A   1      46.503  24.154  38.556  1.00  0.00     0.031 C 
ATOM     53  C   UNL A   1      44.856  26.149  38.244  1.00  0.00     0.037 A 
BRANCH  40  54
ATOM     54  C   UNL A   1      40.910  29.743  35.043  1.00  0.00     0.058 A 
ATOM     55  C   UNL A   1      40.801  30.854  35.906  1.00  0.00     0.135 A 
ATOM     56  C   UNL A   1      39.849  29.646  34.111  1.00  0.00     0.135 A 
ATOM     57  F   UNL A   1      41.743  31.122  36.820  1.00  0.00    -0.206 F 
ATOM     58  C   UNL A   1      39.730  31.757  35.868  1.00  0.00     0.059 A 
ATOM     59  C   UNL A   1      38.754  30.510  34.076  1.00  0.00     0.059 A 
ATOM     60  F   UNL A   1      39.820  28.746  33.131  1.00  0.00    -0.206 F 
ATOM     61  C   UNL A   1      38.705  31.574  34.951  1.00  0.00     0.060 A 
BRANCH  61  62
ATOM     62  S   UNL A   1      37.355  32.759  34.864  1.00  0.00     0.124 S 
ATOM     63  O   UNL A   1      36.427  32.095  33.956  1.00  0.00    -0.237 OA
ATOM     64  O   UNL A   1      36.936  32.845  36.259  1.00  0.00    -0.237 OA
ATOM     65  O   UNL A   1      37.990  33.962  34.331  1.00  0.00    -0.744 OA
ENDBRANCH  61  62
ENDBRANCH  40  54
BRANCH  41  66
ATOM     66  C   UNL A   1      46.851  21.527  34.753  1.00  0.00     0.058 A 
ATOM     67  C   UNL A   1      47.980  22.299  34.416  1.00  0.00     0.135 A 
ATOM     68  C   UNL A   1      47.063  20.142  34.863  1.00  0.00     0.135 A 
ATOM     69  F   UNL A   1      47.846  23.615  34.191  1.00  0.00    -0.206 F 
ATOM     70  C   UNL A   1      49.275  21.778  34.444  1.00  0.00     0.059 A 
ATOM     71  C   UNL A   1      48.362  19.593  34.861  1.00  0.00     0.059 A 
ATOM     72  F   UNL A   1      46.031  19.324  35.129  1.00  0.00    -0.206 F 
ATOM     73  C   UNL A   1      49.474  20.440  34.761  1.00  0.00     0.060 A 
BRANCH  73  74
ATOM     74  S   UNL A   1      51.186  19.916  35.169  1.00  0.00     0.124 S 
ATOM     75  O   UNL A   1      50.967  18.579  35.707  1.00  0.00    -0.237 OA
ATOM     76  O   UNL A   1      51.874  19.978  33.882  1.00  0.00    -0.237 OA
ATOM     77  O   UNL A   1      51.661  20.895  36.134  1.00  0.00    -0.744 OA
ENDBRANCH  73  74
ENDBRANCH  41  66
BRANCH  53  78
ATOM     78  C   UNL A   1      45.363  27.125  39.274  1.00  0.00     0.058 A 
ATOM     79  C   UNL A   1      45.039  27.064  40.637  1.00  0.00     0.135 A 
ATOM     80  C   UNL A   1      46.339  28.089  38.917  1.00  0.00     0.135 A 
ATOM     81  F   UNL A   1      44.233  26.112  41.126  1.00  0.00    -0.206 F 
ATOM     82  C   UNL A   1      45.561  27.964  41.564  1.00  0.00     0.059 A 
ATOM     83  C   UNL A   1      46.939  28.934  39.838  1.00  0.00     0.059 A 
ATOM     84  F   UNL A   1      46.755  28.235  37.649  1.00  0.00    -0.206 F 
ATOM     85  C   UNL A   1      46.504  28.900  41.152  1.00  0.00     0.060 A 
BRANCH  85  86
ATOM     86  S   UNL A   1      47.157  30.079  42.340  1.00  0.00     0.124 S 
ATOM     87  O   UNL A   1      47.604  29.188  43.406  1.00  0.00    -0.237 OA
ATOM     88  O   UNL A   1      48.216  30.740  41.584  1.00  0.00    -0.237 OA
ATOM     89  O   UNL A   1      46.005  30.915  42.656  1.00  0.00    -0.744 OA
ENDBRANCH  85  86
ENDBRANCH  53  78
ENDBRANCH  27  28
ENDBRANCH  20  22
ENDBRANCH  19  20
ENDBRANCH   1  19
TORSDOF 15
ENDMDL
MODEL 2
REMARK VINA RESULT:     -10.8      5.459     10.699
REMARK SMILES Cc1cccc(-c2cc(C(=O)OCCOC(=O)c3ccc(-c4c5nc(c(-c6c(F)cc(S(=O)(=O)[O-])cc6F)c6ccc([nH]6)c(-c6c(F)cc(S(=O)(=O)[O-])cc6F)c6nc(c(-c7c(F)cc(S(=O)(=O)[O-])cc7F)c7ccc4[nH]7)C=C6)C=C5)cc3)ccn2)c1
REMARK SMILES IDX 14 1 13 2 12 3 10 4 11 5 9 6 7 7 8 8 86 9 85 10 84 11 6 12
REMARK SMILES IDX 1 13 2 14 3 15 87 16 4 17 5 18 15 19 16 20 17 21 18 22 19 23
REMARK SMILES IDX 83 24 20 25 82 26 21 27 22 28 23 29 76 30 24 31 81 32 75 33
REMARK SMILES IDX 77 34 25 35 80 36 74 37 73 38 26 40 60 41 39 42 59 43 40 44
REMARK SMILES IDX 43 45 58 46 78 47 41 48 42 49 57 51 79 52 44 53 27 54 28 55
REMARK SMILES IDX 37 56 29 57 30 58 36 59 38 60 31 61 32 62 33 63 34 64 35 65
REMARK SMILES IDX 61 66 62 67 71 68 63 69 64 70 70 71 72 72 65 73 66 74 67 75
REMARK SMILES IDX 68 76 69 77 45 78 46 79 55 80 47 81 48 82 54 83 56 84 49 85
REMARK SMILES IDX 50 86 51 87 52 88 53 89
REMARK H PARENT 77 39 43 50
REMARK Flexibility Score: inf
ROOT
ATOM      1  C   UNL A   1      38.260  21.460  25.384  1.00  0.00     0.275 C 
ENDROOT
BRANCH   1   2
ATOM      2  C   UNL A   1      36.919  22.176  25.413  1.00  0.00     0.275 C 
BRANCH   2   3
ATOM      3  O   UNL A   1      36.065  21.088  25.667  1.00  0.00    -0.458 OA
BRANCH   3   4
ATOM      4  C   UNL A   1      34.890  21.085  25.062  1.00  0.00     0.338 C 
ATOM      5  O   UNL A   1      34.244  20.084  24.837  1.00  0.00    -0.246 OA
BRANCH   4   6
ATOM      6  C   UNL A   1      34.443  22.547  24.964  1.00  0.00     0.063 A 
ATOM      7  C   UNL A   1      33.615  25.684  25.295  1.00  0.00     0.071 A 
ATOM      8  C   UNL A   1      34.158  24.190  26.119  1.00  0.00     0.044 A 
ATOM      9  N   UNL A   1      33.346  25.684  23.616  1.00  0.00    -0.256 NA
ATOM     10  C   UNL A   1      33.596  24.297  22.643  1.00  0.00     0.112 A 
ATOM     11  C   UNL A   1      34.117  22.755  23.201  1.00  0.00     0.036 A 
BRANCH   7  12
ATOM     12  C   UNL A   1      33.162  26.876  26.005  1.00  0.00     0.000 A 
ATOM     13  C   UNL A   1      34.446  30.211  27.351  1.00  0.00     0.044 C 
ATOM     14  C   UNL A   1      33.542  29.054  27.040  1.00  0.00    -0.050 A 
ATOM     15  C   UNL A   1      32.232  29.043  27.535  1.00  0.00     0.003 A 
ATOM     16  C   UNL A   1      33.996  27.969  26.274  1.00  0.00     0.013 A 
ATOM     17  C   UNL A   1      31.378  27.985  27.235  1.00  0.00     0.001 A 
ATOM     18  C   UNL A   1      31.839  26.919  26.467  1.00  0.00     0.010 A 
ENDBRANCH   7  12
ENDBRANCH   4   6
ENDBRANCH   3   4
ENDBRANCH   2   3
ENDBRANCH   1   2
BRANCH   1  19
ATOM     19  O   UNL A   1      39.307  21.753  26.446  1.00  0.00    -0.458 OA
BRANCH  19  20
ATOM     20  C   UNL A   1      40.672  21.837  26.600  1.00  0.00     0.338 C 
ATOM     21  O   UNL A   1      41.417  20.993  26.113  1.00  0.00    -0.246 OA
BRANCH  20  22
ATOM     22  C   UNL A   1      41.314  23.009  27.254  1.00  0.00     0.060 A 
ATOM     23  C   UNL A   1      41.389  24.655  26.480  1.00  0.00     0.016 A 
ATOM     24  C   UNL A   1      42.497  22.599  28.458  1.00  0.00     0.016 A 
ATOM     25  C   UNL A   1      42.958  25.853  26.961  1.00  0.00     0.010 A 
ATOM     26  C   UNL A   1      43.872  23.597  28.827  1.00  0.00     0.010 A 
ATOM     27  C   UNL A   1      44.171  25.177  28.104  1.00  0.00    -0.014 A 
BRANCH  27  28
ATOM     28  C   UNL A   1      45.428  25.681  28.592  1.00  0.00     0.031 A 
ATOM     29  C   UNL A   1      46.582  25.397  27.744  1.00  0.00     0.074 A 
ATOM     30  C   UNL A   1      45.399  26.769  29.395  1.00  0.00     0.049 A 
ATOM     31  N   UNL A   1      47.808  25.499  28.105  1.00  0.00    -0.248 NA
ATOM     32  C   UNL A   1      46.423  24.871  26.394  1.00  0.00     0.031 C 
ATOM     33  C   UNL A   1      46.317  27.904  29.403  1.00  0.00     0.029 A 
ATOM     34  N   UNL A   1      44.508  27.100  30.387  1.00  0.00    -0.354 N 
ATOM     35  C   UNL A   1      48.556  25.404  26.951  1.00  0.00     0.074 A 
ATOM     36  C   UNL A   1      47.689  24.758  26.007  1.00  0.00     0.031 C 
ATOM     37  C   UNL A   1      46.047  28.691  30.464  1.00  0.00     0.029 A 
ATOM     38  C   UNL A   1      45.018  28.045  31.266  1.00  0.00     0.049 A 
ATOM     39  H   UNL A   1      43.607  26.711  30.464  1.00  0.00     0.167 HD
ATOM     40  C   UNL A   1      49.723  26.104  26.856  1.00  0.00     0.037 A 
ATOM     41  C   UNL A   1      45.130  27.707  32.587  1.00  0.00     0.037 A 
ATOM     42  C   UNL A   1      49.930  26.868  28.100  1.00  0.00     0.049 A 
ATOM     43  C   UNL A   1      46.552  27.289  32.907  1.00  0.00     0.074 A 
ATOM     44  C   UNL A   1      49.754  28.205  28.425  1.00  0.00     0.029 A 
ATOM     45  N   UNL A   1      50.001  26.188  29.315  1.00  0.00    -0.354 N 
ATOM     46  N   UNL A   1      47.490  27.222  31.997  1.00  0.00    -0.248 NA
ATOM     47  C   UNL A   1      47.070  26.946  34.229  1.00  0.00     0.031 C 
ATOM     48  C   UNL A   1      49.621  28.301  29.841  1.00  0.00     0.029 A 
ATOM     49  C   UNL A   1      49.741  27.032  30.384  1.00  0.00     0.049 A 
ATOM     50  H   UNL A   1      50.211  25.230  29.401  1.00  0.00     0.167 HD
ATOM     51  C   UNL A   1      48.656  26.768  32.529  1.00  0.00     0.074 A 
ATOM     52  C   UNL A   1      48.355  26.651  33.947  1.00  0.00     0.031 C 
ATOM     53  C   UNL A   1      49.746  26.499  31.748  1.00  0.00     0.037 A 
BRANCH  40  54
ATOM     54  C   UNL A   1      50.517  26.333  25.574  1.00  0.00     0.058 A 
ATOM     55  C   UNL A   1      51.826  25.818  25.452  1.00  0.00     0.135 A 
ATOM     56  C   UNL A   1      50.074  27.029  24.425  1.00  0.00     0.135 A 
ATOM     57  F   UNL A   1      52.385  25.094  26.431  1.00  0.00    -0.206 F 
ATOM     58  C   UNL A   1      52.624  26.004  24.316  1.00  0.00     0.059 A 
ATOM     59  C   UNL A   1      50.861  27.259  23.296  1.00  0.00     0.059 A 
ATOM     60  F   UNL A   1      48.833  27.487  24.283  1.00  0.00    -0.206 F 
ATOM     61  C   UNL A   1      52.134  26.733  23.241  1.00  0.00     0.060 A 
BRANCH  61  62
ATOM     62  S   UNL A   1      53.134  26.931  21.759  1.00  0.00     0.124 S 
ATOM     63  O   UNL A   1      52.445  26.066  20.809  1.00  0.00    -0.237 OA
ATOM     64  O   UNL A   1      53.031  28.365  21.513  1.00  0.00    -0.237 OA
ATOM     65  O   UNL A   1      54.456  26.466  22.174  1.00  0.00    -0.744 OA
ENDBRANCH  61  62
ENDBRANCH  40  54
BRANCH  41  66
ATOM     66  C   UNL A   1      43.825  27.216  33.145  1.00  0.00     0.058 A 
ATOM     67  C   UNL A   1      43.837  25.897  33.638  1.00  0.00     0.135 A 
ATOM     68  C   UNL A   1      42.865  28.075  33.708  1.00  0.00     0.135 A 
ATOM     69  F   UNL A   1      44.651  24.985  33.085  1.00  0.00    -0.206 F 
ATOM     70  C   UNL A   1      43.134  25.522  34.785  1.00  0.00     0.059 A 
ATOM     71  C   UNL A   1      42.122  27.702  34.848  1.00  0.00     0.059 A 
ATOM     72  F   UNL A   1      42.748  29.336  33.261  1.00  0.00    -0.206 F 
ATOM     73  C   UNL A   1      42.347  26.456  35.448  1.00  0.00     0.060 A 
BRANCH  73  74
ATOM     74  S   UNL A   1      41.778  26.029  37.140  1.00  0.00     0.124 S 
ATOM     75  O   UNL A   1      41.464  24.613  36.999  1.00  0.00    -0.237 OA
ATOM     76  O   UNL A   1      42.935  26.343  37.975  1.00  0.00    -0.237 OA
ATOM     77  O   UNL A   1      40.631  26.890  37.382  1.00  0.00    -0.744 OA
ENDBRANCH  73  74
ENDBRANCH  41  66
BRANCH  53  78
ATOM     78  C   UNL A   1      50.961  25.736  32.211  1.00  0.00     0.058 A 
ATOM     79  C   UNL A   1      50.941  24.386  32.590  1.00  0.00     0.135 A 
ATOM     80  C   UNL A   1      52.243  26.335  32.138  1.00  0.00     0.135 A 
ATOM     81  F   UNL A   1      49.810  23.666  32.568  1.00  0.00    -0.206 F 
ATOM     82  C   UNL A   1      52.095  23.707  32.974  1.00  0.00     0.059 A 
ATOM     83  C   UNL A   1      53.415  25.651  32.430  1.00  0.00     0.059 A 
ATOM     84  F   UNL A   1      52.405  27.615  31.768  1.00  0.00    -0.206 F 
ATOM     85  C   UNL A   1      53.326  24.352  32.898  1.00  0.00     0.060 A 
BRANCH  85  86
ATOM     86  S   UNL A   1      54.811  23.486  33.421  1.00  0.00     0.124 S 
ATOM     87  O   UNL A   1      55.794  24.022  32.485  1.00  0.00    -0.237 OA
ATOM     88  O   UNL A   1      54.959  23.916  34.807  1.00  0.00    -0.237 OA
ATOM     89  O   UNL A   1      54.465  22.081  33.239  1.00  0.00    -0.744 OA
ENDBRANCH  85  86
ENDBRANCH  53  78
ENDBRANCH  27  28
ENDBRANCH  20  22
ENDBRANCH  19  20
ENDBRANCH   1  19
TORSDOF 15
ENDMDL
MODEL 3
REMARK VINA RESULT:     -10.7      4.988     11.381
REMARK SMILES Cc1cccc(-c2cc(C(=O)OCCOC(=O)c3ccc(-c4c5nc(c(-c6c(F)cc(S(=O)(=O)[O-])cc6F)c6ccc([nH]6)c(-c6c(F)cc(S(=O)(=O)[O-])cc6F)c6nc(c(-c7c(F)cc(S(=O)(=O)[O-])cc7F)c7ccc4[nH]7)C=C6)C=C5)cc3)ccn2)c1
REMARK SMILES IDX 14 1 13 2 12 3 10 4 11 5 9 6 7 7 8 8 86 9 85 10 84 11 6 12
REMARK SMILES IDX 1 13 2 14 3 15 87 16 4 17 5 18 15 19 16 20 17 21 18 22 19 23
REMARK SMILES IDX 83 24 20 25 82 26 21 27 22 28 23 29 76 30 24 31 81 32 75 33
REMARK SMILES IDX 77 34 25 35 80 36 74 37 73 38 26 40 60 41 39 42 59 43 40 44
REMARK SMILES IDX 43 45 58 46 78 47 41 48 42 49 57 51 79 52 44 53 27 54 28 55
REMARK SMILES IDX 37 56 29 57 30 58 36 59 38 60 31 61 32 62 33 63 34 64 35 65
REMARK SMILES IDX 61 66 62 67 71 68 63 69 64 70 70 71 72 72 65 73 66 74 67 75
REMARK SMILES IDX 68 76 69 77 45 78 46 79 55 80 47 81 48 82 54 83 56 84 49 85
REMARK SMILES IDX 50 86 51 87 52 88 53 89
REMARK H PARENT 77 39 43 50
REMARK Flexibility Score: inf
ROOT
ATOM      1  C   UNL A   1      33.069  30.033  25.876  1.00  0.00     0.275 C 
ENDROOT
BRANCH   1   2
ATOM      2  C   UNL A   1      31.675  29.432  25.946  1.00  0.00     0.275 C 
BRANCH   2   3
ATOM      3  O   UNL A   1      31.432  29.215  24.578  1.00  0.00    -0.458 OA
BRANCH   3   4
ATOM      4  C   UNL A   1      30.750  28.133  24.247  1.00  0.00     0.338 C 
ATOM      5  O   UNL A   1      29.756  28.142  23.553  1.00  0.00    -0.246 OA
BRANCH   4   6
ATOM      6  C   UNL A   1      31.594  26.931  24.683  1.00  0.00     0.063 A 
ATOM      7  C   UNL A   1      33.811  24.639  25.366  1.00  0.00     0.071 A 
ATOM      8  C   UNL A   1      33.474  26.184  24.527  1.00  0.00     0.044 A 
ATOM      9  N   UNL A   1      32.581  23.854  26.236  1.00  0.00    -0.256 NA
ATOM     10  C   UNL A   1      30.997  24.491  26.374  1.00  0.00     0.112 A 
ATOM     11  C   UNL A   1      30.436  25.954  25.663  1.00  0.00     0.036 A 
BRANCH   7  12
ATOM     12  C   UNL A   1      35.037  23.870  25.175  1.00  0.00     0.000 A 
ATOM     13  C   UNL A   1      38.620  23.601  26.467  1.00  0.00     0.044 C 
ATOM     14  C   UNL A   1      37.376  23.368  25.662  1.00  0.00    -0.050 A 
ATOM     15  C   UNL A   1      37.396  22.454  24.601  1.00  0.00     0.003 A 
ATOM     16  C   UNL A   1      36.192  24.067  25.942  1.00  0.00     0.013 A 
ATOM     17  C   UNL A   1      36.242  22.213  23.860  1.00  0.00     0.001 A 
ATOM     18  C   UNL A   1      35.072  22.908  24.155  1.00  0.00     0.010 A 
ENDBRANCH   7  12
ENDBRANCH   4   6
ENDBRANCH   3   4
ENDBRANCH   2   3
ENDBRANCH   1   2
BRANCH   1  19
ATOM     19  O   UNL A   1      33.547  30.986  26.960  1.00  0.00    -0.458 OA
BRANCH  19  20
ATOM     20  C   UNL A   1      34.697  31.357  27.620  1.00  0.00     0.338 C 
ATOM     21  O   UNL A   1      34.957  32.539  27.822  1.00  0.00    -0.246 OA
BRANCH  20  22
ATOM     22  C   UNL A   1      35.612  30.350  28.221  1.00  0.00     0.060 A 
ATOM     23  C   UNL A   1      35.542  29.874  29.977  1.00  0.00     0.016 A 
ATOM     24  C   UNL A   1      37.102  30.129  27.355  1.00  0.00     0.016 A 
ATOM     25  C   UNL A   1      37.269  29.263  30.857  1.00  0.00     0.010 A 
ATOM     26  C   UNL A   1      38.593  29.663  28.119  1.00  0.00     0.010 A 
ATOM     27  C   UNL A   1      38.745  29.263  29.829  1.00  0.00    -0.014 A 
BRANCH  27  28
ATOM     28  C   UNL A   1      40.128  28.989  30.121  1.00  0.00     0.031 A 
ATOM     29  C   UNL A   1      40.620  27.701  29.642  1.00  0.00     0.074 A 
ATOM     30  C   UNL A   1      40.959  30.045  30.269  1.00  0.00     0.049 A 
ATOM     31  N   UNL A   1      41.707  27.137  30.022  1.00  0.00    -0.248 NA
ATOM     32  C   UNL A   1      39.838  26.881  28.724  1.00  0.00     0.031 C 
ATOM     33  C   UNL A   1      42.335  30.178  29.801  1.00  0.00     0.029 A 
ATOM     34  N   UNL A   1      40.732  31.258  30.874  1.00  0.00    -0.354 N 
ATOM     35  C   UNL A   1      41.923  26.095  29.146  1.00  0.00     0.074 A 
ATOM     36  C   UNL A   1      40.636  25.830  28.569  1.00  0.00     0.031 C 
ATOM     37  C   UNL A   1      42.871  31.312  30.298  1.00  0.00     0.029 A 
ATOM     38  C   UNL A   1      41.909  31.912  31.212  1.00  0.00     0.049 A 
ATOM     39  H   UNL A   1      39.835  31.623  31.047  1.00  0.00     0.167 HD
ATOM     40  C   UNL A   1      43.204  25.748  28.829  1.00  0.00     0.037 A 
ATOM     41  C   UNL A   1      42.134  32.203  32.530  1.00  0.00     0.037 A 
ATOM     42  C   UNL A   1      44.137  26.641  29.541  1.00  0.00     0.049 A 
ATOM     43  C   UNL A   1      43.051  31.167  33.151  1.00  0.00     0.074 A 
ATOM     44  C   UNL A   1      44.881  27.740  29.140  1.00  0.00     0.029 A 
ATOM     45  N   UNL A   1      44.099  26.695  30.933  1.00  0.00    -0.354 N 
ATOM     46  N   UNL A   1      43.491  30.127  32.490  1.00  0.00    -0.248 NA
ATOM     47  C   UNL A   1      43.582  31.195  34.511  1.00  0.00     0.031 C 
ATOM     48  C   UNL A   1      45.201  28.504  30.301  1.00  0.00     0.029 A 
ATOM     49  C   UNL A   1      44.678  27.861  31.411  1.00  0.00     0.049 A 
ATOM     50  H   UNL A   1      43.712  25.993  31.505  1.00  0.00     0.167 HD
ATOM     51  C   UNL A   1      44.247  29.325  33.287  1.00  0.00     0.074 A 
ATOM     52  C   UNL A   1      44.313  30.062  34.538  1.00  0.00     0.031 C 
ATOM     53  C   UNL A   1      44.716  28.116  32.853  1.00  0.00     0.037 A 
BRANCH  40  54
ATOM     54  C   UNL A   1      43.616  24.825  27.686  1.00  0.00     0.058 A 
ATOM     55  C   UNL A   1      43.951  23.480  27.949  1.00  0.00     0.135 A 
ATOM     56  C   UNL A   1      43.698  25.170  26.316  1.00  0.00     0.135 A 
ATOM     57  F   UNL A   1      43.884  22.975  29.189  1.00  0.00    -0.206 F 
ATOM     58  C   UNL A   1      44.357  22.578  26.957  1.00  0.00     0.059 A 
ATOM     59  C   UNL A   1      44.133  24.302  25.314  1.00  0.00     0.059 A 
ATOM     60  F   UNL A   1      43.309  26.349  25.836  1.00  0.00    -0.206 F 
ATOM     61  C   UNL A   1      44.451  23.000  25.639  1.00  0.00     0.060 A 
BRANCH  61  62
ATOM     62  S   UNL A   1      44.922  21.834  24.353  1.00  0.00     0.124 S 
ATOM     63  O   UNL A   1      46.322  21.578  24.673  1.00  0.00    -0.237 OA
ATOM     64  O   UNL A   1      43.997  20.731  24.592  1.00  0.00    -0.237 OA
ATOM     65  O   UNL A   1      44.694  22.578  23.116  1.00  0.00    -0.744 OA
ENDBRANCH  61  62
ENDBRANCH  40  54
BRANCH  41  66
ATOM     66  C   UNL A   1      40.991  32.972  33.129  1.00  0.00     0.058 A 
ATOM     67  C   UNL A   1      40.570  34.098  32.395  1.00  0.00     0.135 A 
ATOM     68  C   UNL A   1      40.022  32.378  33.954  1.00  0.00     0.135 A 
ATOM     69  F   UNL A   1      41.457  34.787  31.661  1.00  0.00    -0.206 F 
ATOM     70  C   UNL A   1      39.225  34.453  32.280  1.00  0.00     0.059 A 
ATOM     71  C   UNL A   1      38.662  32.746  33.876  1.00  0.00     0.059 A 
ATOM     72  F   UNL A   1      40.350  31.332  34.730  1.00  0.00    -0.206 F 
ATOM     73  C   UNL A   1      38.257  33.714  32.949  1.00  0.00     0.060 A 
BRANCH  73  74
ATOM     74  S   UNL A   1      36.508  33.971  32.452  1.00  0.00     0.124 S 
ATOM     75  O   UNL A   1      36.243  35.305  32.977  1.00  0.00    -0.237 OA
ATOM     76  O   UNL A   1      36.551  33.859  30.995  1.00  0.00    -0.237 OA
ATOM     77  O   UNL A   1      35.769  32.899  33.099  1.00  0.00    -0.744 OA
ENDBRANCH  73  74
ENDBRANCH  41  66
BRANCH  53  78
ATOM     78  C   UNL A   1      45.307  27.058  33.748  1.00  0.00     0.058 A 
ATOM     79  C   UNL A   1      46.665  26.994  34.094  1.00  0.00     0.135 A 
ATOM     80  C   UNL A   1      44.459  26.140  34.415  1.00  0.00     0.135 A 
ATOM     81  F   UNL A   1      47.550  27.891  33.637  1.00  0.00    -0.206 F 
ATOM     82  C   UNL A   1      47.165  26.021  34.956  1.00  0.00     0.059 A 
ATOM     83  C   UNL A   1      44.922  25.221  35.346  1.00  0.00     0.059 A 
ATOM     84  F   UNL A   1      43.136  26.111  34.192  1.00  0.00    -0.206 F 
ATOM     85  C   UNL A   1      46.285  25.134  35.571  1.00  0.00     0.060 A 
BRANCH  85  86
ATOM     86  S   UNL A   1      46.932  23.861  36.661  1.00  0.00     0.124 S 
ATOM     87  O   UNL A   1      47.828  24.642  37.508  1.00  0.00    -0.237 OA
ATOM     88  O   UNL A   1      45.727  23.358  37.313  1.00  0.00    -0.237 OA
ATOM     89  O   UNL A   1      47.579  22.928  35.746  1.00  0.00    -0.744 OA
ENDBRANCH  85  86
ENDBRANCH  53  78
ENDBRANCH  27  28
ENDBRANCH  20  22
ENDBRANCH  19  20
ENDBRANCH   1  19
TORSDOF 15
ENDMDL
