MODEL 1
REMARK VINA RESULT:     -11.6      0.000      0.000
REMARK SMILES C[C@H](C(=O)OCCOC(=O)c1ccc(-c2c3nc(c(-c4c(F)cc(S(=O)(=O)[O-])cc4F)c4ccc([nH]4)c(-c4c(F)cc(S(=O)(=O)[O-])cc4F)c4nc(c(-c5c(F)cc(S(=O)(=O)[O-])cc5F)c5ccc2[nH]5)C=C4)C=C3)cc1)c1ccc2ncccc2c1
REMARK SMILES IDX 7 1 6 2 5 3 3 4 4 5 2 6 1 7 77 8 78 9 86 10 79 11 85 12
REMARK SMILES IDX 80 13 84 14 81 15 83 16 82 17 8 18 9 19 10 20 11 21 12 22
REMARK SMILES IDX 76 23 13 24 75 25 14 26 15 27 16 28 69 29 17 30 74 31 68 32
REMARK SMILES IDX 70 33 18 34 73 35 67 36 66 37 19 39 53 40 32 41 52 42 33 43
REMARK SMILES IDX 36 44 51 45 71 46 34 47 35 48 50 50 72 51 37 52 20 53 21 54
REMARK SMILES IDX 30 55 22 56 23 57 29 58 31 59 24 60 25 61 26 62 27 63 28 64
REMARK SMILES IDX 54 65 55 66 64 67 56 68 57 69 63 70 65 71 58 72 59 73 60 74
REMARK SMILES IDX 61 75 62 76 38 77 39 78 48 79 40 80 41 81 47 82 49 83 42 84
REMARK SMILES IDX 43 85 44 86 45 87 46 88
REMARK H PARENT 70 38 36 49
REMARK Flexibility Score: inf
ROOT
ATOM      1  C   UNL A   1      39.367  22.375  26.530  1.00  0.00     0.275 C 
ENDROOT
BRANCH   1   2
ATOM      2  C   UNL A   1      38.202  21.929  25.651  1.00  0.00     0.274 C 
BRANCH   2   3
ATOM      3  O   UNL A   1      37.223  22.982  25.559  1.00  0.00    -0.462 OA
BRANCH   3   4
ATOM      4  C   UNL A   1      36.473  23.002  24.417  1.00  0.00     0.313 C 
ATOM      5  O   UNL A   1      36.942  22.992  23.285  1.00  0.00    -0.252 OA
BRANCH   4   6
ATOM      6  C   UNL A   1      34.980  23.111  24.725  1.00  0.00     0.126 C 
ATOM      7  C   UNL A   1      34.317  24.086  23.740  1.00  0.00     0.025 C 
BRANCH   6   8
ATOM      8  C   UNL A   1      34.268  21.764  24.820  1.00  0.00    -0.033 A 
ATOM      9  C   UNL A   1      32.891  21.740  25.071  1.00  0.00     0.007 A 
ATOM     10  C   UNL A   1      34.918  20.531  24.653  1.00  0.00     0.015 A 
ATOM     11  C   UNL A   1      32.190  20.529  25.132  1.00  0.00     0.029 A 
ATOM     12  C   UNL A   1      34.208  19.312  24.712  1.00  0.00     0.000 A 
ATOM     13  C   UNL A   1      32.819  19.309  24.947  1.00  0.00     0.070 A 
ATOM     14  C   UNL A   1      34.842  18.074  24.531  1.00  0.00     0.012 A 
ATOM     15  N   UNL A   1      32.091  18.178  24.989  1.00  0.00    -0.256 NA
ATOM     16  C   UNL A   1      34.097  16.901  24.576  1.00  0.00     0.021 A 
ATOM     17  C   UNL A   1      32.738  17.005  24.803  1.00  0.00     0.112 A 
ENDBRANCH   6   8
ENDBRANCH   4   6
ENDBRANCH   3   4
ENDBRANCH   2   3
ENDBRANCH   1   2
BRANCH   1  18
ATOM     18  O   UNL A   1      39.365  23.809  26.616  1.00  0.00    -0.458 OA
BRANCH  18  19
ATOM     19  C   UNL A   1      40.578  24.396  26.704  1.00  0.00     0.338 C 
ATOM     20  O   UNL A   1      41.612  24.037  26.161  1.00  0.00    -0.246 OA
BRANCH  19  21
ATOM     21  C   UNL A   1      40.498  25.542  27.627  1.00  0.00     0.060 A 
ATOM     22  C   UNL A   1      41.412  26.596  27.550  1.00  0.00     0.016 A 
ATOM     23  C   UNL A   1      39.525  25.533  28.626  1.00  0.00     0.016 A 
ATOM     24  C   UNL A   1      41.395  27.610  28.509  1.00  0.00     0.010 A 
ATOM     25  C   UNL A   1      39.458  26.591  29.535  1.00  0.00     0.010 A 
ATOM     26  C   UNL A   1      40.410  27.626  29.506  1.00  0.00    -0.014 A 
BRANCH  26  27
ATOM     27  C   UNL A   1      40.379  28.693  30.543  1.00  0.00     0.031 A 
ATOM     28  C   UNL A   1      41.325  28.625  31.715  1.00  0.00     0.074 A 
ATOM     29  C   UNL A   1      39.495  29.707  30.459  1.00  0.00     0.049 A 
ATOM     30  N   UNL A   1      41.330  29.331  32.817  1.00  0.00    -0.248 NA
ATOM     31  C   UNL A   1      42.396  27.618  31.643  1.00  0.00     0.031 C 
ATOM     32  C   UNL A   1      38.543  29.915  29.367  1.00  0.00     0.029 A 
ATOM     33  N   UNL A   1      39.246  30.750  31.318  1.00  0.00    -0.354 N 
ATOM     34  C   UNL A   1      42.364  28.819  33.592  1.00  0.00     0.074 A 
ATOM     35  C   UNL A   1      42.965  27.741  32.835  1.00  0.00     0.031 C 
ATOM     36  C   UNL A   1      37.829  31.026  29.610  1.00  0.00     0.029 A 
ATOM     37  C   UNL A   1      38.219  31.567  30.908  1.00  0.00     0.049 A 
ATOM     38  H   UNL A   1      39.756  30.899  32.148  1.00  0.00     0.167 HD
ATOM     39  C   UNL A   1      42.773  29.210  34.823  1.00  0.00     0.037 A 
ATOM     40  C   UNL A   1      37.626  32.609  31.523  1.00  0.00     0.037 A 
ATOM     41  C   UNL A   1      42.205  30.312  35.554  1.00  0.00     0.049 A 
ATOM     42  C   UNL A   1      38.089  33.019  32.893  1.00  0.00     0.074 A 
ATOM     43  C   UNL A   1      42.566  30.798  36.800  1.00  0.00     0.029 A 
ATOM     44  N   UNL A   1      41.165  31.111  35.101  1.00  0.00    -0.354 N 
ATOM     45  N   UNL A   1      39.039  32.498  33.631  1.00  0.00    -0.248 NA
ATOM     46  C   UNL A   1      37.387  34.147  33.522  1.00  0.00     0.031 C 
ATOM     47  C   UNL A   1      41.727  31.874  37.111  1.00  0.00     0.029 A 
ATOM     48  C   UNL A   1      40.867  32.080  36.045  1.00  0.00     0.049 A 
ATOM     49  H   UNL A   1      40.706  31.004  34.238  1.00  0.00     0.167 HD
ATOM     50  C   UNL A   1      39.057  33.238  34.807  1.00  0.00     0.074 A 
ATOM     51  C   UNL A   1      38.033  34.255  34.676  1.00  0.00     0.031 C 
ATOM     52  C   UNL A   1      39.845  33.087  35.899  1.00  0.00     0.037 A 
BRANCH  39  53
ATOM     53  C   UNL A   1      43.876  28.420  35.472  1.00  0.00     0.058 A 
ATOM     54  C   UNL A   1      45.227  28.744  35.287  1.00  0.00     0.135 A 
ATOM     55  C   UNL A   1      43.570  27.338  36.313  1.00  0.00     0.135 A 
ATOM     56  F   UNL A   1      45.576  29.756  34.476  1.00  0.00    -0.206 F 
ATOM     57  C   UNL A   1      46.240  28.006  35.892  1.00  0.00     0.059 A 
ATOM     58  C   UNL A   1      44.564  26.600  36.946  1.00  0.00     0.059 A 
ATOM     59  F   UNL A   1      42.290  26.986  36.523  1.00  0.00    -0.206 F 
ATOM     60  C   UNL A   1      45.899  26.933  36.717  1.00  0.00     0.060 A 
BRANCH  60  61
ATOM     61  S   UNL A   1      47.222  25.978  37.491  1.00  0.00     0.124 S 
ATOM     62  O   UNL A   1      47.669  26.897  38.534  1.00  0.00    -0.237 OA
ATOM     63  O   UNL A   1      46.518  24.787  37.956  1.00  0.00    -0.237 OA
ATOM     64  O   UNL A   1      48.164  25.758  36.399  1.00  0.00    -0.744 OA
ENDBRANCH  60  61
ENDBRANCH  39  53
BRANCH  40  65
ATOM     65  C   UNL A   1      36.504  33.319  30.854  1.00  0.00     0.058 A 
ATOM     66  C   UNL A   1      35.185  33.164  31.302  1.00  0.00     0.135 A 
ATOM     67  C   UNL A   1      36.732  34.185  29.774  1.00  0.00     0.135 A 
ATOM     68  F   UNL A   1      34.917  32.337  32.325  1.00  0.00    -0.206 F 
ATOM     69  C   UNL A   1      34.129  33.841  30.704  1.00  0.00     0.059 A 
ATOM     70  C   UNL A   1      35.696  34.892  29.173  1.00  0.00     0.059 A 
ATOM     71  F   UNL A   1      37.979  34.374  29.316  1.00  0.00    -0.206 F 
ATOM     72  C   UNL A   1      34.395  34.708  29.642  1.00  0.00     0.060 A 
BRANCH  72  73
ATOM     73  S   UNL A   1      33.030  35.640  28.914  1.00  0.00     0.124 S 
ATOM     74  O   UNL A   1      33.743  36.685  28.188  1.00  0.00    -0.237 OA
ATOM     75  O   UNL A   1      32.367  34.631  28.094  1.00  0.00    -0.237 OA
ATOM     76  O   UNL A   1      32.271  36.084  30.081  1.00  0.00    -0.744 OA
ENDBRANCH  72  73
ENDBRANCH  40  65
BRANCH  52  77
ATOM     77  C   UNL A   1      39.652  34.058  37.027  1.00  0.00     0.058 A 
ATOM     78  C   UNL A   1      38.831  33.754  38.123  1.00  0.00     0.135 A 
ATOM     79  C   UNL A   1      40.328  35.289  37.030  1.00  0.00     0.135 A 
ATOM     80  F   UNL A   1      38.159  32.593  38.163  1.00  0.00    -0.206 F 
ATOM     81  C   UNL A   1      38.671  34.646  39.178  1.00  0.00     0.059 A 
ATOM     82  C   UNL A   1      40.198  36.188  38.085  1.00  0.00     0.059 A 
ATOM     83  F   UNL A   1      41.131  35.622  36.008  1.00  0.00    -0.206 F 
ATOM     84  C   UNL A   1      39.358  35.862  39.149  1.00  0.00     0.060 A 
BRANCH  84  85
ATOM     85  S   UNL A   1      39.167  37.003  40.536  1.00  0.00     0.124 S 
ATOM     86  O   UNL A   1      38.258  37.996  39.975  1.00  0.00    -0.237 OA
ATOM     87  O   UNL A   1      38.606  36.145  41.576  1.00  0.00    -0.237 OA
ATOM     88  O   UNL A   1      40.529  37.465  40.783  1.00  0.00    -0.744 OA
ENDBRANCH  84  85
ENDBRANCH  52  77
ENDBRANCH  26  27
ENDBRANCH  19  21
ENDBRANCH  18  19
ENDBRANCH   1  18
TORSDOF 15
ENDMDL
MODEL 2
REMARK VINA RESULT:     -11.5      7.467     12.861
REMARK SMILES C[C@H](C(=O)OCCOC(=O)c1ccc(-c2c3nc(c(-c4c(F)cc(S(=O)(=O)[O-])cc4F)c4ccc([nH]4)c(-c4c(F)cc(S(=O)(=O)[O-])cc4F)c4nc(c(-c5c(F)cc(S(=O)(=O)[O-])cc5F)c5ccc2[nH]5)C=C4)C=C3)cc1)c1ccc2ncccc2c1
REMARK SMILES IDX 7 1 6 2 5 3 3 4 4 5 2 6 1 7 77 8 78 9 86 10 79 11 85 12
REMARK SMILES IDX 80 13 84 14 81 15 83 16 82 17 8 18 9 19 10 20 11 21 12 22
REMARK SMILES IDX 76 23 13 24 75 25 14 26 15 27 16 28 69 29 17 30 74 31 68 32
REMARK SMILES IDX 70 33 18 34 73 35 67 36 66 37 19 39 53 40 32 41 52 42 33 43
REMARK SMILES IDX 36 44 51 45 71 46 34 47 35 48 50 50 72 51 37 52 20 53 21 54
REMARK SMILES IDX 30 55 22 56 23 57 29 58 31 59 24 60 25 61 26 62 27 63 28 64
REMARK SMILES IDX 54 65 55 66 64 67 56 68 57 69 63 70 65 71 58 72 59 73 60 74
REMARK SMILES IDX 61 75 62 76 38 77 39 78 48 79 40 80 41 81 47 82 49 83 42 84
REMARK SMILES IDX 43 85 44 86 45 87 46 88
REMARK H PARENT 70 38 36 49
REMARK Flexibility Score: inf
ROOT
ATOM      1  C   UNL A   1      34.519  31.181  27.632  1.00  0.00     0.275 C 
ENDROOT
BRANCH   1   2
ATOM      2  C   UNL A   1      33.194  30.568  27.188  1.00  0.00     0.274 C 
BRANCH   2   3
ATOM      3  O   UNL A   1      33.316  29.134  27.110  1.00  0.00    -0.462 OA
BRANCH   3   4
ATOM      4  C   UNL A   1      33.367  28.607  25.851  1.00  0.00     0.313 C 
ATOM      5  O   UNL A   1      34.266  28.827  25.049  1.00  0.00    -0.252 OA
BRANCH   4   6
ATOM      6  C   UNL A   1      32.128  27.767  25.540  1.00  0.00     0.126 C 
ATOM      7  C   UNL A   1      31.404  27.406  26.847  1.00  0.00     0.025 C 
BRANCH   6   8
ATOM      8  C   UNL A   1      31.212  28.385  24.487  1.00  0.00    -0.033 A 
ATOM      9  C   UNL A   1      30.902  27.647  23.338  1.00  0.00     0.007 A 
ATOM     10  C   UNL A   1      30.639  29.661  24.611  1.00  0.00     0.015 A 
ATOM     11  C   UNL A   1      30.038  28.158  22.363  1.00  0.00     0.029 A 
ATOM     12  C   UNL A   1      29.766  30.173  23.627  1.00  0.00     0.000 A 
ATOM     13  C   UNL A   1      29.452  29.408  22.487  1.00  0.00     0.070 A 
ATOM     14  C   UNL A   1      29.174  31.440  23.746  1.00  0.00     0.012 A 
ATOM     15  N   UNL A   1      28.607  29.838  21.533  1.00  0.00    -0.256 NA
ATOM     16  C   UNL A   1      28.303  31.893  22.762  1.00  0.00     0.021 A 
ATOM     17  C   UNL A   1      28.053  31.062  21.686  1.00  0.00     0.112 A 
ENDBRANCH   6   8
ENDBRANCH   4   6
ENDBRANCH   3   4
ENDBRANCH   2   3
ENDBRANCH   1   2
BRANCH   1  18
ATOM     18  O   UNL A   1      35.291  30.180  28.314  1.00  0.00    -0.458 OA
BRANCH  18  19
ATOM     19  C   UNL A   1      36.082  30.627  29.314  1.00  0.00     0.338 C 
ATOM     20  O   UNL A   1      35.779  31.413  30.198  1.00  0.00    -0.246 OA
BRANCH  19  21
ATOM     21  C   UNL A   1      37.433  30.059  29.155  1.00  0.00     0.060 A 
ATOM     22  C   UNL A   1      38.205  29.711  30.266  1.00  0.00     0.016 A 
ATOM     23  C   UNL A   1      37.960  29.929  27.871  1.00  0.00     0.016 A 
ATOM     24  C   UNL A   1      39.525  29.291  30.099  1.00  0.00     0.010 A 
ATOM     25  C   UNL A   1      39.253  29.430  27.702  1.00  0.00     0.010 A 
ATOM     26  C   UNL A   1      40.062  29.134  28.814  1.00  0.00    -0.014 A 
BRANCH  26  27
ATOM     27  C   UNL A   1      41.470  28.696  28.614  1.00  0.00     0.031 A 
ATOM     28  C   UNL A   1      42.588  29.702  28.711  1.00  0.00     0.074 A 
ATOM     29  C   UNL A   1      41.754  27.412  28.319  1.00  0.00     0.049 A 
ATOM     30  N   UNL A   1      43.847  29.576  28.380  1.00  0.00    -0.248 NA
ATOM     31  C   UNL A   1      42.237  31.032  29.235  1.00  0.00     0.031 C 
ATOM     32  C   UNL A   1      40.777  26.326  28.223  1.00  0.00     0.029 A 
ATOM     33  N   UNL A   1      42.953  26.804  28.035  1.00  0.00    -0.354 N 
ATOM     34  C   UNL A   1      44.426  30.819  28.602  1.00  0.00     0.074 A 
ATOM     35  C   UNL A   1      43.380  31.690  29.095  1.00  0.00     0.031 C 
ATOM     36  C   UNL A   1      41.415  25.184  27.923  1.00  0.00     0.029 A 
ATOM     37  C   UNL A   1      42.834  25.468  27.732  1.00  0.00     0.049 A 
ATOM     38  H   UNL A   1      43.815  27.280  28.047  1.00  0.00     0.167 HD
ATOM     39  C   UNL A   1      45.711  31.202  28.409  1.00  0.00     0.037 A 
ATOM     40  C   UNL A   1      43.752  24.578  27.307  1.00  0.00     0.037 A 
ATOM     41  C   UNL A   1      46.761  30.323  27.962  1.00  0.00     0.049 A 
ATOM     42  C   UNL A   1      45.170  25.026  27.089  1.00  0.00     0.074 A 
ATOM     43  C   UNL A   1      48.099  30.613  27.758  1.00  0.00     0.029 A 
ATOM     44  N   UNL A   1      46.595  28.978  27.666  1.00  0.00    -0.354 N 
ATOM     45  N   UNL A   1      45.693  26.217  27.262  1.00  0.00    -0.248 NA
ATOM     46  C   UNL A   1      46.120  24.016  26.602  1.00  0.00     0.031 C 
ATOM     47  C   UNL A   1      48.737  29.450  27.312  1.00  0.00     0.029 A 
ATOM     48  C   UNL A   1      47.803  28.427  27.274  1.00  0.00     0.049 A 
ATOM     49  H   UNL A   1      45.744  28.488  27.725  1.00  0.00     0.167 HD
ATOM     50  C   UNL A   1      47.033  26.098  26.914  1.00  0.00     0.074 A 
ATOM     51  C   UNL A   1      47.245  24.715  26.536  1.00  0.00     0.031 C 
ATOM     52  C   UNL A   1      47.999  27.047  26.903  1.00  0.00     0.037 A 
BRANCH  39  53
ATOM     53  C   UNL A   1      46.051  32.646  28.654  1.00  0.00     0.058 A 
ATOM     54  C   UNL A   1      46.507  33.099  29.900  1.00  0.00     0.135 A 
ATOM     55  C   UNL A   1      45.941  33.585  27.615  1.00  0.00     0.135 A 
ATOM     56  F   UNL A   1      46.611  32.247  30.933  1.00  0.00    -0.206 F 
ATOM     57  C   UNL A   1      46.819  34.438  30.116  1.00  0.00     0.059 A 
ATOM     58  C   UNL A   1      46.267  34.924  27.802  1.00  0.00     0.059 A 
ATOM     59  F   UNL A   1      45.507  33.203  26.402  1.00  0.00    -0.206 F 
ATOM     60  C   UNL A   1      46.692  35.344  29.062  1.00  0.00     0.060 A 
BRANCH  60  61
ATOM     61  S   UNL A   1      47.091  37.080  29.357  1.00  0.00     0.124 S 
ATOM     62  O   UNL A   1      46.846  37.192  30.792  1.00  0.00    -0.237 OA
ATOM     63  O   UNL A   1      48.490  37.154  28.947  1.00  0.00    -0.237 OA
ATOM     64  O   UNL A   1      46.152  37.795  28.499  1.00  0.00    -0.744 OA
ENDBRANCH  60  61
ENDBRANCH  39  53
BRANCH  40  65
ATOM     65  C   UNL A   1      43.346  23.175  27.030  1.00  0.00     0.058 A 
ATOM     66  C   UNL A   1      43.289  22.688  25.716  1.00  0.00     0.135 A 
ATOM     67  C   UNL A   1      43.034  22.288  28.071  1.00  0.00     0.135 A 
ATOM     68  F   UNL A   1      43.568  23.503  24.686  1.00  0.00    -0.206 F 
ATOM     69  C   UNL A   1      42.937  21.372  25.443  1.00  0.00     0.059 A 
ATOM     70  C   UNL A   1      42.701  20.961  27.826  1.00  0.00     0.059 A 
ATOM     71  F   UNL A   1      43.084  22.705  29.346  1.00  0.00    -0.206 F 
ATOM     72  C   UNL A   1      42.649  20.513  26.506  1.00  0.00     0.060 A 
BRANCH  72  73
ATOM     73  S   UNL A   1      42.261  18.784  26.150  1.00  0.00     0.124 S 
ATOM     74  O   UNL A   1      42.555  18.150  27.429  1.00  0.00    -0.237 OA
ATOM     75  O   UNL A   1      40.852  18.853  25.779  1.00  0.00    -0.237 OA
ATOM     76  O   UNL A   1      43.172  18.458  25.056  1.00  0.00    -0.744 OA
ENDBRANCH  72  73
ENDBRANCH  40  65
BRANCH  52  77
ATOM     77  C   UNL A   1      49.379  26.621  26.495  1.00  0.00     0.058 A 
ATOM     78  C   UNL A   1      50.282  26.076  27.420  1.00  0.00     0.135 A 
ATOM     79  C   UNL A   1      49.788  26.720  25.155  1.00  0.00     0.135 A 
ATOM     80  F   UNL A   1      49.940  25.966  28.713  1.00  0.00    -0.206 F 
ATOM     81  C   UNL A   1      51.552  25.660  27.035  1.00  0.00     0.059 A 
ATOM     82  C   UNL A   1      51.047  26.292  24.744  1.00  0.00     0.059 A 
ATOM     83  F   UNL A   1      48.958  27.227  24.231  1.00  0.00    -0.206 F 
ATOM     84  C   UNL A   1      51.926  25.774  25.695  1.00  0.00     0.060 A 
BRANCH  84  85
ATOM     85  S   UNL A   1      53.566  25.206  25.197  1.00  0.00     0.124 S 
ATOM     86  O   UNL A   1      53.409  23.757  25.269  1.00  0.00    -0.237 OA
ATOM     87  O   UNL A   1      53.699  25.763  23.854  1.00  0.00    -0.237 OA
ATOM     88  O   UNL A   1      54.447  25.794  26.201  1.00  0.00    -0.744 OA
ENDBRANCH  84  85
ENDBRANCH  52  77
ENDBRANCH  26  27
ENDBRANCH  19  21
ENDBRANCH  18  19
ENDBRANCH   1  18
TORSDOF 15
ENDMDL
MODEL 3
REMARK VINA RESULT:     -11.3      5.422     10.862
REMARK SMILES C[C@H](C(=O)OCCOC(=O)c1ccc(-c2c3nc(c(-c4c(F)cc(S(=O)(=O)[O-])cc4F)c4ccc([nH]4)c(-c4c(F)cc(S(=O)(=O)[O-])cc4F)c4nc(c(-c5c(F)cc(S(=O)(=O)[O-])cc5F)c5ccc2[nH]5)C=C4)C=C3)cc1)c1ccc2ncccc2c1
REMARK SMILES IDX 7 1 6 2 5 3 3 4 4 5 2 6 1 7 77 8 78 9 86 10 79 11 85 12
REMARK SMILES IDX 80 13 84 14 81 15 83 16 82 17 8 18 9 19 10 20 11 21 12 22
REMARK SMILES IDX 76 23 13 24 75 25 14 26 15 27 16 28 69 29 17 30 74 31 68 32
REMARK SMILES IDX 70 33 18 34 73 35 67 36 66 37 19 39 53 40 32 41 52 42 33 43
REMARK SMILES IDX 36 44 51 45 71 46 34 47 35 48 50 50 72 51 37 52 20 53 21 54
REMARK SMILES IDX 30 55 22 56 23 57 29 58 31 59 24 60 25 61 26 62 27 63 28 64
REMARK SMILES IDX 54 65 55 66 64 67 56 68 57 69 63 70 65 71 58 72 59 73 60 74
REMARK SMILES IDX 61 75 62 76 38 77 39 78 48 79 40 80 41 81 47 82 49 83 42 84
REMARK SMILES IDX 43 85 44 86 45 87 46 88
REMARK H PARENT 70 38 36 49
REMARK Flexibility Score: inf
ROOT
ATOM      1  C   UNL A   1      32.342  29.818  27.151  1.00  0.00     0.275 C 
ENDROOT
BRANCH   1   2
ATOM      2  C   UNL A   1      31.549  28.531  27.358  1.00  0.00     0.274 C 
BRANCH   2   3
ATOM      3  O   UNL A   1      32.310  27.401  26.888  1.00  0.00    -0.462 OA
BRANCH   3   4
ATOM      4  C   UNL A   1      31.735  26.667  25.891  1.00  0.00     0.313 C 
ATOM      5  O   UNL A   1      30.569  26.290  25.897  1.00  0.00    -0.252 OA
BRANCH   4   6
ATOM      6  C   UNL A   1      32.745  26.308  24.800  1.00  0.00     0.126 C 
ATOM      7  C   UNL A   1      33.571  27.550  24.430  1.00  0.00     0.025 C 
BRANCH   6   8
ATOM      8  C   UNL A   1      33.597  25.085  25.125  1.00  0.00    -0.033 A 
ATOM      9  C   UNL A   1      33.264  24.300  26.236  1.00  0.00     0.007 A 
ATOM     10  C   UNL A   1      34.701  24.683  24.356  1.00  0.00     0.015 A 
ATOM     11  C   UNL A   1      33.996  23.148  26.551  1.00  0.00     0.029 A 
ATOM     12  C   UNL A   1      35.435  23.520  24.675  1.00  0.00     0.000 A 
ATOM     13  C   UNL A   1      35.074  22.733  25.786  1.00  0.00     0.070 A 
ATOM     14  C   UNL A   1      36.531  23.100  23.907  1.00  0.00     0.012 A 
ATOM     15  N   UNL A   1      35.723  21.604  26.120  1.00  0.00    -0.256 NA
ATOM     16  C   UNL A   1      37.209  21.935  24.246  1.00  0.00     0.021 A 
ATOM     17  C   UNL A   1      36.770  21.228  25.350  1.00  0.00     0.112 A 
ENDBRANCH   6   8
ENDBRANCH   4   6
ENDBRANCH   3   4
ENDBRANCH   2   3
ENDBRANCH   1   2
BRANCH   1  18
ATOM     18  O   UNL A   1      33.733  29.552  27.388  1.00  0.00    -0.458 OA
BRANCH  18  19
ATOM     19  C   UNL A   1      34.409  30.508  28.063  1.00  0.00     0.338 C 
ATOM     20  O   UNL A   1      33.996  31.608  28.394  1.00  0.00    -0.246 OA
BRANCH  19  21
ATOM     21  C   UNL A   1      35.789  30.049  28.303  1.00  0.00     0.060 A 
ATOM     22  C   UNL A   1      36.202  29.640  29.573  1.00  0.00     0.016 A 
ATOM     23  C   UNL A   1      36.702  30.084  27.250  1.00  0.00     0.016 A 
ATOM     24  C   UNL A   1      37.542  29.326  29.808  1.00  0.00     0.010 A 
ATOM     25  C   UNL A   1      38.024  29.691  27.468  1.00  0.00     0.010 A 
ATOM     26  C   UNL A   1      38.467  29.336  28.755  1.00  0.00    -0.014 A 
BRANCH  26  27
ATOM     27  C   UNL A   1      39.902  29.014  28.984  1.00  0.00     0.031 A 
ATOM     28  C   UNL A   1      40.830  30.072  29.522  1.00  0.00     0.074 A 
ATOM     29  C   UNL A   1      40.386  27.790  28.690  1.00  0.00     0.049 A 
ATOM     30  N   UNL A   1      42.135  30.063  29.607  1.00  0.00    -0.248 NA
ATOM     31  C   UNL A   1      40.206  31.311  30.015  1.00  0.00     0.031 C 
ATOM     32  C   UNL A   1      39.597  26.662  28.193  1.00  0.00     0.029 A 
ATOM     33  N   UNL A   1      41.665  27.295  28.759  1.00  0.00    -0.354 N 
ATOM     34  C   UNL A   1      42.493  31.309  30.108  1.00  0.00     0.074 A 
ATOM     35  C   UNL A   1      41.266  32.051  30.308  1.00  0.00     0.031 C 
ATOM     36  C   UNL A   1      40.404  25.603  28.019  1.00  0.00     0.029 A 
ATOM     37  C   UNL A   1      41.776  25.996  28.322  1.00  0.00     0.049 A 
ATOM     38  H   UNL A   1      42.430  27.820  29.089  1.00  0.00     0.167 HD
ATOM     39  C   UNL A   1      43.731  31.792  30.374  1.00  0.00     0.037 A 
ATOM     40  C   UNL A   1      42.862  25.218  28.144  1.00  0.00     0.037 A 
ATOM     41  C   UNL A   1      44.946  31.036  30.219  1.00  0.00     0.049 A 
ATOM     42  C   UNL A   1      44.227  25.778  28.434  1.00  0.00     0.074 A 
ATOM     43  C   UNL A   1      46.247  31.431  30.483  1.00  0.00     0.029 A 
ATOM     44  N   UNL A   1      45.012  29.724  29.773  1.00  0.00    -0.354 N 
ATOM     45  N   UNL A   1      44.552  26.972  28.867  1.00  0.00    -0.248 NA
ATOM     46  C   UNL A   1      45.374  24.890  28.198  1.00  0.00     0.031 C 
ATOM     47  C   UNL A   1      47.101  30.367  30.172  1.00  0.00     0.029 A 
ATOM     48  C   UNL A   1      46.329  29.297  29.747  1.00  0.00     0.049 A 
ATOM     49  H   UNL A   1      44.237  29.177  29.512  1.00  0.00     0.167 HD
ATOM     50  C   UNL A   1      45.938  26.978  28.962  1.00  0.00     0.074 A 
ATOM     51  C   UNL A   1      46.390  25.662  28.558  1.00  0.00     0.031 C 
ATOM     52  C   UNL A   1      46.763  27.983  29.344  1.00  0.00     0.037 A 
BRANCH  39  53
ATOM     53  C   UNL A   1      43.836  33.218  30.837  1.00  0.00     0.058 A 
ATOM     54  C   UNL A   1      43.934  34.286  29.934  1.00  0.00     0.135 A 
ATOM     55  C   UNL A   1      43.813  33.520  32.209  1.00  0.00     0.135 A 
ATOM     56  F   UNL A   1      43.981  34.051  28.612  1.00  0.00    -0.206 F 
ATOM     57  C   UNL A   1      44.032  35.603  30.373  1.00  0.00     0.059 A 
ATOM     58  C   UNL A   1      43.887  34.830  32.671  1.00  0.00     0.059 A 
ATOM     59  F   UNL A   1      43.723  32.534  33.116  1.00  0.00    -0.206 F 
ATOM     60  C   UNL A   1      44.011  35.865  31.744  1.00  0.00     0.060 A 
BRANCH  60  61
ATOM     61  S   UNL A   1      44.146  37.576  32.301  1.00  0.00     0.124 S 
ATOM     62  O   UNL A   1      45.539  37.629  32.737  1.00  0.00    -0.237 OA
ATOM     63  O   UNL A   1      43.834  38.326  31.089  1.00  0.00    -0.237 OA
ATOM     64  O   UNL A   1      43.151  37.667  33.364  1.00  0.00    -0.744 OA
ENDBRANCH  60  61
ENDBRANCH  39  53
BRANCH  40  65
ATOM     65  C   UNL A   1      42.701  23.832  27.633  1.00  0.00     0.058 A 
ATOM     66  C   UNL A   1      42.606  22.746  28.515  1.00  0.00     0.135 A 
ATOM     67  C   UNL A   1      42.610  23.569  26.258  1.00  0.00     0.135 A 
ATOM     68  F   UNL A   1      42.699  22.947  29.838  1.00  0.00    -0.206 F 
ATOM     69  C   UNL A   1      42.428  21.447  28.053  1.00  0.00     0.059 A 
ATOM     70  C   UNL A   1      42.408  22.282  25.771  1.00  0.00     0.059 A 
ATOM     71  F   UNL A   1      42.685  24.577  25.374  1.00  0.00    -0.206 F 
ATOM     72  C   UNL A   1      42.325  21.225  26.678  1.00  0.00     0.060 A 
BRANCH  72  73
ATOM     73  S   UNL A   1      42.022  19.545  26.086  1.00  0.00     0.124 S 
ATOM     74  O   UNL A   1      40.591  19.587  25.808  1.00  0.00    -0.237 OA
ATOM     75  O   UNL A   1      42.897  19.464  24.922  1.00  0.00    -0.237 OA
ATOM     76  O   UNL A   1      42.423  18.717  27.220  1.00  0.00    -0.744 OA
ENDBRANCH  72  73
ENDBRANCH  40  65
BRANCH  52  77
ATOM     77  C   UNL A   1      48.236  27.692  29.370  1.00  0.00     0.058 A 
ATOM     78  C   UNL A   1      48.850  27.115  30.492  1.00  0.00     0.135 A 
ATOM     79  C   UNL A   1      49.033  27.958  28.245  1.00  0.00     0.135 A 
ATOM     80  F   UNL A   1      48.131  26.849  31.594  1.00  0.00    -0.206 F 
ATOM     81  C   UNL A   1      50.210  26.826  30.505  1.00  0.00     0.059 A 
ATOM     82  C   UNL A   1      50.392  27.658  28.229  1.00  0.00     0.059 A 
ATOM     83  F   UNL A   1      48.491  28.502  27.145  1.00  0.00    -0.206 F 
ATOM     84  C   UNL A   1      50.974  27.103  29.369  1.00  0.00     0.060 A 
BRANCH  84  85
ATOM     85  S   UNL A   1      52.733  26.699  29.383  1.00  0.00     0.124 S 
ATOM     86  O   UNL A   1      52.842  25.903  30.601  1.00  0.00    -0.237 OA
ATOM     87  O   UNL A   1      52.900  25.966  28.131  1.00  0.00    -0.237 OA
ATOM     88  O   UNL A   1      53.381  28.006  29.427  1.00  0.00    -0.744 OA
ENDBRANCH  84  85
ENDBRANCH  52  77
ENDBRANCH  26  27
ENDBRANCH  19  21
ENDBRANCH  18  19
ENDBRANCH   1  18
TORSDOF 15
ENDMDL
