MODEL 1
REMARK VINA RESULT:     -11.5      0.000      0.000
REMARK SMILES CC[C@H]1CCCC[N@H+]1[C@@H]1CC(=O)N(c2nc(CC(=O)OCCOC(=O)c3ccc(-c4c5nc(c(-c6c(F)cc(S(=O)(=O)[O-])cc6F)c6ccc([nH]6)c(-c6c(F)cc(S(=O)(=O)[O-])cc6F)c6nc(c(-c7c(F)cc(S(=O)(=O)[O-])cc7F)c7ccc4[nH]7)C=C6)C=C5)cc3)cs2)C1=O
REMARK SMILES IDX 21 1 20 2 18 3 19 4 17 5 16 6 14 7 15 8 93 9 92 10 13 11
REMARK SMILES IDX 9 12 10 13 94 14 11 15 95 16 12 17 8 18 3 19 4 20 5 21 7 22
REMARK SMILES IDX 6 24 2 25 1 26 22 27 23 28 24 29 25 30 26 31 27 32 91 33
REMARK SMILES IDX 28 34 90 35 29 36 30 37 31 38 84 39 32 40 89 41 83 42 85 43
REMARK SMILES IDX 33 44 88 45 82 46 81 47 34 49 68 50 47 51 67 52 48 53 51 54
REMARK SMILES IDX 66 55 86 56 49 57 50 58 65 60 87 61 52 62 35 63 36 64 45 65
REMARK SMILES IDX 37 66 38 67 44 68 46 69 39 70 40 71 41 72 42 73 43 74 69 75
REMARK SMILES IDX 70 76 79 77 71 78 72 79 78 80 80 81 73 82 74 83 75 84 76 85
REMARK SMILES IDX 77 86 53 87 54 88 63 89 55 90 56 91 62 92 64 93 57 94 58 95
REMARK SMILES IDX 59 96 60 97 61 98
REMARK H PARENT 8 23 85 48 51 59
REMARK Flexibility Score: inf
ROOT
ATOM      1  C   UNL A   1      38.668  21.618  26.133  1.00  0.00     0.274 C 
ENDROOT
BRANCH   1   2
ATOM      2  O   UNL A   1      38.232  21.668  24.760  1.00  0.00    -0.462 OA
BRANCH   2   3
ATOM      3  C   UNL A   1      36.916  21.945  24.556  1.00  0.00     0.312 C 
ATOM      4  O   UNL A   1      36.473  22.500  23.554  1.00  0.00    -0.252 OA
BRANCH   3   5
ATOM      5  C   UNL A   1      36.027  21.562  25.716  1.00  0.00     0.179 C 
BRANCH   5   6
ATOM      6  C   UNL A   1      34.565  21.564  25.420  1.00  0.00     0.065 A 
ATOM      7  C   UNL A   1      32.594  22.544  25.339  1.00  0.00     0.199 A 
ATOM      8  N   UNL A   1      33.866  22.755  25.576  1.00  0.00    -0.224 NA
ATOM      9  S   UNL A   1      32.155  20.967  24.845  1.00  0.00    -0.104 S 
ATOM     10  C   UNL A   1      33.803  20.515  24.934  1.00  0.00     0.093 A 
BRANCH   7  11
ATOM     11  N   UNL A   1      31.599  23.470  25.317  1.00  0.00    -0.219 N 
ATOM     12  C   UNL A   1      30.254  25.231  24.616  1.00  0.00     0.285 C 
ATOM     13  C   UNL A   1      30.060  24.998  26.112  1.00  0.00     0.176 C 
ATOM     14  C   UNL A   1      31.292  24.191  24.201  1.00  0.00     0.294 C 
ATOM     15  C   UNL A   1      30.884  23.787  26.430  1.00  0.00     0.242 C 
ATOM     16  O   UNL A   1      31.729  24.045  23.066  1.00  0.00    -0.267 OA
ATOM     17  O   UNL A   1      30.910  23.274  27.538  1.00  0.00    -0.274 OA
BRANCH  12  18
ATOM     18  N   UNL A   1      30.658  26.579  24.189  1.00  0.00    -0.322 N 
ATOM     19  C   UNL A   1      29.826  27.232  23.173  1.00  0.00     0.184 C 
ATOM     20  C   UNL A   1      30.598  28.400  22.522  1.00  0.00     0.065 C 
ATOM     21  C   UNL A   1      31.300  29.326  23.512  1.00  0.00     0.012 C 
ATOM     22  C   UNL A   1      31.263  27.445  25.195  1.00  0.00     0.263 C 
ATOM     23  H   UNL A   1      31.481  26.342  23.637  1.00  0.00     0.349 HD
ATOM     24  C   UNL A   1      32.102  28.533  24.531  1.00  0.00     0.062 C 
BRANCH  19  25
ATOM     25  C   UNL A   1      28.365  27.601  23.536  1.00  0.00     0.061 C 
ATOM     26  C   UNL A   1      27.722  28.797  22.854  1.00  0.00     0.010 C 
ENDBRANCH  19  25
ENDBRANCH  12  18
ENDBRANCH   7  11
ENDBRANCH   5   6
ENDBRANCH   3   5
ENDBRANCH   2   3
ENDBRANCH   1   2
BRANCH   1  27
ATOM     27  C   UNL A   1      40.016  22.312  26.311  1.00  0.00     0.275 C 
BRANCH  27  28
ATOM     28  O   UNL A   1      39.827  23.677  26.721  1.00  0.00    -0.458 OA
BRANCH  28  29
ATOM     29  C   UNL A   1      40.936  24.448  26.704  1.00  0.00     0.338 C 
ATOM     30  O   UNL A   1      41.941  24.297  26.032  1.00  0.00    -0.246 OA
BRANCH  29  31
ATOM     31  C   UNL A   1      40.753  25.593  27.605  1.00  0.00     0.060 A 
ATOM     32  C   UNL A   1      41.722  26.598  27.640  1.00  0.00     0.016 A 
ATOM     33  C   UNL A   1      39.689  25.595  28.506  1.00  0.00     0.016 A 
ATOM     34  C   UNL A   1      41.651  27.596  28.609  1.00  0.00     0.010 A 
ATOM     35  C   UNL A   1      39.598  26.619  29.452  1.00  0.00     0.010 A 
ATOM     36  C   UNL A   1      40.591  27.612  29.527  1.00  0.00    -0.014 A 
BRANCH  36  37
ATOM     37  C   UNL A   1      40.537  28.645  30.589  1.00  0.00     0.031 A 
ATOM     38  C   UNL A   1      41.460  28.555  31.773  1.00  0.00     0.074 A 
ATOM     39  C   UNL A   1      39.656  29.657  30.493  1.00  0.00     0.049 A 
ATOM     40  N   UNL A   1      41.493  29.292  32.852  1.00  0.00    -0.248 NA
ATOM     41  C   UNL A   1      42.475  27.490  31.740  1.00  0.00     0.031 C 
ATOM     42  C   UNL A   1      38.726  29.865  29.381  1.00  0.00     0.029 A 
ATOM     43  N   UNL A   1      39.393  30.696  31.349  1.00  0.00    -0.354 N 
ATOM     44  C   UNL A   1      42.510  28.768  33.640  1.00  0.00     0.074 A 
ATOM     45  C   UNL A   1      43.065  27.643  32.917  1.00  0.00     0.031 C 
ATOM     46  C   UNL A   1      37.992  30.964  29.625  1.00  0.00     0.029 A 
ATOM     47  C   UNL A   1      38.371  31.511  30.925  1.00  0.00     0.049 A 
ATOM     48  H   UNL A   1      39.889  30.844  32.186  1.00  0.00     0.167 HD
ATOM     49  C   UNL A   1      42.940  29.188  34.854  1.00  0.00     0.037 A 
ATOM     50  C   UNL A   1      37.785  32.563  31.528  1.00  0.00     0.037 A 
ATOM     51  C   UNL A   1      42.401  30.321  35.558  1.00  0.00     0.049 A 
ATOM     52  C   UNL A   1      38.269  32.999  32.882  1.00  0.00     0.074 A 
ATOM     53  C   UNL A   1      42.782  30.835  36.786  1.00  0.00     0.029 A 
ATOM     54  N   UNL A   1      41.367  31.122  35.094  1.00  0.00    -0.354 N 
ATOM     55  N   UNL A   1      39.224  32.486  33.620  1.00  0.00    -0.248 NA
ATOM     56  C   UNL A   1      37.593  34.155  33.488  1.00  0.00     0.031 C 
ATOM     57  C   UNL A   1      41.962  31.932  37.076  1.00  0.00     0.029 A 
ATOM     58  C   UNL A   1      41.091  32.120  36.015  1.00  0.00     0.049 A 
ATOM     59  H   UNL A   1      40.900  31.000  34.237  1.00  0.00     0.167 HD
ATOM     60  C   UNL A   1      39.271  33.261  34.772  1.00  0.00     0.074 A 
ATOM     61  C   UNL A   1      38.258  34.286  34.628  1.00  0.00     0.031 C 
ATOM     62  C   UNL A   1      40.079  33.133  35.853  1.00  0.00     0.037 A 
BRANCH  49  63
ATOM     63  C   UNL A   1      44.036  28.398  35.510  1.00  0.00     0.058 A 
ATOM     64  C   UNL A   1      45.390  28.685  35.281  1.00  0.00     0.135 A 
ATOM     65  C   UNL A   1      43.726  27.355  36.398  1.00  0.00     0.135 A 
ATOM     66  F   UNL A   1      45.740  29.660  34.427  1.00  0.00    -0.206 F 
ATOM     67  C   UNL A   1      46.401  27.951  35.893  1.00  0.00     0.059 A 
ATOM     68  C   UNL A   1      44.720  26.619  37.035  1.00  0.00     0.059 A 
ATOM     69  F   UNL A   1      42.446  27.039  36.648  1.00  0.00    -0.206 F 
ATOM     70  C   UNL A   1      46.056  26.915  36.765  1.00  0.00     0.060 A 
BRANCH  70  71
ATOM     71  S   UNL A   1      47.375  25.965  37.551  1.00  0.00     0.124 S 
ATOM     72  O   UNL A   1      46.878  24.601  37.400  1.00  0.00    -0.237 OA
ATOM     73  O   UNL A   1      48.539  26.308  36.740  1.00  0.00    -0.237 OA
ATOM     74  O   UNL A   1      47.394  26.480  38.917  1.00  0.00    -0.744 OA
ENDBRANCH  70  71
ENDBRANCH  49  63
BRANCH  50  75
ATOM     75  C   UNL A   1      36.661  33.261  30.856  1.00  0.00     0.058 A 
ATOM     76  C   UNL A   1      36.893  34.156  29.803  1.00  0.00     0.135 A 
ATOM     77  C   UNL A   1      35.330  33.024  31.236  1.00  0.00     0.135 A 
ATOM     78  F   UNL A   1      38.150  34.419  29.412  1.00  0.00    -0.206 F 
ATOM     79  C   UNL A   1      35.845  34.799  29.151  1.00  0.00     0.059 A 
ATOM     80  C   UNL A   1      34.266  33.639  30.587  1.00  0.00     0.059 A 
ATOM     81  F   UNL A   1      35.059  32.165  32.231  1.00  0.00    -0.206 F 
ATOM     82  C   UNL A   1      34.535  34.531  29.550  1.00  0.00     0.060 A 
BRANCH  82  83
ATOM     83  S   UNL A   1      33.174  35.316  28.658  1.00  0.00     0.124 S 
ATOM     84  O   UNL A   1      33.887  36.268  27.815  1.00  0.00    -0.237 OA
ATOM     85  O   UNL A   1      32.559  34.186  27.968  1.00  0.00    -0.237 OA
ATOM     86  O   UNL A   1      32.368  35.897  29.728  1.00  0.00    -0.744 OA
ENDBRANCH  82  83
ENDBRANCH  50  75
BRANCH  62  87
ATOM     87  C   UNL A   1      39.913  34.140  36.954  1.00  0.00     0.058 A 
ATOM     88  C   UNL A   1      40.554  35.387  36.907  1.00  0.00     0.135 A 
ATOM     89  C   UNL A   1      39.077  33.868  38.048  1.00  0.00     0.135 A 
ATOM     90  F   UNL A   1      41.370  35.689  35.885  1.00  0.00    -0.206 F 
ATOM     91  C   UNL A   1      40.387  36.326  37.919  1.00  0.00     0.059 A 
ATOM     92  C   UNL A   1      38.882  34.800  39.063  1.00  0.00     0.059 A 
ATOM     93  F   UNL A   1      38.436  32.692  38.133  1.00  0.00    -0.206 F 
ATOM     94  C   UNL A   1      39.550  36.021  38.996  1.00  0.00     0.060 A 
BRANCH  94  95
ATOM     95  S   UNL A   1      39.316  37.254  40.293  1.00  0.00     0.124 S 
ATOM     96  O   UNL A   1      38.599  36.484  41.304  1.00  0.00    -0.237 OA
ATOM     97  O   UNL A   1      40.687  37.623  40.633  1.00  0.00    -0.237 OA
ATOM     98  O   UNL A   1      38.540  38.298  39.630  1.00  0.00    -0.744 OA
ENDBRANCH  94  95
ENDBRANCH  62  87
ENDBRANCH  36  37
ENDBRANCH  29  31
ENDBRANCH  28  29
ENDBRANCH  27  28
ENDBRANCH   1  27
TORSDOF 18
ENDMDL
MODEL 2
REMARK VINA RESULT:     -11.5      6.242     11.895
REMARK SMILES CC[C@H]1CCCC[N@H+]1[C@@H]1CC(=O)N(c2nc(CC(=O)OCCOC(=O)c3ccc(-c4c5nc(c(-c6c(F)cc(S(=O)(=O)[O-])cc6F)c6ccc([nH]6)c(-c6c(F)cc(S(=O)(=O)[O-])cc6F)c6nc(c(-c7c(F)cc(S(=O)(=O)[O-])cc7F)c7ccc4[nH]7)C=C6)C=C5)cc3)cs2)C1=O
REMARK SMILES IDX 21 1 20 2 18 3 19 4 17 5 16 6 14 7 15 8 93 9 92 10 13 11
REMARK SMILES IDX 9 12 10 13 94 14 11 15 95 16 12 17 8 18 3 19 4 20 5 21 7 22
REMARK SMILES IDX 6 24 2 25 1 26 22 27 23 28 24 29 25 30 26 31 27 32 91 33
REMARK SMILES IDX 28 34 90 35 29 36 30 37 31 38 84 39 32 40 89 41 83 42 85 43
REMARK SMILES IDX 33 44 88 45 82 46 81 47 34 49 68 50 47 51 67 52 48 53 51 54
REMARK SMILES IDX 66 55 86 56 49 57 50 58 65 60 87 61 52 62 35 63 36 64 45 65
REMARK SMILES IDX 37 66 38 67 44 68 46 69 39 70 40 71 41 72 42 73 43 74 69 75
REMARK SMILES IDX 70 76 79 77 71 78 72 79 78 80 80 81 73 82 74 83 75 84 76 85
REMARK SMILES IDX 77 86 53 87 54 88 63 89 55 90 56 91 62 92 64 93 57 94 58 95
REMARK SMILES IDX 59 96 60 97 61 98
REMARK H PARENT 8 23 85 48 51 59
REMARK Flexibility Score: inf
ROOT
ATOM      1  C   UNL A   1      34.560  31.222  27.692  1.00  0.00     0.274 C 
ENDROOT
BRANCH   1   2
ATOM      2  O   UNL A   1      33.205  30.797  27.446  1.00  0.00    -0.462 OA
BRANCH   2   3
ATOM      3  C   UNL A   1      33.054  29.632  26.760  1.00  0.00     0.312 C 
ATOM      4  O   UNL A   1      33.143  28.516  27.264  1.00  0.00    -0.252 OA
BRANCH   3   5
ATOM      5  C   UNL A   1      32.823  29.824  25.280  1.00  0.00     0.179 C 
BRANCH   5   6
ATOM      6  C   UNL A   1      32.203  28.661  24.581  1.00  0.00     0.065 A 
ATOM      7  C   UNL A   1      32.302  26.664  23.656  1.00  0.00     0.199 A 
ATOM      8  N   UNL A   1      32.995  27.546  24.334  1.00  0.00    -0.224 NA
ATOM      9  S   UNL A   1      30.667  27.052  23.337  1.00  0.00    -0.104 S 
ATOM     10  C   UNL A   1      30.882  28.520  24.190  1.00  0.00     0.093 A 
BRANCH   7  11
ATOM     11  N   UNL A   1      32.697  25.418  23.285  1.00  0.00    -0.219 N 
ATOM     12  C   UNL A   1      33.415  23.211  23.422  1.00  0.00     0.285 C 
ATOM     13  C   UNL A   1      33.699  23.761  22.026  1.00  0.00     0.176 C 
ATOM     14  C   UNL A   1      32.776  24.381  24.167  1.00  0.00     0.294 C 
ATOM     15  C   UNL A   1      33.106  25.137  22.019  1.00  0.00     0.242 C 
ATOM     16  O   UNL A   1      32.399  24.353  25.332  1.00  0.00    -0.267 OA
ATOM     17  O   UNL A   1      33.093  25.849  21.026  1.00  0.00    -0.274 OA
BRANCH  12  18
ATOM     18  N   UNL A   1      34.552  22.662  24.175  1.00  0.00    -0.322 N 
ATOM     19  C   UNL A   1      34.272  21.539  25.076  1.00  0.00     0.184 C 
ATOM     20  C   UNL A   1      35.420  21.374  26.095  1.00  0.00     0.065 C 
ATOM     21  C   UNL A   1      36.820  21.415  25.486  1.00  0.00     0.012 C 
ATOM     22  C   UNL A   1      35.854  22.665  23.517  1.00  0.00     0.263 C 
ATOM     23  H   UNL A   1      34.689  23.416  24.848  1.00  0.00     0.349 HD
ATOM     24  C   UNL A   1      36.976  22.602  24.550  1.00  0.00     0.062 C 
BRANCH  19  25
ATOM     25  C   UNL A   1      33.813  20.192  24.461  1.00  0.00     0.061 C 
ATOM     26  C   UNL A   1      32.735  19.392  25.174  1.00  0.00     0.010 C 
ENDBRANCH  19  25
ENDBRANCH  12  18
ENDBRANCH   7  11
ENDBRANCH   5   6
ENDBRANCH   3   5
ENDBRANCH   2   3
ENDBRANCH   1   2
BRANCH   1  27
ATOM     27  C   UNL A   1      34.668  31.992  29.006  1.00  0.00     0.275 C 
BRANCH  27  28
ATOM     28  O   UNL A   1      36.047  32.133  29.391  1.00  0.00    -0.458 OA
BRANCH  28  29
ATOM     29  C   UNL A   1      36.448  31.346  30.414  1.00  0.00     0.338 C 
ATOM     30  O   UNL A   1      35.875  31.142  31.469  1.00  0.00    -0.246 OA
BRANCH  29  31
ATOM     31  C   UNL A   1      37.707  30.679  30.056  1.00  0.00     0.060 A 
ATOM     32  C   UNL A   1      38.597  30.312  31.067  1.00  0.00     0.016 A 
ATOM     33  C   UNL A   1      38.056  30.546  28.713  1.00  0.00     0.016 A 
ATOM     34  C   UNL A   1      39.865  29.841  30.735  1.00  0.00     0.010 A 
ATOM     35  C   UNL A   1      39.313  30.036  28.382  1.00  0.00     0.010 A 
ATOM     36  C   UNL A   1      40.236  29.704  29.390  1.00  0.00    -0.014 A 
BRANCH  36  37
ATOM     37  C   UNL A   1      41.602  29.247  29.034  1.00  0.00     0.031 A 
ATOM     38  C   UNL A   1      42.746  30.221  29.043  1.00  0.00     0.074 A 
ATOM     39  C   UNL A   1      41.809  27.961  28.695  1.00  0.00     0.049 A 
ATOM     40  N   UNL A   1      43.984  30.044  28.660  1.00  0.00    -0.248 NA
ATOM     41  C   UNL A   1      42.459  31.575  29.544  1.00  0.00     0.031 C 
ATOM     42  C   UNL A   1      40.783  26.917  28.673  1.00  0.00     0.029 A 
ATOM     43  N   UNL A   1      42.952  27.316  28.297  1.00  0.00    -0.354 N 
ATOM     44  C   UNL A   1      44.618  31.267  28.845  1.00  0.00     0.074 A 
ATOM     45  C   UNL A   1      43.624  32.181  29.368  1.00  0.00     0.031 C 
ATOM     46  C   UNL A   1      41.343  25.762  28.279  1.00  0.00     0.029 A 
ATOM     47  C   UNL A   1      42.754  25.993  27.982  1.00  0.00     0.049 A 
ATOM     48  H   UNL A   1      43.830  27.758  28.242  1.00  0.00     0.167 HD
ATOM     49  C   UNL A   1      45.909  31.595  28.603  1.00  0.00     0.037 A 
ATOM     50  C   UNL A   1      43.606  25.078  27.483  1.00  0.00     0.037 A 
ATOM     51  C   UNL A   1      46.900  30.676  28.105  1.00  0.00     0.049 A 
ATOM     52  C   UNL A   1      45.030  25.470  27.205  1.00  0.00     0.074 A 
ATOM     53  C   UNL A   1      48.238  30.910  27.842  1.00  0.00     0.029 A 
ATOM     54  N   UNL A   1      46.660  29.344  27.799  1.00  0.00    -0.354 N 
ATOM     55  N   UNL A   1      45.611  26.633  27.375  1.00  0.00    -0.248 NA
ATOM     56  C   UNL A   1      45.913  24.427  26.665  1.00  0.00     0.031 C 
ATOM     57  C   UNL A   1      48.803  29.725  27.354  1.00  0.00     0.029 A 
ATOM     58  C   UNL A   1      47.823  28.746  27.342  1.00  0.00     0.049 A 
ATOM     59  H   UNL A   1      45.792  28.890  27.895  1.00  0.00     0.167 HD
ATOM     60  C   UNL A   1      46.930  26.460  26.972  1.00  0.00     0.074 A 
ATOM     61  C   UNL A   1      47.065  25.077  26.564  1.00  0.00     0.031 C 
ATOM     62  C   UNL A   1      47.937  27.366  26.941  1.00  0.00     0.037 A 
BRANCH  49  63
ATOM     63  C   UNL A   1      46.319  33.018  28.849  1.00  0.00     0.058 A 
ATOM     64  C   UNL A   1      46.828  33.435  30.088  1.00  0.00     0.135 A 
ATOM     65  C   UNL A   1      46.224  33.972  27.823  1.00  0.00     0.135 A 
ATOM     66  F   UNL A   1      46.922  32.565  31.107  1.00  0.00    -0.206 F 
ATOM     67  C   UNL A   1      47.208  34.755  30.311  1.00  0.00     0.059 A 
ATOM     68  C   UNL A   1      46.616  35.294  28.017  1.00  0.00     0.059 A 
ATOM     69  F   UNL A   1      45.742  33.624  26.620  1.00  0.00    -0.206 F 
ATOM     70  C   UNL A   1      47.093  35.679  29.269  1.00  0.00     0.060 A 
BRANCH  70  71
ATOM     71  S   UNL A   1      47.584  37.390  29.569  1.00  0.00     0.124 S 
ATOM     72  O   UNL A   1      48.742  37.517  28.690  1.00  0.00    -0.237 OA
ATOM     73  O   UNL A   1      46.397  38.136  29.162  1.00  0.00    -0.237 OA
ATOM     74  O   UNL A   1      47.873  37.413  30.999  1.00  0.00    -0.744 OA
ENDBRANCH  70  71
ENDBRANCH  49  63
BRANCH  50  75
ATOM     75  C   UNL A   1      43.122  23.704  27.198  1.00  0.00     0.058 A 
ATOM     76  C   UNL A   1      42.726  23.332  25.906  1.00  0.00     0.135 A 
ATOM     77  C   UNL A   1      43.073  22.729  28.206  1.00  0.00     0.135 A 
ATOM     78  F   UNL A   1      42.749  24.234  24.912  1.00  0.00    -0.206 F 
ATOM     79  C   UNL A   1      42.292  22.041  25.622  1.00  0.00     0.059 A 
ATOM     80  C   UNL A   1      42.661  21.428  27.943  1.00  0.00     0.059 A 
ATOM     81  F   UNL A   1      43.454  23.036  29.456  1.00  0.00    -0.206 F 
ATOM     82  C   UNL A   1      42.267  21.095  26.648  1.00  0.00     0.060 A 
BRANCH  82  83
ATOM     83  S   UNL A   1      41.766  19.403  26.262  1.00  0.00     0.124 S 
ATOM     84  O   UNL A   1      42.194  18.690  27.459  1.00  0.00    -0.237 OA
ATOM     85  O   UNL A   1      40.324  19.539  26.079  1.00  0.00    -0.237 OA
ATOM     86  O   UNL A   1      42.516  19.105  25.045  1.00  0.00    -0.744 OA
ENDBRANCH  82  83
ENDBRANCH  50  75
BRANCH  62  87
ATOM     87  C   UNL A   1      49.278  26.883  26.469  1.00  0.00     0.058 A 
ATOM     88  C   UNL A   1      50.164  26.223  27.334  1.00  0.00     0.135 A 
ATOM     89  C   UNL A   1      49.665  27.050  25.130  1.00  0.00     0.135 A 
ATOM     90  F   UNL A   1      49.841  26.047  28.625  1.00  0.00    -0.206 F 
ATOM     91  C   UNL A   1      51.399  25.761  26.892  1.00  0.00     0.059 A 
ATOM     92  C   UNL A   1      50.887  26.580  24.662  1.00  0.00     0.059 A 
ATOM     93  F   UNL A   1      48.848  27.668  24.263  1.00  0.00    -0.206 F 
ATOM     94  C   UNL A   1      51.753  25.947  25.553  1.00  0.00     0.060 A 
BRANCH  94  95
ATOM     95  S   UNL A   1      53.346  25.321  24.979  1.00  0.00     0.124 S 
ATOM     96  O   UNL A   1      53.304  25.670  23.562  1.00  0.00    -0.237 OA
ATOM     97  O   UNL A   1      54.296  26.078  25.789  1.00  0.00    -0.237 OA
ATOM     98  O   UNL A   1      53.275  23.894  25.279  1.00  0.00    -0.744 OA
ENDBRANCH  94  95
ENDBRANCH  62  87
ENDBRANCH  36  37
ENDBRANCH  29  31
ENDBRANCH  28  29
ENDBRANCH  27  28
ENDBRANCH   1  27
TORSDOF 18
ENDMDL
MODEL 3
REMARK VINA RESULT:     -11.3      1.626      2.771
REMARK SMILES CC[C@H]1CCCC[N@H+]1[C@@H]1CC(=O)N(c2nc(CC(=O)OCCOC(=O)c3ccc(-c4c5nc(c(-c6c(F)cc(S(=O)(=O)[O-])cc6F)c6ccc([nH]6)c(-c6c(F)cc(S(=O)(=O)[O-])cc6F)c6nc(c(-c7c(F)cc(S(=O)(=O)[O-])cc7F)c7ccc4[nH]7)C=C6)C=C5)cc3)cs2)C1=O
REMARK SMILES IDX 21 1 20 2 18 3 19 4 17 5 16 6 14 7 15 8 93 9 92 10 13 11
REMARK SMILES IDX 9 12 10 13 94 14 11 15 95 16 12 17 8 18 3 19 4 20 5 21 7 22
REMARK SMILES IDX 6 24 2 25 1 26 22 27 23 28 24 29 25 30 26 31 27 32 91 33
REMARK SMILES IDX 28 34 90 35 29 36 30 37 31 38 84 39 32 40 89 41 83 42 85 43
REMARK SMILES IDX 33 44 88 45 82 46 81 47 34 49 68 50 47 51 67 52 48 53 51 54
REMARK SMILES IDX 66 55 86 56 49 57 50 58 65 60 87 61 52 62 35 63 36 64 45 65
REMARK SMILES IDX 37 66 38 67 44 68 46 69 39 70 40 71 41 72 42 73 43 74 69 75
REMARK SMILES IDX 70 76 79 77 71 78 72 79 78 80 80 81 73 82 74 83 75 84 76 85
REMARK SMILES IDX 77 86 53 87 54 88 63 89 55 90 56 91 62 92 64 93 57 94 58 95
REMARK SMILES IDX 59 96 60 97 61 98
REMARK H PARENT 8 23 85 48 51 59
REMARK Flexibility Score: inf
ROOT
ATOM      1  C   UNL A   1      42.803  21.737  25.955  1.00  0.00     0.274 C 
ENDROOT
BRANCH   1   2
ATOM      2  O   UNL A   1      42.063  21.629  27.187  1.00  0.00    -0.462 OA
BRANCH   2   3
ATOM      3  C   UNL A   1      41.056  20.715  27.206  1.00  0.00     0.312 C 
ATOM      4  O   UNL A   1      40.869  19.912  28.115  1.00  0.00    -0.252 OA
BRANCH   3   5
ATOM      5  C   UNL A   1      40.201  20.727  25.961  1.00  0.00     0.179 C 
BRANCH   5   6
ATOM      6  C   UNL A   1      39.124  21.760  25.943  1.00  0.00     0.065 A 
ATOM      7  C   UNL A   1      37.123  22.479  25.372  1.00  0.00     0.199 A 
ATOM      8  N   UNL A   1      37.910  21.432  25.352  1.00  0.00    -0.224 NA
ATOM      9  S   UNL A   1      37.724  23.879  26.149  1.00  0.00    -0.104 S 
ATOM     10  C   UNL A   1      39.159  23.021  26.514  1.00  0.00     0.093 A 
BRANCH   7  11
ATOM     11  N   UNL A   1      35.831  22.542  24.956  1.00  0.00    -0.219 N 
ATOM     12  C   UNL A   1      33.955  23.074  23.689  1.00  0.00     0.285 C 
ATOM     13  C   UNL A   1      33.526  22.640  25.089  1.00  0.00     0.176 C 
ATOM     14  C   UNL A   1      35.479  22.990  23.716  1.00  0.00     0.294 C 
ATOM     15  C   UNL A   1      34.792  22.224  25.775  1.00  0.00     0.242 C 
ATOM     16  O   UNL A   1      36.218  23.261  22.777  1.00  0.00    -0.267 OA
ATOM     17  O   UNL A   1      34.812  21.754  26.902  1.00  0.00    -0.274 OA
BRANCH  12  18
ATOM     18  N   UNL A   1      33.508  24.395  23.225  1.00  0.00    -0.322 N 
ATOM     19  C   UNL A   1      32.211  24.456  22.542  1.00  0.00     0.184 C 
ATOM     20  C   UNL A   1      32.090  25.772  21.744  1.00  0.00     0.065 C 
ATOM     21  C   UNL A   1      32.503  27.023  22.516  1.00  0.00     0.012 C 
ATOM     22  C   UNL A   1      33.874  25.549  24.039  1.00  0.00     0.263 C 
ATOM     23  H   UNL A   1      34.143  24.522  22.438  1.00  0.00     0.349 HD
ATOM     24  C   UNL A   1      33.843  26.826  23.204  1.00  0.00     0.062 C 
BRANCH  19  25
ATOM     25  C   UNL A   1      30.932  24.120  23.350  1.00  0.00     0.061 C 
ATOM     26  C   UNL A   1      29.954  25.239  23.670  1.00  0.00     0.010 C 
ENDBRANCH  19  25
ENDBRANCH  12  18
ENDBRANCH   7  11
ENDBRANCH   5   6
ENDBRANCH   3   5
ENDBRANCH   2   3
ENDBRANCH   1   2
BRANCH   1  27
ATOM     27  C   UNL A   1      43.257  23.174  25.706  1.00  0.00     0.275 C 
BRANCH  27  28
ATOM     28  O   UNL A   1      42.468  24.090  26.486  1.00  0.00    -0.458 OA
BRANCH  28  29
ATOM     29  C   UNL A   1      42.262  25.302  25.925  1.00  0.00     0.338 C 
ATOM     30  O   UNL A   1      42.328  25.601  24.746  1.00  0.00    -0.246 OA
BRANCH  29  31
ATOM     31  C   UNL A   1      41.869  26.263  26.963  1.00  0.00     0.060 A 
ATOM     32  C   UNL A   1      42.419  27.547  26.951  1.00  0.00     0.016 A 
ATOM     33  C   UNL A   1      41.062  25.842  28.019  1.00  0.00     0.016 A 
ATOM     34  C   UNL A   1      42.192  28.408  28.022  1.00  0.00     0.010 A 
ATOM     35  C   UNL A   1      40.803  26.721  29.073  1.00  0.00     0.010 A 
ATOM     36  C   UNL A   1      41.387  28.001  29.095  1.00  0.00    -0.014 A 
BRANCH  36  37
ATOM     37  C   UNL A   1      41.182  28.897  30.259  1.00  0.00     0.031 A 
ATOM     38  C   UNL A   1      42.067  28.773  31.468  1.00  0.00     0.074 A 
ATOM     39  C   UNL A   1      40.198  29.815  30.230  1.00  0.00     0.049 A 
ATOM     40  N   UNL A   1      41.979  29.384  32.620  1.00  0.00    -0.248 NA
ATOM     41  C   UNL A   1      43.194  27.832  31.369  1.00  0.00     0.031 C 
ATOM     42  C   UNL A   1      39.291  30.046  29.104  1.00  0.00     0.029 A 
ATOM     43  N   UNL A   1      39.792  30.717  31.179  1.00  0.00    -0.354 N 
ATOM     44  C   UNL A   1      43.020  28.885  33.395  1.00  0.00     0.074 A 
ATOM     45  C   UNL A   1      43.720  27.913  32.583  1.00  0.00     0.031 C 
ATOM     46  C   UNL A   1      38.433  31.027  29.429  1.00  0.00     0.029 A 
ATOM     47  C   UNL A   1      38.702  31.463  30.797  1.00  0.00     0.049 A 
ATOM     48  H   UNL A   1      40.239  30.822  32.050  1.00  0.00     0.167 HD
ATOM     49  C   UNL A   1      43.358  29.210  34.666  1.00  0.00     0.037 A 
ATOM     50  C   UNL A   1      37.983  32.372  31.481  1.00  0.00     0.037 A 
ATOM     51  C   UNL A   1      42.672  30.194  35.462  1.00  0.00     0.049 A 
ATOM     52  C   UNL A   1      38.368  32.703  32.896  1.00  0.00     0.074 A 
ATOM     53  C   UNL A   1      42.950  30.604  36.754  1.00  0.00     0.029 A 
ATOM     54  N   UNL A   1      41.574  30.928  35.038  1.00  0.00    -0.354 N 
ATOM     55  N   UNL A   1      39.346  32.214  33.618  1.00  0.00    -0.248 NA
ATOM     56  C   UNL A   1      37.548  33.706  33.590  1.00  0.00     0.031 C 
ATOM     57  C   UNL A   1      42.005  31.569  37.121  1.00  0.00     0.029 A 
ATOM     58  C   UNL A   1      41.157  31.782  36.046  1.00  0.00     0.049 A 
ATOM     59  H   UNL A   1      41.153  30.854  34.151  1.00  0.00     0.167 HD
ATOM     60  C   UNL A   1      39.267  32.856  34.848  1.00  0.00     0.074 A 
ATOM     61  C   UNL A   1      38.154  33.778  34.768  1.00  0.00     0.031 C 
ATOM     62  C   UNL A   1      40.045  32.694  35.946  1.00  0.00     0.037 A 
BRANCH  49  63
ATOM     63  C   UNL A   1      44.510  28.472  35.284  1.00  0.00     0.058 A 
ATOM     64  C   UNL A   1      45.833  28.914  35.138  1.00  0.00     0.135 A 
ATOM     65  C   UNL A   1      44.284  27.318  36.054  1.00  0.00     0.135 A 
ATOM     66  F   UNL A   1      46.104  30.001  34.397  1.00  0.00    -0.206 F 
ATOM     67  C   UNL A   1      46.897  28.227  35.715  1.00  0.00     0.059 A 
ATOM     68  C   UNL A   1      45.330  26.626  36.655  1.00  0.00     0.059 A 
ATOM     69  F   UNL A   1      43.037  26.853  36.222  1.00  0.00    -0.206 F 
ATOM     70  C   UNL A   1      46.635  27.080  36.467  1.00  0.00     0.060 A 
BRANCH  70  71
ATOM     71  S   UNL A   1      48.022  26.192  37.208  1.00  0.00     0.124 S 
ATOM     72  O   UNL A   1      47.717  26.313  38.630  1.00  0.00    -0.237 OA
ATOM     73  O   UNL A   1      47.881  24.854  36.642  1.00  0.00    -0.237 OA
ATOM     74  O   UNL A   1      49.188  26.942  36.749  1.00  0.00    -0.744 OA
ENDBRANCH  70  71
ENDBRANCH  49  63
BRANCH  50  75
ATOM     75  C   UNL A   1      36.813  33.018  30.836  1.00  0.00     0.058 A 
ATOM     76  C   UNL A   1      35.506  32.627  31.155  1.00  0.00     0.135 A 
ATOM     77  C   UNL A   1      36.981  34.059  29.909  1.00  0.00     0.135 A 
ATOM     78  F   UNL A   1      35.298  31.632  32.031  1.00  0.00    -0.206 F 
ATOM     79  C   UNL A   1      34.401  33.242  30.574  1.00  0.00     0.059 A 
ATOM     80  C   UNL A   1      35.893  34.701  29.329  1.00  0.00     0.059 A 
ATOM     81  F   UNL A   1      38.214  34.475  29.582  1.00  0.00    -0.206 F 
ATOM     82  C   UNL A   1      34.606  34.280  29.664  1.00  0.00     0.060 A 
BRANCH  82  83
ATOM     83  S   UNL A   1      33.169  35.120  28.960  1.00  0.00     0.124 S 
ATOM     84  O   UNL A   1      32.668  34.114  28.032  1.00  0.00    -0.237 OA
ATOM     85  O   UNL A   1      32.346  35.369  30.140  1.00  0.00    -0.237 OA
ATOM     86  O   UNL A   1      33.748  36.313  28.349  1.00  0.00    -0.744 OA
ENDBRANCH  82  83
ENDBRANCH  50  75
BRANCH  62  87
ATOM     87  C   UNL A   1      39.731  33.548  37.140  1.00  0.00     0.058 A 
ATOM     88  C   UNL A   1      38.791  33.146  38.101  1.00  0.00     0.135 A 
ATOM     89  C   UNL A   1      40.404  34.763  37.344  1.00  0.00     0.135 A 
ATOM     90  F   UNL A   1      38.117  31.996  37.945  1.00  0.00    -0.206 F 
ATOM     91  C   UNL A   1      38.513  33.930  39.215  1.00  0.00     0.059 A 
ATOM     92  C   UNL A   1      40.155  35.554  38.460  1.00  0.00     0.059 A 
ATOM     93  F   UNL A   1      41.319  35.186  36.457  1.00  0.00    -0.206 F 
ATOM     94  C   UNL A   1      39.199  35.135  39.385  1.00  0.00     0.060 A 
BRANCH  94  95
ATOM     95  S   UNL A   1      38.854  36.136  40.847  1.00  0.00     0.124 S 
ATOM     96  O   UNL A   1      37.746  35.402  41.450  1.00  0.00    -0.237 OA
ATOM     97  O   UNL A   1      40.118  36.082  41.575  1.00  0.00    -0.237 OA
ATOM     98  O   UNL A   1      38.516  37.442  40.289  1.00  0.00    -0.744 OA
ENDBRANCH  94  95
ENDBRANCH  62  87
ENDBRANCH  36  37
ENDBRANCH  29  31
ENDBRANCH  28  29
ENDBRANCH  27  28
ENDBRANCH   1  27
TORSDOF 18
ENDMDL
