MODEL 1
REMARK VINA RESULT:      -9.0      0.000      0.000
REMARK SMILES C#CCN(CC(=O)OCCOC(=O)c1ccc(-c2c3nc(c(-c4c(F)cc(S(=O)(=O)[O-])cc4F)c4ccc([nH]4)c(-c4c(F)cc(S(=O)(=O)[O-])cc4F)c4nc(c(-c5c(F)cc(S(=O)(=O)[O-])cc5F)c5ccc2[nH]5)C=C4)C=C3)cc1)C(=O)C(C)(C)[NH2+]CC
REMARK SMILES IDX 9 1 8 2 6 3 7 4 5 5 4 6 3 7 2 8 1 9 80 10 81 11 82 12 83 13
REMARK SMILES IDX 84 14 85 15 86 18 87 19 10 20 11 21 12 22 13 23 14 24 15 25
REMARK SMILES IDX 79 26 16 27 78 28 17 29 18 30 19 31 72 32 20 33 77 34 71 35
REMARK SMILES IDX 73 36 21 37 76 38 70 39 69 40 22 42 56 43 35 44 55 45 36 46
REMARK SMILES IDX 39 47 54 48 74 49 37 50 38 51 53 53 75 54 40 55 23 56 24 57
REMARK SMILES IDX 33 58 25 59 26 60 32 61 34 62 27 63 28 64 29 65 30 66 31 67
REMARK SMILES IDX 57 68 58 69 67 70 59 71 60 72 66 73 68 74 61 75 62 76 63 77
REMARK SMILES IDX 64 78 65 79 41 80 42 81 51 82 43 83 44 84 50 85 52 86 45 87
REMARK SMILES IDX 46 88 47 89 48 90 49 91
REMARK H PARENT 85 16 85 17 73 41 39 52
REMARK Flexibility Score: inf
ROOT
ATOM      1  C   UNL A   1      32.601  30.744  26.706  1.00  0.00     0.274 C 
ENDROOT
BRANCH   1   2
ATOM      2  O   UNL A   1      33.477  29.812  26.050  1.00  0.00    -0.461 OA
BRANCH   2   3
ATOM      3  C   UNL A   1      32.987  28.554  25.874  1.00  0.00     0.325 C 
ATOM      4  O   UNL A   1      33.610  27.520  26.082  1.00  0.00    -0.250 OA
BRANCH   3   5
ATOM      5  C   UNL A   1      31.478  28.607  25.617  1.00  0.00     0.243 C 
BRANCH   5   6
ATOM      6  N   UNL A   1      30.968  27.804  24.499  1.00  0.00    -0.315 N 
BRANCH   6   7
ATOM      7  C   UNL A   1      30.897  28.537  23.249  1.00  0.00     0.210 C 
BRANCH   7   8
ATOM      8  C   UNL A   1      29.927  29.700  23.385  1.00  0.00    -0.085 C 
ATOM      9  C   UNL A   1      29.096  30.697  23.502  1.00  0.00     0.006 C 
ENDBRANCH   7   8
ENDBRANCH   6   7
BRANCH   6  10
ATOM     10  C   UNL A   1      30.374  26.532  24.492  1.00  0.00     0.284 C 
ATOM     11  O   UNL A   1      29.137  26.456  24.442  1.00  0.00    -0.268 OA
BRANCH  10  12
ATOM     12  C   UNL A   1      31.223  25.205  24.549  1.00  0.00     0.170 C 
ATOM     13  C   UNL A   1      31.254  24.560  25.924  1.00  0.00     0.090 C 
ATOM     14  C   UNL A   1      30.652  24.264  23.490  1.00  0.00     0.090 C 
BRANCH  12  15
ATOM     15  N   UNL A   1      32.627  25.416  24.095  1.00  0.00    -0.334 N 
ATOM     16  H   UNL A   1      33.201  24.699  24.540  1.00  0.00     0.347 HD
ATOM     17  H   UNL A   1      32.839  26.378  24.360  1.00  0.00     0.347 HD
BRANCH  15  18
ATOM     18  C   UNL A   1      32.900  25.363  22.660  1.00  0.00     0.257 C 
ATOM     19  C   UNL A   1      33.649  26.576  22.107  1.00  0.00     0.071 C 
ENDBRANCH  15  18
ENDBRANCH  12  15
ENDBRANCH  10  12
ENDBRANCH   6  10
ENDBRANCH   5   6
ENDBRANCH   3   5
ENDBRANCH   2   3
ENDBRANCH   1   2
BRANCH   1  20
ATOM     20  C   UNL A   1      33.433  31.700  27.589  1.00  0.00     0.275 C 
BRANCH  20  21
ATOM     21  O   UNL A   1      33.236  33.132  27.420  1.00  0.00    -0.458 OA
BRANCH  21  22
ATOM     22  C   UNL A   1      33.292  33.947  28.493  1.00  0.00     0.338 C 
ATOM     23  O   UNL A   1      32.530  34.869  28.732  1.00  0.00    -0.246 OA
BRANCH  22  24
ATOM     24  C   UNL A   1      34.531  33.721  29.285  1.00  0.00     0.060 A 
ATOM     25  C   UNL A   1      34.381  33.022  30.487  1.00  0.00     0.016 A 
ATOM     26  C   UNL A   1      35.805  34.169  28.910  1.00  0.00     0.016 A 
ATOM     27  C   UNL A   1      35.476  32.802  31.321  1.00  0.00     0.010 A 
ATOM     28  C   UNL A   1      36.930  33.829  29.691  1.00  0.00     0.010 A 
ATOM     29  C   UNL A   1      36.777  33.108  30.886  1.00  0.00    -0.014 A 
BRANCH  29  30
ATOM     30  C   UNL A   1      37.916  32.431  31.578  1.00  0.00     0.031 A 
ATOM     31  C   UNL A   1      38.713  31.311  30.968  1.00  0.00     0.074 A 
ATOM     32  C   UNL A   1      38.245  32.902  32.802  1.00  0.00     0.049 A 
ATOM     33  N   UNL A   1      39.701  30.633  31.496  1.00  0.00    -0.248 NA
ATOM     34  C   UNL A   1      38.368  30.896  29.601  1.00  0.00     0.031 C 
ATOM     35  C   UNL A   1      37.543  33.990  33.496  1.00  0.00     0.029 A 
ATOM     36  N   UNL A   1      39.253  32.568  33.671  1.00  0.00    -0.354 N 
ATOM     37  C   UNL A   1      40.084  29.693  30.544  1.00  0.00     0.074 A 
ATOM     38  C   UNL A   1      39.221  29.896  29.397  1.00  0.00     0.031 C 
ATOM     39  C   UNL A   1      38.180  34.283  34.634  1.00  0.00     0.029 A 
ATOM     40  C   UNL A   1      39.256  33.325  34.822  1.00  0.00     0.049 A 
ATOM     41  H   UNL A   1      39.910  31.858  33.489  1.00  0.00     0.167 HD
ATOM     42  C   UNL A   1      41.054  28.749  30.633  1.00  0.00     0.037 A 
ATOM     43  C   UNL A   1      39.996  33.233  35.941  1.00  0.00     0.037 A 
ATOM     44  C   UNL A   1      41.910  28.573  31.786  1.00  0.00     0.049 A 
ATOM     45  C   UNL A   1      41.029  32.156  36.026  1.00  0.00     0.074 A 
ATOM     46  C   UNL A   1      42.929  27.651  31.970  1.00  0.00     0.029 A 
ATOM     47  N   UNL A   1      41.846  29.325  32.952  1.00  0.00    -0.354 N 
ATOM     48  N   UNL A   1      41.357  31.267  35.120  1.00  0.00    -0.248 NA
ATOM     49  C   UNL A   1      41.777  32.051  37.283  1.00  0.00     0.031 C 
ATOM     50  C   UNL A   1      43.444  27.814  33.261  1.00  0.00     0.029 A 
ATOM     51  C   UNL A   1      42.785  28.871  33.866  1.00  0.00     0.049 A 
ATOM     52  H   UNL A   1      41.224  30.072  33.107  1.00  0.00     0.167 HD
ATOM     53  C   UNL A   1      42.351  30.491  35.697  1.00  0.00     0.074 A 
ATOM     54  C   UNL A   1      42.589  31.036  37.021  1.00  0.00     0.031 C 
ATOM     55  C   UNL A   1      43.001  29.420  35.182  1.00  0.00     0.037 A 
BRANCH  42  56
ATOM     56  C   UNL A   1      41.235  27.792  29.483  1.00  0.00     0.058 A 
ATOM     57  C   UNL A   1      42.333  27.868  28.613  1.00  0.00     0.135 A 
ATOM     58  C   UNL A   1      40.337  26.723  29.307  1.00  0.00     0.135 A 
ATOM     59  F   UNL A   1      43.217  28.870  28.726  1.00  0.00    -0.206 F 
ATOM     60  C   UNL A   1      42.530  26.924  27.605  1.00  0.00     0.059 A 
ATOM     61  C   UNL A   1      40.526  25.758  28.321  1.00  0.00     0.059 A 
ATOM     62  F   UNL A   1      39.271  26.599  30.112  1.00  0.00    -0.206 F 
ATOM     63  C   UNL A   1      41.623  25.871  27.468  1.00  0.00     0.060 A 
BRANCH  63  64
ATOM     64  S   UNL A   1      41.905  24.642  26.174  1.00  0.00     0.124 S 
ATOM     65  O   UNL A   1      40.642  23.909  26.189  1.00  0.00    -0.237 OA
ATOM     66  O   UNL A   1      42.140  25.474  24.999  1.00  0.00    -0.237 OA
ATOM     67  O   UNL A   1      43.066  23.899  26.655  1.00  0.00    -0.744 OA
ENDBRANCH  63  64
ENDBRANCH  42  56
BRANCH  43  68
ATOM     68  C   UNL A   1      39.714  34.144  37.084  1.00  0.00     0.058 A 
ATOM     69  C   UNL A   1      38.848  33.774  38.120  1.00  0.00     0.135 A 
ATOM     70  C   UNL A   1      40.358  35.390  37.181  1.00  0.00     0.135 A 
ATOM     71  F   UNL A   1      38.206  32.598  38.071  1.00  0.00    -0.206 F 
ATOM     72  C   UNL A   1      38.629  34.606  39.215  1.00  0.00     0.059 A 
ATOM     73  C   UNL A   1      40.181  36.223  38.280  1.00  0.00     0.059 A 
ATOM     74  F   UNL A   1      41.212  35.784  36.224  1.00  0.00    -0.206 F 
ATOM     75  C   UNL A   1      39.306  35.826  39.288  1.00  0.00     0.060 A 
BRANCH  75  76
ATOM     76  S   UNL A   1      39.070  36.873  40.740  1.00  0.00     0.124 S 
ATOM     77  O   UNL A   1      38.196  36.042  41.559  1.00  0.00    -0.237 OA
ATOM     78  O   UNL A   1      40.436  37.038  41.227  1.00  0.00    -0.237 OA
ATOM     79  O   UNL A   1      38.462  38.079  40.185  1.00  0.00    -0.744 OA
ENDBRANCH  75  76
ENDBRANCH  43  68
BRANCH  55  80
ATOM     80  C   UNL A   1      44.044  28.786  36.054  1.00  0.00     0.058 A 
ATOM     81  C   UNL A   1      45.374  29.234  36.052  1.00  0.00     0.135 A 
ATOM     82  C   UNL A   1      43.707  27.723  36.907  1.00  0.00     0.135 A 
ATOM     83  F   UNL A   1      45.748  30.238  35.242  1.00  0.00    -0.206 F 
ATOM     84  C   UNL A   1      46.343  28.631  36.845  1.00  0.00     0.059 A 
ATOM     85  C   UNL A   1      44.655  27.121  37.727  1.00  0.00     0.059 A 
ATOM     86  F   UNL A   1      42.447  27.261  36.947  1.00  0.00    -0.206 F 
ATOM     87  C   UNL A   1      45.973  27.573  37.679  1.00  0.00     0.060 A 
BRANCH  87  88
ATOM     88  S   UNL A   1      47.236  26.806  38.715  1.00  0.00     0.124 S 
ATOM     89  O   UNL A   1      46.520  26.644  39.977  1.00  0.00    -0.237 OA
ATOM     90  O   UNL A   1      47.530  25.574  37.990  1.00  0.00    -0.237 OA
ATOM     91  O   UNL A   1      48.311  27.793  38.724  1.00  0.00    -0.744 OA
ENDBRANCH  87  88
ENDBRANCH  55  80
ENDBRANCH  29  30
ENDBRANCH  22  24
ENDBRANCH  21  22
ENDBRANCH  20  21
ENDBRANCH   1  20
TORSDOF 21
ENDMDL
MODEL 2
REMARK VINA RESULT:      -8.2      4.537     11.019
REMARK SMILES C#CCN(CC(=O)OCCOC(=O)c1ccc(-c2c3nc(c(-c4c(F)cc(S(=O)(=O)[O-])cc4F)c4ccc([nH]4)c(-c4c(F)cc(S(=O)(=O)[O-])cc4F)c4nc(c(-c5c(F)cc(S(=O)(=O)[O-])cc5F)c5ccc2[nH]5)C=C4)C=C3)cc1)C(=O)C(C)(C)[NH2+]CC
REMARK SMILES IDX 9 1 8 2 6 3 7 4 5 5 4 6 3 7 2 8 1 9 80 10 81 11 82 12 83 13
REMARK SMILES IDX 84 14 85 15 86 18 87 19 10 20 11 21 12 22 13 23 14 24 15 25
REMARK SMILES IDX 79 26 16 27 78 28 17 29 18 30 19 31 72 32 20 33 77 34 71 35
REMARK SMILES IDX 73 36 21 37 76 38 70 39 69 40 22 42 56 43 35 44 55 45 36 46
REMARK SMILES IDX 39 47 54 48 74 49 37 50 38 51 53 53 75 54 40 55 23 56 24 57
REMARK SMILES IDX 33 58 25 59 26 60 32 61 34 62 27 63 28 64 29 65 30 66 31 67
REMARK SMILES IDX 57 68 58 69 67 70 59 71 60 72 66 73 68 74 61 75 62 76 63 77
REMARK SMILES IDX 64 78 65 79 41 80 42 81 51 82 43 83 44 84 50 85 52 86 45 87
REMARK SMILES IDX 46 88 47 89 48 90 49 91
REMARK H PARENT 85 16 85 17 73 41 39 52
REMARK Flexibility Score: inf
ROOT
ATOM      1  C   UNL A   1      44.488  22.863  25.468  1.00  0.00     0.274 C 
ENDROOT
BRANCH   1   2
ATOM      2  O   UNL A   1      45.008  24.007  24.769  1.00  0.00    -0.461 OA
BRANCH   2   3
ATOM      3  C   UNL A   1      46.139  24.560  25.287  1.00  0.00     0.325 C 
ATOM      4  O   UNL A   1      46.783  25.463  24.767  1.00  0.00    -0.250 OA
BRANCH   3   5
ATOM      5  C   UNL A   1      46.356  24.072  26.722  1.00  0.00     0.243 C 
BRANCH   5   6
ATOM      6  N   UNL A   1      46.093  25.038  27.797  1.00  0.00    -0.315 N 
BRANCH   6   7
ATOM      7  C   UNL A   1      44.680  25.254  28.044  1.00  0.00     0.210 C 
BRANCH   7   8
ATOM      8  C   UNL A   1      44.219  24.389  29.206  1.00  0.00    -0.085 C 
ATOM      9  C   UNL A   1      43.823  23.647  30.202  1.00  0.00     0.006 C 
ENDBRANCH   7   8
ENDBRANCH   6   7
BRANCH   6  10
ATOM     10  C   UNL A   1      46.968  25.902  28.473  1.00  0.00     0.284 C 
ATOM     11  O   UNL A   1      47.427  25.542  29.568  1.00  0.00    -0.268 OA
BRANCH  10  12
ATOM     12  C   UNL A   1      47.382  27.307  27.892  1.00  0.00     0.170 C 
ATOM     13  C   UNL A   1      46.200  28.165  27.473  1.00  0.00     0.090 C 
ATOM     14  C   UNL A   1      48.238  27.995  28.953  1.00  0.00     0.090 C 
BRANCH  12  15
ATOM     15  N   UNL A   1      48.311  27.184  26.732  1.00  0.00    -0.334 N 
ATOM     16  H   UNL A   1      48.332  28.090  26.263  1.00  0.00     0.347 HD
ATOM     17  H   UNL A   1      47.933  26.413  26.183  1.00  0.00     0.347 HD
BRANCH  15  18
ATOM     18  C   UNL A   1      49.695  26.800  26.999  1.00  0.00     0.257 C 
ATOM     19  C   UNL A   1      50.043  25.361  26.619  1.00  0.00     0.071 C 
ENDBRANCH  15  18
ENDBRANCH  12  15
ENDBRANCH  10  12
ENDBRANCH   6  10
ENDBRANCH   5   6
ENDBRANCH   3   5
ENDBRANCH   2   3
ENDBRANCH   1   2
BRANCH   1  20
ATOM     20  C   UNL A   1      42.950  22.835  25.337  1.00  0.00     0.275 C 
BRANCH  20  21
ATOM     21  O   UNL A   1      42.213  24.045  25.669  1.00  0.00    -0.458 OA
BRANCH  21  22
ATOM     22  C   UNL A   1      41.163  23.979  26.514  1.00  0.00     0.338 C 
ATOM     23  O   UNL A   1      40.338  23.082  26.558  1.00  0.00    -0.246 OA
BRANCH  22  24
ATOM     24  C   UNL A   1      41.000  25.241  27.282  1.00  0.00     0.060 A 
ATOM     25  C   UNL A   1      40.149  25.187  28.391  1.00  0.00     0.016 A 
ATOM     26  C   UNL A   1      41.626  26.453  26.960  1.00  0.00     0.016 A 
ATOM     27  C   UNL A   1      39.896  26.331  29.147  1.00  0.00     0.010 A 
ATOM     28  C   UNL A   1      41.471  27.573  27.804  1.00  0.00     0.010 A 
ATOM     29  C   UNL A   1      40.632  27.509  28.928  1.00  0.00    -0.014 A 
BRANCH  29  30
ATOM     30  C   UNL A   1      40.677  28.513  30.035  1.00  0.00     0.031 A 
ATOM     31  C   UNL A   1      39.674  29.621  30.195  1.00  0.00     0.074 A 
ATOM     32  C   UNL A   1      41.667  28.363  30.945  1.00  0.00     0.049 A 
ATOM     33  N   UNL A   1      39.641  30.566  31.102  1.00  0.00    -0.248 NA
ATOM     34  C   UNL A   1      38.570  29.685  29.227  1.00  0.00     0.031 C 
ATOM     35  C   UNL A   1      42.699  27.320  30.893  1.00  0.00     0.029 A 
ATOM     36  N   UNL A   1      41.961  29.047  32.097  1.00  0.00    -0.354 N 
ATOM     37  C   UNL A   1      38.533  31.355  30.806  1.00  0.00     0.074 A 
ATOM     38  C   UNL A   1      37.914  30.769  29.633  1.00  0.00     0.031 C 
ATOM     39  C   UNL A   1      43.458  27.383  31.992  1.00  0.00     0.029 A 
ATOM     40  C   UNL A   1      43.056  28.547  32.765  1.00  0.00     0.049 A 
ATOM     41  H   UNL A   1      41.440  29.820  32.416  1.00  0.00     0.167 HD
ATOM     42  C   UNL A   1      38.093  32.464  31.449  1.00  0.00     0.037 A 
ATOM     43  C   UNL A   1      43.716  28.996  33.848  1.00  0.00     0.037 A 
ATOM     44  C   UNL A   1      38.723  33.024  32.625  1.00  0.00     0.049 A 
ATOM     45  C   UNL A   1      43.231  30.245  34.510  1.00  0.00     0.074 A 
ATOM     46  C   UNL A   1      38.347  34.140  33.356  1.00  0.00     0.029 A 
ATOM     47  N   UNL A   1      39.861  32.518  33.240  1.00  0.00    -0.354 N 
ATOM     48  N   UNL A   1      42.194  30.984  34.198  1.00  0.00    -0.248 NA
ATOM     49  C   UNL A   1      44.008  30.736  35.652  1.00  0.00     0.031 C 
ATOM     50  C   UNL A   1      39.283  34.336  34.377  1.00  0.00     0.029 A 
ATOM     51  C   UNL A   1      40.215  33.313  34.319  1.00  0.00     0.049 A 
ATOM     52  H   UNL A   1      40.346  31.711  32.951  1.00  0.00     0.167 HD
ATOM     53  C   UNL A   1      42.193  32.033  35.105  1.00  0.00     0.074 A 
ATOM     54  C   UNL A   1      43.318  31.815  35.996  1.00  0.00     0.031 C 
ATOM     55  C   UNL A   1      41.344  33.086  35.188  1.00  0.00     0.037 A 
BRANCH  42  56
ATOM     56  C   UNL A   1      36.897  33.192  30.891  1.00  0.00     0.058 A 
ATOM     57  C   UNL A   1      36.982  34.007  29.752  1.00  0.00     0.135 A 
ATOM     58  C   UNL A   1      35.624  32.994  31.456  1.00  0.00     0.135 A 
ATOM     59  F   UNL A   1      38.170  34.240  29.175  1.00  0.00    -0.206 F 
ATOM     60  C   UNL A   1      35.850  34.605  29.199  1.00  0.00     0.059 A 
ATOM     61  C   UNL A   1      34.478  33.564  30.907  1.00  0.00     0.059 A 
ATOM     62  F   UNL A   1      35.483  32.221  32.544  1.00  0.00    -0.206 F 
ATOM     63  C   UNL A   1      34.602  34.376  29.781  1.00  0.00     0.060 A 
BRANCH  63  64
ATOM     64  S   UNL A   1      33.141  35.138  29.039  1.00  0.00     0.124 S 
ATOM     65  O   UNL A   1      33.712  36.347  28.452  1.00  0.00    -0.237 OA
ATOM     66  O   UNL A   1      32.705  34.119  28.090  1.00  0.00    -0.237 OA
ATOM     67  O   UNL A   1      32.253  35.353  30.177  1.00  0.00    -0.744 OA
ENDBRANCH  63  64
ENDBRANCH  42  56
BRANCH  43  68
ATOM     68  C   UNL A   1      44.945  28.292  34.302  1.00  0.00     0.058 A 
ATOM     69  C   UNL A   1      44.888  27.221  35.203  1.00  0.00     0.135 A 
ATOM     70  C   UNL A   1      46.206  28.650  33.790  1.00  0.00     0.135 A 
ATOM     71  F   UNL A   1      43.711  26.845  35.723  1.00  0.00    -0.206 F 
ATOM     72  C   UNL A   1      46.035  26.529  35.583  1.00  0.00     0.059 A 
ATOM     73  C   UNL A   1      47.360  27.953  34.128  1.00  0.00     0.059 A 
ATOM     74  F   UNL A   1      46.313  29.657  32.909  1.00  0.00    -0.206 F 
ATOM     75  C   UNL A   1      47.265  26.900  35.034  1.00  0.00     0.060 A 
BRANCH  75  76
ATOM     76  S   UNL A   1      48.741  25.959  35.478  1.00  0.00     0.124 S 
ATOM     77  O   UNL A   1      49.502  26.007  34.235  1.00  0.00    -0.237 OA
ATOM     78  O   UNL A   1      49.281  26.737  36.589  1.00  0.00    -0.237 OA
ATOM     79  O   UNL A   1      48.205  24.651  35.843  1.00  0.00    -0.744 OA
ENDBRANCH  75  76
ENDBRANCH  43  68
BRANCH  55  80
ATOM     80  C   UNL A   1      41.597  34.065  36.295  1.00  0.00     0.058 A 
ATOM     81  C   UNL A   1      41.046  33.887  37.574  1.00  0.00     0.135 A 
ATOM     82  C   UNL A   1      42.406  35.191  36.076  1.00  0.00     0.135 A 
ATOM     83  F   UNL A   1      40.254  32.833  37.828  1.00  0.00    -0.206 F 
ATOM     84  C   UNL A   1      41.266  34.807  38.592  1.00  0.00     0.059 A 
ATOM     85  C   UNL A   1      42.659  36.112  37.088  1.00  0.00     0.059 A 
ATOM     86  F   UNL A   1      42.958  35.404  34.871  1.00  0.00    -0.206 F 
ATOM     87  C   UNL A   1      42.073  35.919  38.338  1.00  0.00     0.060 A 
BRANCH  87  88
ATOM     88  S   UNL A   1      42.362  37.101  39.670  1.00  0.00     0.124 S 
ATOM     89  O   UNL A   1      42.169  36.264  40.851  1.00  0.00    -0.237 OA
ATOM     90  O   UNL A   1      43.732  37.531  39.415  1.00  0.00    -0.237 OA
ATOM     91  O   UNL A   1      41.340  38.119  39.447  1.00  0.00    -0.744 OA
ENDBRANCH  87  88
ENDBRANCH  55  80
ENDBRANCH  29  30
ENDBRANCH  22  24
ENDBRANCH  21  22
ENDBRANCH  20  21
ENDBRANCH   1  20
TORSDOF 21
ENDMDL
MODEL 3
REMARK VINA RESULT:      -8.1      8.728     13.495
REMARK SMILES C#CCN(CC(=O)OCCOC(=O)c1ccc(-c2c3nc(c(-c4c(F)cc(S(=O)(=O)[O-])cc4F)c4ccc([nH]4)c(-c4c(F)cc(S(=O)(=O)[O-])cc4F)c4nc(c(-c5c(F)cc(S(=O)(=O)[O-])cc5F)c5ccc2[nH]5)C=C4)C=C3)cc1)C(=O)C(C)(C)[NH2+]CC
REMARK SMILES IDX 9 1 8 2 6 3 7 4 5 5 4 6 3 7 2 8 1 9 80 10 81 11 82 12 83 13
REMARK SMILES IDX 84 14 85 15 86 18 87 19 10 20 11 21 12 22 13 23 14 24 15 25
REMARK SMILES IDX 79 26 16 27 78 28 17 29 18 30 19 31 72 32 20 33 77 34 71 35
REMARK SMILES IDX 73 36 21 37 76 38 70 39 69 40 22 42 56 43 35 44 55 45 36 46
REMARK SMILES IDX 39 47 54 48 74 49 37 50 38 51 53 53 75 54 40 55 23 56 24 57
REMARK SMILES IDX 33 58 25 59 26 60 32 61 34 62 27 63 28 64 29 65 30 66 31 67
REMARK SMILES IDX 57 68 58 69 67 70 59 71 60 72 66 73 68 74 61 75 62 76 63 77
REMARK SMILES IDX 64 78 65 79 41 80 42 81 51 82 43 83 44 84 50 85 52 86 45 87
REMARK SMILES IDX 46 88 47 89 48 90 49 91
REMARK H PARENT 85 16 85 17 73 41 39 52
REMARK Flexibility Score: inf
ROOT
ATOM      1  C   UNL A   1      45.425  40.374  27.785  1.00  0.00     0.274 C 
ENDROOT
BRANCH   1   2
ATOM      2  O   UNL A   1      45.016  40.040  26.448  1.00  0.00    -0.461 OA
BRANCH   2   3
ATOM      3  C   UNL A   1      45.183  41.013  25.511  1.00  0.00     0.325 C 
ATOM      4  O   UNL A   1      45.823  40.890  24.474  1.00  0.00    -0.250 OA
BRANCH   3   5
ATOM      5  C   UNL A   1      44.260  42.198  25.811  1.00  0.00     0.243 C 
BRANCH   5   6
ATOM      6  N   UNL A   1      44.254  43.297  24.837  1.00  0.00    -0.315 N 
BRANCH   6   7
ATOM      7  C   UNL A   1      44.870  44.512  25.335  1.00  0.00     0.210 C 
BRANCH   7   8
ATOM      8  C   UNL A   1      46.363  44.296  25.523  1.00  0.00    -0.085 C 
ATOM      9  C   UNL A   1      47.644  44.111  25.684  1.00  0.00     0.006 C 
ENDBRANCH   7   8
ENDBRANCH   6   7
BRANCH   6  10
ATOM     10  C   UNL A   1      43.594  43.411  23.604  1.00  0.00     0.284 C 
ATOM     11  O   UNL A   1      42.354  43.458  23.598  1.00  0.00    -0.268 OA
BRANCH  10  12
ATOM     12  C   UNL A   1      44.371  43.480  22.234  1.00  0.00     0.170 C 
ATOM     13  C   UNL A   1      43.610  42.867  21.071  1.00  0.00     0.090 C 
ATOM     14  C   UNL A   1      44.709  44.948  21.985  1.00  0.00     0.090 C 
BRANCH  12  15
ATOM     15  N   UNL A   1      45.711  42.831  22.315  1.00  0.00    -0.334 N 
ATOM     16  H   UNL A   1      45.724  42.266  23.164  1.00  0.00     0.347 HD
ATOM     17  H   UNL A   1      46.372  43.607  22.291  1.00  0.00     0.347 HD
BRANCH  15  18
ATOM     18  C   UNL A   1      46.122  41.966  21.211  1.00  0.00     0.257 C 
ATOM     19  C   UNL A   1      47.540  41.407  21.332  1.00  0.00     0.071 C 
ENDBRANCH  15  18
ENDBRANCH  12  15
ENDBRANCH  10  12
ENDBRANCH   6  10
ENDBRANCH   5   6
ENDBRANCH   3   5
ENDBRANCH   2   3
ENDBRANCH   1   2
BRANCH   1  20
ATOM     20  C   UNL A   1      45.154  39.177  28.722  1.00  0.00     0.275 C 
BRANCH  20  21
ATOM     21  O   UNL A   1      45.562  37.853  28.275  1.00  0.00    -0.458 OA
BRANCH  21  22
ATOM     22  C   UNL A   1      46.579  37.222  28.895  1.00  0.00     0.338 C 
ATOM     23  O   UNL A   1      47.456  37.756  29.554  1.00  0.00    -0.246 OA
BRANCH  22  24
ATOM     24  C   UNL A   1      46.636  35.782  28.526  1.00  0.00     0.060 A 
ATOM     25  C   UNL A   1      46.722  34.872  29.585  1.00  0.00     0.016 A 
ATOM     26  C   UNL A   1      46.620  35.300  27.210  1.00  0.00     0.016 A 
ATOM     27  C   UNL A   1      46.826  33.505  29.338  1.00  0.00     0.010 A 
ATOM     28  C   UNL A   1      46.592  33.909  26.970  1.00  0.00     0.010 A 
ATOM     29  C   UNL A   1      46.657  32.999  28.037  1.00  0.00    -0.014 A 
BRANCH  29  30
ATOM     30  C   UNL A   1      46.299  31.555  27.896  1.00  0.00     0.031 A 
ATOM     31  C   UNL A   1      47.285  30.485  27.518  1.00  0.00     0.074 A 
ATOM     32  C   UNL A   1      45.016  31.222  28.168  1.00  0.00     0.049 A 
ATOM     33  N   UNL A   1      47.070  29.206  27.337  1.00  0.00    -0.248 NA
ATOM     34  C   UNL A   1      48.684  30.889  27.318  1.00  0.00     0.031 C 
ATOM     35  C   UNL A   1      43.967  32.178  28.548  1.00  0.00     0.029 A 
ATOM     36  N   UNL A   1      44.372  30.011  28.203  1.00  0.00    -0.354 N 
ATOM     37  C   UNL A   1      48.294  28.650  26.977  1.00  0.00     0.074 A 
ATOM     38  C   UNL A   1      49.253  29.738  26.973  1.00  0.00     0.031 C 
ATOM     39  C   UNL A   1      42.845  31.518  28.850  1.00  0.00     0.029 A 
ATOM     40  C   UNL A   1      43.046  30.107  28.562  1.00  0.00     0.049 A 
ATOM     41  H   UNL A   1      44.815  29.157  27.992  1.00  0.00     0.167 HD
ATOM     42  C   UNL A   1      48.576  27.359  26.670  1.00  0.00     0.037 A 
ATOM     43  C   UNL A   1      42.069  29.183  28.602  1.00  0.00     0.037 A 
ATOM     44  C   UNL A   1      47.603  26.289  26.691  1.00  0.00     0.049 A 
ATOM     45  C   UNL A   1      42.403  27.778  28.218  1.00  0.00     0.074 A 
ATOM     46  C   UNL A   1      47.792  24.946  26.405  1.00  0.00     0.029 A 
ATOM     47  N   UNL A   1      46.259  26.437  27.009  1.00  0.00    -0.354 N 
ATOM     48  N   UNL A   1      43.563  27.283  27.861  1.00  0.00    -0.248 NA
ATOM     49  C   UNL A   1      41.301  26.810  28.219  1.00  0.00     0.031 C 
ATOM     50  C   UNL A   1      46.557  24.295  26.501  1.00  0.00     0.029 A 
ATOM     51  C   UNL A   1      45.605  25.219  26.899  1.00  0.00     0.049 A 
ATOM     52  H   UNL A   1      45.833  27.284  27.274  1.00  0.00     0.167 HD
ATOM     53  C   UNL A   1      43.332  25.942  27.591  1.00  0.00     0.074 A 
ATOM     54  C   UNL A   1      41.926  25.700  27.854  1.00  0.00     0.031 C 
ATOM     55  C   UNL A   1      44.203  25.000  27.155  1.00  0.00     0.037 A 
BRANCH  42  56
ATOM     56  C   UNL A   1      49.979  27.013  26.239  1.00  0.00     0.058 A 
ATOM     57  C   UNL A   1      50.375  27.036  24.894  1.00  0.00     0.135 A 
ATOM     58  C   UNL A   1      50.966  26.742  27.204  1.00  0.00     0.135 A 
ATOM     59  F   UNL A   1      49.476  27.280  23.928  1.00  0.00    -0.206 F 
ATOM     60  C   UNL A   1      51.697  26.796  24.520  1.00  0.00     0.059 A 
ATOM     61  C   UNL A   1      52.295  26.519  26.854  1.00  0.00     0.059 A 
ATOM     62  F   UNL A   1      50.644  26.710  28.507  1.00  0.00    -0.206 F 
ATOM     63  C   UNL A   1      52.651  26.541  25.507  1.00  0.00     0.060 A 
BRANCH  63  64
ATOM     64  S   UNL A   1      54.364  26.255  25.009  1.00  0.00     0.124 S 
ATOM     65  O   UNL A   1      54.311  24.862  24.572  1.00  0.00    -0.237 OA
ATOM     66  O   UNL A   1      54.551  27.243  23.951  1.00  0.00    -0.237 OA
ATOM     67  O   UNL A   1      55.121  26.500  26.232  1.00  0.00    -0.744 OA
ENDBRANCH  63  64
ENDBRANCH  42  56
BRANCH  43  68
ATOM     68  C   UNL A   1      40.682  29.597  28.945  1.00  0.00     0.058 A 
ATOM     69  C   UNL A   1      39.682  29.692  27.970  1.00  0.00     0.135 A 
ATOM     70  C   UNL A   1      40.321  29.854  30.280  1.00  0.00     0.135 A 
ATOM     71  F   UNL A   1      39.977  29.462  26.682  1.00  0.00    -0.206 F 
ATOM     72  C   UNL A   1      38.372  30.026  28.302  1.00  0.00     0.059 A 
ATOM     73  C   UNL A   1      39.013  30.156  30.641  1.00  0.00     0.059 A 
ATOM     74  F   UNL A   1      41.238  29.758  31.256  1.00  0.00    -0.206 F 
ATOM     75  C   UNL A   1      38.047  30.250  29.642  1.00  0.00     0.060 A 
BRANCH  75  76
ATOM     76  S   UNL A   1      36.334  30.619  30.079  1.00  0.00     0.124 S 
ATOM     77  O   UNL A   1      35.649  30.354  28.819  1.00  0.00    -0.237 OA
ATOM     78  O   UNL A   1      36.079  29.670  31.158  1.00  0.00    -0.237 OA
ATOM     79  O   UNL A   1      36.390  32.019  30.488  1.00  0.00    -0.744 OA
ENDBRANCH  75  76
ENDBRANCH  43  68
BRANCH  55  80
ATOM     80  C   UNL A   1      43.653  23.618  26.959  1.00  0.00     0.058 A 
ATOM     81  C   UNL A   1      43.455  23.081  25.677  1.00  0.00     0.135 A 
ATOM     82  C   UNL A   1      43.326  22.820  28.067  1.00  0.00     0.135 A 
ATOM     83  F   UNL A   1      43.739  23.812  24.587  1.00  0.00    -0.206 F 
ATOM     84  C   UNL A   1      42.925  21.808  25.499  1.00  0.00     0.059 A 
ATOM     85  C   UNL A   1      42.818  21.534  27.912  1.00  0.00     0.059 A 
ATOM     86  F   UNL A   1      43.500  23.288  29.313  1.00  0.00    -0.206 F 
ATOM     87  C   UNL A   1      42.608  21.043  26.624  1.00  0.00     0.060 A 
BRANCH  87  88
ATOM     88  S   UNL A   1      41.933  19.388  26.381  1.00  0.00     0.124 S 
ATOM     89  O   UNL A   1      42.538  18.659  27.492  1.00  0.00    -0.237 OA
ATOM     90  O   UNL A   1      40.496  19.617  26.480  1.00  0.00    -0.237 OA
ATOM     91  O   UNL A   1      42.412  19.019  25.052  1.00  0.00    -0.744 OA
ENDBRANCH  87  88
ENDBRANCH  55  80
ENDBRANCH  29  30
ENDBRANCH  22  24
ENDBRANCH  21  22
ENDBRANCH  20  21
ENDBRANCH   1  20
TORSDOF 21
ENDMDL
