MODEL 1
REMARK VINA RESULT:     -12.1      0.000      0.000
REMARK SMILES Cc1nc(-c2ccccc2)sc1C(=O)N[C@@H](CC1=c2ccccc2=NC1)C(=O)OCCOC(=O)c1ccc(-c2c3nc(c(-c4c(F)cc(S(=O)(=O)[O-])cc4F)c4ccc([nH]4)c(-c4c(F)cc(S(=O)(=O)[O-])cc4F)c4nc(c(-c5c(F)cc(S(=O)(=O)[O-])cc5F)c5ccc2[nH]5)C=C4)C=C3)cc1
REMARK SMILES IDX 30 1 29 2 27 3 28 4 16 5 15 6 13 7 14 8 12 10 1 11 2 12 3 13
REMARK SMILES IDX 4 14 11 15 5 16 6 17 10 18 7 19 9 20 8 21 17 22 18 23 19 24
REMARK SMILES IDX 26 25 20 26 24 27 25 28 21 29 23 30 22 31 31 32 32 33 33 34
REMARK SMILES IDX 34 35 35 36 36 37 100 38 37 39 99 40 38 41 39 42 40 43 93 44
REMARK SMILES IDX 41 45 98 46 92 47 94 48 42 49 97 50 91 51 90 52 43 54 77 55
REMARK SMILES IDX 56 56 76 57 57 58 60 59 75 60 95 61 58 62 59 63 74 65 96 66
REMARK SMILES IDX 61 67 44 68 45 69 54 70 46 71 47 72 53 73 55 74 48 75 49 76
REMARK SMILES IDX 50 77 51 78 52 79 78 80 79 81 88 82 80 83 81 84 87 85 89 86
REMARK SMILES IDX 82 87 83 88 84 89 85 90 86 91 62 92 63 93 72 94 64 95 65 96
REMARK SMILES IDX 71 97 73 98 66 99 67 100 68 101 69 102 70 103
REMARK H PARENT 15 9 94 53 60 64
REMARK Flexibility Score: inf
ROOT
ATOM      1  C   UNL A   1      31.860  30.426  25.792  1.00  0.00     0.274 C 
ENDROOT
BRANCH   1   2
ATOM      2  O   UNL A   1      31.654  29.243  24.995  1.00  0.00    -0.461 OA
BRANCH   2   3
ATOM      3  C   UNL A   1      32.727  28.824  24.271  1.00  0.00     0.329 C 
ATOM      4  O   UNL A   1      33.597  29.557  23.814  1.00  0.00    -0.250 OA
BRANCH   3   5
ATOM      5  C   UNL A   1      32.719  27.311  24.013  1.00  0.00     0.196 C 
BRANCH   5   6
ATOM      6  N   UNL A   1      32.996  26.895  22.643  1.00  0.00    -0.338 N 
ATOM      7  C   UNL A   1      32.990  25.681  22.003  1.00  0.00     0.264 C 
ATOM      8  O   UNL A   1      33.529  25.717  20.890  1.00  0.00    -0.268 OA
ATOM      9  H   UNL A   1      33.238  27.645  22.053  1.00  0.00     0.164 HD
BRANCH   7  10
ATOM     10  C   UNL A   1      32.374  24.466  22.531  1.00  0.00     0.115 A 
ATOM     11  C   UNL A   1      29.947  24.835  23.495  1.00  0.00     0.068 C 
ATOM     12  C   UNL A   1      31.160  24.079  23.095  1.00  0.00     0.062 A 
ATOM     13  N   UNL A   1      31.057  22.729  23.392  1.00  0.00    -0.241 NA
ATOM     14  C   UNL A   1      32.191  22.101  23.205  1.00  0.00     0.124 A 
ATOM     15  S   UNL A   1      33.428  23.062  22.539  1.00  0.00    -0.108 S 
BRANCH  14  16
ATOM     16  C   UNL A   1      32.383  20.685  23.510  1.00  0.00     0.010 A 
ATOM     17  C   UNL A   1      32.248  19.744  22.483  1.00  0.00     0.011 A 
ATOM     18  C   UNL A   1      32.594  20.235  24.820  1.00  0.00     0.011 A 
ATOM     19  C   UNL A   1      32.352  18.379  22.747  1.00  0.00     0.001 A 
ATOM     20  C   UNL A   1      32.679  18.865  25.088  1.00  0.00     0.001 A 
ATOM     21  C   UNL A   1      32.565  17.940  24.051  1.00  0.00     0.000 A 
ENDBRANCH  14  16
ENDBRANCH   7  10
ENDBRANCH   5   6
BRANCH   5  22
ATOM     22  C   UNL A   1      33.696  26.625  24.994  1.00  0.00     0.070 C 
BRANCH  22  23
ATOM     23  C   UNL A   1      33.087  25.514  25.795  1.00  0.00    -0.037 C 
ATOM     24  C   UNL A   1      33.636  24.351  26.137  1.00  0.00     0.001 A 
ATOM     25  C   UNL A   1      31.694  25.622  26.340  1.00  0.00     0.174 C 
ATOM     26  C   UNL A   1      34.887  23.709  25.899  1.00  0.00     0.010 A 
ATOM     27  C   UNL A   1      32.610  23.754  27.005  1.00  0.00     0.065 A 
ATOM     28  N   UNL A   1      31.494  24.401  27.157  1.00  0.00    -0.280 NA
ATOM     29  C   UNL A   1      35.145  22.548  26.524  1.00  0.00     0.001 A 
ATOM     30  C   UNL A   1      32.967  22.476  27.657  1.00  0.00     0.028 A 
ATOM     31  C   UNL A   1      34.177  21.941  27.420  1.00  0.00     0.002 A 
ENDBRANCH  22  23
ENDBRANCH   5  22
ENDBRANCH   3   5
ENDBRANCH   2   3
ENDBRANCH   1   2
BRANCH   1  32
ATOM     32  C   UNL A   1      32.211  30.049  27.231  1.00  0.00     0.275 C 
BRANCH  32  33
ATOM     33  O   UNL A   1      33.584  29.630  27.339  1.00  0.00    -0.458 OA
BRANCH  33  34
ATOM     34  C   UNL A   1      34.401  30.544  27.914  1.00  0.00     0.338 C 
ATOM     35  O   UNL A   1      34.097  31.652  28.329  1.00  0.00    -0.246 OA
BRANCH  34  36
ATOM     36  C   UNL A   1      35.748  29.985  28.072  1.00  0.00     0.060 A 
ATOM     37  C   UNL A   1      36.109  29.480  29.319  1.00  0.00     0.016 A 
ATOM     38  C   UNL A   1      36.692  30.093  27.053  1.00  0.00     0.016 A 
ATOM     39  C   UNL A   1      37.432  29.129  29.575  1.00  0.00     0.010 A 
ATOM     40  C   UNL A   1      38.013  29.694  27.296  1.00  0.00     0.010 A 
ATOM     41  C   UNL A   1      38.402  29.235  28.568  1.00  0.00    -0.014 A 
BRANCH  41  42
ATOM     42  C   UNL A   1      39.825  28.935  28.881  1.00  0.00     0.031 A 
ATOM     43  C   UNL A   1      40.668  29.951  29.609  1.00  0.00     0.074 A 
ATOM     44  C   UNL A   1      40.346  27.725  28.596  1.00  0.00     0.049 A 
ATOM     45  N   UNL A   1      41.945  29.911  29.894  1.00  0.00    -0.248 NA
ATOM     46  C   UNL A   1      39.981  31.159  30.092  1.00  0.00     0.031 C 
ATOM     47  C   UNL A   1      39.622  26.621  27.964  1.00  0.00     0.029 A 
ATOM     48  N   UNL A   1      41.600  27.213  28.823  1.00  0.00    -0.354 N 
ATOM     49  C   UNL A   1      42.217  31.090  30.577  1.00  0.00     0.074 A 
ATOM     50  C   UNL A   1      40.980  31.839  30.638  1.00  0.00     0.031 C 
ATOM     51  C   UNL A   1      40.433  25.555  27.878  1.00  0.00     0.029 A 
ATOM     52  C   UNL A   1      41.754  25.918  28.384  1.00  0.00     0.049 A 
ATOM     53  H   UNL A   1      42.320  27.724  29.258  1.00  0.00     0.167 HD
ATOM     54  C   UNL A   1      43.384  31.501  31.130  1.00  0.00     0.037 A 
ATOM     55  C   UNL A   1      42.841  25.123  28.353  1.00  0.00     0.037 A 
ATOM     56  C   UNL A   1      44.603  30.736  31.127  1.00  0.00     0.049 A 
ATOM     57  C   UNL A   1      44.154  25.648  28.866  1.00  0.00     0.074 A 
ATOM     58  C   UNL A   1      45.831  31.071  31.669  1.00  0.00     0.029 A 
ATOM     59  N   UNL A   1      44.746  29.477  30.564  1.00  0.00    -0.354 N 
ATOM     60  N   UNL A   1      44.414  26.800  29.437  1.00  0.00    -0.248 NA
ATOM     61  C   UNL A   1      45.326  24.775  28.707  1.00  0.00     0.031 C 
ATOM     62  C   UNL A   1      46.724  30.024  31.416  1.00  0.00     0.029 A 
ATOM     63  C   UNL A   1      46.043  29.024  30.741  1.00  0.00     0.049 A 
ATOM     64  H   UNL A   1      44.031  28.978  30.107  1.00  0.00     0.167 HD
ATOM     65  C   UNL A   1      45.777  26.789  29.706  1.00  0.00     0.074 A 
ATOM     66  C   UNL A   1      46.285  25.509  29.255  1.00  0.00     0.031 C 
ATOM     67  C   UNL A   1      46.540  27.755  30.274  1.00  0.00     0.037 A 
BRANCH  54  68
ATOM     68  C   UNL A   1      43.400  32.853  31.782  1.00  0.00     0.058 A 
ATOM     69  C   UNL A   1      43.058  33.024  33.132  1.00  0.00     0.135 A 
ATOM     70  C   UNL A   1      43.793  33.987  31.054  1.00  0.00     0.135 A 
ATOM     71  F   UNL A   1      42.666  31.975  33.868  1.00  0.00    -0.206 F 
ATOM     72  C   UNL A   1      43.081  34.279  33.733  1.00  0.00     0.059 A 
ATOM     73  C   UNL A   1      43.842  35.249  31.639  1.00  0.00     0.059 A 
ATOM     74  F   UNL A   1      44.132  33.875  29.760  1.00  0.00    -0.206 F 
ATOM     75  C   UNL A   1      43.471  35.386  32.976  1.00  0.00     0.060 A 
BRANCH  75  76
ATOM     76  S   UNL A   1      43.497  37.009  33.767  1.00  0.00     0.124 S 
ATOM     77  O   UNL A   1      44.750  36.949  34.514  1.00  0.00    -0.237 OA
ATOM     78  O   UNL A   1      43.485  37.917  32.623  1.00  0.00    -0.237 OA
ATOM     79  O   UNL A   1      42.283  37.012  34.577  1.00  0.00    -0.744 OA
ENDBRANCH  75  76
ENDBRANCH  54  68
BRANCH  55  80
ATOM     80  C   UNL A   1      42.747  23.764  27.760  1.00  0.00     0.058 A 
ATOM     81  C   UNL A   1      42.536  22.632  28.560  1.00  0.00     0.135 A 
ATOM     82  C   UNL A   1      42.857  23.575  26.372  1.00  0.00     0.135 A 
ATOM     83  F   UNL A   1      42.443  22.761  29.891  1.00  0.00    -0.206 F 
ATOM     84  C   UNL A   1      42.437  21.359  28.007  1.00  0.00     0.059 A 
ATOM     85  C   UNL A   1      42.737  22.316  25.794  1.00  0.00     0.059 A 
ATOM     86  F   UNL A   1      43.054  24.626  25.564  1.00  0.00    -0.206 F 
ATOM     87  C   UNL A   1      42.535  21.213  26.621  1.00  0.00     0.060 A 
BRANCH  87  88
ATOM     88  S   UNL A   1      42.341  19.569  25.897  1.00  0.00     0.124 S 
ATOM     89  O   UNL A   1      42.675  18.710  27.027  1.00  0.00    -0.237 OA
ATOM     90  O   UNL A   1      40.939  19.571  25.489  1.00  0.00    -0.237 OA
ATOM     91  O   UNL A   1      43.303  19.575  24.799  1.00  0.00    -0.744 OA
ENDBRANCH  87  88
ENDBRANCH  55  80
BRANCH  67  92
ATOM     92  C   UNL A   1      48.004  27.465  30.443  1.00  0.00     0.058 A 
ATOM     93  C   UNL A   1      48.916  27.689  29.400  1.00  0.00     0.135 A 
ATOM     94  C   UNL A   1      48.505  26.992  31.666  1.00  0.00     0.135 A 
ATOM     95  F   UNL A   1      48.485  28.129  28.209  1.00  0.00    -0.206 F 
ATOM     96  C   UNL A   1      50.276  27.438  29.560  1.00  0.00     0.059 A 
ATOM     97  C   UNL A   1      49.863  26.755  31.854  1.00  0.00     0.059 A 
ATOM     98  F   UNL A   1      47.674  26.769  32.696  1.00  0.00    -0.206 F 
ATOM     99  C   UNL A   1      50.740  26.971  30.791  1.00  0.00     0.060 A 
BRANCH  99 100
ATOM    100  S   UNL A   1      52.509  26.680  30.999  1.00  0.00     0.124 S 
ATOM    101  O   UNL A   1      53.000  26.872  29.639  1.00  0.00    -0.237 OA
ATOM    102  O   UNL A   1      52.888  27.709  31.962  1.00  0.00    -0.237 OA
ATOM    103  O   UNL A   1      52.570  25.310  31.502  1.00  0.00    -0.744 OA
ENDBRANCH  99 100
ENDBRANCH  67  92
ENDBRANCH  41  42
ENDBRANCH  34  36
ENDBRANCH  33  34
ENDBRANCH  32  33
ENDBRANCH   1  32
TORSDOF 19
ENDMDL
MODEL 2
REMARK VINA RESULT:     -11.9      1.185      2.039
REMARK SMILES Cc1nc(-c2ccccc2)sc1C(=O)N[C@@H](CC1=c2ccccc2=NC1)C(=O)OCCOC(=O)c1ccc(-c2c3nc(c(-c4c(F)cc(S(=O)(=O)[O-])cc4F)c4ccc([nH]4)c(-c4c(F)cc(S(=O)(=O)[O-])cc4F)c4nc(c(-c5c(F)cc(S(=O)(=O)[O-])cc5F)c5ccc2[nH]5)C=C4)C=C3)cc1
REMARK SMILES IDX 30 1 29 2 27 3 28 4 16 5 15 6 13 7 14 8 12 10 1 11 2 12 3 13
REMARK SMILES IDX 4 14 11 15 5 16 6 17 10 18 7 19 9 20 8 21 17 22 18 23 19 24
REMARK SMILES IDX 26 25 20 26 24 27 25 28 21 29 23 30 22 31 31 32 32 33 33 34
REMARK SMILES IDX 34 35 35 36 36 37 100 38 37 39 99 40 38 41 39 42 40 43 93 44
REMARK SMILES IDX 41 45 98 46 92 47 94 48 42 49 97 50 91 51 90 52 43 54 77 55
REMARK SMILES IDX 56 56 76 57 57 58 60 59 75 60 95 61 58 62 59 63 74 65 96 66
REMARK SMILES IDX 61 67 44 68 45 69 54 70 46 71 47 72 53 73 55 74 48 75 49 76
REMARK SMILES IDX 50 77 51 78 52 79 78 80 79 81 88 82 80 83 81 84 87 85 89 86
REMARK SMILES IDX 82 87 83 88 84 89 85 90 86 91 62 92 63 93 72 94 64 95 65 96
REMARK SMILES IDX 71 97 73 98 66 99 67 100 68 101 69 102 70 103
REMARK H PARENT 15 9 94 53 60 64
REMARK Flexibility Score: inf
ROOT
ATOM      1  C   UNL A   1      32.358  29.399  25.782  1.00  0.00     0.274 C 
ENDROOT
BRANCH   1   2
ATOM      2  O   UNL A   1      31.947  28.384  24.846  1.00  0.00    -0.461 OA
BRANCH   2   3
ATOM      3  C   UNL A   1      32.940  27.596  24.354  1.00  0.00     0.329 C 
ATOM      4  O   UNL A   1      33.979  28.008  23.849  1.00  0.00    -0.250 OA
BRANCH   3   5
ATOM      5  C   UNL A   1      32.610  26.100  24.431  1.00  0.00     0.196 C 
BRANCH   5   6
ATOM      6  N   UNL A   1      31.344  25.693  23.834  1.00  0.00    -0.338 N 
ATOM      7  C   UNL A   1      30.763  24.475  23.581  1.00  0.00     0.264 C 
ATOM      8  O   UNL A   1      29.785  24.551  22.828  1.00  0.00    -0.268 OA
ATOM      9  H   UNL A   1      30.787  26.455  23.552  1.00  0.00     0.164 HD
BRANCH   7  10
ATOM     10  C   UNL A   1      31.200  23.210  24.165  1.00  0.00     0.115 A 
ATOM     11  C   UNL A   1      30.670  22.986  26.739  1.00  0.00     0.068 C 
ATOM     12  C   UNL A   1      31.150  22.564  25.399  1.00  0.00     0.062 A 
ATOM     13  N   UNL A   1      31.690  21.288  25.415  1.00  0.00    -0.241 NA
ATOM     14  C   UNL A   1      32.273  20.992  24.280  1.00  0.00     0.124 A 
ATOM     15  S   UNL A   1      32.103  22.176  23.069  1.00  0.00    -0.108 S 
BRANCH  14  16
ATOM     16  C   UNL A   1      32.987  19.739  24.048  1.00  0.00     0.010 A 
ATOM     17  C   UNL A   1      32.391  18.753  23.252  1.00  0.00     0.011 A 
ATOM     18  C   UNL A   1      34.202  19.453  24.685  1.00  0.00     0.011 A 
ATOM     19  C   UNL A   1      33.007  17.517  23.066  1.00  0.00     0.001 A 
ATOM     20  C   UNL A   1      34.810  18.206  24.515  1.00  0.00     0.001 A 
ATOM     21  C   UNL A   1      34.215  17.242  23.699  1.00  0.00     0.000 A 
ENDBRANCH  14  16
ENDBRANCH   7  10
ENDBRANCH   5   6
BRANCH   5  22
ATOM     22  C   UNL A   1      33.778  25.291  23.825  1.00  0.00     0.070 C 
BRANCH  22  23
ATOM     23  C   UNL A   1      34.418  24.324  24.774  1.00  0.00    -0.037 C 
ATOM     24  C   UNL A   1      35.360  23.420  24.516  1.00  0.00     0.001 A 
ATOM     25  C   UNL A   1      34.035  24.291  26.224  1.00  0.00     0.174 C 
ATOM     26  C   UNL A   1      36.074  22.999  23.356  1.00  0.00     0.010 A 
ATOM     27  C   UNL A   1      35.656  22.875  25.850  1.00  0.00     0.065 A 
ATOM     28  N   UNL A   1      34.948  23.304  26.851  1.00  0.00    -0.280 NA
ATOM     29  C   UNL A   1      37.072  22.112  23.499  1.00  0.00     0.001 A 
ATOM     30  C   UNL A   1      36.767  21.903  25.928  1.00  0.00     0.028 A 
ATOM     31  C   UNL A   1      37.424  21.575  24.802  1.00  0.00     0.002 A 
ENDBRANCH  22  23
ENDBRANCH   5  22
ENDBRANCH   3   5
ENDBRANCH   2   3
ENDBRANCH   1   2
BRANCH   1  32
ATOM     32  C   UNL A   1      32.605  28.790  27.162  1.00  0.00     0.275 C 
BRANCH  32  33
ATOM     33  O   UNL A   1      34.002  28.835  27.508  1.00  0.00    -0.458 OA
BRANCH  33  34
ATOM     34  C   UNL A   1      34.432  30.047  27.931  1.00  0.00     0.338 C 
ATOM     35  O   UNL A   1      33.765  31.061  28.072  1.00  0.00    -0.246 OA
BRANCH  34  36
ATOM     36  C   UNL A   1      35.849  29.976  28.305  1.00  0.00     0.060 A 
ATOM     37  C   UNL A   1      36.803  30.228  27.322  1.00  0.00     0.016 A 
ATOM     38  C   UNL A   1      36.234  29.519  29.564  1.00  0.00     0.016 A 
ATOM     39  C   UNL A   1      38.148  29.974  27.572  1.00  0.00     0.010 A 
ATOM     40  C   UNL A   1      37.593  29.310  29.831  1.00  0.00     0.010 A 
ATOM     41  C   UNL A   1      38.561  29.509  28.829  1.00  0.00    -0.014 A 
BRANCH  41  42
ATOM     42  C   UNL A   1      39.990  29.163  29.054  1.00  0.00     0.031 A 
ATOM     43  C   UNL A   1      40.909  30.150  29.727  1.00  0.00     0.074 A 
ATOM     44  C   UNL A   1      40.452  27.936  28.740  1.00  0.00     0.049 A 
ATOM     45  N   UNL A   1      42.199  30.068  29.933  1.00  0.00    -0.248 NA
ATOM     46  C   UNL A   1      40.293  31.380  30.249  1.00  0.00     0.031 C 
ATOM     47  C   UNL A   1      39.656  26.856  28.156  1.00  0.00     0.029 A 
ATOM     48  N   UNL A   1      41.701  27.383  28.890  1.00  0.00    -0.354 N 
ATOM     49  C   UNL A   1      42.552  31.238  30.596  1.00  0.00     0.074 A 
ATOM     50  C   UNL A   1      41.346  32.027  30.731  1.00  0.00     0.031 C 
ATOM     51  C   UNL A   1      40.425  25.764  28.023  1.00  0.00     0.029 A 
ATOM     52  C   UNL A   1      41.785  26.084  28.445  1.00  0.00     0.049 A 
ATOM     53  H   UNL A   1      42.463  27.871  29.279  1.00  0.00     0.167 HD
ATOM     54  C   UNL A   1      43.763  31.611  31.075  1.00  0.00     0.037 A 
ATOM     55  C   UNL A   1      42.842  25.254  28.350  1.00  0.00     0.037 A 
ATOM     56  C   UNL A   1      44.953  30.806  30.998  1.00  0.00     0.049 A 
ATOM     57  C   UNL A   1      44.201  25.736  28.780  1.00  0.00     0.074 A 
ATOM     58  C   UNL A   1      46.223  31.102  31.462  1.00  0.00     0.029 A 
ATOM     59  N   UNL A   1      45.021  29.543  30.430  1.00  0.00    -0.354 N 
ATOM     60  N   UNL A   1      44.533  26.879  29.331  1.00  0.00    -0.248 NA
ATOM     61  C   UNL A   1      45.331  24.824  28.551  1.00  0.00     0.031 C 
ATOM     62  C   UNL A   1      47.064  30.025  31.157  1.00  0.00     0.029 A 
ATOM     63  C   UNL A   1      46.311  29.048  30.528  1.00  0.00     0.049 A 
ATOM     64  H   UNL A   1      44.263  29.068  30.019  1.00  0.00     0.167 HD
ATOM     65  C   UNL A   1      45.909  26.823  29.516  1.00  0.00     0.074 A 
ATOM     66  C   UNL A   1      46.346  25.527  29.037  1.00  0.00     0.031 C 
ATOM     67  C   UNL A   1      46.736  27.764  30.034  1.00  0.00     0.037 A 
BRANCH  54  68
ATOM     68  C   UNL A   1      43.863  32.962  31.722  1.00  0.00     0.058 A 
ATOM     69  C   UNL A   1      44.130  34.119  30.975  1.00  0.00     0.135 A 
ATOM     70  C   UNL A   1      43.661  33.102  33.104  1.00  0.00     0.135 A 
ATOM     71  F   UNL A   1      44.341  34.037  29.654  1.00  0.00    -0.206 F 
ATOM     72  C   UNL A   1      44.216  35.369  31.580  1.00  0.00     0.059 A 
ATOM     73  C   UNL A   1      43.724  34.345  33.728  1.00  0.00     0.059 A 
ATOM     74  F   UNL A   1      43.401  32.025  33.862  1.00  0.00    -0.206 F 
ATOM     75  C   UNL A   1      44.015  35.471  32.958  1.00  0.00     0.060 A 
BRANCH  75  76
ATOM     76  S   UNL A   1      44.129  37.098  33.732  1.00  0.00     0.124 S 
ATOM     77  O   UNL A   1      45.015  36.823  34.859  1.00  0.00    -0.237 OA
ATOM     78  O   UNL A   1      44.698  37.915  32.664  1.00  0.00    -0.237 OA
ATOM     79  O   UNL A   1      42.746  37.406  34.081  1.00  0.00    -0.744 OA
ENDBRANCH  75  76
ENDBRANCH  54  68
BRANCH  55  80
ATOM     80  C   UNL A   1      42.667  23.898  27.766  1.00  0.00     0.058 A 
ATOM     81  C   UNL A   1      42.628  23.702  26.378  1.00  0.00     0.135 A 
ATOM     82  C   UNL A   1      42.544  22.769  28.592  1.00  0.00     0.135 A 
ATOM     83  F   UNL A   1      42.724  24.752  25.550  1.00  0.00    -0.206 F 
ATOM     84  C   UNL A   1      42.474  22.434  25.828  1.00  0.00     0.059 A 
ATOM     85  C   UNL A   1      42.414  21.489  28.065  1.00  0.00     0.059 A 
ATOM     86  F   UNL A   1      42.580  22.904  29.926  1.00  0.00    -0.206 F 
ATOM     87  C   UNL A   1      42.372  21.332  26.681  1.00  0.00     0.060 A 
BRANCH  87  88
ATOM     88  S   UNL A   1      42.238  19.678  25.966  1.00  0.00     0.124 S 
ATOM     89  O   UNL A   1      40.872  19.688  25.459  1.00  0.00    -0.237 OA
ATOM     90  O   UNL A   1      43.294  19.689  24.957  1.00  0.00    -0.237 OA
ATOM     91  O   UNL A   1      42.486  18.803  27.108  1.00  0.00    -0.744 OA
ENDBRANCH  87  88
ENDBRANCH  55  80
BRANCH  67  92
ATOM     92  C   UNL A   1      48.197  27.426  30.112  1.00  0.00     0.058 A 
ATOM     93  C   UNL A   1      49.084  27.779  29.083  1.00  0.00     0.135 A 
ATOM     94  C   UNL A   1      48.723  26.775  31.240  1.00  0.00     0.135 A 
ATOM     95  F   UNL A   1      48.628  28.392  27.981  1.00  0.00    -0.206 F 
ATOM     96  C   UNL A   1      50.441  27.484  29.162  1.00  0.00     0.059 A 
ATOM     97  C   UNL A   1      50.080  26.488  31.349  1.00  0.00     0.059 A 
ATOM     98  F   UNL A   1      47.917  26.422  32.254  1.00  0.00    -0.206 F 
ATOM     99  C   UNL A   1      50.930  26.837  30.299  1.00  0.00     0.060 A 
BRANCH  99 100
ATOM    100  S   UNL A   1      52.698  26.487  30.407  1.00  0.00     0.124 S 
ATOM    101  O   UNL A   1      52.721  25.383  31.361  1.00  0.00    -0.237 OA
ATOM    102  O   UNL A   1      53.037  26.143  29.030  1.00  0.00    -0.237 OA
ATOM    103  O   UNL A   1      53.263  27.745  30.888  1.00  0.00    -0.744 OA
ENDBRANCH  99 100
ENDBRANCH  67  92
ENDBRANCH  41  42
ENDBRANCH  34  36
ENDBRANCH  33  34
ENDBRANCH  32  33
ENDBRANCH   1  32
TORSDOF 19
ENDMDL
MODEL 3
REMARK VINA RESULT:     -11.7      1.768      3.889
REMARK SMILES Cc1nc(-c2ccccc2)sc1C(=O)N[C@@H](CC1=c2ccccc2=NC1)C(=O)OCCOC(=O)c1ccc(-c2c3nc(c(-c4c(F)cc(S(=O)(=O)[O-])cc4F)c4ccc([nH]4)c(-c4c(F)cc(S(=O)(=O)[O-])cc4F)c4nc(c(-c5c(F)cc(S(=O)(=O)[O-])cc5F)c5ccc2[nH]5)C=C4)C=C3)cc1
REMARK SMILES IDX 30 1 29 2 27 3 28 4 16 5 15 6 13 7 14 8 12 10 1 11 2 12 3 13
REMARK SMILES IDX 4 14 11 15 5 16 6 17 10 18 7 19 9 20 8 21 17 22 18 23 19 24
REMARK SMILES IDX 26 25 20 26 24 27 25 28 21 29 23 30 22 31 31 32 32 33 33 34
REMARK SMILES IDX 34 35 35 36 36 37 100 38 37 39 99 40 38 41 39 42 40 43 93 44
REMARK SMILES IDX 41 45 98 46 92 47 94 48 42 49 97 50 91 51 90 52 43 54 77 55
REMARK SMILES IDX 56 56 76 57 57 58 60 59 75 60 95 61 58 62 59 63 74 65 96 66
REMARK SMILES IDX 61 67 44 68 45 69 54 70 46 71 47 72 53 73 55 74 48 75 49 76
REMARK SMILES IDX 50 77 51 78 52 79 78 80 79 81 88 82 80 83 81 84 87 85 89 86
REMARK SMILES IDX 82 87 83 88 84 89 85 90 86 91 62 92 63 93 72 94 64 95 65 96
REMARK SMILES IDX 71 97 73 98 66 99 67 100 68 101 69 102 70 103
REMARK H PARENT 15 9 94 53 60 64
REMARK Flexibility Score: inf
ROOT
ATOM      1  C   UNL A   1      33.613  28.664  25.516  1.00  0.00     0.274 C 
ENDROOT
BRANCH   1   2
ATOM      2  O   UNL A   1      33.856  27.451  26.255  1.00  0.00    -0.461 OA
BRANCH   2   3
ATOM      3  C   UNL A   1      32.929  26.467  26.097  1.00  0.00     0.329 C 
ATOM      4  O   UNL A   1      31.833  26.440  26.646  1.00  0.00    -0.250 OA
BRANCH   3   5
ATOM      5  C   UNL A   1      33.417  25.327  25.194  1.00  0.00     0.196 C 
BRANCH   5   6
ATOM      6  N   UNL A   1      33.801  25.704  23.839  1.00  0.00    -0.338 N 
ATOM      7  C   UNL A   1      33.129  26.281  22.791  1.00  0.00     0.264 C 
ATOM      8  O   UNL A   1      33.744  26.206  21.720  1.00  0.00    -0.268 OA
ATOM      9  H   UNL A   1      34.742  25.503  23.634  1.00  0.00     0.164 HD
BRANCH   7  10
ATOM     10  C   UNL A   1      31.844  26.966  22.902  1.00  0.00     0.115 A 
ATOM     11  C   UNL A   1      29.868  25.399  23.676  1.00  0.00     0.068 C 
ATOM     12  C   UNL A   1      30.538  26.664  23.284  1.00  0.00     0.062 A 
ATOM     13  N   UNL A   1      29.658  27.736  23.260  1.00  0.00    -0.241 NA
ATOM     14  C   UNL A   1      30.209  28.806  22.742  1.00  0.00     0.124 A 
ATOM     15  S   UNL A   1      31.861  28.638  22.366  1.00  0.00    -0.108 S 
BRANCH  14  16
ATOM     16  C   UNL A   1      29.485  30.057  22.530  1.00  0.00     0.010 A 
ATOM     17  C   UNL A   1      29.163  30.853  23.636  1.00  0.00     0.011 A 
ATOM     18  C   UNL A   1      29.013  30.430  21.264  1.00  0.00     0.011 A 
ATOM     19  C   UNL A   1      28.411  32.017  23.483  1.00  0.00     0.001 A 
ATOM     20  C   UNL A   1      28.242  31.587  21.114  1.00  0.00     0.001 A 
ATOM     21  C   UNL A   1      27.949  32.382  22.222  1.00  0.00     0.000 A 
ENDBRANCH  14  16
ENDBRANCH   7  10
ENDBRANCH   5   6
BRANCH   5  22
ATOM     22  C   UNL A   1      34.574  24.583  25.897  1.00  0.00     0.070 C 
BRANCH  22  23
ATOM     23  C   UNL A   1      34.729  23.151  25.482  1.00  0.00    -0.037 C 
ATOM     24  C   UNL A   1      35.855  22.464  25.304  1.00  0.00     0.001 A 
ATOM     25  C   UNL A   1      33.533  22.285  25.219  1.00  0.00     0.174 C 
ATOM     26  C   UNL A   1      37.248  22.757  25.390  1.00  0.00     0.010 A 
ATOM     27  C   UNL A   1      35.362  21.107  25.025  1.00  0.00     0.065 A 
ATOM     28  N   UNL A   1      34.078  20.932  24.951  1.00  0.00    -0.280 NA
ATOM     29  C   UNL A   1      38.128  21.751  25.256  1.00  0.00     0.001 A 
ATOM     30  C   UNL A   1      36.390  20.053  24.889  1.00  0.00     0.028 A 
ATOM     31  C   UNL A   1      37.686  20.388  25.017  1.00  0.00     0.002 A 
ENDBRANCH  22  23
ENDBRANCH   5  22
ENDBRANCH   3   5
ENDBRANCH   2   3
ENDBRANCH   1   2
BRANCH   1  32
ATOM     32  C   UNL A   1      33.161  29.783  26.453  1.00  0.00     0.275 C 
BRANCH  32  33
ATOM     33  O   UNL A   1      33.657  29.576  27.788  1.00  0.00    -0.458 OA
BRANCH  33  34
ATOM     34  C   UNL A   1      34.521  30.527  28.215  1.00  0.00     0.338 C 
ATOM     35  O   UNL A   1      34.254  31.665  28.570  1.00  0.00    -0.246 OA
BRANCH  34  36
ATOM     36  C   UNL A   1      35.879  29.975  28.291  1.00  0.00     0.060 A 
ATOM     37  C   UNL A   1      36.313  29.460  29.510  1.00  0.00     0.016 A 
ATOM     38  C   UNL A   1      36.763  30.101  27.221  1.00  0.00     0.016 A 
ATOM     39  C   UNL A   1      37.649  29.115  29.687  1.00  0.00     0.010 A 
ATOM     40  C   UNL A   1      38.098  29.708  27.385  1.00  0.00     0.010 A 
ATOM     41  C   UNL A   1      38.560  29.238  28.628  1.00  0.00    -0.014 A 
BRANCH  41  42
ATOM     42  C   UNL A   1      40.001  28.945  28.857  1.00  0.00     0.031 A 
ATOM     43  C   UNL A   1      40.881  29.966  29.532  1.00  0.00     0.074 A 
ATOM     44  C   UNL A   1      40.509  27.736  28.545  1.00  0.00     0.049 A 
ATOM     45  N   UNL A   1      42.173  29.931  29.742  1.00  0.00    -0.248 NA
ATOM     46  C   UNL A   1      40.220  31.173  30.052  1.00  0.00     0.031 C 
ATOM     47  C   UNL A   1      39.754  26.627  27.960  1.00  0.00     0.029 A 
ATOM     48  N   UNL A   1      41.776  27.229  28.699  1.00  0.00    -0.354 N 
ATOM     49  C   UNL A   1      42.480  31.114  30.405  1.00  0.00     0.074 A 
ATOM     50  C   UNL A   1      41.246  31.858  30.536  1.00  0.00     0.031 C 
ATOM     51  C   UNL A   1      40.562  25.564  27.829  1.00  0.00     0.029 A 
ATOM     52  C   UNL A   1      41.909  25.934  28.255  1.00  0.00     0.049 A 
ATOM     53  H   UNL A   1      42.519  27.744  29.090  1.00  0.00     0.167 HD
ATOM     54  C   UNL A   1      43.676  31.531  30.887  1.00  0.00     0.037 A 
ATOM     55  C   UNL A   1      42.996  25.143  28.163  1.00  0.00     0.037 A 
ATOM     56  C   UNL A   1      44.895  30.770  30.814  1.00  0.00     0.049 A 
ATOM     57  C   UNL A   1      44.335  25.674  28.596  1.00  0.00     0.074 A 
ATOM     58  C   UNL A   1      46.152  31.112  31.281  1.00  0.00     0.029 A 
ATOM     59  N   UNL A   1      45.010  29.510  30.246  1.00  0.00    -0.354 N 
ATOM     60  N   UNL A   1      44.623  26.829  29.147  1.00  0.00    -0.248 NA
ATOM     61  C   UNL A   1      45.499  24.805  28.370  1.00  0.00     0.031 C 
ATOM     62  C   UNL A   1      47.033  30.067  30.979  1.00  0.00     0.029 A 
ATOM     63  C   UNL A   1      46.317  29.063  30.348  1.00  0.00     0.049 A 
ATOM     64  H   UNL A   1      44.272  29.007  29.833  1.00  0.00     0.167 HD
ATOM     65  C   UNL A   1      46.000  26.824  29.336  1.00  0.00     0.074 A 
ATOM     66  C   UNL A   1      46.486  25.545  28.859  1.00  0.00     0.031 C 
ATOM     67  C   UNL A   1      46.791  27.795  29.856  1.00  0.00     0.037 A 
BRANCH  54  68
ATOM     68  C   UNL A   1      43.725  32.884  31.533  1.00  0.00     0.058 A 
ATOM     69  C   UNL A   1      43.496  33.054  32.907  1.00  0.00     0.135 A 
ATOM     70  C   UNL A   1      44.035  34.023  30.773  1.00  0.00     0.135 A 
ATOM     71  F   UNL A   1      43.186  32.000  33.675  1.00  0.00    -0.206 F 
ATOM     72  C   UNL A   1      43.550  34.310  33.502  1.00  0.00     0.059 A 
ATOM     73  C   UNL A   1      44.113  35.287  31.350  1.00  0.00     0.059 A 
ATOM     74  F   UNL A   1      44.264  33.913  29.455  1.00  0.00    -0.206 F 
ATOM     75  C   UNL A   1      43.855  35.422  32.714  1.00  0.00     0.060 A 
BRANCH  75  76
ATOM     76  S   UNL A   1      43.922  37.047  33.497  1.00  0.00     0.124 S 
ATOM     77  O   UNL A   1      43.292  37.886  32.481  1.00  0.00    -0.237 OA
ATOM     78  O   UNL A   1      43.147  36.841  34.717  1.00  0.00    -0.237 OA
ATOM     79  O   UNL A   1      45.350  37.269  33.697  1.00  0.00    -0.744 OA
ENDBRANCH  75  76
ENDBRANCH  54  68
BRANCH  55  80
ATOM     80  C   UNL A   1      42.872  23.782  27.579  1.00  0.00     0.058 A 
ATOM     81  C   UNL A   1      43.082  23.553  26.212  1.00  0.00     0.135 A 
ATOM     82  C   UNL A   1      42.549  22.679  28.386  1.00  0.00     0.135 A 
ATOM     83  F   UNL A   1      43.376  24.578  25.398  1.00  0.00    -0.206 F 
ATOM     84  C   UNL A   1      42.977  22.279  25.664  1.00  0.00     0.059 A 
ATOM     85  C   UNL A   1      42.462  21.393  27.866  1.00  0.00     0.059 A 
ATOM     86  F   UNL A   1      42.343  22.845  29.701  1.00  0.00    -0.206 F 
ATOM     87  C   UNL A   1      42.670  21.204  26.501  1.00  0.00     0.060 A 
BRANCH  87  88
ATOM     88  S   UNL A   1      42.598  19.540  25.801  1.00  0.00     0.124 S 
ATOM     89  O   UNL A   1      43.615  19.615  24.759  1.00  0.00    -0.237 OA
ATOM     90  O   UNL A   1      42.924  18.703  26.953  1.00  0.00    -0.237 OA
ATOM     91  O   UNL A   1      41.218  19.436  25.335  1.00  0.00    -0.744 OA
ENDBRANCH  87  88
ENDBRANCH  55  80
BRANCH  67  92
ATOM     92  C   UNL A   1      48.263  27.510  29.938  1.00  0.00     0.058 A 
ATOM     93  C   UNL A   1      48.817  26.850  31.046  1.00  0.00     0.135 A 
ATOM     94  C   UNL A   1      49.123  27.869  28.888  1.00  0.00     0.135 A 
ATOM     95  F   UNL A   1      48.038  26.497  32.080  1.00  0.00    -0.206 F 
ATOM     96  C   UNL A   1      50.178  26.568  31.117  1.00  0.00     0.059 A 
ATOM     97  C   UNL A   1      50.484  27.579  28.929  1.00  0.00     0.059 A 
ATOM     98  F   UNL A   1      48.641  28.496  27.804  1.00  0.00    -0.206 F 
ATOM     99  C   UNL A   1      51.004  26.938  30.053  1.00  0.00     0.060 A 
BRANCH  99 100
ATOM    100  S   UNL A   1      52.762  26.539  30.140  1.00  0.00     0.124 S 
ATOM    101  O   UNL A   1      53.024  26.070  28.783  1.00  0.00    -0.237 OA
ATOM    102  O   UNL A   1      53.361  27.823  30.493  1.00  0.00    -0.237 OA
ATOM    103  O   UNL A   1      52.827  25.518  31.182  1.00  0.00    -0.744 OA
ENDBRANCH  99 100
ENDBRANCH  67  92
ENDBRANCH  41  42
ENDBRANCH  34  36
ENDBRANCH  33  34
ENDBRANCH  32  33
ENDBRANCH   1  32
TORSDOF 19
ENDMDL
