MODEL 1
REMARK VINA RESULT:     -11.2      0.000      0.000
REMARK SMILES C[C@H](Nc1cccc(F)c1C(=O)OCCOC(=O)c1ccc(-c2c3nc(c(-c4c(F)cc(S(=O)(=O)[O-])cc4F)c4ccc([nH]4)c(-c4c(F)cc(S(=O)(=O)[O-])cc4F)c4nc(c(-c5c(F)cc(S(=O)(=O)[O-])cc5F)c5ccc2[nH]5)C=C4)C=C3)cc1)c1cccc(Cl)c1
REMARK SMILES IDX 14 1 13 2 11 3 12 4 10 5 4 6 5 7 6 8 8 9 7 10 9 11 3 12 2 14
REMARK SMILES IDX 1 15 85 16 86 17 91 18 87 19 89 20 88 21 90 22 15 23 16 24
REMARK SMILES IDX 17 25 18 26 19 27 20 28 84 29 21 30 83 31 22 32 23 33 24 34
REMARK SMILES IDX 77 35 25 36 82 37 76 38 78 39 26 40 81 41 75 42 74 43 27 45
REMARK SMILES IDX 61 46 40 47 60 48 41 49 44 50 59 51 79 52 42 53 43 54 58 56
REMARK SMILES IDX 80 57 45 58 28 59 29 60 38 61 30 62 31 63 37 64 39 65 32 66
REMARK SMILES IDX 33 67 34 68 35 69 36 70 62 71 63 72 72 73 64 74 65 75 71 76
REMARK SMILES IDX 73 77 66 78 67 79 68 80 69 81 70 82 46 83 47 84 56 85 48 86
REMARK SMILES IDX 49 87 55 88 57 89 50 90 51 91 52 92 53 93 54 94
REMARK H PARENT 3 13 78 44 44 55
REMARK Flexibility Score: inf
ROOT
ATOM      1  C   UNL A   1      44.805  23.563  26.764  1.00  0.00     0.275 C 
ENDROOT
BRANCH   1   2
ATOM      2  O   UNL A   1      45.430  22.858  25.673  1.00  0.00    -0.458 OA
BRANCH   2   3
ATOM      3  C   UNL A   1      44.575  22.320  24.763  1.00  0.00     0.343 C 
ATOM      4  O   UNL A   1      44.088  22.881  23.798  1.00  0.00    -0.246 OA
BRANCH   3   5
ATOM      5  C   UNL A   1      44.219  20.954  25.165  1.00  0.00     0.118 A 
ATOM      6  C   UNL A   1      43.011  20.626  25.816  1.00  0.00     0.052 A 
ATOM      7  C   UNL A   1      42.815  19.281  26.175  1.00  0.00     0.027 A 
ATOM      8  C   UNL A   1      43.802  18.314  25.954  1.00  0.00     0.005 A 
ATOM      9  C   UNL A   1      45.205  19.986  24.958  1.00  0.00     0.139 A 
ATOM     10  C   UNL A   1      45.003  18.670  25.350  1.00  0.00     0.040 A 
ATOM     11  F   UNL A   1      46.375  20.311  24.385  1.00  0.00    -0.206 F 
BRANCH   6  12
ATOM     12  N   UNL A   1      41.944  21.508  25.911  1.00  0.00    -0.378 N 
ATOM     13  H   UNL A   1      41.808  22.112  25.144  1.00  0.00     0.161 HD
BRANCH  12  14
ATOM     14  C   UNL A   1      40.992  21.647  27.028  1.00  0.00     0.106 C 
ATOM     15  C   UNL A   1      41.547  22.379  28.239  1.00  0.00     0.036 C 
BRANCH  14  16
ATOM     16  C   UNL A   1      39.700  22.302  26.531  1.00  0.00    -0.025 A 
ATOM     17  C   UNL A   1      39.430  23.648  26.816  1.00  0.00     0.006 A 
ATOM     18  C   UNL A   1      38.748  21.604  25.770  1.00  0.00     0.026 A 
ATOM     19  C   UNL A   1      38.225  24.245  26.412  1.00  0.00     0.002 A 
ATOM     20  C   UNL A   1      37.531  22.188  25.407  1.00  0.00     0.041 A 
ATOM     21  C   UNL A   1      37.255  23.503  25.747  1.00  0.00     0.020 A 
ATOM     22  Cl  UNL A   1      36.362  21.267  24.542  1.00  0.00    -0.084 Cl
ENDBRANCH  14  16
ENDBRANCH  12  14
ENDBRANCH   6  12
ENDBRANCH   3   5
ENDBRANCH   2   3
ENDBRANCH   1   2
BRANCH   1  23
ATOM     23  C   UNL A   1      44.242  24.891  26.264  1.00  0.00     0.275 C 
BRANCH  23  24
ATOM     24  O   UNL A   1      42.818  24.771  26.083  1.00  0.00    -0.458 OA
BRANCH  24  25
ATOM     25  C   UNL A   1      42.143  25.941  25.982  1.00  0.00     0.338 C 
ATOM     26  O   UNL A   1      41.516  26.356  25.020  1.00  0.00    -0.246 OA
BRANCH  25  27
ATOM     27  C   UNL A   1      42.185  26.667  27.263  1.00  0.00     0.060 A 
ATOM     28  C   UNL A   1      41.494  26.128  28.336  1.00  0.00     0.016 A 
ATOM     29  C   UNL A   1      42.717  27.951  27.364  1.00  0.00     0.016 A 
ATOM     30  C   UNL A   1      41.219  26.912  29.461  1.00  0.00     0.010 A 
ATOM     31  C   UNL A   1      42.531  28.698  28.543  1.00  0.00     0.010 A 
ATOM     32  C   UNL A   1      41.731  28.213  29.594  1.00  0.00    -0.014 A 
BRANCH  32  33
ATOM     33  C   UNL A   1      41.360  29.048  30.790  1.00  0.00     0.031 A 
ATOM     34  C   UNL A   1      40.119  29.902  30.786  1.00  0.00     0.074 A 
ATOM     35  C   UNL A   1      42.078  29.000  31.936  1.00  0.00     0.049 A 
ATOM     36  N   UNL A   1      39.731  30.774  31.683  1.00  0.00    -0.248 NA
ATOM     37  C   UNL A   1      39.209  29.778  29.639  1.00  0.00     0.031 C 
ATOM     38  C   UNL A   1      43.292  28.218  32.104  1.00  0.00     0.029 A 
ATOM     39  N   UNL A   1      41.893  29.574  33.178  1.00  0.00    -0.354 N 
ATOM     40  C   UNL A   1      38.581  31.359  31.174  1.00  0.00     0.074 A 
ATOM     41  C   UNL A   1      38.316  30.725  29.900  1.00  0.00     0.031 C 
ATOM     42  C   UNL A   1      43.671  28.260  33.387  1.00  0.00     0.029 A 
ATOM     43  C   UNL A   1      42.828  29.186  34.116  1.00  0.00     0.049 A 
ATOM     44  H   UNL A   1      41.161  30.202  33.377  1.00  0.00     0.167 HD
ATOM     45  C   UNL A   1      37.833  32.348  31.715  1.00  0.00     0.037 A 
ATOM     46  C   UNL A   1      43.056  29.551  35.397  1.00  0.00     0.037 A 
ATOM     47  C   UNL A   1      38.075  32.945  33.006  1.00  0.00     0.049 A 
ATOM     48  C   UNL A   1      42.221  30.655  35.970  1.00  0.00     0.074 A 
ATOM     49  C   UNL A   1      37.379  33.976  33.615  1.00  0.00     0.029 A 
ATOM     50  N   UNL A   1      39.068  32.558  33.895  1.00  0.00    -0.354 N 
ATOM     51  N   UNL A   1      41.203  31.270  35.420  1.00  0.00    -0.248 NA
ATOM     52  C   UNL A   1      42.597  31.167  37.295  1.00  0.00     0.031 C 
ATOM     53  C   UNL A   1      37.977  34.243  34.849  1.00  0.00     0.029 A 
ATOM     54  C   UNL A   1      39.008  33.338  35.040  1.00  0.00     0.049 A 
ATOM     55  H   UNL A   1      39.720  31.838  33.735  1.00  0.00     0.167 HD
ATOM     56  C   UNL A   1      40.832  32.257  36.321  1.00  0.00     0.074 A 
ATOM     57  C   UNL A   1      41.698  32.126  37.474  1.00  0.00     0.031 C 
ATOM     58  C   UNL A   1      39.873  33.203  36.185  1.00  0.00     0.037 A 
BRANCH  45  59
ATOM     59  C   UNL A   1      36.709  32.906  30.890  1.00  0.00     0.058 A 
ATOM     60  C   UNL A   1      36.981  33.870  29.906  1.00  0.00     0.135 A 
ATOM     61  C   UNL A   1      35.370  32.554  31.116  1.00  0.00     0.135 A 
ATOM     62  F   UNL A   1      38.247  34.231  29.642  1.00  0.00    -0.206 F 
ATOM     63  C   UNL A   1      35.962  34.491  29.196  1.00  0.00     0.059 A 
ATOM     64  C   UNL A   1      34.334  33.144  30.397  1.00  0.00     0.059 A 
ATOM     65  F   UNL A   1      35.062  31.615  32.023  1.00  0.00    -0.206 F 
ATOM     66  C   UNL A   1      34.639  34.127  29.453  1.00  0.00     0.060 A 
BRANCH  66  67
ATOM     67  S   UNL A   1      33.329  34.950  28.524  1.00  0.00     0.124 S 
ATOM     68  O   UNL A   1      34.092  35.842  27.657  1.00  0.00    -0.237 OA
ATOM     69  O   UNL A   1      32.673  33.826  27.863  1.00  0.00    -0.237 OA
ATOM     70  O   UNL A   1      32.540  35.606  29.563  1.00  0.00    -0.744 OA
ENDBRANCH  66  67
ENDBRANCH  45  59
BRANCH  46  71
ATOM     71  C   UNL A   1      44.178  28.952  36.191  1.00  0.00     0.058 A 
ATOM     72  C   UNL A   1      45.460  29.528  36.200  1.00  0.00     0.135 A 
ATOM     73  C   UNL A   1      43.994  27.792  36.965  1.00  0.00     0.135 A 
ATOM     74  F   UNL A   1      45.704  30.642  35.492  1.00  0.00    -0.206 F 
ATOM     75  C   UNL A   1      46.522  28.955  36.890  1.00  0.00     0.059 A 
ATOM     76  C   UNL A   1      45.032  27.228  37.707  1.00  0.00     0.059 A 
ATOM     77  F   UNL A   1      42.787  27.210  37.023  1.00  0.00    -0.206 F 
ATOM     78  C   UNL A   1      46.299  27.806  37.645  1.00  0.00     0.060 A 
BRANCH  78  79
ATOM     79  S   UNL A   1      47.690  27.106  38.561  1.00  0.00     0.124 S 
ATOM     80  O   UNL A   1      48.415  28.311  38.948  1.00  0.00    -0.237 OA
ATOM     81  O   UNL A   1      47.015  26.395  39.643  1.00  0.00    -0.237 OA
ATOM     82  O   UNL A   1      48.352  26.260  37.573  1.00  0.00    -0.744 OA
ENDBRANCH  78  79
ENDBRANCH  46  71
BRANCH  58  83
ATOM     83  C   UNL A   1      39.690  34.163  37.322  1.00  0.00     0.058 A 
ATOM     84  C   UNL A   1      40.256  35.446  37.263  1.00  0.00     0.135 A 
ATOM     85  C   UNL A   1      39.005  33.797  38.492  1.00  0.00     0.135 A 
ATOM     86  F   UNL A   1      40.915  35.844  36.163  1.00  0.00    -0.206 F 
ATOM     87  C   UNL A   1      40.171  36.325  38.334  1.00  0.00     0.059 A 
ATOM     88  C   UNL A   1      38.883  34.672  39.567  1.00  0.00     0.059 A 
ATOM     89  F   UNL A   1      38.427  32.588  38.587  1.00  0.00    -0.206 F 
ATOM     90  C   UNL A   1      39.487  35.927  39.484  1.00  0.00     0.060 A 
BRANCH  90  91
ATOM     91  S   UNL A   1      39.389  37.086  40.863  1.00  0.00     0.124 S 
ATOM     92  O   UNL A   1      40.784  37.487  41.014  1.00  0.00    -0.237 OA
ATOM     93  O   UNL A   1      38.486  38.108  40.342  1.00  0.00    -0.237 OA
ATOM     94  O   UNL A   1      38.847  36.276  41.950  1.00  0.00    -0.744 OA
ENDBRANCH  90  91
ENDBRANCH  58  83
ENDBRANCH  32  33
ENDBRANCH  25  27
ENDBRANCH  24  25
ENDBRANCH  23  24
ENDBRANCH   1  23
TORSDOF 17
ENDMDL
MODEL 2
REMARK VINA RESULT:     -11.0      5.984     13.956
REMARK SMILES C[C@H](Nc1cccc(F)c1C(=O)OCCOC(=O)c1ccc(-c2c3nc(c(-c4c(F)cc(S(=O)(=O)[O-])cc4F)c4ccc([nH]4)c(-c4c(F)cc(S(=O)(=O)[O-])cc4F)c4nc(c(-c5c(F)cc(S(=O)(=O)[O-])cc5F)c5ccc2[nH]5)C=C4)C=C3)cc1)c1cccc(Cl)c1
REMARK SMILES IDX 14 1 13 2 11 3 12 4 10 5 4 6 5 7 6 8 8 9 7 10 9 11 3 12 2 14
REMARK SMILES IDX 1 15 85 16 86 17 91 18 87 19 89 20 88 21 90 22 15 23 16 24
REMARK SMILES IDX 17 25 18 26 19 27 20 28 84 29 21 30 83 31 22 32 23 33 24 34
REMARK SMILES IDX 77 35 25 36 82 37 76 38 78 39 26 40 81 41 75 42 74 43 27 45
REMARK SMILES IDX 61 46 40 47 60 48 41 49 44 50 59 51 79 52 42 53 43 54 58 56
REMARK SMILES IDX 80 57 45 58 28 59 29 60 38 61 30 62 31 63 37 64 39 65 32 66
REMARK SMILES IDX 33 67 34 68 35 69 36 70 62 71 63 72 72 73 64 74 65 75 71 76
REMARK SMILES IDX 73 77 66 78 67 79 68 80 69 81 70 82 46 83 47 84 56 85 48 86
REMARK SMILES IDX 49 87 55 88 57 89 50 90 51 91 52 92 53 93 54 94
REMARK H PARENT 3 13 78 44 44 55
REMARK Flexibility Score: inf
ROOT
ATOM      1  C   UNL A   1      36.639  33.241  33.234  1.00  0.00     0.275 C 
ENDROOT
BRANCH   1   2
ATOM      2  O   UNL A   1      35.973  33.849  32.109  1.00  0.00    -0.458 OA
BRANCH   2   3
ATOM      3  C   UNL A   1      34.627  33.666  32.064  1.00  0.00     0.343 C 
ATOM      4  O   UNL A   1      34.005  32.709  32.488  1.00  0.00    -0.246 OA
BRANCH   3   5
ATOM      5  C   UNL A   1      34.003  34.767  31.319  1.00  0.00     0.118 A 
ATOM      6  C   UNL A   1      33.707  34.703  29.941  1.00  0.00     0.052 A 
ATOM      7  C   UNL A   1      33.140  35.843  29.348  1.00  0.00     0.027 A 
ATOM      8  C   UNL A   1      32.934  37.021  30.077  1.00  0.00     0.005 A 
ATOM      9  C   UNL A   1      33.806  35.948  32.038  1.00  0.00     0.139 A 
ATOM     10  C   UNL A   1      33.275  37.074  31.424  1.00  0.00     0.040 A 
ATOM     11  F   UNL A   1      34.136  36.024  33.337  1.00  0.00    -0.206 F 
BRANCH   6  12
ATOM     12  N   UNL A   1      33.741  33.518  29.219  1.00  0.00    -0.378 N 
ATOM     13  H   UNL A   1      33.025  32.869  29.411  1.00  0.00     0.161 HD
BRANCH  12  14
ATOM     14  C   UNL A   1      34.729  33.118  28.200  1.00  0.00     0.106 C 
ATOM     15  C   UNL A   1      36.175  33.371  28.594  1.00  0.00     0.036 C 
BRANCH  14  16
ATOM     16  C   UNL A   1      34.510  31.653  27.813  1.00  0.00    -0.025 A 
ATOM     17  C   UNL A   1      35.524  30.705  28.013  1.00  0.00     0.006 A 
ATOM     18  C   UNL A   1      33.303  31.193  27.260  1.00  0.00     0.026 A 
ATOM     19  C   UNL A   1      35.355  29.370  27.612  1.00  0.00     0.002 A 
ATOM     20  C   UNL A   1      33.154  29.874  26.823  1.00  0.00     0.041 A 
ATOM     21  C   UNL A   1      34.188  28.963  26.976  1.00  0.00     0.020 A 
ATOM     22  Cl  UNL A   1      31.683  29.377  26.080  1.00  0.00    -0.084 Cl
ENDBRANCH  14  16
ENDBRANCH  12  14
ENDBRANCH   6  12
ENDBRANCH   3   5
ENDBRANCH   2   3
ENDBRANCH   1   2
BRANCH   1  23
ATOM     23  C   UNL A   1      37.848  32.445  32.749  1.00  0.00     0.275 C 
BRANCH  23  24
ATOM     24  O   UNL A   1      37.589  31.036  32.906  1.00  0.00    -0.458 OA
BRANCH  24  25
ATOM     25  C   UNL A   1      37.057  30.419  31.824  1.00  0.00     0.338 C 
ATOM     26  O   UNL A   1      35.881  30.375  31.499  1.00  0.00    -0.246 OA
BRANCH  25  27
ATOM     27  C   UNL A   1      38.124  29.838  30.991  1.00  0.00     0.060 A 
ATOM     28  C   UNL A   1      39.023  28.975  31.598  1.00  0.00     0.016 A 
ATOM     29  C   UNL A   1      38.367  30.282  29.694  1.00  0.00     0.016 A 
ATOM     30  C   UNL A   1      40.228  28.657  30.965  1.00  0.00     0.010 A 
ATOM     31  C   UNL A   1      39.531  29.870  29.016  1.00  0.00     0.010 A 
ATOM     32  C   UNL A   1      40.512  29.093  29.660  1.00  0.00    -0.014 A 
BRANCH  32  33
ATOM     33  C   UNL A   1      41.847  28.783  29.038  1.00  0.00     0.031 A 
ATOM     34  C   UNL A   1      42.116  27.443  28.403  1.00  0.00     0.074 A 
ATOM     35  C   UNL A   1      42.821  29.718  28.952  1.00  0.00     0.049 A 
ATOM     36  N   UNL A   1      43.249  26.977  27.942  1.00  0.00    -0.248 NA
ATOM     37  C   UNL A   1      40.989  26.507  28.281  1.00  0.00     0.031 C 
ATOM     38  C   UNL A   1      42.713  31.059  29.504  1.00  0.00     0.029 A 
ATOM     39  N   UNL A   1      44.064  29.719  28.352  1.00  0.00    -0.354 N 
ATOM     40  C   UNL A   1      42.993  25.671  27.550  1.00  0.00     0.074 A 
ATOM     41  C   UNL A   1      41.590  25.424  27.803  1.00  0.00     0.031 C 
ATOM     42  C   UNL A   1      43.772  31.782  29.119  1.00  0.00     0.029 A 
ATOM     43  C   UNL A   1      44.716  30.933  28.420  1.00  0.00     0.049 A 
ATOM     44  H   UNL A   1      44.451  28.925  27.915  1.00  0.00     0.167 HD
ATOM     45  C   UNL A   1      43.860  24.761  27.048  1.00  0.00     0.037 A 
ATOM     46  C   UNL A   1      45.946  31.343  28.039  1.00  0.00     0.037 A 
ATOM     47  C   UNL A   1      45.247  25.026  26.755  1.00  0.00     0.049 A 
ATOM     48  C   UNL A   1      46.889  30.315  27.494  1.00  0.00     0.074 A 
ATOM     49  C   UNL A   1      46.201  24.147  26.271  1.00  0.00     0.029 A 
ATOM     50  N   UNL A   1      45.876  26.255  26.895  1.00  0.00    -0.354 N 
ATOM     51  N   UNL A   1      46.651  29.053  27.237  1.00  0.00    -0.248 NA
ATOM     52  C   UNL A   1      48.277  30.733  27.254  1.00  0.00     0.031 C 
ATOM     53  C   UNL A   1      47.415  24.831  26.161  1.00  0.00     0.029 A 
ATOM     54  C   UNL A   1      47.206  26.152  26.517  1.00  0.00     0.049 A 
ATOM     55  H   UNL A   1      45.442  27.079  27.217  1.00  0.00     0.167 HD
ATOM     56  C   UNL A   1      47.864  28.520  26.827  1.00  0.00     0.074 A 
ATOM     57  C   UNL A   1      48.823  29.605  26.821  1.00  0.00     0.031 C 
ATOM     58  C   UNL A   1      48.156  27.236  26.512  1.00  0.00     0.037 A 
BRANCH  45  59
ATOM     59  C   UNL A   1      43.359  23.361  26.836  1.00  0.00     0.058 A 
ATOM     60  C   UNL A   1      43.216  22.500  27.936  1.00  0.00     0.135 A 
ATOM     61  C   UNL A   1      43.094  22.847  25.558  1.00  0.00     0.135 A 
ATOM     62  F   UNL A   1      43.443  22.948  29.181  1.00  0.00    -0.206 F 
ATOM     63  C   UNL A   1      42.860  21.167  27.774  1.00  0.00     0.059 A 
ATOM     64  C   UNL A   1      42.711  21.522  25.375  1.00  0.00     0.059 A 
ATOM     65  F   UNL A   1      43.186  23.639  24.479  1.00  0.00    -0.206 F 
ATOM     66  C   UNL A   1      42.616  20.684  26.488  1.00  0.00     0.060 A 
BRANCH  66  67
ATOM     67  S   UNL A   1      42.162  18.948  26.299  1.00  0.00     0.124 S 
ATOM     68  O   UNL A   1      42.263  18.460  27.670  1.00  0.00    -0.237 OA
ATOM     69  O   UNL A   1      40.811  19.045  25.755  1.00  0.00    -0.237 OA
ATOM     70  O   UNL A   1      43.167  18.435  25.373  1.00  0.00    -0.744 OA
ENDBRANCH  66  67
ENDBRANCH  45  59
BRANCH  46  71
ATOM     71  C   UNL A   1      46.397  32.758  28.250  1.00  0.00     0.058 A 
ATOM     72  C   UNL A   1      47.146  33.127  29.381  1.00  0.00     0.135 A 
ATOM     73  C   UNL A   1      46.095  33.772  27.325  1.00  0.00     0.135 A 
ATOM     74  F   UNL A   1      47.479  32.207  30.300  1.00  0.00    -0.206 F 
ATOM     75  C   UNL A   1      47.528  34.443  29.616  1.00  0.00     0.059 A 
ATOM     76  C   UNL A   1      46.511  35.091  27.514  1.00  0.00     0.059 A 
ATOM     77  F   UNL A   1      45.408  33.480  26.210  1.00  0.00    -0.206 F 
ATOM     78  C   UNL A   1      47.210  35.419  28.675  1.00  0.00     0.060 A 
BRANCH  78  79
ATOM     79  S   UNL A   1      47.751  37.114  28.989  1.00  0.00     0.124 S 
ATOM     80  O   UNL A   1      48.961  37.184  28.179  1.00  0.00    -0.237 OA
ATOM     81  O   UNL A   1      46.615  37.892  28.505  1.00  0.00    -0.237 OA
ATOM     82  O   UNL A   1      47.956  37.139  30.434  1.00  0.00    -0.744 OA
ENDBRANCH  78  79
ENDBRANCH  46  71
BRANCH  58  83
ATOM     83  C   UNL A   1      49.568  26.933  26.110  1.00  0.00     0.058 A 
ATOM     84  C   UNL A   1      50.478  26.424  27.050  1.00  0.00     0.135 A 
ATOM     85  C   UNL A   1      50.037  27.195  24.812  1.00  0.00     0.135 A 
ATOM     86  F   UNL A   1      50.076  26.151  28.301  1.00  0.00    -0.206 F 
ATOM     87  C   UNL A   1      51.811  26.211  26.725  1.00  0.00     0.059 A 
ATOM     88  C   UNL A   1      51.362  26.962  24.457  1.00  0.00     0.059 A 
ATOM     89  F   UNL A   1      49.198  27.660  23.872  1.00  0.00    -0.206 F 
ATOM     90  C   UNL A   1      52.245  26.487  25.428  1.00  0.00     0.060 A 
BRANCH  90  91
ATOM     91  S   UNL A   1      53.981  26.202  25.029  1.00  0.00     0.124 S 
ATOM     92  O   UNL A   1      54.591  27.464  25.434  1.00  0.00    -0.237 OA
ATOM     93  O   UNL A   1      54.300  25.045  25.860  1.00  0.00    -0.237 OA
ATOM     94  O   UNL A   1      53.962  25.946  23.592  1.00  0.00    -0.744 OA
ENDBRANCH  90  91
ENDBRANCH  58  83
ENDBRANCH  32  33
ENDBRANCH  25  27
ENDBRANCH  24  25
ENDBRANCH  23  24
ENDBRANCH   1  23
TORSDOF 17
ENDMDL
MODEL 3
REMARK VINA RESULT:     -10.8      6.686     12.980
REMARK SMILES C[C@H](Nc1cccc(F)c1C(=O)OCCOC(=O)c1ccc(-c2c3nc(c(-c4c(F)cc(S(=O)(=O)[O-])cc4F)c4ccc([nH]4)c(-c4c(F)cc(S(=O)(=O)[O-])cc4F)c4nc(c(-c5c(F)cc(S(=O)(=O)[O-])cc5F)c5ccc2[nH]5)C=C4)C=C3)cc1)c1cccc(Cl)c1
REMARK SMILES IDX 14 1 13 2 11 3 12 4 10 5 4 6 5 7 6 8 8 9 7 10 9 11 3 12 2 14
REMARK SMILES IDX 1 15 85 16 86 17 91 18 87 19 89 20 88 21 90 22 15 23 16 24
REMARK SMILES IDX 17 25 18 26 19 27 20 28 84 29 21 30 83 31 22 32 23 33 24 34
REMARK SMILES IDX 77 35 25 36 82 37 76 38 78 39 26 40 81 41 75 42 74 43 27 45
REMARK SMILES IDX 61 46 40 47 60 48 41 49 44 50 59 51 79 52 42 53 43 54 58 56
REMARK SMILES IDX 80 57 45 58 28 59 29 60 38 61 30 62 31 63 37 64 39 65 32 66
REMARK SMILES IDX 33 67 34 68 35 69 36 70 62 71 63 72 72 73 64 74 65 75 71 76
REMARK SMILES IDX 73 77 66 78 67 79 68 80 69 81 70 82 46 83 47 84 56 85 48 86
REMARK SMILES IDX 49 87 55 88 57 89 50 90 51 91 52 92 53 93 54 94
REMARK H PARENT 3 13 78 44 44 55
REMARK Flexibility Score: inf
ROOT
ATOM      1  C   UNL A   1      32.661  30.643  27.159  1.00  0.00     0.275 C 
ENDROOT
BRANCH   1   2
ATOM      2  O   UNL A   1      32.845  29.781  26.018  1.00  0.00    -0.458 OA
BRANCH   2   3
ATOM      3  C   UNL A   1      32.206  28.583  26.086  1.00  0.00     0.343 C 
ATOM      4  O   UNL A   1      31.534  28.166  27.012  1.00  0.00    -0.246 OA
BRANCH   3   5
ATOM      5  C   UNL A   1      32.523  27.784  24.896  1.00  0.00     0.118 A 
ATOM      6  C   UNL A   1      31.769  27.833  23.705  1.00  0.00     0.052 A 
ATOM      7  C   UNL A   1      32.165  26.989  22.654  1.00  0.00     0.027 A 
ATOM      8  C   UNL A   1      33.226  26.089  22.800  1.00  0.00     0.005 A 
ATOM      9  C   UNL A   1      33.574  26.876  25.040  1.00  0.00     0.139 A 
ATOM     10  C   UNL A   1      33.928  26.028  23.999  1.00  0.00     0.040 A 
ATOM     11  F   UNL A   1      34.258  26.795  26.192  1.00  0.00    -0.206 F 
BRANCH   6  12
ATOM     12  N   UNL A   1      30.819  28.814  23.456  1.00  0.00    -0.378 N 
ATOM     13  H   UNL A   1      31.006  29.707  23.827  1.00  0.00     0.161 HD
BRANCH  12  14
ATOM     14  C   UNL A   1      29.560  28.672  22.701  1.00  0.00     0.106 C 
ATOM     15  C   UNL A   1      28.486  27.870  23.417  1.00  0.00     0.036 C 
BRANCH  14  16
ATOM     16  C   UNL A   1      29.040  30.054  22.295  1.00  0.00    -0.025 A 
ATOM     17  C   UNL A   1      28.215  30.201  21.170  1.00  0.00     0.006 A 
ATOM     18  C   UNL A   1      29.348  31.216  23.020  1.00  0.00     0.026 A 
ATOM     19  C   UNL A   1      27.776  31.469  20.756  1.00  0.00     0.002 A 
ATOM     20  C   UNL A   1      28.945  32.481  22.581  1.00  0.00     0.041 A 
ATOM     21  C   UNL A   1      28.177  32.614  21.435  1.00  0.00     0.020 A 
ATOM     22  Cl  UNL A   1      29.413  33.884  23.461  1.00  0.00    -0.084 Cl
ENDBRANCH  14  16
ENDBRANCH  12  14
ENDBRANCH   6  12
ENDBRANCH   3   5
ENDBRANCH   2   3
ENDBRANCH   1   2
BRANCH   1  23
ATOM     23  C   UNL A   1      34.008  31.208  27.602  1.00  0.00     0.275 C 
BRANCH  23  24
ATOM     24  O   UNL A   1      34.765  30.177  28.267  1.00  0.00    -0.458 OA
BRANCH  24  25
ATOM     25  C   UNL A   1      35.742  30.616  29.095  1.00  0.00     0.338 C 
ATOM     26  O   UNL A   1      35.638  31.428  30.002  1.00  0.00    -0.246 OA
BRANCH  25  27
ATOM     27  C   UNL A   1      37.003  29.907  28.819  1.00  0.00     0.060 A 
ATOM     28  C   UNL A   1      37.698  29.378  29.895  1.00  0.00     0.016 A 
ATOM     29  C   UNL A   1      37.601  29.933  27.561  1.00  0.00     0.016 A 
ATOM     30  C   UNL A   1      39.035  28.994  29.748  1.00  0.00     0.010 A 
ATOM     31  C   UNL A   1      38.911  29.442  27.395  1.00  0.00     0.010 A 
ATOM     32  C   UNL A   1      39.673  29.014  28.497  1.00  0.00    -0.014 A 
BRANCH  32  33
ATOM     33  C   UNL A   1      41.131  28.654  28.392  1.00  0.00     0.031 A 
ATOM     34  C   UNL A   1      42.204  29.642  28.765  1.00  0.00     0.074 A 
ATOM     35  C   UNL A   1      41.528  27.410  28.038  1.00  0.00     0.049 A 
ATOM     36  N   UNL A   1      43.500  29.532  28.608  1.00  0.00    -0.248 NA
ATOM     37  C   UNL A   1      41.781  30.912  29.375  1.00  0.00     0.031 C 
ATOM     38  C   UNL A   1      40.617  26.341  27.660  1.00  0.00     0.029 A 
ATOM     39  N   UNL A   1      42.770  26.810  27.969  1.00  0.00    -0.354 N 
ATOM     40  C   UNL A   1      44.038  30.742  29.021  1.00  0.00     0.074 A 
ATOM     41  C   UNL A   1      42.933  31.565  29.463  1.00  0.00     0.031 C 
ATOM     42  C   UNL A   1      41.306  25.202  27.519  1.00  0.00     0.029 A 
ATOM     43  C   UNL A   1      42.725  25.469  27.646  1.00  0.00     0.049 A 
ATOM     44  H   UNL A   1      43.611  27.295  28.135  1.00  0.00     0.167 HD
ATOM     45  C   UNL A   1      45.335  31.129  29.010  1.00  0.00     0.037 A 
ATOM     46  C   UNL A   1      43.681  24.545  27.408  1.00  0.00     0.037 A 
ATOM     47  C   UNL A   1      46.438  30.288  28.614  1.00  0.00     0.049 A 
ATOM     48  C   UNL A   1      45.108  25.002  27.392  1.00  0.00     0.074 A 
ATOM     49  C   UNL A   1      47.781  30.617  28.546  1.00  0.00     0.029 A 
ATOM     50  N   UNL A   1      46.336  28.956  28.239  1.00  0.00    -0.354 N 
ATOM     51  N   UNL A   1      45.582  26.188  27.681  1.00  0.00    -0.248 NA
ATOM     52  C   UNL A   1      46.121  24.032  26.955  1.00  0.00     0.031 C 
ATOM     53  C   UNL A   1      48.486  29.500  28.088  1.00  0.00     0.029 A 
ATOM     54  C   UNL A   1      47.592  28.455  27.930  1.00  0.00     0.049 A 
ATOM     55  H   UNL A   1      45.497  28.443  28.198  1.00  0.00     0.167 HD
ATOM     56  C   UNL A   1      46.946  26.115  27.438  1.00  0.00     0.074 A 
ATOM     57  C   UNL A   1      47.230  24.755  27.028  1.00  0.00     0.031 C 
ATOM     58  C   UNL A   1      47.870  27.101  27.523  1.00  0.00     0.037 A 
BRANCH  45  59
ATOM     59  C   UNL A   1      45.642  32.552  29.380  1.00  0.00     0.058 A 
ATOM     60  C   UNL A   1      45.914  32.879  30.719  1.00  0.00     0.135 A 
ATOM     61  C   UNL A   1      45.596  33.595  28.444  1.00  0.00     0.135 A 
ATOM     62  F   UNL A   1      45.983  31.916  31.651  1.00  0.00    -0.206 F 
ATOM     63  C   UNL A   1      46.096  34.195  31.123  1.00  0.00     0.059 A 
ATOM     64  C   UNL A   1      45.802  34.919  28.822  1.00  0.00     0.059 A 
ATOM     65  F   UNL A   1      45.371  33.330  27.148  1.00  0.00    -0.206 F 
ATOM     66  C   UNL A   1      46.031  35.210  30.168  1.00  0.00     0.060 A 
BRANCH  66  67
ATOM     67  S   UNL A   1      46.264  36.915  30.714  1.00  0.00     0.124 S 
ATOM     68  O   UNL A   1      46.077  37.657  29.472  1.00  0.00    -0.237 OA
ATOM     69  O   UNL A   1      45.206  37.061  31.710  1.00  0.00    -0.237 OA
ATOM     70  O   UNL A   1      47.623  36.915  31.249  1.00  0.00    -0.744 OA
ENDBRANCH  66  67
ENDBRANCH  45  59
BRANCH  46  71
ATOM     71  C   UNL A   1      43.328  23.129  27.063  1.00  0.00     0.058 A 
ATOM     72  C   UNL A   1      42.920  22.214  28.050  1.00  0.00     0.135 A 
ATOM     73  C   UNL A   1      43.385  22.657  25.740  1.00  0.00     0.135 A 
ATOM     74  F   UNL A   1      42.834  22.599  29.333  1.00  0.00    -0.206 F 
ATOM     75  C   UNL A   1      42.639  20.885  27.754  1.00  0.00     0.059 A 
ATOM     76  C   UNL A   1      43.057  21.341  25.411  1.00  0.00     0.059 A 
ATOM     77  F   UNL A   1      43.738  23.488  24.747  1.00  0.00    -0.206 F 
ATOM     78  C   UNL A   1      42.706  20.457  26.430  1.00  0.00     0.060 A 
BRANCH  78  79
ATOM     79  S   UNL A   1      42.300  18.734  26.071  1.00  0.00     0.124 S 
ATOM     80  O   UNL A   1      40.891  18.841  25.707  1.00  0.00    -0.237 OA
ATOM     81  O   UNL A   1      43.217  18.426  24.978  1.00  0.00    -0.237 OA
ATOM     82  O   UNL A   1      42.576  18.053  27.332  1.00  0.00    -0.744 OA
ENDBRANCH  78  79
ENDBRANCH  46  71
BRANCH  58  83
ATOM     83  C   UNL A   1      49.286  26.743  27.187  1.00  0.00     0.058 A 
ATOM     84  C   UNL A   1      49.725  26.764  25.854  1.00  0.00     0.135 A 
ATOM     85  C   UNL A   1      50.195  26.326  28.174  1.00  0.00     0.135 A 
ATOM     86  F   UNL A   1      48.895  27.161  24.876  1.00  0.00    -0.206 F 
ATOM     87  C   UNL A   1      51.007  26.360  25.507  1.00  0.00     0.059 A 
ATOM     88  C   UNL A   1      51.493  25.945  27.852  1.00  0.00     0.059 A 
ATOM     89  F   UNL A   1      49.829  26.312  29.466  1.00  0.00    -0.206 F 
ATOM     90  C   UNL A   1      51.882  25.947  26.512  1.00  0.00     0.060 A 
BRANCH  90  91
ATOM     91  S   UNL A   1      53.543  25.427  26.037  1.00  0.00     0.124 S 
ATOM     92  O   UNL A   1      54.256  25.512  27.308  1.00  0.00    -0.237 OA
ATOM     93  O   UNL A   1      53.309  24.080  25.528  1.00  0.00    -0.237 OA
ATOM     94  O   UNL A   1      53.933  26.411  25.032  1.00  0.00    -0.744 OA
ENDBRANCH  90  91
ENDBRANCH  58  83
ENDBRANCH  32  33
ENDBRANCH  25  27
ENDBRANCH  24  25
ENDBRANCH  23  24
ENDBRANCH   1  23
TORSDOF 17
ENDMDL
