MODEL 1
REMARK VINA RESULT:     -10.6      0.000      0.000
REMARK SMILES CC[C@@H](NC(=O)c1ccc(CNC(=O)[C@H]2CCCO2)cc1)C(=O)OCCOC(=O)c1ccc(-c2c3nc(c(-c4c(F)cc(S(=O)(=O)[O-])cc4F)c4ccc([nH]4)c(-c4c(F)cc(S(=O)(=O)[O-])cc4F)c4nc(c(-c5c(F)cc(S(=O)(=O)[O-])cc5F)c5ccc2[nH]5)C=C4)C=C3)cc1
REMARK SMILES IDX 25 1 24 2 22 3 23 4 3 5 2 6 1 7 4 8 5 9 6 11 7 12 8 13 21 14
REMARK SMILES IDX 9 15 20 16 10 17 11 18 12 19 13 20 14 22 15 23 16 24 19 25
REMARK SMILES IDX 17 26 18 27 26 28 27 29 28 30 29 31 30 32 31 33 95 34 32 35
REMARK SMILES IDX 94 36 33 37 34 38 35 39 88 40 36 41 93 42 87 43 89 44 37 45
REMARK SMILES IDX 92 46 86 47 85 48 38 50 72 51 51 52 71 53 52 54 55 55 70 56
REMARK SMILES IDX 90 57 53 58 54 59 69 61 91 62 56 63 39 64 40 65 49 66 41 67
REMARK SMILES IDX 42 68 48 69 50 70 43 71 44 72 45 73 46 74 47 75 73 76 74 77
REMARK SMILES IDX 83 78 75 79 76 80 82 81 84 82 77 83 78 84 79 85 80 86 81 87
REMARK SMILES IDX 57 88 58 89 67 90 59 91 60 92 66 93 68 94 61 95 62 96 63 97
REMARK SMILES IDX 64 98 65 99
REMARK H PARENT 4 10 12 21 89 49 55 60
REMARK Flexibility Score: inf
ROOT
ATOM      1  C   UNL A   1      36.268  34.421  32.877  1.00  0.00     0.274 C 
ENDROOT
BRANCH   1   2
ATOM      2  O   UNL A   1      35.457  34.426  31.686  1.00  0.00    -0.461 OA
BRANCH   2   3
ATOM      3  C   UNL A   1      34.117  34.324  31.901  1.00  0.00     0.328 C 
ATOM      4  O   UNL A   1      33.597  33.464  32.604  1.00  0.00    -0.250 OA
BRANCH   3   5
ATOM      5  C   UNL A   1      33.281  35.360  31.132  1.00  0.00     0.192 C 
BRANCH   5   6
ATOM      6  C   UNL A   1      32.556  36.287  32.130  1.00  0.00     0.033 C 
ATOM      7  C   UNL A   1      33.418  37.453  32.596  1.00  0.00     0.007 C 
ENDBRANCH   5   6
BRANCH   5   8
ATOM      8  N   UNL A   1      33.953  36.155  30.084  1.00  0.00    -0.339 N 
ATOM      9  C   UNL A   1      34.059  35.903  28.735  1.00  0.00     0.251 C 
ATOM     10  H   UNL A   1      34.387  36.982  30.395  1.00  0.00     0.164 HD
ATOM     11  O   UNL A   1      34.122  36.823  27.928  1.00  0.00    -0.269 OA
BRANCH   9  12
ATOM     12  C   UNL A   1      34.297  34.522  28.287  1.00  0.00     0.039 A 
ATOM     13  C   UNL A   1      35.619  34.069  28.244  1.00  0.00     0.014 A 
ATOM     14  C   UNL A   1      33.240  33.667  27.985  1.00  0.00     0.014 A 
ATOM     15  C   UNL A   1      35.881  32.718  28.016  1.00  0.00     0.006 A 
ATOM     16  C   UNL A   1      33.506  32.308  27.787  1.00  0.00     0.006 A 
ATOM     17  C   UNL A   1      34.822  31.813  27.849  1.00  0.00    -0.029 A 
BRANCH  17  18
ATOM     18  C   UNL A   1      35.075  30.326  27.886  1.00  0.00     0.151 C 
BRANCH  18  19
ATOM     19  N   UNL A   1      35.010  29.717  26.581  1.00  0.00    -0.350 N 
ATOM     20  C   UNL A   1      34.158  28.779  26.080  1.00  0.00     0.249 C 
ATOM     21  H   UNL A   1      35.694  30.030  25.945  1.00  0.00     0.163 HD
ATOM     22  O   UNL A   1      34.239  28.520  24.875  1.00  0.00    -0.272 OA
BRANCH  20  23
ATOM     23  C   UNL A   1      33.147  28.054  26.997  1.00  0.00     0.207 C 
ATOM     24  C   UNL A   1      31.784  28.727  26.972  1.00  0.00     0.044 C 
ATOM     25  O   UNL A   1      32.932  26.711  26.529  1.00  0.00    -0.368 OA
ATOM     26  C   UNL A   1      31.094  28.050  25.812  1.00  0.00     0.032 C 
ATOM     27  C   UNL A   1      31.669  26.651  25.851  1.00  0.00     0.161 C 
ENDBRANCH  20  23
ENDBRANCH  18  19
ENDBRANCH  17  18
ENDBRANCH   9  12
ENDBRANCH   5   8
ENDBRANCH   3   5
ENDBRANCH   2   3
ENDBRANCH   1   2
BRANCH   1  28
ATOM     28  C   UNL A   1      36.703  33.028  33.352  1.00  0.00     0.275 C 
BRANCH  28  29
ATOM     29  O   UNL A   1      37.678  32.427  32.478  1.00  0.00    -0.458 OA
BRANCH  29  30
ATOM     30  C   UNL A   1      37.189  31.447  31.684  1.00  0.00     0.338 C 
ATOM     31  O   UNL A   1      36.006  31.239  31.440  1.00  0.00    -0.246 OA
BRANCH  30  32
ATOM     32  C   UNL A   1      38.273  30.725  30.991  1.00  0.00     0.060 A 
ATOM     33  C   UNL A   1      39.205  30.048  31.788  1.00  0.00     0.016 A 
ATOM     34  C   UNL A   1      38.431  30.772  29.604  1.00  0.00     0.016 A 
ATOM     35  C   UNL A   1      40.323  29.452  31.212  1.00  0.00     0.010 A 
ATOM     36  C   UNL A   1      39.564  30.186  29.026  1.00  0.00     0.010 A 
ATOM     37  C   UNL A   1      40.529  29.554  29.832  1.00  0.00    -0.014 A 
BRANCH  37  38
ATOM     38  C   UNL A   1      41.834  29.142  29.264  1.00  0.00     0.031 A 
ATOM     39  C   UNL A   1      42.937  30.160  29.181  1.00  0.00     0.074 A 
ATOM     40  C   UNL A   1      42.045  27.873  28.873  1.00  0.00     0.049 A 
ATOM     41  N   UNL A   1      44.136  30.045  28.673  1.00  0.00    -0.248 NA
ATOM     42  C   UNL A   1      42.650  31.488  29.752  1.00  0.00     0.031 C 
ATOM     43  C   UNL A   1      41.072  26.787  28.966  1.00  0.00     0.029 A 
ATOM     44  N   UNL A   1      43.153  27.286  28.314  1.00  0.00    -0.354 N 
ATOM     45  C   UNL A   1      44.740  31.285  28.846  1.00  0.00     0.074 A 
ATOM     46  C   UNL A   1      43.773  32.142  29.494  1.00  0.00     0.031 C 
ATOM     47  C   UNL A   1      41.622  25.664  28.470  1.00  0.00     0.029 A 
ATOM     48  C   UNL A   1      42.971  25.963  27.994  1.00  0.00     0.049 A 
ATOM     49  H   UNL A   1      43.998  27.768  28.160  1.00  0.00     0.167 HD
ATOM     50  C   UNL A   1      45.990  31.671  28.495  1.00  0.00     0.037 A 
ATOM     51  C   UNL A   1      43.793  25.101  27.362  1.00  0.00     0.037 A 
ATOM     52  C   UNL A   1      46.949  30.809  27.858  1.00  0.00     0.049 A 
ATOM     53  C   UNL A   1      45.155  25.571  26.924  1.00  0.00     0.074 A 
ATOM     54  C   UNL A   1      48.243  31.102  27.466  1.00  0.00     0.029 A 
ATOM     55  N   UNL A   1      46.716  29.484  27.517  1.00  0.00    -0.354 N 
ATOM     56  N   UNL A   1      45.712  26.750  27.085  1.00  0.00    -0.248 NA
ATOM     57  C   UNL A   1      45.998  24.600  26.213  1.00  0.00     0.031 C 
ATOM     58  C   UNL A   1      48.781  29.964  26.853  1.00  0.00     0.029 A 
ATOM     59  C   UNL A   1      47.836  28.951  26.902  1.00  0.00     0.049 A 
ATOM     60  H   UNL A   1      45.879  28.996  27.688  1.00  0.00     0.167 HD
ATOM     61  C   UNL A   1      46.978  26.653  26.515  1.00  0.00     0.074 A 
ATOM     62  C   UNL A   1      47.107  25.301  26.014  1.00  0.00     0.031 C 
ATOM     63  C   UNL A   1      47.946  27.598  26.417  1.00  0.00     0.037 A 
BRANCH  50  64
ATOM     64  C   UNL A   1      46.373  33.099  28.762  1.00  0.00     0.058 A 
ATOM     65  C   UNL A   1      46.994  33.489  29.958  1.00  0.00     0.135 A 
ATOM     66  C   UNL A   1      46.128  34.090  27.797  1.00  0.00     0.135 A 
ATOM     67  F   UNL A   1      47.231  32.585  30.923  1.00  0.00    -0.206 F 
ATOM     68  C   UNL A   1      47.338  34.815  30.199  1.00  0.00     0.059 A 
ATOM     69  C   UNL A   1      46.483  35.418  28.007  1.00  0.00     0.059 A 
ATOM     70  F   UNL A   1      45.530  33.770  26.638  1.00  0.00    -0.206 F 
ATOM     71  C   UNL A   1      47.075  35.774  29.219  1.00  0.00     0.060 A 
BRANCH  71  72
ATOM     72  S   UNL A   1      47.519  37.492  29.546  1.00  0.00     0.124 S 
ATOM     73  O   UNL A   1      46.222  38.068  29.887  1.00  0.00    -0.237 OA
ATOM     74  O   UNL A   1      48.466  37.367  30.649  1.00  0.00    -0.237 OA
ATOM     75  O   UNL A   1      48.092  37.942  28.281  1.00  0.00    -0.744 OA
ENDBRANCH  71  72
ENDBRANCH  50  64
BRANCH  51  76
ATOM     76  C   UNL A   1      43.342  23.711  27.085  1.00  0.00     0.058 A 
ATOM     77  C   UNL A   1      43.317  22.741  28.097  1.00  0.00     0.135 A 
ATOM     78  C   UNL A   1      42.928  23.328  25.800  1.00  0.00     0.135 A 
ATOM     79  F   UNL A   1      43.716  23.057  29.339  1.00  0.00    -0.206 F 
ATOM     80  C   UNL A   1      42.909  21.435  27.844  1.00  0.00     0.059 A 
ATOM     81  C   UNL A   1      42.494  22.034  25.528  1.00  0.00     0.059 A 
ATOM     82  F   UNL A   1      42.926  24.221  24.799  1.00  0.00    -0.206 F 
ATOM     83  C   UNL A   1      42.497  21.092  26.555  1.00  0.00     0.060 A 
BRANCH  83  84
ATOM     84  S   UNL A   1      41.921  19.409  26.244  1.00  0.00     0.124 S 
ATOM     85  O   UNL A   1      40.481  19.610  26.126  1.00  0.00    -0.237 OA
ATOM     86  O   UNL A   1      42.622  19.066  25.011  1.00  0.00    -0.237 OA
ATOM     87  O   UNL A   1      42.362  18.680  27.430  1.00  0.00    -0.744 OA
ENDBRANCH  83  84
ENDBRANCH  51  76
BRANCH  63  88
ATOM     88  C   UNL A   1      49.241  27.195  25.772  1.00  0.00     0.058 A 
ATOM     89  C   UNL A   1      49.431  27.282  24.384  1.00  0.00     0.135 A 
ATOM     90  C   UNL A   1      50.324  26.770  26.559  1.00  0.00     0.135 A 
ATOM     91  F   UNL A   1      48.425  27.677  23.589  1.00  0.00    -0.206 F 
ATOM     92  C   UNL A   1      50.645  26.944  23.796  1.00  0.00     0.059 A 
ATOM     93  C   UNL A   1      51.554  26.449  25.994  1.00  0.00     0.059 A 
ATOM     94  F   UNL A   1      50.196  26.681  27.892  1.00  0.00    -0.206 F 
ATOM     95  C   UNL A   1      51.702  26.529  24.610  1.00  0.00     0.060 A 
BRANCH  95  96
ATOM     96  S   UNL A   1      53.285  26.129  23.840  1.00  0.00     0.124 S 
ATOM     97  O   UNL A   1      53.565  24.816  24.410  1.00  0.00    -0.237 OA
ATOM     98  O   UNL A   1      52.958  26.148  22.418  1.00  0.00    -0.237 OA
ATOM     99  O   UNL A   1      54.161  27.208  24.289  1.00  0.00    -0.744 OA
ENDBRANCH  95  96
ENDBRANCH  63  88
ENDBRANCH  37  38
ENDBRANCH  30  32
ENDBRANCH  29  30
ENDBRANCH  28  29
ENDBRANCH   1  28
TORSDOF 20
ENDMDL
MODEL 2
REMARK VINA RESULT:     -10.4      6.255     13.539
REMARK SMILES CC[C@@H](NC(=O)c1ccc(CNC(=O)[C@H]2CCCO2)cc1)C(=O)OCCOC(=O)c1ccc(-c2c3nc(c(-c4c(F)cc(S(=O)(=O)[O-])cc4F)c4ccc([nH]4)c(-c4c(F)cc(S(=O)(=O)[O-])cc4F)c4nc(c(-c5c(F)cc(S(=O)(=O)[O-])cc5F)c5ccc2[nH]5)C=C4)C=C3)cc1
REMARK SMILES IDX 25 1 24 2 22 3 23 4 3 5 2 6 1 7 4 8 5 9 6 11 7 12 8 13 21 14
REMARK SMILES IDX 9 15 20 16 10 17 11 18 12 19 13 20 14 22 15 23 16 24 19 25
REMARK SMILES IDX 17 26 18 27 26 28 27 29 28 30 29 31 30 32 31 33 95 34 32 35
REMARK SMILES IDX 94 36 33 37 34 38 35 39 88 40 36 41 93 42 87 43 89 44 37 45
REMARK SMILES IDX 92 46 86 47 85 48 38 50 72 51 51 52 71 53 52 54 55 55 70 56
REMARK SMILES IDX 90 57 53 58 54 59 69 61 91 62 56 63 39 64 40 65 49 66 41 67
REMARK SMILES IDX 42 68 48 69 50 70 43 71 44 72 45 73 46 74 47 75 73 76 74 77
REMARK SMILES IDX 83 78 75 79 76 80 82 81 84 82 77 83 78 84 79 85 80 86 81 87
REMARK SMILES IDX 57 88 58 89 67 90 59 91 60 92 66 93 68 94 61 95 62 96 63 97
REMARK SMILES IDX 64 98 65 99
REMARK H PARENT 4 10 12 21 89 49 55 60
REMARK Flexibility Score: inf
ROOT
ATOM      1  C   UNL A   1      43.740  23.387  24.385  1.00  0.00     0.274 C 
ENDROOT
BRANCH   1   2
ATOM      2  O   UNL A   1      45.041  22.777  24.490  1.00  0.00    -0.461 OA
BRANCH   2   3
ATOM      3  C   UNL A   1      45.133  21.768  25.399  1.00  0.00     0.328 C 
ATOM      4  O   UNL A   1      45.681  21.876  26.492  1.00  0.00    -0.250 OA
BRANCH   3   5
ATOM      5  C   UNL A   1      44.533  20.438  24.919  1.00  0.00     0.192 C 
BRANCH   5   6
ATOM      6  C   UNL A   1      45.355  19.893  23.733  1.00  0.00     0.033 C 
ATOM      7  C   UNL A   1      44.585  18.893  22.881  1.00  0.00     0.007 C 
ENDBRANCH   5   6
BRANCH   5   8
ATOM      8  N   UNL A   1      44.307  19.375  25.921  1.00  0.00    -0.339 N 
ATOM      9  C   UNL A   1      43.119  18.863  26.392  1.00  0.00     0.251 C 
ATOM     10  H   UNL A   1      45.121  18.979  26.307  1.00  0.00     0.164 HD
ATOM     11  O   UNL A   1      43.040  17.694  26.752  1.00  0.00    -0.269 OA
BRANCH   9  12
ATOM     12  C   UNL A   1      42.000  19.781  26.646  1.00  0.00     0.039 A 
ATOM     13  C   UNL A   1      42.201  20.816  27.564  1.00  0.00     0.014 A 
ATOM     14  C   UNL A   1      40.801  19.674  25.944  1.00  0.00     0.014 A 
ATOM     15  C   UNL A   1      41.244  21.824  27.694  1.00  0.00     0.006 A 
ATOM     16  C   UNL A   1      39.858  20.701  26.056  1.00  0.00     0.006 A 
ATOM     17  C   UNL A   1      40.092  21.809  26.893  1.00  0.00    -0.029 A 
BRANCH  17  18
ATOM     18  C   UNL A   1      39.199  23.022  26.817  1.00  0.00     0.151 C 
BRANCH  18  19
ATOM     19  N   UNL A   1      38.592  23.187  25.519  1.00  0.00    -0.350 N 
ATOM     20  C   UNL A   1      37.290  23.088  25.130  1.00  0.00     0.249 C 
ATOM     21  H   UNL A   1      39.221  23.407  24.795  1.00  0.00     0.163 HD
ATOM     22  O   UNL A   1      37.016  23.407  23.968  1.00  0.00    -0.272 OA
BRANCH  20  23
ATOM     23  C   UNL A   1      36.206  22.572  26.103  1.00  0.00     0.207 C 
ATOM     24  C   UNL A   1      34.872  23.263  25.872  1.00  0.00     0.044 C 
ATOM     25  O   UNL A   1      35.968  21.172  25.878  1.00  0.00    -0.368 OA
ATOM     26  C   UNL A   1      34.220  22.400  24.819  1.00  0.00     0.032 C 
ATOM     27  C   UNL A   1      34.742  21.019  25.149  1.00  0.00     0.161 C 
ENDBRANCH  20  23
ENDBRANCH  18  19
ENDBRANCH  17  18
ENDBRANCH   9  12
ENDBRANCH   5   8
ENDBRANCH   3   5
ENDBRANCH   2   3
ENDBRANCH   1   2
BRANCH   1  28
ATOM     28  C   UNL A   1      43.571  24.681  25.190  1.00  0.00     0.275 C 
BRANCH  28  29
ATOM     29  O   UNL A   1      42.469  24.614  26.117  1.00  0.00    -0.458 OA
BRANCH  29  30
ATOM     30  C   UNL A   1      41.707  25.731  26.163  1.00  0.00     0.338 C 
ATOM     31  O   UNL A   1      40.942  26.119  25.288  1.00  0.00    -0.246 OA
BRANCH  30  32
ATOM     32  C   UNL A   1      41.778  26.376  27.488  1.00  0.00     0.060 A 
ATOM     33  C   UNL A   1      40.775  26.055  28.412  1.00  0.00     0.016 A 
ATOM     34  C   UNL A   1      42.746  27.334  27.799  1.00  0.00     0.016 A 
ATOM     35  C   UNL A   1      40.706  26.718  29.633  1.00  0.00     0.010 A 
ATOM     36  C   UNL A   1      42.666  28.011  29.022  1.00  0.00     0.010 A 
ATOM     37  C   UNL A   1      41.628  27.729  29.927  1.00  0.00    -0.014 A 
BRANCH  37  38
ATOM     38  C   UNL A   1      41.397  28.596  31.107  1.00  0.00     0.031 A 
ATOM     39  C   UNL A   1      40.270  29.590  31.062  1.00  0.00     0.074 A 
ATOM     40  C   UNL A   1      42.150  28.467  32.213  1.00  0.00     0.049 A 
ATOM     41  N   UNL A   1      39.919  30.486  31.946  1.00  0.00    -0.248 NA
ATOM     42  C   UNL A   1      39.423  29.568  29.857  1.00  0.00     0.031 C 
ATOM     43  C   UNL A   1      43.227  27.495  32.394  1.00  0.00     0.029 A 
ATOM     44  N   UNL A   1      42.122  29.163  33.396  1.00  0.00    -0.354 N 
ATOM     45  C   UNL A   1      38.823  31.145  31.401  1.00  0.00     0.074 A 
ATOM     46  C   UNL A   1      38.575  30.556  30.103  1.00  0.00     0.031 C 
ATOM     47  C   UNL A   1      43.765  27.663  33.615  1.00  0.00     0.029 A 
ATOM     48  C   UNL A   1      43.095  28.776  34.284  1.00  0.00     0.049 A 
ATOM     49  H   UNL A   1      41.465  29.870  33.588  1.00  0.00     0.167 HD
ATOM     50  C   UNL A   1      38.091  32.151  31.936  1.00  0.00     0.037 A 
ATOM     51  C   UNL A   1      43.423  29.284  35.490  1.00  0.00     0.037 A 
ATOM     52  C   UNL A   1      38.339  32.725  33.231  1.00  0.00     0.049 A 
ATOM     53  C   UNL A   1      42.635  30.445  36.036  1.00  0.00     0.074 A 
ATOM     54  C   UNL A   1      37.653  33.745  33.867  1.00  0.00     0.029 A 
ATOM     55  N   UNL A   1      39.357  32.331  34.087  1.00  0.00    -0.354 N 
ATOM     56  N   UNL A   1      41.607  31.067  35.506  1.00  0.00    -0.248 NA
ATOM     57  C   UNL A   1      43.054  30.979  37.340  1.00  0.00     0.031 C 
ATOM     58  C   UNL A   1      38.280  33.994  35.093  1.00  0.00     0.029 A 
ATOM     59  C   UNL A   1      39.330  33.100  35.238  1.00  0.00     0.049 A 
ATOM     60  H   UNL A   1      40.003  31.611  33.904  1.00  0.00     0.167 HD
ATOM     61  C   UNL A   1      41.243  32.049  36.422  1.00  0.00     0.074 A 
ATOM     62  C   UNL A   1      42.155  31.934  37.541  1.00  0.00     0.031 C 
ATOM     63  C   UNL A   1      40.244  32.963  36.345  1.00  0.00     0.037 A 
BRANCH  50  64
ATOM     64  C   UNL A   1      36.977  32.715  31.101  1.00  0.00     0.058 A 
ATOM     65  C   UNL A   1      35.639  32.344  31.303  1.00  0.00     0.135 A 
ATOM     66  C   UNL A   1      37.252  33.654  30.093  1.00  0.00     0.135 A 
ATOM     67  F   UNL A   1      35.323  31.434  32.239  1.00  0.00    -0.206 F 
ATOM     68  C   UNL A   1      34.614  32.866  30.520  1.00  0.00     0.059 A 
ATOM     69  C   UNL A   1      36.241  34.205  29.312  1.00  0.00     0.059 A 
ATOM     70  F   UNL A   1      38.516  34.037  29.855  1.00  0.00    -0.206 F 
ATOM     71  C   UNL A   1      34.926  33.794  29.524  1.00  0.00     0.060 A 
BRANCH  71  72
ATOM     72  S   UNL A   1      33.589  34.458  28.509  1.00  0.00     0.124 S 
ATOM     73  O   UNL A   1      32.632  34.878  29.528  1.00  0.00    -0.237 OA
ATOM     74  O   UNL A   1      34.252  35.535  27.782  1.00  0.00    -0.237 OA
ATOM     75  O   UNL A   1      33.180  33.317  27.697  1.00  0.00    -0.744 OA
ENDBRANCH  71  72
ENDBRANCH  50  64
BRANCH  51  76
ATOM     76  C   UNL A   1      44.566  28.714  36.251  1.00  0.00     0.058 A 
ATOM     77  C   UNL A   1      45.861  29.233  36.113  1.00  0.00     0.135 A 
ATOM     78  C   UNL A   1      44.384  27.635  37.130  1.00  0.00     0.135 A 
ATOM     79  F   UNL A   1      46.087  30.256  35.274  1.00  0.00    -0.206 F 
ATOM     80  C   UNL A   1      46.939  28.698  36.811  1.00  0.00     0.059 A 
ATOM     81  C   UNL A   1      45.441  27.097  37.856  1.00  0.00     0.059 A 
ATOM     82  F   UNL A   1      43.162  27.107  37.303  1.00  0.00    -0.206 F 
ATOM     83  C   UNL A   1      46.718  27.629  37.682  1.00  0.00     0.060 A 
BRANCH  83  84
ATOM     84  S   UNL A   1      48.112  26.971  38.623  1.00  0.00     0.124 S 
ATOM     85  O   UNL A   1      48.884  28.179  38.887  1.00  0.00    -0.237 OA
ATOM     86  O   UNL A   1      47.448  26.371  39.777  1.00  0.00    -0.237 OA
ATOM     87  O   UNL A   1      48.721  26.021  37.697  1.00  0.00    -0.744 OA
ENDBRANCH  83  84
ENDBRANCH  51  76
BRANCH  63  88
ATOM     88  C   UNL A   1      40.063  33.890  37.513  1.00  0.00     0.058 A 
ATOM     89  C   UNL A   1      40.739  35.117  37.590  1.00  0.00     0.135 A 
ATOM     90  C   UNL A   1      39.160  33.570  38.540  1.00  0.00     0.135 A 
ATOM     91  F   UNL A   1      41.617  35.466  36.637  1.00  0.00    -0.206 F 
ATOM     92  C   UNL A   1      40.539  35.989  38.656  1.00  0.00     0.059 A 
ATOM     93  C   UNL A   1      38.927  34.437  39.602  1.00  0.00     0.059 A 
ATOM     94  F   UNL A   1      38.481  32.413  38.506  1.00  0.00    -0.206 F 
ATOM     95  C   UNL A   1      39.629  35.640  39.657  1.00  0.00     0.060 A 
BRANCH  95  96
ATOM     96  S   UNL A   1      39.349  36.795  41.015  1.00  0.00     0.124 S 
ATOM     97  O   UNL A   1      38.570  37.838  40.358  1.00  0.00    -0.237 OA
ATOM     98  O   UNL A   1      38.626  35.976  41.983  1.00  0.00    -0.237 OA
ATOM     99  O   UNL A   1      40.700  37.179  41.416  1.00  0.00    -0.744 OA
ENDBRANCH  95  96
ENDBRANCH  63  88
ENDBRANCH  37  38
ENDBRANCH  30  32
ENDBRANCH  29  30
ENDBRANCH  28  29
ENDBRANCH   1  28
TORSDOF 20
ENDMDL
MODEL 3
REMARK VINA RESULT:     -10.3      6.174     13.628
REMARK SMILES CC[C@@H](NC(=O)c1ccc(CNC(=O)[C@H]2CCCO2)cc1)C(=O)OCCOC(=O)c1ccc(-c2c3nc(c(-c4c(F)cc(S(=O)(=O)[O-])cc4F)c4ccc([nH]4)c(-c4c(F)cc(S(=O)(=O)[O-])cc4F)c4nc(c(-c5c(F)cc(S(=O)(=O)[O-])cc5F)c5ccc2[nH]5)C=C4)C=C3)cc1
REMARK SMILES IDX 25 1 24 2 22 3 23 4 3 5 2 6 1 7 4 8 5 9 6 11 7 12 8 13 21 14
REMARK SMILES IDX 9 15 20 16 10 17 11 18 12 19 13 20 14 22 15 23 16 24 19 25
REMARK SMILES IDX 17 26 18 27 26 28 27 29 28 30 29 31 30 32 31 33 95 34 32 35
REMARK SMILES IDX 94 36 33 37 34 38 35 39 88 40 36 41 93 42 87 43 89 44 37 45
REMARK SMILES IDX 92 46 86 47 85 48 38 50 72 51 51 52 71 53 52 54 55 55 70 56
REMARK SMILES IDX 90 57 53 58 54 59 69 61 91 62 56 63 39 64 40 65 49 66 41 67
REMARK SMILES IDX 42 68 48 69 50 70 43 71 44 72 45 73 46 74 47 75 73 76 74 77
REMARK SMILES IDX 83 78 75 79 76 80 82 81 84 82 77 83 78 84 79 85 80 86 81 87
REMARK SMILES IDX 57 88 58 89 67 90 59 91 60 92 66 93 68 94 61 95 62 96 63 97
REMARK SMILES IDX 64 98 65 99
REMARK H PARENT 4 10 12 21 89 49 55 60
REMARK Flexibility Score: inf
ROOT
ATOM      1  C   UNL A   1      43.523  22.533  24.671  1.00  0.00     0.274 C 
ENDROOT
BRANCH   1   2
ATOM      2  O   UNL A   1      44.869  22.103  24.392  1.00  0.00    -0.461 OA
BRANCH   2   3
ATOM      3  C   UNL A   1      45.236  20.934  24.984  1.00  0.00     0.328 C 
ATOM      4  O   UNL A   1      46.386  20.662  25.314  1.00  0.00    -0.250 OA
BRANCH   3   5
ATOM      5  C   UNL A   1      44.082  19.935  25.163  1.00  0.00     0.192 C 
BRANCH   5   6
ATOM      6  C   UNL A   1      44.180  18.829  24.092  1.00  0.00     0.033 C 
ATOM      7  C   UNL A   1      44.903  19.281  22.830  1.00  0.00     0.007 C 
ENDBRANCH   5   6
BRANCH   5   8
ATOM      8  N   UNL A   1      43.878  19.342  26.501  1.00  0.00    -0.339 N 
ATOM      9  C   UNL A   1      42.701  19.015  27.136  1.00  0.00     0.251 C 
ATOM     10  H   UNL A   1      44.699  19.154  27.009  1.00  0.00     0.164 HD
ATOM     11  O   UNL A   1      42.654  18.078  27.924  1.00  0.00    -0.269 OA
BRANCH   9  12
ATOM     12  C   UNL A   1      41.551  19.923  27.014  1.00  0.00     0.039 A 
ATOM     13  C   UNL A   1      41.556  21.089  27.784  1.00  0.00     0.014 A 
ATOM     14  C   UNL A   1      40.524  19.672  26.107  1.00  0.00     0.014 A 
ATOM     15  C   UNL A   1      40.591  22.073  27.561  1.00  0.00     0.006 A 
ATOM     16  C   UNL A   1      39.576  20.672  25.865  1.00  0.00     0.006 A 
ATOM     17  C   UNL A   1      39.630  21.900  26.553  1.00  0.00    -0.029 A 
BRANCH  17  18
ATOM     18  C   UNL A   1      38.769  23.057  26.112  1.00  0.00     0.151 C 
BRANCH  18  19
ATOM     19  N   UNL A   1      38.050  22.784  24.892  1.00  0.00    -0.350 N 
ATOM     20  C   UNL A   1      36.846  23.244  24.450  1.00  0.00     0.249 C 
ATOM     21  H   UNL A   1      38.504  22.163  24.277  1.00  0.00     0.163 HD
ATOM     22  O   UNL A   1      36.513  22.951  23.296  1.00  0.00    -0.272 OA
BRANCH  20  23
ATOM     23  C   UNL A   1      35.926  24.077  25.370  1.00  0.00     0.207 C 
ATOM     24  C   UNL A   1      34.598  24.390  24.700  1.00  0.00     0.044 C 
ATOM     25  O   UNL A   1      35.603  23.328  26.554  1.00  0.00    -0.368 OA
ATOM     26  C   UNL A   1      33.746  23.198  25.065  1.00  0.00     0.032 C 
ATOM     27  C   UNL A   1      34.266  22.822  26.435  1.00  0.00     0.161 C 
ENDBRANCH  20  23
ENDBRANCH  18  19
ENDBRANCH  17  18
ENDBRANCH   9  12
ENDBRANCH   5   8
ENDBRANCH   3   5
ENDBRANCH   2   3
ENDBRANCH   1   2
BRANCH   1  28
ATOM     28  C   UNL A   1      43.388  24.013  25.050  1.00  0.00     0.275 C 
BRANCH  28  29
ATOM     29  O   UNL A   1      42.379  24.235  26.055  1.00  0.00    -0.458 OA
BRANCH  29  30
ATOM     30  C   UNL A   1      41.753  25.431  25.965  1.00  0.00     0.338 C 
ATOM     31  O   UNL A   1      41.115  25.840  25.002  1.00  0.00    -0.246 OA
BRANCH  30  32
ATOM     32  C   UNL A   1      41.785  26.154  27.250  1.00  0.00     0.060 A 
ATOM     33  C   UNL A   1      40.723  25.932  28.138  1.00  0.00     0.016 A 
ATOM     34  C   UNL A   1      42.777  27.088  27.555  1.00  0.00     0.016 A 
ATOM     35  C   UNL A   1      40.621  26.672  29.312  1.00  0.00     0.010 A 
ATOM     36  C   UNL A   1      42.666  27.844  28.729  1.00  0.00     0.010 A 
ATOM     37  C   UNL A   1      41.571  27.661  29.593  1.00  0.00    -0.014 A 
BRANCH  37  38
ATOM     38  C   UNL A   1      41.319  28.609  30.704  1.00  0.00     0.031 A 
ATOM     39  C   UNL A   1      42.194  28.537  31.924  1.00  0.00     0.074 A 
ATOM     40  C   UNL A   1      40.359  29.545  30.606  1.00  0.00     0.049 A 
ATOM     41  N   UNL A   1      42.125  29.221  33.036  1.00  0.00    -0.248 NA
ATOM     42  C   UNL A   1      43.299  27.563  31.884  1.00  0.00     0.031 C 
ATOM     43  C   UNL A   1      39.494  29.750  29.446  1.00  0.00     0.029 A 
ATOM     44  N   UNL A   1      39.951  30.499  31.504  1.00  0.00    -0.354 N 
ATOM     45  C   UNL A   1      43.162  28.752  33.833  1.00  0.00     0.074 A 
ATOM     46  C   UNL A   1      43.839  27.716  33.085  1.00  0.00     0.031 C 
ATOM     47  C   UNL A   1      38.647  30.762  29.707  1.00  0.00     0.029 A 
ATOM     48  C   UNL A   1      38.888  31.250  31.063  1.00  0.00     0.049 A 
ATOM     49  H   UNL A   1      40.380  30.633  32.380  1.00  0.00     0.167 HD
ATOM     50  C   UNL A   1      43.517  29.151  35.078  1.00  0.00     0.037 A 
ATOM     51  C   UNL A   1      38.175  32.203  31.697  1.00  0.00     0.037 A 
ATOM     52  C   UNL A   1      42.844  30.188  35.812  1.00  0.00     0.049 A 
ATOM     53  C   UNL A   1      38.548  32.585  33.105  1.00  0.00     0.074 A 
ATOM     54  C   UNL A   1      43.127  30.670  37.078  1.00  0.00     0.029 A 
ATOM     55  N   UNL A   1      41.749  30.902  35.347  1.00  0.00    -0.354 N 
ATOM     56  N   UNL A   1      39.526  32.127  33.853  1.00  0.00    -0.248 NA
ATOM     57  C   UNL A   1      37.720  33.607  33.759  1.00  0.00     0.031 C 
ATOM     58  C   UNL A   1      42.179  31.650  37.393  1.00  0.00     0.029 A 
ATOM     59  C   UNL A   1      41.332  31.807  36.308  1.00  0.00     0.049 A 
ATOM     60  H   UNL A   1      41.330  30.782  34.464  1.00  0.00     0.167 HD
ATOM     61  C   UNL A   1      39.443  32.821  35.056  1.00  0.00     0.074 A 
ATOM     62  C   UNL A   1      38.326  33.735  34.933  1.00  0.00     0.031 C 
ATOM     63  C   UNL A   1      40.221  32.714  36.161  1.00  0.00     0.037 A 
BRANCH  50  64
ATOM     64  C   UNL A   1      44.663  28.434  35.733  1.00  0.00     0.058 A 
ATOM     65  C   UNL A   1      44.469  27.284  36.513  1.00  0.00     0.135 A 
ATOM     66  C   UNL A   1      45.978  28.897  35.563  1.00  0.00     0.135 A 
ATOM     67  F   UNL A   1      43.229  26.812  36.725  1.00  0.00    -0.206 F 
ATOM     68  C   UNL A   1      45.535  26.631  37.122  1.00  0.00     0.059 A 
ATOM     69  C   UNL A   1      47.062  28.247  36.145  1.00  0.00     0.059 A 
ATOM     70  F   UNL A   1      46.218  29.996  34.832  1.00  0.00    -0.206 F 
ATOM     71  C   UNL A   1      46.829  27.122  36.936  1.00  0.00     0.060 A 
BRANCH  71  72
ATOM     72  S   UNL A   1      48.204  26.271  37.738  1.00  0.00     0.124 S 
ATOM     73  O   UNL A   1      48.784  27.345  38.537  1.00  0.00    -0.237 OA
ATOM     74  O   UNL A   1      47.526  25.218  38.488  1.00  0.00    -0.237 OA
ATOM     75  O   UNL A   1      49.018  25.812  36.617  1.00  0.00    -0.744 OA
ENDBRANCH  71  72
ENDBRANCH  50  64
BRANCH  51  76
ATOM     76  C   UNL A   1      37.022  32.845  31.014  1.00  0.00     0.058 A 
ATOM     77  C   UNL A   1      35.702  32.496  31.335  1.00  0.00     0.135 A 
ATOM     78  C   UNL A   1      37.218  33.820  30.024  1.00  0.00     0.135 A 
ATOM     79  F   UNL A   1      35.464  31.559  32.266  1.00  0.00    -0.206 F 
ATOM     80  C   UNL A   1      34.616  33.083  30.692  1.00  0.00     0.059 A 
ATOM     81  C   UNL A   1      36.149  34.437  29.382  1.00  0.00     0.059 A 
ATOM     82  F   UNL A   1      38.461  34.195  29.686  1.00  0.00    -0.206 F 
ATOM     83  C   UNL A   1      34.850  34.054  29.717  1.00  0.00     0.060 A 
BRANCH  83  84
ATOM     84  S   UNL A   1      33.437  34.848  28.921  1.00  0.00     0.124 S 
ATOM     85  O   UNL A   1      32.529  35.028  30.049  1.00  0.00    -0.237 OA
ATOM     86  O   UNL A   1      34.032  36.065  28.379  1.00  0.00    -0.237 OA
ATOM     87  O   UNL A   1      33.021  33.866  27.924  1.00  0.00    -0.744 OA
ENDBRANCH  83  84
ENDBRANCH  51  76
BRANCH  63  88
ATOM     88  C   UNL A   1      39.913  33.626  37.314  1.00  0.00     0.058 A 
ATOM     89  C   UNL A   1      40.555  34.865  37.465  1.00  0.00     0.135 A 
ATOM     90  C   UNL A   1      38.921  33.281  38.247  1.00  0.00     0.135 A 
ATOM     91  F   UNL A   1      41.514  35.237  36.603  1.00  0.00    -0.206 F 
ATOM     92  C   UNL A   1      40.239  35.722  38.513  1.00  0.00     0.059 A 
ATOM     93  C   UNL A   1      38.572  34.135  39.289  1.00  0.00     0.059 A 
ATOM     94  F   UNL A   1      38.269  32.113  38.139  1.00  0.00    -0.206 F 
ATOM     95  C   UNL A   1      39.244  35.349  39.419  1.00  0.00     0.060 A 
BRANCH  95  96
ATOM     96  S   UNL A   1      38.815  36.487  40.753  1.00  0.00     0.124 S 
ATOM     97  O   UNL A   1      37.837  35.705  41.502  1.00  0.00    -0.237 OA
ATOM     98  O   UNL A   1      40.099  36.698  41.413  1.00  0.00    -0.237 OA
ATOM     99  O   UNL A   1      38.282  37.648  40.047  1.00  0.00    -0.744 OA
ENDBRANCH  95  96
ENDBRANCH  63  88
ENDBRANCH  37  38
ENDBRANCH  30  32
ENDBRANCH  29  30
ENDBRANCH  28  29
ENDBRANCH   1  28
TORSDOF 20
ENDMDL
