MODEL 1
REMARK VINA RESULT:     -12.2      0.000      0.000
REMARK SMILES C[N@@H+]1CC2(CC[NH+](Cc3cccc(O)c3)CC2)C[C@H]1C(=O)OCCOC(=O)c1ccc(-c2c3nc(c(-c4c(F)cc(S(=O)(=O)[O-])cc4F)c4ccc([nH]4)c(-c4c(F)cc(S(=O)(=O)[O-])cc4F)c4nc(c(-c5c(F)cc(S(=O)(=O)[O-])cc5F)c5ccc2[nH]5)C=C4)C=C3)cc1
REMARK SMILES IDX 23 1 22 2 20 3 21 4 19 5 1 6 2 7 3 8 4 10 18 11 5 12 17 13
REMARK SMILES IDX 6 14 16 15 7 16 8 18 9 19 10 20 15 21 11 22 13 23 12 24
REMARK SMILES IDX 14 25 24 27 25 28 26 29 27 30 28 31 29 32 93 33 30 34 92 35
REMARK SMILES IDX 31 36 32 37 33 38 86 39 34 40 91 41 85 42 87 43 35 44 90 45
REMARK SMILES IDX 84 46 83 47 36 49 70 50 49 51 69 52 50 53 53 54 68 55 88 56
REMARK SMILES IDX 51 57 52 58 67 60 89 61 54 62 37 63 38 64 47 65 39 66 40 67
REMARK SMILES IDX 46 68 48 69 41 70 42 71 43 72 44 73 45 74 71 75 72 76 81 77
REMARK SMILES IDX 73 78 74 79 80 80 82 81 75 82 76 83 77 84 78 85 79 86 55 87
REMARK SMILES IDX 56 88 65 89 57 90 58 91 64 92 66 93 59 94 60 95 61 96 62 97
REMARK SMILES IDX 63 98
REMARK H PARENT 2 9 7 17 14 26 87 48 53 59
REMARK Flexibility Score: inf
ROOT
ATOM      1  C   UNL A   1      31.643  27.963  27.180  1.00  0.00     0.274 C 
ENDROOT
BRANCH   1   2
ATOM      2  O   UNL A   1      31.903  26.556  27.036  1.00  0.00    -0.458 OA
BRANCH   2   3
ATOM      3  C   UNL A   1      31.105  25.890  26.160  1.00  0.00     0.365 C 
ATOM      4  O   UNL A   1      29.918  25.641  26.358  1.00  0.00    -0.245 OA
BRANCH   3   5
ATOM      5  C   UNL A   1      31.808  25.480  24.862  1.00  0.00     0.295 C 
ATOM      6  C   UNL A   1      33.612  26.102  23.371  1.00  0.00     0.333 C 
ATOM      7  N   UNL A   1      33.233  25.875  24.768  1.00  0.00    -0.325 N 
ATOM      8  C   UNL A   1      34.003  24.776  25.371  1.00  0.00     0.270 C 
ATOM      9  H   UNL A   1      33.415  26.751  25.258  1.00  0.00     0.348 HD
ATOM     10  C   UNL A   1      33.141  23.492  25.288  1.00  0.00     0.036 C 
ATOM     11  C   UNL A   1      31.797  23.980  24.700  1.00  0.00     0.091 C 
ATOM     12  C   UNL A   1      32.898  22.921  26.709  1.00  0.00     0.075 C 
ATOM     13  C   UNL A   1      33.749  22.478  24.291  1.00  0.00     0.075 C 
ATOM     14  C   UNL A   1      33.860  21.820  27.140  1.00  0.00     0.263 C 
ATOM     15  C   UNL A   1      34.644  21.414  24.905  1.00  0.00     0.263 C 
ATOM     16  N   UNL A   1      34.122  20.813  26.122  1.00  0.00    -0.331 N 
ATOM     17  H   UNL A   1      34.882  20.243  26.493  1.00  0.00     0.348 HD
BRANCH  16  18
ATOM     18  C   UNL A   1      33.138  19.730  25.973  1.00  0.00     0.299 C 
BRANCH  18  19
ATOM     19  C   UNL A   1      33.322  18.705  24.873  1.00  0.00     0.010 A 
ATOM     20  C   UNL A   1      34.401  17.809  24.883  1.00  0.00     0.010 A 
ATOM     21  C   UNL A   1      32.410  18.628  23.808  1.00  0.00     0.055 A 
ATOM     22  C   UNL A   1      34.623  16.938  23.812  1.00  0.00     0.004 A 
ATOM     23  C   UNL A   1      32.641  17.763  22.741  1.00  0.00     0.116 A 
ATOM     24  C   UNL A   1      33.749  16.924  22.727  1.00  0.00     0.046 A 
BRANCH  23  25
ATOM     25  O   UNL A   1      31.761  17.793  21.699  1.00  0.00    -0.508 OA
ATOM     26  H   UNL A   1      31.222  18.546  21.563  1.00  0.00     0.293 HD
ENDBRANCH  23  25
ENDBRANCH  18  19
ENDBRANCH  16  18
ENDBRANCH   3   5
ENDBRANCH   2   3
ENDBRANCH   1   2
BRANCH   1  27
ATOM     27  C   UNL A   1      32.810  28.764  26.608  1.00  0.00     0.275 C 
BRANCH  27  28
ATOM     28  O   UNL A   1      33.926  28.721  27.516  1.00  0.00    -0.458 OA
BRANCH  28  29
ATOM     29  C   UNL A   1      34.391  29.920  27.928  1.00  0.00     0.338 C 
ATOM     30  O   UNL A   1      33.766  30.969  28.039  1.00  0.00    -0.246 OA
BRANCH  29  31
ATOM     31  C   UNL A   1      35.824  29.814  28.228  1.00  0.00     0.060 A 
ATOM     32  C   UNL A   1      36.761  30.044  27.221  1.00  0.00     0.016 A 
ATOM     33  C   UNL A   1      36.233  29.372  29.484  1.00  0.00     0.016 A 
ATOM     34  C   UNL A   1      38.106  29.764  27.439  1.00  0.00     0.010 A 
ATOM     35  C   UNL A   1      37.593  29.164  29.726  1.00  0.00     0.010 A 
ATOM     36  C   UNL A   1      38.539  29.326  28.696  1.00  0.00    -0.014 A 
BRANCH  36  37
ATOM     37  C   UNL A   1      39.967  28.996  28.931  1.00  0.00     0.031 A 
ATOM     38  C   UNL A   1      40.892  30.044  29.486  1.00  0.00     0.074 A 
ATOM     39  C   UNL A   1      40.434  27.765  28.644  1.00  0.00     0.049 A 
ATOM     40  N   UNL A   1      42.196  30.024  29.592  1.00  0.00    -0.248 NA
ATOM     41  C   UNL A   1      40.268  31.285  29.977  1.00  0.00     0.031 C 
ATOM     42  C   UNL A   1      39.630  26.646  28.151  1.00  0.00     0.029 A 
ATOM     43  N   UNL A   1      41.704  27.251  28.721  1.00  0.00    -0.354 N 
ATOM     44  C   UNL A   1      42.552  31.265  30.110  1.00  0.00     0.074 A 
ATOM     45  C   UNL A   1      41.328  32.012  30.301  1.00  0.00     0.031 C 
ATOM     46  C   UNL A   1      40.421  25.575  27.982  1.00  0.00     0.029 A 
ATOM     47  C   UNL A   1      41.798  25.950  28.287  1.00  0.00     0.049 A 
ATOM     48  H   UNL A   1      42.474  27.765  29.055  1.00  0.00     0.167 HD
ATOM     49  C   UNL A   1      43.790  31.735  30.394  1.00  0.00     0.037 A 
ATOM     50  C   UNL A   1      42.875  25.161  28.112  1.00  0.00     0.037 A 
ATOM     51  C   UNL A   1      44.998  30.966  30.245  1.00  0.00     0.049 A 
ATOM     52  C   UNL A   1      44.241  25.715  28.407  1.00  0.00     0.074 A 
ATOM     53  C   UNL A   1      46.300  31.343  30.522  1.00  0.00     0.029 A 
ATOM     54  N   UNL A   1      45.049  29.657  29.788  1.00  0.00    -0.354 N 
ATOM     55  N   UNL A   1      44.569  26.904  28.854  1.00  0.00    -0.248 NA
ATOM     56  C   UNL A   1      45.385  24.828  28.158  1.00  0.00     0.031 C 
ATOM     57  C   UNL A   1      47.142  30.271  30.206  1.00  0.00     0.029 A 
ATOM     58  C   UNL A   1      46.360  29.214  29.765  1.00  0.00     0.049 A 
ATOM     59  H   UNL A   1      44.268  29.121  29.519  1.00  0.00     0.167 HD
ATOM     60  C   UNL A   1      45.955  26.905  28.952  1.00  0.00     0.074 A 
ATOM     61  C   UNL A   1      46.404  25.592  28.531  1.00  0.00     0.031 C 
ATOM     62  C   UNL A   1      46.783  27.901  29.349  1.00  0.00     0.037 A 
BRANCH  49  63
ATOM     63  C   UNL A   1      43.904  33.158  30.861  1.00  0.00     0.058 A 
ATOM     64  C   UNL A   1      43.933  33.495  32.223  1.00  0.00     0.135 A 
ATOM     65  C   UNL A   1      44.011  34.201  29.926  1.00  0.00     0.135 A 
ATOM     66  F   UNL A   1      43.814  32.538  33.157  1.00  0.00    -0.206 F 
ATOM     67  C   UNL A   1      44.044  34.817  32.642  1.00  0.00     0.059 A 
ATOM     68  C   UNL A   1      44.144  35.528  30.323  1.00  0.00     0.059 A 
ATOM     69  F   UNL A   1      43.985  33.934  28.611  1.00  0.00    -0.206 F 
ATOM     70  C   UNL A   1      44.145  35.828  31.684  1.00  0.00     0.060 A 
BRANCH  70  71
ATOM     71  S   UNL A   1      44.290  37.539  32.239  1.00  0.00     0.124 S 
ATOM     72  O   UNL A   1      45.698  37.604  32.619  1.00  0.00    -0.237 OA
ATOM     73  O   UNL A   1      43.924  38.292  31.042  1.00  0.00    -0.237 OA
ATOM     74  O   UNL A   1      43.338  37.621  33.342  1.00  0.00    -0.744 OA
ENDBRANCH  70  71
ENDBRANCH  49  63
BRANCH  50  75
ATOM     75  C   UNL A   1      42.707  23.776  27.601  1.00  0.00     0.058 A 
ATOM     76  C   UNL A   1      42.492  22.705  28.479  1.00  0.00     0.135 A 
ATOM     77  C   UNL A   1      42.740  23.498  26.225  1.00  0.00     0.135 A 
ATOM     78  F   UNL A   1      42.462  22.921  29.804  1.00  0.00    -0.206 F 
ATOM     79  C   UNL A   1      42.323  21.405  28.015  1.00  0.00     0.059 A 
ATOM     80  C   UNL A   1      42.549  22.210  25.735  1.00  0.00     0.059 A 
ATOM     81  F   UNL A   1      42.930  24.491  25.343  1.00  0.00    -0.206 F 
ATOM     82  C   UNL A   1      42.351  21.169  26.640  1.00  0.00     0.060 A 
BRANCH  82  83
ATOM     83  S   UNL A   1      42.069  19.489  26.039  1.00  0.00     0.124 S 
ATOM     84  O   UNL A   1      42.871  19.475  24.821  1.00  0.00    -0.237 OA
ATOM     85  O   UNL A   1      42.570  18.676  27.144  1.00  0.00    -0.237 OA
ATOM     86  O   UNL A   1      40.623  19.442  25.846  1.00  0.00    -0.744 OA
ENDBRANCH  82  83
ENDBRANCH  50  75
BRANCH  62  87
ATOM     87  C   UNL A   1      48.252  27.599  29.377  1.00  0.00     0.058 A 
ATOM     88  C   UNL A   1      49.090  27.931  28.302  1.00  0.00     0.135 A 
ATOM     89  C   UNL A   1      48.835  27.010  30.511  1.00  0.00     0.135 A 
ATOM     90  F   UNL A   1      48.577  28.488  27.194  1.00  0.00    -0.206 F 
ATOM     91  C   UNL A   1      50.456  27.671  28.341  1.00  0.00     0.059 A 
ATOM     92  C   UNL A   1      50.200  26.760  30.580  1.00  0.00     0.059 A 
ATOM     93  F   UNL A   1      48.075  26.682  31.568  1.00  0.00    -0.206 F 
ATOM     94  C   UNL A   1      51.001  27.086  29.485  1.00  0.00     0.060 A 
BRANCH  94  95
ATOM     95  S   UNL A   1      52.780  26.781  29.541  1.00  0.00     0.124 S 
ATOM     96  O   UNL A   1      53.000  26.090  28.276  1.00  0.00    -0.237 OA
ATOM     97  O   UNL A   1      53.329  28.131  29.631  1.00  0.00    -0.237 OA
ATOM     98  O   UNL A   1      52.945  25.966  30.741  1.00  0.00    -0.744 OA
ENDBRANCH  94  95
ENDBRANCH  62  87
ENDBRANCH  36  37
ENDBRANCH  29  31
ENDBRANCH  28  29
ENDBRANCH  27  28
ENDBRANCH   1  27
TORSDOF 17
ENDMDL
MODEL 2
REMARK VINA RESULT:     -11.9      5.264     10.953
REMARK SMILES C[N@@H+]1CC2(CC[NH+](Cc3cccc(O)c3)CC2)C[C@H]1C(=O)OCCOC(=O)c1ccc(-c2c3nc(c(-c4c(F)cc(S(=O)(=O)[O-])cc4F)c4ccc([nH]4)c(-c4c(F)cc(S(=O)(=O)[O-])cc4F)c4nc(c(-c5c(F)cc(S(=O)(=O)[O-])cc5F)c5ccc2[nH]5)C=C4)C=C3)cc1
REMARK SMILES IDX 23 1 22 2 20 3 21 4 19 5 1 6 2 7 3 8 4 10 18 11 5 12 17 13
REMARK SMILES IDX 6 14 16 15 7 16 8 18 9 19 10 20 15 21 11 22 13 23 12 24
REMARK SMILES IDX 14 25 24 27 25 28 26 29 27 30 28 31 29 32 93 33 30 34 92 35
REMARK SMILES IDX 31 36 32 37 33 38 86 39 34 40 91 41 85 42 87 43 35 44 90 45
REMARK SMILES IDX 84 46 83 47 36 49 70 50 49 51 69 52 50 53 53 54 68 55 88 56
REMARK SMILES IDX 51 57 52 58 67 60 89 61 54 62 37 63 38 64 47 65 39 66 40 67
REMARK SMILES IDX 46 68 48 69 41 70 42 71 43 72 44 73 45 74 71 75 72 76 81 77
REMARK SMILES IDX 73 78 74 79 80 80 82 81 75 82 76 83 77 84 78 85 79 86 55 87
REMARK SMILES IDX 56 88 65 89 57 90 58 91 64 92 66 93 59 94 60 95 61 96 62 97
REMARK SMILES IDX 63 98
REMARK H PARENT 2 9 7 17 14 26 87 48 53 59
REMARK Flexibility Score: inf
ROOT
ATOM      1  C   UNL A   1      36.840  23.562  25.618  1.00  0.00     0.274 C 
ENDROOT
BRANCH   1   2
ATOM      2  O   UNL A   1      36.269  22.469  24.878  1.00  0.00    -0.458 OA
BRANCH   2   3
ATOM      3  C   UNL A   1      35.469  22.810  23.834  1.00  0.00     0.365 C 
ATOM      4  O   UNL A   1      35.846  23.455  22.857  1.00  0.00    -0.245 OA
BRANCH   3   5
ATOM      5  C   UNL A   1      34.029  22.302  23.956  1.00  0.00     0.295 C 
ATOM      6  C   UNL A   1      32.564  20.994  25.372  1.00  0.00     0.333 C 
ATOM      7  N   UNL A   1      33.563  22.066  25.342  1.00  0.00    -0.325 N 
ATOM      8  C   UNL A   1      33.005  23.345  25.810  1.00  0.00     0.270 C 
ATOM      9  H   UNL A   1      34.324  21.762  25.950  1.00  0.00     0.348 HD
ATOM     10  C   UNL A   1      32.591  24.165  24.564  1.00  0.00     0.036 C 
ATOM     11  C   UNL A   1      33.060  23.300  23.372  1.00  0.00     0.091 C 
ATOM     12  C   UNL A   1      33.348  25.517  24.541  1.00  0.00     0.075 C 
ATOM     13  C   UNL A   1      31.053  24.296  24.472  1.00  0.00     0.075 C 
ATOM     14  C   UNL A   1      32.587  26.699  25.132  1.00  0.00     0.263 C 
ATOM     15  C   UNL A   1      30.468  25.567  25.068  1.00  0.00     0.263 C 
ATOM     16  N   UNL A   1      31.191  26.782  24.728  1.00  0.00    -0.331 N 
ATOM     17  H   UNL A   1      30.784  27.515  25.309  1.00  0.00     0.348 HD
BRANCH  16  18
ATOM     18  C   UNL A   1      30.900  27.400  23.426  1.00  0.00     0.299 C 
BRANCH  18  19
ATOM     19  C   UNL A   1      29.785  28.420  23.320  1.00  0.00     0.010 A 
ATOM     20  C   UNL A   1      30.040  29.795  23.437  1.00  0.00     0.010 A 
ATOM     21  C   UNL A   1      28.460  28.011  23.100  1.00  0.00     0.055 A 
ATOM     22  C   UNL A   1      28.993  30.722  23.444  1.00  0.00     0.004 A 
ATOM     23  C   UNL A   1      27.422  28.939  23.115  1.00  0.00     0.116 A 
ATOM     24  C   UNL A   1      27.676  30.294  23.298  1.00  0.00     0.046 A 
BRANCH  23  25
ATOM     25  O   UNL A   1      26.149  28.469  22.977  1.00  0.00    -0.508 OA
ATOM     26  H   UNL A   1      25.619  28.322  23.735  1.00  0.00     0.293 HD
ENDBRANCH  23  25
ENDBRANCH  18  19
ENDBRANCH  16  18
ENDBRANCH   3   5
ENDBRANCH   2   3
ENDBRANCH   1   2
BRANCH   1  27
ATOM     27  C   UNL A   1      38.232  23.177  26.112  1.00  0.00     0.275 C 
BRANCH  27  28
ATOM     28  O   UNL A   1      39.138  24.281  25.934  1.00  0.00    -0.458 OA
BRANCH  28  29
ATOM     29  C   UNL A   1      40.190  24.318  26.781  1.00  0.00     0.338 C 
ATOM     30  O   UNL A   1      41.114  23.518  26.862  1.00  0.00    -0.246 OA
BRANCH  29  31
ATOM     31  C   UNL A   1      40.077  25.492  27.654  1.00  0.00     0.060 A 
ATOM     32  C   UNL A   1      40.941  26.572  27.477  1.00  0.00     0.016 A 
ATOM     33  C   UNL A   1      39.185  25.472  28.723  1.00  0.00     0.016 A 
ATOM     34  C   UNL A   1      40.973  27.604  28.410  1.00  0.00     0.010 A 
ATOM     35  C   UNL A   1      39.163  26.545  29.617  1.00  0.00     0.010 A 
ATOM     36  C   UNL A   1      40.079  27.605  29.487  1.00  0.00    -0.014 A 
BRANCH  36  37
ATOM     37  C   UNL A   1      40.124  28.686  30.505  1.00  0.00     0.031 A 
ATOM     38  C   UNL A   1      41.118  28.608  31.631  1.00  0.00     0.074 A 
ATOM     39  C   UNL A   1      39.275  29.729  30.424  1.00  0.00     0.049 A 
ATOM     40  N   UNL A   1      41.202  29.337  32.713  1.00  0.00    -0.248 NA
ATOM     41  C   UNL A   1      42.150  27.561  31.530  1.00  0.00     0.031 C 
ATOM     42  C   UNL A   1      38.299  29.948  29.354  1.00  0.00     0.029 A 
ATOM     43  N   UNL A   1      39.092  30.800  31.262  1.00  0.00    -0.354 N 
ATOM     44  C   UNL A   1      42.257  28.807  33.447  1.00  0.00     0.074 A 
ATOM     45  C   UNL A   1      42.787  27.697  32.685  1.00  0.00     0.031 C 
ATOM     46  C   UNL A   1      37.631  31.088  29.593  1.00  0.00     0.029 A 
ATOM     47  C   UNL A   1      38.080  31.642  30.866  1.00  0.00     0.049 A 
ATOM     48  H   UNL A   1      39.634  30.950  32.070  1.00  0.00     0.167 HD
ATOM     49  C   UNL A   1      42.734  29.210  34.649  1.00  0.00     0.037 A 
ATOM     50  C   UNL A   1      37.544  32.715  31.479  1.00  0.00     0.037 A 
ATOM     51  C   UNL A   1      42.230  30.345  35.376  1.00  0.00     0.049 A 
ATOM     52  C   UNL A   1      38.072  33.125  32.825  1.00  0.00     0.074 A 
ATOM     53  C   UNL A   1      42.655  30.849  36.592  1.00  0.00     0.029 A 
ATOM     54  N   UNL A   1      41.194  31.163  34.945  1.00  0.00    -0.354 N 
ATOM     55  N   UNL A   1      39.040  32.589  33.529  1.00  0.00    -0.248 NA
ATOM     56  C   UNL A   1      37.423  34.275  33.470  1.00  0.00     0.031 C 
ATOM     57  C   UNL A   1      41.858  31.954  36.912  1.00  0.00     0.029 A 
ATOM     58  C   UNL A   1      40.960  32.160  35.876  1.00  0.00     0.049 A 
ATOM     59  H   UNL A   1      40.699  31.050  34.102  1.00  0.00     0.167 HD
ATOM     60  C   UNL A   1      39.126  33.343  34.693  1.00  0.00     0.074 A 
ATOM     61  C   UNL A   1      38.120  34.382  34.593  1.00  0.00     0.031 C 
ATOM     62  C   UNL A   1      39.958  33.188  35.752  1.00  0.00     0.037 A 
BRANCH  49  63
ATOM     63  C   UNL A   1      43.834  28.397  35.269  1.00  0.00     0.058 A 
ATOM     64  C   UNL A   1      45.188  28.643  34.994  1.00  0.00     0.135 A 
ATOM     65  C   UNL A   1      43.526  27.369  36.176  1.00  0.00     0.135 A 
ATOM     66  F   UNL A   1      45.536  29.601  34.120  1.00  0.00    -0.206 F 
ATOM     67  C   UNL A   1      46.197  27.885  35.579  1.00  0.00     0.059 A 
ATOM     68  C   UNL A   1      44.519  26.612  36.789  1.00  0.00     0.059 A 
ATOM     69  F   UNL A   1      42.246  27.090  36.470  1.00  0.00    -0.206 F 
ATOM     70  C   UNL A   1      45.853  26.869  36.474  1.00  0.00     0.060 A 
BRANCH  70  71
ATOM     71  S   UNL A   1      47.170  25.893  37.229  1.00  0.00     0.124 S 
ATOM     72  O   UNL A   1      47.408  26.633  38.465  1.00  0.00    -0.237 OA
ATOM     73  O   UNL A   1      46.543  24.584  37.387  1.00  0.00    -0.237 OA
ATOM     74  O   UNL A   1      48.246  25.954  36.245  1.00  0.00    -0.744 OA
ENDBRANCH  70  71
ENDBRANCH  49  63
BRANCH  50  75
ATOM     75  C   UNL A   1      36.424  33.453  30.840  1.00  0.00     0.058 A 
ATOM     76  C   UNL A   1      35.129  33.401  31.373  1.00  0.00     0.135 A 
ATOM     77  C   UNL A   1      36.631  34.239  29.695  1.00  0.00     0.135 A 
ATOM     78  F   UNL A   1      34.882  32.655  32.461  1.00  0.00    -0.206 F 
ATOM     79  C   UNL A   1      34.073  34.095  30.791  1.00  0.00     0.059 A 
ATOM     80  C   UNL A   1      35.596  34.962  29.108  1.00  0.00     0.059 A 
ATOM     81  F   UNL A   1      37.855  34.331  29.154  1.00  0.00    -0.206 F 
ATOM     82  C   UNL A   1      34.319  34.875  29.659  1.00  0.00     0.060 A 
BRANCH  82  83
ATOM     83  S   UNL A   1      32.958  35.823  28.944  1.00  0.00     0.124 S 
ATOM     84  O   UNL A   1      32.327  34.827  28.086  1.00  0.00    -0.237 OA
ATOM     85  O   UNL A   1      32.200  36.220  30.127  1.00  0.00    -0.237 OA
ATOM     86  O   UNL A   1      33.639  36.915  28.253  1.00  0.00    -0.744 OA
ENDBRANCH  82  83
ENDBRANCH  50  75
BRANCH  62  87
ATOM     87  C   UNL A   1      39.836  34.182  36.869  1.00  0.00     0.058 A 
ATOM     88  C   UNL A   1      40.383  35.470  36.767  1.00  0.00     0.135 A 
ATOM     89  C   UNL A   1      39.125  33.857  38.035  1.00  0.00     0.135 A 
ATOM     90  F   UNL A   1      41.079  35.823  35.676  1.00  0.00    -0.206 F 
ATOM     91  C   UNL A   1      40.247  36.397  37.795  1.00  0.00     0.059 A 
ATOM     92  C   UNL A   1      38.958  34.774  39.065  1.00  0.00     0.059 A 
ATOM     93  F   UNL A   1      38.575  32.639  38.174  1.00  0.00    -0.206 F 
ATOM     94  C   UNL A   1      39.532  36.040  38.940  1.00  0.00     0.060 A 
BRANCH  94  95
ATOM     95  S   UNL A   1      39.332  37.260  40.256  1.00  0.00     0.124 S 
ATOM     96  O   UNL A   1      38.539  36.515  41.228  1.00  0.00    -0.237 OA
ATOM     97  O   UNL A   1      40.712  37.538  40.642  1.00  0.00    -0.237 OA
ATOM     98  O   UNL A   1      38.641  38.362  39.593  1.00  0.00    -0.744 OA
ENDBRANCH  94  95
ENDBRANCH  62  87
ENDBRANCH  36  37
ENDBRANCH  29  31
ENDBRANCH  28  29
ENDBRANCH  27  28
ENDBRANCH   1  27
TORSDOF 17
ENDMDL
MODEL 3
REMARK VINA RESULT:     -11.8      2.250      3.275
REMARK SMILES C[N@@H+]1CC2(CC[NH+](Cc3cccc(O)c3)CC2)C[C@H]1C(=O)OCCOC(=O)c1ccc(-c2c3nc(c(-c4c(F)cc(S(=O)(=O)[O-])cc4F)c4ccc([nH]4)c(-c4c(F)cc(S(=O)(=O)[O-])cc4F)c4nc(c(-c5c(F)cc(S(=O)(=O)[O-])cc5F)c5ccc2[nH]5)C=C4)C=C3)cc1
REMARK SMILES IDX 23 1 22 2 20 3 21 4 19 5 1 6 2 7 3 8 4 10 18 11 5 12 17 13
REMARK SMILES IDX 6 14 16 15 7 16 8 18 9 19 10 20 15 21 11 22 13 23 12 24
REMARK SMILES IDX 14 25 24 27 25 28 26 29 27 30 28 31 29 32 93 33 30 34 92 35
REMARK SMILES IDX 31 36 32 37 33 38 86 39 34 40 91 41 85 42 87 43 35 44 90 45
REMARK SMILES IDX 84 46 83 47 36 49 70 50 49 51 69 52 50 53 53 54 68 55 88 56
REMARK SMILES IDX 51 57 52 58 67 60 89 61 54 62 37 63 38 64 47 65 39 66 40 67
REMARK SMILES IDX 46 68 48 69 41 70 42 71 43 72 44 73 45 74 71 75 72 76 81 77
REMARK SMILES IDX 73 78 74 79 80 80 82 81 75 82 76 83 77 84 78 85 79 86 55 87
REMARK SMILES IDX 56 88 65 89 57 90 58 91 64 92 66 93 59 94 60 95 61 96 62 97
REMARK SMILES IDX 63 98
REMARK H PARENT 2 9 7 17 14 26 87 48 53 59
REMARK Flexibility Score: inf
ROOT
ATOM      1  C   UNL A   1      33.953  29.618  26.976  1.00  0.00     0.274 C 
ENDROOT
BRANCH   1   2
ATOM      2  O   UNL A   1      32.620  29.705  26.445  1.00  0.00    -0.458 OA
BRANCH   2   3
ATOM      3  C   UNL A   1      31.853  28.592  26.577  1.00  0.00     0.365 C 
ATOM      4  O   UNL A   1      31.585  28.060  27.653  1.00  0.00    -0.245 OA
BRANCH   3   5
ATOM      5  C   UNL A   1      31.313  28.043  25.253  1.00  0.00     0.295 C 
ATOM      6  C   UNL A   1      31.235  28.489  22.874  1.00  0.00     0.333 C 
ATOM      7  N   UNL A   1      32.101  28.410  24.053  1.00  0.00    -0.325 N 
ATOM      8  C   UNL A   1      33.132  27.371  23.906  1.00  0.00     0.270 C 
ATOM      9  H   UNL A   1      32.531  29.330  24.152  1.00  0.00     0.348 HD
ATOM     10  C   UNL A   1      32.623  26.095  24.621  1.00  0.00     0.036 C 
ATOM     11  C   UNL A   1      31.290  26.534  25.270  1.00  0.00     0.091 C 
ATOM     12  C   UNL A   1      33.617  25.676  25.734  1.00  0.00     0.075 C 
ATOM     13  C   UNL A   1      32.302  24.977  23.601  1.00  0.00     0.075 C 
ATOM     14  C   UNL A   1      34.634  24.614  25.330  1.00  0.00     0.263 C 
ATOM     15  C   UNL A   1      33.417  23.972  23.361  1.00  0.00     0.263 C 
ATOM     16  N   UNL A   1      34.080  23.505  24.567  1.00  0.00    -0.331 N 
ATOM     17  H   UNL A   1      34.886  22.968  24.246  1.00  0.00     0.348 HD
BRANCH  16  18
ATOM     18  C   UNL A   1      33.429  22.423  25.321  1.00  0.00     0.299 C 
BRANCH  18  19
ATOM     19  C   UNL A   1      33.488  21.007  24.789  1.00  0.00     0.010 A 
ATOM     20  C   UNL A   1      32.407  20.443  24.095  1.00  0.00     0.010 A 
ATOM     21  C   UNL A   1      34.633  20.218  24.980  1.00  0.00     0.055 A 
ATOM     22  C   UNL A   1      32.427  19.101  23.700  1.00  0.00     0.004 A 
ATOM     23  C   UNL A   1      34.644  18.881  24.590  1.00  0.00     0.116 A 
ATOM     24  C   UNL A   1      33.544  18.310  23.961  1.00  0.00     0.046 A 
BRANCH  23  25
ATOM     25  O   UNL A   1      35.757  18.146  24.876  1.00  0.00    -0.508 OA
ATOM     26  H   UNL A   1      36.103  18.139  25.746  1.00  0.00     0.293 HD
ENDBRANCH  23  25
ENDBRANCH  18  19
ENDBRANCH  16  18
ENDBRANCH   3   5
ENDBRANCH   2   3
ENDBRANCH   1   2
BRANCH   1  27
ATOM     27  C   UNL A   1      34.283  30.892  27.750  1.00  0.00     0.275 C 
BRANCH  27  28
ATOM     28  O   UNL A   1      35.711  31.055  27.840  1.00  0.00    -0.458 OA
BRANCH  28  29
ATOM     29  C   UNL A   1      36.249  30.837  29.059  1.00  0.00     0.338 C 
ATOM     30  O   UNL A   1      35.776  31.131  30.150  1.00  0.00    -0.246 OA
BRANCH  29  31
ATOM     31  C   UNL A   1      37.554  30.182  28.908  1.00  0.00     0.060 A 
ATOM     32  C   UNL A   1      38.359  29.977  30.029  1.00  0.00     0.016 A 
ATOM     33  C   UNL A   1      38.027  29.873  27.635  1.00  0.00     0.016 A 
ATOM     34  C   UNL A   1      39.669  29.533  29.878  1.00  0.00     0.010 A 
ATOM     35  C   UNL A   1      39.316  29.355  27.491  1.00  0.00     0.010 A 
ATOM     36  C   UNL A   1      40.160  29.210  28.608  1.00  0.00    -0.014 A 
BRANCH  36  37
ATOM     37  C   UNL A   1      41.566  28.764  28.432  1.00  0.00     0.031 A 
ATOM     38  C   UNL A   1      42.684  29.764  28.544  1.00  0.00     0.074 A 
ATOM     39  C   UNL A   1      41.838  27.471  28.169  1.00  0.00     0.049 A 
ATOM     40  N   UNL A   1      43.950  29.625  28.248  1.00  0.00    -0.248 NA
ATOM     41  C   UNL A   1      42.327  31.101  29.047  1.00  0.00     0.031 C 
ATOM     42  C   UNL A   1      40.849  26.395  28.086  1.00  0.00     0.029 A 
ATOM     43  N   UNL A   1      43.032  26.843  27.915  1.00  0.00    -0.354 N 
ATOM     44  C   UNL A   1      44.530  30.868  28.475  1.00  0.00     0.074 A 
ATOM     45  C   UNL A   1      43.479  31.748  28.940  1.00  0.00     0.031 C 
ATOM     46  C   UNL A   1      41.477  25.239  27.815  1.00  0.00     0.029 A 
ATOM     47  C   UNL A   1      42.900  25.504  27.635  1.00  0.00     0.049 A 
ATOM     48  H   UNL A   1      43.900  27.308  27.932  1.00  0.00     0.167 HD
ATOM     49  C   UNL A   1      45.822  31.239  28.307  1.00  0.00     0.037 A 
ATOM     50  C   UNL A   1      43.815  24.599  27.236  1.00  0.00     0.037 A 
ATOM     51  C   UNL A   1      46.869  30.343  27.890  1.00  0.00     0.049 A 
ATOM     52  C   UNL A   1      45.236  25.041  27.029  1.00  0.00     0.074 A 
ATOM     53  C   UNL A   1      48.214  30.614  27.707  1.00  0.00     0.029 A 
ATOM     54  N   UNL A   1      46.690  28.997  27.603  1.00  0.00    -0.354 N 
ATOM     55  N   UNL A   1      45.764  26.229  27.205  1.00  0.00    -0.248 NA
ATOM     56  C   UNL A   1      46.184  24.025  26.552  1.00  0.00     0.031 C 
ATOM     57  C   UNL A   1      48.843  29.439  27.281  1.00  0.00     0.029 A 
ATOM     58  C   UNL A   1      47.896  28.427  27.234  1.00  0.00     0.049 A 
ATOM     59  H   UNL A   1      45.831  28.519  27.654  1.00  0.00     0.167 HD
ATOM     60  C   UNL A   1      47.107  26.101  26.873  1.00  0.00     0.074 A 
ATOM     61  C   UNL A   1      47.315  24.716  26.498  1.00  0.00     0.031 C 
ATOM     62  C   UNL A   1      48.080  27.045  26.873  1.00  0.00     0.037 A 
BRANCH  49  63
ATOM     63  C   UNL A   1      46.168  32.682  28.539  1.00  0.00     0.058 A 
ATOM     64  C   UNL A   1      46.592  33.154  29.791  1.00  0.00     0.135 A 
ATOM     65  C   UNL A   1      46.098  33.603  27.481  1.00  0.00     0.135 A 
ATOM     66  F   UNL A   1      46.658  32.319  30.840  1.00  0.00    -0.206 F 
ATOM     67  C   UNL A   1      46.915  34.492  29.991  1.00  0.00     0.059 A 
ATOM     68  C   UNL A   1      46.436  34.942  27.653  1.00  0.00     0.059 A 
ATOM     69  F   UNL A   1      45.695  33.204  26.265  1.00  0.00    -0.206 F 
ATOM     70  C   UNL A   1      46.830  35.380  28.916  1.00  0.00     0.060 A 
BRANCH  70  71
ATOM     71  S   UNL A   1      47.253  37.115  29.187  1.00  0.00     0.124 S 
ATOM     72  O   UNL A   1      46.828  37.305  30.570  1.00  0.00    -0.237 OA
ATOM     73  O   UNL A   1      48.695  37.127  28.961  1.00  0.00    -0.237 OA
ATOM     74  O   UNL A   1      46.459  37.818  28.184  1.00  0.00    -0.744 OA
ENDBRANCH  70  71
ENDBRANCH  49  63
BRANCH  50  75
ATOM     75  C   UNL A   1      43.405  23.194  26.975  1.00  0.00     0.058 A 
ATOM     76  C   UNL A   1      43.370  22.685  25.670  1.00  0.00     0.135 A 
ATOM     77  C   UNL A   1      43.060  22.330  28.026  1.00  0.00     0.135 A 
ATOM     78  F   UNL A   1      43.683  23.478  24.632  1.00  0.00    -0.206 F 
ATOM     79  C   UNL A   1      42.998  21.370  25.411  1.00  0.00     0.059 A 
ATOM     80  C   UNL A   1      42.708  21.004  27.795  1.00  0.00     0.059 A 
ATOM     81  F   UNL A   1      43.090  22.767  29.294  1.00  0.00    -0.206 F 
ATOM     82  C   UNL A   1      42.671  20.536  26.482  1.00  0.00     0.060 A 
BRANCH  82  83
ATOM     83  S   UNL A   1      42.250  18.813  26.146  1.00  0.00     0.124 S 
ATOM     84  O   UNL A   1      42.491  18.194  27.444  1.00  0.00    -0.237 OA
ATOM     85  O   UNL A   1      40.853  18.909  25.733  1.00  0.00    -0.237 OA
ATOM     86  O   UNL A   1      43.182  18.443  25.085  1.00  0.00    -0.744 OA
ENDBRANCH  82  83
ENDBRANCH  50  75
BRANCH  62  87
ATOM     87  C   UNL A   1      49.460  26.602  26.486  1.00  0.00     0.058 A 
ATOM     88  C   UNL A   1      50.313  25.971  27.405  1.00  0.00     0.135 A 
ATOM     89  C   UNL A   1      49.918  26.773  25.170  1.00  0.00     0.135 A 
ATOM     90  F   UNL A   1      49.922  25.794  28.676  1.00  0.00    -0.206 F 
ATOM     91  C   UNL A   1      51.583  25.540  27.036  1.00  0.00     0.059 A 
ATOM     92  C   UNL A   1      51.176  26.332  24.774  1.00  0.00     0.059 A 
ATOM     93  F   UNL A   1      49.135  27.365  24.253  1.00  0.00    -0.206 F 
ATOM     94  C   UNL A   1      52.005  25.725  25.718  1.00  0.00     0.060 A 
BRANCH  94  95
ATOM     95  S   UNL A   1      53.643  25.134  25.239  1.00  0.00     0.124 S 
ATOM     96  O   UNL A   1      54.486  25.748  26.259  1.00  0.00    -0.237 OA
ATOM     97  O   UNL A   1      53.493  23.685  25.326  1.00  0.00    -0.237 OA
ATOM     98  O   UNL A   1      53.808  25.658  23.886  1.00  0.00    -0.744 OA
ENDBRANCH  94  95
ENDBRANCH  62  87
ENDBRANCH  36  37
ENDBRANCH  29  31
ENDBRANCH  28  29
ENDBRANCH  27  28
ENDBRANCH   1  27
TORSDOF 17
ENDMDL
