MODEL 1
REMARK VINA RESULT:     -11.3      0.000      0.000
REMARK SMILES Cc1cscc1C(=O)N1C[C@@H](C(=O)OCCOC(=O)c2ccc(-c3c4nc(c(-c5c(F)cc(S(=O)(=O)[O-])cc5F)c5ccc([nH]5)c(-c5c(F)cc(S(=O)(=O)[O-])cc5F)c5nc(c(-c6c(F)cc(S(=O)(=O)[O-])cc6F)c6ccc3[nH]6)C=C5)C=C4)cc2)Oc2ccccc21
REMARK SMILES IDX 16 1 15 2 14 3 12 4 13 5 11 6 9 7 10 8 92 9 87 10 91 11
REMARK SMILES IDX 86 12 88 13 90 14 89 15 7 16 8 17 6 18 1 19 2 20 3 21 4 22
REMARK SMILES IDX 5 23 17 24 18 25 19 26 20 27 21 28 85 29 22 30 84 31 23 32
REMARK SMILES IDX 24 33 25 34 78 35 26 36 83 37 77 38 79 39 27 40 82 41 76 42
REMARK SMILES IDX 75 43 28 45 62 46 41 47 61 48 42 49 45 50 60 51 80 52 43 53
REMARK SMILES IDX 44 54 59 56 81 57 46 58 29 59 30 60 39 61 31 62 32 63 38 64
REMARK SMILES IDX 40 65 33 66 34 67 35 68 36 69 37 70 63 71 64 72 73 73 65 74
REMARK SMILES IDX 66 75 72 76 74 77 67 78 68 79 69 80 70 81 71 82 47 83 48 84
REMARK SMILES IDX 57 85 49 86 50 87 56 88 58 89 51 90 52 91 53 92 54 93 55 94
REMARK H PARENT 79 44 45 55
REMARK Flexibility Score: inf
ROOT
ATOM      1  C   UNL A   1      32.445  29.075  27.250  1.00  0.00     0.275 C 
ENDROOT
BRANCH   1   2
ATOM      2  C   UNL A   1      31.879  27.665  27.025  1.00  0.00     0.274 C 
BRANCH   2   3
ATOM      3  O   UNL A   1      32.762  26.832  26.252  1.00  0.00    -0.459 OA
BRANCH   3   4
ATOM      4  C   UNL A   1      32.404  25.522  26.219  1.00  0.00     0.349 C 
ATOM      5  O   UNL A   1      31.242  25.126  26.176  1.00  0.00    -0.248 OA
BRANCH   4   6
ATOM      6  C   UNL A   1      33.601  24.568  26.139  1.00  0.00     0.302 C 
ATOM      7  N   UNL A   1      33.742  24.694  23.709  1.00  0.00    -0.300 N 
ATOM      8  C   UNL A   1      34.457  25.010  24.949  1.00  0.00     0.183 C 
ATOM      9  C   UNL A   1      33.156  23.392  23.699  1.00  0.00     0.086 A 
ATOM     10  C   UNL A   1      33.086  22.651  24.888  1.00  0.00     0.144 A 
ATOM     11  C   UNL A   1      32.697  22.808  22.514  1.00  0.00     0.030 A 
ATOM     12  O   UNL A   1      33.384  23.161  26.123  1.00  0.00    -0.475 OA
ATOM     13  C   UNL A   1      32.659  21.324  24.875  1.00  0.00     0.049 A 
ATOM     14  C   UNL A   1      32.235  21.490  22.509  1.00  0.00     0.002 A 
ATOM     15  C   UNL A   1      32.238  20.741  23.683  1.00  0.00     0.004 A 
BRANCH   7  16
ATOM     16  C   UNL A   1      33.316  25.672  22.808  1.00  0.00     0.259 C 
ATOM     17  O   UNL A   1      33.889  25.821  21.724  1.00  0.00    -0.269 OA
BRANCH  16  18
ATOM     18  C   UNL A   1      32.199  26.566  23.165  1.00  0.00     0.053 A 
ATOM     19  C   UNL A   1      33.306  28.944  23.510  1.00  0.00     0.046 C 
ATOM     20  C   UNL A   1      32.156  27.997  23.430  1.00  0.00    -0.028 A 
ATOM     21  C   UNL A   1      30.850  28.441  23.573  1.00  0.00     0.069 A 
ATOM     22  S   UNL A   1      29.693  27.204  23.421  1.00  0.00    -0.151 S 
ATOM     23  C   UNL A   1      30.909  26.048  23.154  1.00  0.00     0.079 A 
ENDBRANCH  16  18
ENDBRANCH   7  16
ENDBRANCH   4   6
ENDBRANCH   3   4
ENDBRANCH   2   3
ENDBRANCH   1   2
BRANCH   1  24
ATOM     24  O   UNL A   1      33.887  29.130  27.237  1.00  0.00    -0.458 OA
BRANCH  24  25
ATOM     25  C   UNL A   1      34.429  30.206  27.861  1.00  0.00     0.338 C 
ATOM     26  O   UNL A   1      33.836  31.207  28.228  1.00  0.00    -0.246 OA
BRANCH  25  27
ATOM     27  C   UNL A   1      35.838  29.952  28.226  1.00  0.00     0.060 A 
ATOM     28  C   UNL A   1      36.792  30.039  27.205  1.00  0.00     0.016 A 
ATOM     29  C   UNL A   1      36.228  29.574  29.510  1.00  0.00     0.016 A 
ATOM     30  C   UNL A   1      38.132  29.784  27.457  1.00  0.00     0.010 A 
ATOM     31  C   UNL A   1      37.580  29.294  29.763  1.00  0.00     0.010 A 
ATOM     32  C   UNL A   1      38.537  29.404  28.738  1.00  0.00    -0.014 A 
BRANCH  32  33
ATOM     33  C   UNL A   1      39.965  29.092  28.967  1.00  0.00     0.031 A 
ATOM     34  C   UNL A   1      40.875  30.137  29.541  1.00  0.00     0.074 A 
ATOM     35  C   UNL A   1      40.418  27.849  28.721  1.00  0.00     0.049 A 
ATOM     36  N   UNL A   1      42.161  30.077  29.768  1.00  0.00    -0.248 NA
ATOM     37  C   UNL A   1      40.253  31.416  29.920  1.00  0.00     0.031 C 
ATOM     38  C   UNL A   1      39.600  26.735  28.238  1.00  0.00     0.029 A 
ATOM     39  N   UNL A   1      41.674  27.313  28.843  1.00  0.00    -0.354 N 
ATOM     40  C   UNL A   1      42.509  31.313  30.299  1.00  0.00     0.074 A 
ATOM     41  C   UNL A   1      41.300  32.107  30.351  1.00  0.00     0.031 C 
ATOM     42  C   UNL A   1      40.378  25.650  28.096  1.00  0.00     0.029 A 
ATOM     43  C   UNL A   1      41.755  26.006  28.425  1.00  0.00     0.049 A 
ATOM     44  H   UNL A   1      42.443  27.816  29.196  1.00  0.00     0.167 HD
ATOM     45  C   UNL A   1      43.730  31.740  30.704  1.00  0.00     0.037 A 
ATOM     46  C   UNL A   1      42.827  25.202  28.284  1.00  0.00     0.037 A 
ATOM     47  C   UNL A   1      44.923  30.934  30.644  1.00  0.00     0.049 A 
ATOM     48  C   UNL A   1      44.189  25.735  28.646  1.00  0.00     0.074 A 
ATOM     49  C   UNL A   1      46.208  31.269  31.033  1.00  0.00     0.029 A 
ATOM     50  N   UNL A   1      44.981  29.636  30.156  1.00  0.00    -0.354 N 
ATOM     51  N   UNL A   1      44.510  26.906  29.143  1.00  0.00    -0.248 NA
ATOM     52  C   UNL A   1      45.333  24.843  28.420  1.00  0.00     0.031 C 
ATOM     53  C   UNL A   1      47.052  30.196  30.726  1.00  0.00     0.029 A 
ATOM     54  C   UNL A   1      46.284  29.169  30.200  1.00  0.00     0.049 A 
ATOM     55  H   UNL A   1      44.208  29.122  29.826  1.00  0.00     0.167 HD
ATOM     56  C   UNL A   1      45.892  26.887  29.302  1.00  0.00     0.074 A 
ATOM     57  C   UNL A   1      46.341  25.580  28.869  1.00  0.00     0.031 C 
ATOM     58  C   UNL A   1      46.714  27.864  29.760  1.00  0.00     0.037 A 
BRANCH  45  59
ATOM     59  C   UNL A   1      43.844  33.153  31.204  1.00  0.00     0.058 A 
ATOM     60  C   UNL A   1      44.060  34.236  30.336  1.00  0.00     0.135 A 
ATOM     61  C   UNL A   1      43.705  33.432  32.574  1.00  0.00     0.135 A 
ATOM     62  F   UNL A   1      44.220  34.026  29.020  1.00  0.00    -0.206 F 
ATOM     63  C   UNL A   1      44.157  35.540  30.811  1.00  0.00     0.059 A 
ATOM     64  C   UNL A   1      43.771  34.731  33.068  1.00  0.00     0.059 A 
ATOM     65  F   UNL A   1      43.501  32.434  33.449  1.00  0.00    -0.206 F 
ATOM     66  C   UNL A   1      44.011  35.778  32.180  1.00  0.00     0.060 A 
BRANCH  66  67
ATOM     67  S   UNL A   1      44.139  37.476  32.780  1.00  0.00     0.124 S 
ATOM     68  O   UNL A   1      45.470  37.473  33.380  1.00  0.00    -0.237 OA
ATOM     69  O   UNL A   1      44.001  38.252  31.552  1.00  0.00    -0.237 OA
ATOM     70  O   UNL A   1      43.028  37.590  33.719  1.00  0.00    -0.744 OA
ENDBRANCH  66  67
ENDBRANCH  45  59
BRANCH  46  71
ATOM     71  C   UNL A   1      42.661  23.830  27.736  1.00  0.00     0.058 A 
ATOM     72  C   UNL A   1      42.565  22.716  28.580  1.00  0.00     0.135 A 
ATOM     73  C   UNL A   1      42.592  23.607  26.350  1.00  0.00     0.135 A 
ATOM     74  F   UNL A   1      42.637  22.874  29.911  1.00  0.00    -0.206 F 
ATOM     75  C   UNL A   1      42.419  21.428  28.074  1.00  0.00     0.059 A 
ATOM     76  C   UNL A   1      42.416  22.333  25.820  1.00  0.00     0.059 A 
ATOM     77  F   UNL A   1      42.672  24.640  25.497  1.00  0.00    -0.206 F 
ATOM     78  C   UNL A   1      42.341  21.247  26.692  1.00  0.00     0.060 A 
BRANCH  78  79
ATOM     79  S   UNL A   1      42.109  19.576  26.049  1.00  0.00     0.124 S 
ATOM     80  O   UNL A   1      40.688  19.583  25.721  1.00  0.00    -0.237 OA
ATOM     81  O   UNL A   1      43.025  19.556  24.913  1.00  0.00    -0.237 OA
ATOM     82  O   UNL A   1      42.494  18.727  27.171  1.00  0.00    -0.744 OA
ENDBRANCH  78  79
ENDBRANCH  46  71
BRANCH  58  83
ATOM     83  C   UNL A   1      48.184  27.550  29.831  1.00  0.00     0.058 A 
ATOM     84  C   UNL A   1      49.060  27.894  28.789  1.00  0.00     0.135 A 
ATOM     85  C   UNL A   1      48.731  26.947  30.975  1.00  0.00     0.135 A 
ATOM     86  F   UNL A   1      48.589  28.464  27.668  1.00  0.00    -0.206 F 
ATOM     87  C   UNL A   1      50.424  27.630  28.869  1.00  0.00     0.059 A 
ATOM     88  C   UNL A   1      50.096  26.701  31.090  1.00  0.00     0.059 A 
ATOM     89  F   UNL A   1      47.939  26.607  32.005  1.00  0.00    -0.206 F 
ATOM     90  C   UNL A   1      50.933  27.036  30.026  1.00  0.00     0.060 A 
BRANCH  90  91
ATOM     91  S   UNL A   1      52.709  26.735  30.133  1.00  0.00     0.124 S 
ATOM     92  O   UNL A   1      53.224  28.085  30.344  1.00  0.00    -0.237 OA
ATOM     93  O   UNL A   1      52.805  25.834  31.278  1.00  0.00    -0.237 OA
ATOM     94  O   UNL A   1      53.032  26.135  28.842  1.00  0.00    -0.744 OA
ENDBRANCH  90  91
ENDBRANCH  58  83
ENDBRANCH  32  33
ENDBRANCH  25  27
ENDBRANCH  24  25
ENDBRANCH   1  24
TORSDOF 16
ENDMDL
MODEL 2
REMARK VINA RESULT:     -11.0      1.359      2.814
REMARK SMILES Cc1cscc1C(=O)N1C[C@@H](C(=O)OCCOC(=O)c2ccc(-c3c4nc(c(-c5c(F)cc(S(=O)(=O)[O-])cc5F)c5ccc([nH]5)c(-c5c(F)cc(S(=O)(=O)[O-])cc5F)c5nc(c(-c6c(F)cc(S(=O)(=O)[O-])cc6F)c6ccc3[nH]6)C=C5)C=C4)cc2)Oc2ccccc21
REMARK SMILES IDX 16 1 15 2 14 3 12 4 13 5 11 6 9 7 10 8 92 9 87 10 91 11
REMARK SMILES IDX 86 12 88 13 90 14 89 15 7 16 8 17 6 18 1 19 2 20 3 21 4 22
REMARK SMILES IDX 5 23 17 24 18 25 19 26 20 27 21 28 85 29 22 30 84 31 23 32
REMARK SMILES IDX 24 33 25 34 78 35 26 36 83 37 77 38 79 39 27 40 82 41 76 42
REMARK SMILES IDX 75 43 28 45 62 46 41 47 61 48 42 49 45 50 60 51 80 52 43 53
REMARK SMILES IDX 44 54 59 56 81 57 46 58 29 59 30 60 39 61 31 62 32 63 38 64
REMARK SMILES IDX 40 65 33 66 34 67 35 68 36 69 37 70 63 71 64 72 73 73 65 74
REMARK SMILES IDX 66 75 72 76 74 77 67 78 68 79 69 80 70 81 71 82 47 83 48 84
REMARK SMILES IDX 57 85 49 86 50 87 56 88 58 89 51 90 52 91 53 92 54 93 55 94
REMARK H PARENT 79 44 45 55
REMARK Flexibility Score: inf
ROOT
ATOM      1  C   UNL A   1      32.223  29.297  27.033  1.00  0.00     0.275 C 
ENDROOT
BRANCH   1   2
ATOM      2  C   UNL A   1      31.841  28.672  25.683  1.00  0.00     0.274 C 
BRANCH   2   3
ATOM      3  O   UNL A   1      32.355  27.337  25.527  1.00  0.00    -0.459 OA
BRANCH   3   4
ATOM      4  C   UNL A   1      31.580  26.372  26.087  1.00  0.00     0.349 C 
ATOM      5  O   UNL A   1      31.637  26.044  27.270  1.00  0.00    -0.248 OA
BRANCH   4   6
ATOM      6  C   UNL A   1      30.543  25.789  25.120  1.00  0.00     0.302 C 
ATOM      7  N   UNL A   1      31.908  23.843  24.578  1.00  0.00    -0.300 N 
ATOM      8  C   UNL A   1      30.651  24.264  25.203  1.00  0.00     0.183 C 
ATOM      9  C   UNL A   1      32.179  24.494  23.336  1.00  0.00     0.086 A 
ATOM     10  C   UNL A   1      31.410  25.601  22.948  1.00  0.00     0.144 A 
ATOM     11  C   UNL A   1      33.162  24.018  22.463  1.00  0.00     0.030 A 
ATOM     12  O   UNL A   1      30.512  26.231  23.767  1.00  0.00    -0.475 OA
ATOM     13  C   UNL A   1      31.553  26.157  21.677  1.00  0.00     0.049 A 
ATOM     14  C   UNL A   1      33.331  24.599  21.204  1.00  0.00     0.002 A 
ATOM     15  C   UNL A   1      32.512  25.652  20.803  1.00  0.00     0.004 A 
BRANCH   7  16
ATOM     16  C   UNL A   1      32.931  23.206  25.284  1.00  0.00     0.259 C 
ATOM     17  O   UNL A   1      33.609  23.828  26.107  1.00  0.00    -0.269 OA
BRANCH  16  18
ATOM     18  C   UNL A   1      33.239  21.789  25.016  1.00  0.00     0.053 A 
ATOM     19  C   UNL A   1      35.836  21.733  24.513  1.00  0.00     0.046 C 
ATOM     20  C   UNL A   1      34.495  21.114  24.724  1.00  0.00    -0.028 A 
ATOM     21  C   UNL A   1      34.329  19.737  24.698  1.00  0.00     0.069 A 
ATOM     22  S   UNL A   1      32.729  19.242  24.988  1.00  0.00    -0.151 S 
ATOM     23  C   UNL A   1      32.221  20.854  25.162  1.00  0.00     0.079 A 
ENDBRANCH  16  18
ENDBRANCH   7  16
ENDBRANCH   4   6
ENDBRANCH   3   4
ENDBRANCH   2   3
ENDBRANCH   1   2
BRANCH   1  24
ATOM     24  O   UNL A   1      33.622  29.162  27.359  1.00  0.00    -0.458 OA
BRANCH  24  25
ATOM     25  C   UNL A   1      34.244  30.312  27.723  1.00  0.00     0.338 C 
ATOM     26  O   UNL A   1      33.728  31.412  27.831  1.00  0.00    -0.246 OA
BRANCH  25  27
ATOM     27  C   UNL A   1      35.628  30.047  28.166  1.00  0.00     0.060 A 
ATOM     28  C   UNL A   1      36.645  30.180  27.213  1.00  0.00     0.016 A 
ATOM     29  C   UNL A   1      35.938  29.618  29.456  1.00  0.00     0.016 A 
ATOM     30  C   UNL A   1      37.967  29.918  27.539  1.00  0.00     0.010 A 
ATOM     31  C   UNL A   1      37.272  29.333  29.783  1.00  0.00     0.010 A 
ATOM     32  C   UNL A   1      38.292  29.488  28.827  1.00  0.00    -0.014 A 
BRANCH  32  33
ATOM     33  C   UNL A   1      39.704  29.172  29.134  1.00  0.00     0.031 A 
ATOM     34  C   UNL A   1      40.575  30.201  29.791  1.00  0.00     0.074 A 
ATOM     35  C   UNL A   1      40.175  27.936  28.883  1.00  0.00     0.049 A 
ATOM     36  N   UNL A   1      41.845  30.137  30.093  1.00  0.00    -0.248 NA
ATOM     37  C   UNL A   1      39.927  31.469  30.165  1.00  0.00     0.031 C 
ATOM     38  C   UNL A   1      39.391  26.834  28.321  1.00  0.00     0.029 A 
ATOM     39  N   UNL A   1      41.423  27.398  29.066  1.00  0.00    -0.354 N 
ATOM     40  C   UNL A   1      42.157  31.358  30.678  1.00  0.00     0.074 A 
ATOM     41  C   UNL A   1      40.944  32.149  30.677  1.00  0.00     0.031 C 
ATOM     42  C   UNL A   1      40.179  25.754  28.198  1.00  0.00     0.029 A 
ATOM     43  C   UNL A   1      41.533  26.103  28.619  1.00  0.00     0.049 A 
ATOM     44  H   UNL A   1      42.168  27.892  29.479  1.00  0.00     0.167 HD
ATOM     45  C   UNL A   1      43.349  31.775  31.167  1.00  0.00     0.037 A 
ATOM     46  C   UNL A   1      42.613  25.305  28.522  1.00  0.00     0.037 A 
ATOM     47  C   UNL A   1      44.546  30.972  31.159  1.00  0.00     0.049 A 
ATOM     48  C   UNL A   1      43.949  25.829  28.980  1.00  0.00     0.074 A 
ATOM     49  C   UNL A   1      45.804  31.298  31.634  1.00  0.00     0.029 A 
ATOM     50  N   UNL A   1      44.638  29.688  30.640  1.00  0.00    -0.354 N 
ATOM     51  N   UNL A   1      44.236  26.986  29.527  1.00  0.00    -0.248 NA
ATOM     52  C   UNL A   1      45.108  24.944  28.800  1.00  0.00     0.031 C 
ATOM     53  C   UNL A   1      46.668  30.235  31.350  1.00  0.00     0.029 A 
ATOM     54  C   UNL A   1      45.937  29.221  30.750  1.00  0.00     0.049 A 
ATOM     55  H   UNL A   1      43.887  29.182  30.250  1.00  0.00     0.167 HD
ATOM     56  C   UNL A   1      45.606  26.964  29.769  1.00  0.00     0.074 A 
ATOM     57  C   UNL A   1      46.084  25.670  29.329  1.00  0.00     0.031 C 
ATOM     58  C   UNL A   1      46.397  27.929  30.302  1.00  0.00     0.037 A 
BRANCH  45  59
ATOM     59  C   UNL A   1      43.430  33.175  31.711  1.00  0.00     0.058 A 
ATOM     60  C   UNL A   1      43.186  33.465  33.063  1.00  0.00     0.135 A 
ATOM     61  C   UNL A   1      43.789  34.241  30.869  1.00  0.00     0.135 A 
ATOM     62  F   UNL A   1      42.821  32.488  33.909  1.00  0.00    -0.206 F 
ATOM     63  C   UNL A   1      43.271  34.764  33.555  1.00  0.00     0.059 A 
ATOM     64  C   UNL A   1      43.906  35.543  31.344  1.00  0.00     0.059 A 
ATOM     65  F   UNL A   1      44.029  34.020  29.566  1.00  0.00    -0.206 F 
ATOM     66  C   UNL A   1      43.632  35.797  32.686  1.00  0.00     0.060 A 
BRANCH  66  67
ATOM     67  S   UNL A   1      43.739  37.476  33.341  1.00  0.00     0.124 S 
ATOM     68  O   UNL A   1      43.791  38.264  32.113  1.00  0.00    -0.237 OA
ATOM     69  O   UNL A   1      42.506  37.590  34.113  1.00  0.00    -0.237 OA
ATOM     70  O   UNL A   1      44.969  37.459  34.126  1.00  0.00    -0.744 OA
ENDBRANCH  66  67
ENDBRANCH  45  59
BRANCH  46  71
ATOM     71  C   UNL A   1      42.485  23.947  27.928  1.00  0.00     0.058 A 
ATOM     72  C   UNL A   1      42.455  22.801  28.733  1.00  0.00     0.135 A 
ATOM     73  C   UNL A   1      42.385  23.772  26.537  1.00  0.00     0.135 A 
ATOM     74  F   UNL A   1      42.559  22.913  30.066  1.00  0.00    -0.206 F 
ATOM     75  C   UNL A   1      42.345  21.527  28.183  1.00  0.00     0.059 A 
ATOM     76  C   UNL A   1      42.243  22.512  25.965  1.00  0.00     0.059 A 
ATOM     77  F   UNL A   1      42.401  24.837  25.721  1.00  0.00    -0.206 F 
ATOM     78  C   UNL A   1      42.235  21.393  26.798  1.00  0.00     0.060 A 
BRANCH  78  79
ATOM     79  S   UNL A   1      42.049  19.738  26.100  1.00  0.00     0.124 S 
ATOM     80  O   UNL A   1      43.008  19.773  25.002  1.00  0.00    -0.237 OA
ATOM     81  O   UNL A   1      42.406  18.889  27.232  1.00  0.00    -0.237 OA
ATOM     82  O   UNL A   1      40.644  19.694  25.709  1.00  0.00    -0.744 OA
ENDBRANCH  78  79
ENDBRANCH  46  71
BRANCH  58  83
ATOM     83  C   UNL A   1      47.860  27.615  30.454  1.00  0.00     0.058 A 
ATOM     84  C   UNL A   1      48.367  27.017  31.619  1.00  0.00     0.135 A 
ATOM     85  C   UNL A   1      48.757  27.868  29.404  1.00  0.00     0.135 A 
ATOM     86  F   UNL A   1      47.554  26.763  32.657  1.00  0.00    -0.206 F 
ATOM     87  C   UNL A   1      49.716  26.700  31.745  1.00  0.00     0.059 A 
ATOM     88  C   UNL A   1      50.104  27.531  29.496  1.00  0.00     0.059 A 
ATOM     89  F   UNL A   1      48.323  28.429  28.264  1.00  0.00    -0.206 F 
ATOM     90  C   UNL A   1      50.576  26.958  30.676  1.00  0.00     0.060 A 
BRANCH  90  91
ATOM     91  S   UNL A   1      52.316  26.506  30.839  1.00  0.00     0.124 S 
ATOM     92  O   UNL A   1      52.860  27.672  31.530  1.00  0.00    -0.237 OA
ATOM     93  O   UNL A   1      52.247  25.278  31.626  1.00  0.00    -0.237 OA
ATOM     94  O   UNL A   1      52.755  26.334  29.457  1.00  0.00    -0.744 OA
ENDBRANCH  90  91
ENDBRANCH  58  83
ENDBRANCH  32  33
ENDBRANCH  25  27
ENDBRANCH  24  25
ENDBRANCH   1  24
TORSDOF 16
ENDMDL
MODEL 3
REMARK VINA RESULT:     -11.0      4.913     10.246
REMARK SMILES Cc1cscc1C(=O)N1C[C@@H](C(=O)OCCOC(=O)c2ccc(-c3c4nc(c(-c5c(F)cc(S(=O)(=O)[O-])cc5F)c5ccc([nH]5)c(-c5c(F)cc(S(=O)(=O)[O-])cc5F)c5nc(c(-c6c(F)cc(S(=O)(=O)[O-])cc6F)c6ccc3[nH]6)C=C5)C=C4)cc2)Oc2ccccc21
REMARK SMILES IDX 16 1 15 2 14 3 12 4 13 5 11 6 9 7 10 8 92 9 87 10 91 11
REMARK SMILES IDX 86 12 88 13 90 14 89 15 7 16 8 17 6 18 1 19 2 20 3 21 4 22
REMARK SMILES IDX 5 23 17 24 18 25 19 26 20 27 21 28 85 29 22 30 84 31 23 32
REMARK SMILES IDX 24 33 25 34 78 35 26 36 83 37 77 38 79 39 27 40 82 41 76 42
REMARK SMILES IDX 75 43 28 45 62 46 41 47 61 48 42 49 45 50 60 51 80 52 43 53
REMARK SMILES IDX 44 54 59 56 81 57 46 58 29 59 30 60 39 61 31 62 32 63 38 64
REMARK SMILES IDX 40 65 33 66 34 67 35 68 36 69 37 70 63 71 64 72 73 73 65 74
REMARK SMILES IDX 66 75 72 76 74 77 67 78 68 79 69 80 70 81 71 82 47 83 48 84
REMARK SMILES IDX 57 85 49 86 50 87 56 88 58 89 51 90 52 91 53 92 54 93 55 94
REMARK H PARENT 79 44 45 55
REMARK Flexibility Score: inf
ROOT
ATOM      1  C   UNL A   1      38.282  23.314  25.436  1.00  0.00     0.275 C 
ENDROOT
BRANCH   1   2
ATOM      2  C   UNL A   1      37.342  22.164  25.828  1.00  0.00     0.274 C 
BRANCH   2   3
ATOM      3  O   UNL A   1      36.241  22.012  24.913  1.00  0.00    -0.459 OA
BRANCH   3   4
ATOM      4  C   UNL A   1      35.044  21.789  25.514  1.00  0.00     0.349 C 
ATOM      5  O   UNL A   1      34.880  21.759  26.731  1.00  0.00    -0.248 OA
BRANCH   4   6
ATOM      6  C   UNL A   1      33.880  21.674  24.524  1.00  0.00     0.302 C 
ATOM      7  N   UNL A   1      33.411  24.066  24.553  1.00  0.00    -0.300 N 
ATOM      8  C   UNL A   1      33.857  22.963  23.697  1.00  0.00     0.183 C 
ATOM      9  C   UNL A   1      32.285  23.742  25.369  1.00  0.00     0.086 A 
ATOM     10  C   UNL A   1      31.867  22.408  25.481  1.00  0.00     0.144 A 
ATOM     11  C   UNL A   1      31.546  24.736  26.020  1.00  0.00     0.030 A 
ATOM     12  O   UNL A   1      32.579  21.343  24.998  1.00  0.00    -0.475 OA
ATOM     13  C   UNL A   1      30.684  22.085  26.145  1.00  0.00     0.049 A 
ATOM     14  C   UNL A   1      30.381  24.407  26.717  1.00  0.00     0.002 A 
ATOM     15  C   UNL A   1      29.938  23.087  26.759  1.00  0.00     0.004 A 
BRANCH   7  16
ATOM     16  C   UNL A   1      34.219  25.163  24.862  1.00  0.00     0.259 C 
ATOM     17  O   UNL A   1      35.249  25.018  25.527  1.00  0.00    -0.269 OA
BRANCH  16  18
ATOM     18  C   UNL A   1      33.822  26.516  24.429  1.00  0.00     0.053 A 
ATOM     19  C   UNL A   1      33.745  27.953  26.649  1.00  0.00     0.046 C 
ATOM     20  C   UNL A   1      33.652  27.755  25.173  1.00  0.00    -0.028 A 
ATOM     21  C   UNL A   1      33.420  28.824  24.320  1.00  0.00     0.069 A 
ATOM     22  S   UNL A   1      33.377  28.383  22.678  1.00  0.00    -0.151 S 
ATOM     23  C   UNL A   1      33.676  26.757  23.068  1.00  0.00     0.079 A 
ENDBRANCH  16  18
ENDBRANCH   7  16
ENDBRANCH   4   6
ENDBRANCH   3   4
ENDBRANCH   2   3
ENDBRANCH   1   2
BRANCH   1  24
ATOM     24  O   UNL A   1      38.527  24.252  26.504  1.00  0.00    -0.458 OA
BRANCH  24  25
ATOM     25  C   UNL A   1      39.825  24.373  26.880  1.00  0.00     0.338 C 
ATOM     26  O   UNL A   1      40.781  23.806  26.377  1.00  0.00    -0.246 OA
BRANCH  25  27
ATOM     27  C   UNL A   1      39.987  25.443  27.887  1.00  0.00     0.060 A 
ATOM     28  C   UNL A   1      39.034  25.513  28.909  1.00  0.00     0.016 A 
ATOM     29  C   UNL A   1      41.000  26.399  27.815  1.00  0.00     0.016 A 
ATOM     30  C   UNL A   1      39.095  26.507  29.875  1.00  0.00     0.010 A 
ATOM     31  C   UNL A   1      41.052  27.417  28.778  1.00  0.00     0.010 A 
ATOM     32  C   UNL A   1      40.103  27.471  29.815  1.00  0.00    -0.014 A 
BRANCH  32  33
ATOM     33  C   UNL A   1      40.117  28.546  30.831  1.00  0.00     0.031 A 
ATOM     34  C   UNL A   1      41.089  28.485  31.971  1.00  0.00     0.074 A 
ATOM     35  C   UNL A   1      39.301  29.607  30.682  1.00  0.00     0.049 A 
ATOM     36  N   UNL A   1      41.223  29.297  32.986  1.00  0.00    -0.248 NA
ATOM     37  C   UNL A   1      42.043  27.364  31.963  1.00  0.00     0.031 C 
ATOM     38  C   UNL A   1      38.375  29.807  29.567  1.00  0.00     0.029 A 
ATOM     39  N   UNL A   1      39.120  30.715  31.469  1.00  0.00    -0.354 N 
ATOM     40  C   UNL A   1      42.264  28.780  33.749  1.00  0.00     0.074 A 
ATOM     41  C   UNL A   1      42.718  27.577  33.084  1.00  0.00     0.031 C 
ATOM     42  C   UNL A   1      37.716  30.963  29.747  1.00  0.00     0.029 A 
ATOM     43  C   UNL A   1      38.134  31.557  31.013  1.00  0.00     0.049 A 
ATOM     44  H   UNL A   1      39.647  30.890  32.283  1.00  0.00     0.167 HD
ATOM     45  C   UNL A   1      42.787  29.271  34.898  1.00  0.00     0.037 A 
ATOM     46  C   UNL A   1      37.601  32.658  31.576  1.00  0.00     0.037 A 
ATOM     47  C   UNL A   1      42.320  30.471  35.546  1.00  0.00     0.049 A 
ATOM     48  C   UNL A   1      38.131  33.125  32.907  1.00  0.00     0.074 A 
ATOM     49  C   UNL A   1      42.784  31.056  36.710  1.00  0.00     0.029 A 
ATOM     50  N   UNL A   1      41.277  31.265  35.090  1.00  0.00    -0.354 N 
ATOM     51  N   UNL A   1      39.112  32.628  33.622  1.00  0.00    -0.248 NA
ATOM     52  C   UNL A   1      37.479  34.296  33.508  1.00  0.00     0.031 C 
ATOM     53  C   UNL A   1      41.984  32.170  36.989  1.00  0.00     0.029 A 
ATOM     54  C   UNL A   1      41.058  32.313  35.967  1.00  0.00     0.049 A 
ATOM     55  H   UNL A   1      40.766  31.105  34.262  1.00  0.00     0.167 HD
ATOM     56  C   UNL A   1      39.203  33.433  34.754  1.00  0.00     0.074 A 
ATOM     57  C   UNL A   1      38.192  34.461  34.614  1.00  0.00     0.031 C 
ATOM     58  C   UNL A   1      40.043  33.327  35.814  1.00  0.00     0.037 A 
BRANCH  45  59
ATOM     59  C   UNL A   1      43.890  28.486  35.554  1.00  0.00     0.058 A 
ATOM     60  C   UNL A   1      43.631  27.496  36.515  1.00  0.00     0.135 A 
ATOM     61  C   UNL A   1      45.228  28.709  35.189  1.00  0.00     0.135 A 
ATOM     62  F   UNL A   1      42.373  27.255  36.916  1.00  0.00    -0.206 F 
ATOM     63  C   UNL A   1      44.661  26.773  37.108  1.00  0.00     0.059 A 
ATOM     64  C   UNL A   1      46.272  27.978  35.749  1.00  0.00     0.059 A 
ATOM     65  F   UNL A   1      45.532  29.647  34.277  1.00  0.00    -0.206 F 
ATOM     66  C   UNL A   1      45.980  27.021  36.719  1.00  0.00     0.060 A 
BRANCH  66  67
ATOM     67  S   UNL A   1      47.303  26.073  37.497  1.00  0.00     0.124 S 
ATOM     68  O   UNL A   1      47.329  24.873  36.665  1.00  0.00    -0.237 OA
ATOM     69  O   UNL A   1      48.450  26.964  37.358  1.00  0.00    -0.237 OA
ATOM     70  O   UNL A   1      46.826  25.878  38.862  1.00  0.00    -0.744 OA
ENDBRANCH  66  67
ENDBRANCH  45  59
BRANCH  46  71
ATOM     71  C   UNL A   1      36.475  33.364  30.908  1.00  0.00     0.058 A 
ATOM     72  C   UNL A   1      35.162  33.254  31.385  1.00  0.00     0.135 A 
ATOM     73  C   UNL A   1      36.694  34.169  29.777  1.00  0.00     0.135 A 
ATOM     74  F   UNL A   1      34.898  32.489  32.454  1.00  0.00    -0.206 F 
ATOM     75  C   UNL A   1      34.102  33.905  30.759  1.00  0.00     0.059 A 
ATOM     76  C   UNL A   1      35.657  34.854  29.153  1.00  0.00     0.059 A 
ATOM     77  F   UNL A   1      37.934  34.314  29.284  1.00  0.00    -0.206 F 
ATOM     78  C   UNL A   1      34.362  34.706  29.646  1.00  0.00     0.060 A 
BRANCH  78  79
ATOM     79  S   UNL A   1      32.985  35.580  28.869  1.00  0.00     0.124 S 
ATOM     80  O   UNL A   1      33.684  36.593  28.087  1.00  0.00    -0.237 OA
ATOM     81  O   UNL A   1      32.342  34.515  28.105  1.00  0.00    -0.237 OA
ATOM     82  O   UNL A   1      32.218  36.077  30.006  1.00  0.00    -0.744 OA
ENDBRANCH  78  79
ENDBRANCH  46  71
BRANCH  58  83
ATOM     83  C   UNL A   1      39.915  34.360  36.900  1.00  0.00     0.058 A 
ATOM     84  C   UNL A   1      40.576  35.597  36.820  1.00  0.00     0.135 A 
ATOM     85  C   UNL A   1      39.083  34.133  38.008  1.00  0.00     0.135 A 
ATOM     86  F   UNL A   1      41.392  35.862  35.787  1.00  0.00    -0.206 F 
ATOM     87  C   UNL A   1      40.433  36.563  37.811  1.00  0.00     0.059 A 
ATOM     88  C   UNL A   1      38.901  35.097  38.995  1.00  0.00     0.059 A 
ATOM     89  F   UNL A   1      38.420  32.972  38.128  1.00  0.00    -0.206 F 
ATOM     90  C   UNL A   1      39.590  36.304  38.894  1.00  0.00     0.060 A 
BRANCH  90  91
ATOM     91  S   UNL A   1      39.383  37.581  40.152  1.00  0.00     0.124 S 
ATOM     92  O   UNL A   1      39.033  36.786  41.325  1.00  0.00    -0.237 OA
ATOM     93  O   UNL A   1      40.702  38.207  40.181  1.00  0.00    -0.237 OA
ATOM     94  O   UNL A   1      38.312  38.417  39.617  1.00  0.00    -0.744 OA
ENDBRANCH  90  91
ENDBRANCH  58  83
ENDBRANCH  32  33
ENDBRANCH  25  27
ENDBRANCH  24  25
ENDBRANCH   1  24
TORSDOF 16
ENDMDL
