MODEL 1
REMARK VINA RESULT:     -10.5      0.000      0.000
REMARK SMILES CC[C@@H](Nc1ccc([N+](=O)[O-])c(N)n1)C(=O)OCCOC(=O)c1ccc(-c2c3nc(c(-c4c(F)cc(S(=O)(=O)[O-])cc4F)c4ccc([nH]4)c(-c4c(F)cc(S(=O)(=O)[O-])cc4F)c4nc(c(-c5c(F)cc(S(=O)(=O)[O-])cc5F)c5ccc2[nH]5)C=C4)C=C3)cc1
REMARK SMILES IDX 18 1 17 2 15 3 16 4 3 5 2 6 1 7 4 8 5 10 6 11 14 12 7 13
REMARK SMILES IDX 12 14 8 15 13 16 9 19 10 20 11 21 19 22 20 23 21 24 22 25
REMARK SMILES IDX 23 26 24 27 88 28 25 29 87 30 26 31 27 32 28 33 81 34 29 35
REMARK SMILES IDX 86 36 80 37 82 38 30 39 85 40 79 41 78 42 31 44 65 45 44 46
REMARK SMILES IDX 64 47 45 48 48 49 63 50 83 51 46 52 47 53 62 55 84 56 49 57
REMARK SMILES IDX 32 58 33 59 42 60 34 61 35 62 41 63 43 64 36 65 37 66 38 67
REMARK SMILES IDX 39 68 40 69 66 70 67 71 76 72 68 73 69 74 75 75 77 76 70 77
REMARK SMILES IDX 71 78 72 79 73 80 74 81 50 82 51 83 60 84 52 85 53 86 59 87
REMARK SMILES IDX 61 88 54 89 55 90 56 91 57 92 58 93
REMARK H PARENT 4 9 13 17 13 18 82 43 48 54
REMARK Flexibility Score: inf
ROOT
ATOM      1  C   UNL A   1      32.612  29.630  25.619  1.00  0.00     0.274 C 
ENDROOT
BRANCH   1   2
ATOM      2  O   UNL A   1      33.193  28.318  25.762  1.00  0.00    -0.461 OA
BRANCH   2   3
ATOM      3  C   UNL A   1      33.712  27.767  24.626  1.00  0.00     0.328 C 
ATOM      4  O   UNL A   1      34.402  28.383  23.820  1.00  0.00    -0.250 OA
BRANCH   3   5
ATOM      5  C   UNL A   1      33.240  26.331  24.386  1.00  0.00     0.191 C 
BRANCH   5   6
ATOM      6  C   UNL A   1      33.105  25.545  25.704  1.00  0.00     0.033 C 
ATOM      7  C   UNL A   1      33.311  24.045  25.525  1.00  0.00     0.007 C 
ENDBRANCH   5   6
BRANCH   5   8
ATOM      8  N   UNL A   1      32.007  26.189  23.602  1.00  0.00    -0.357 N 
ATOM      9  H   UNL A   1      31.936  25.323  23.140  1.00  0.00     0.162 HD
BRANCH   8  10
ATOM     10  C   UNL A   1      30.940  27.004  23.380  1.00  0.00     0.129 A 
ATOM     11  C   UNL A   1      29.633  26.773  23.775  1.00  0.00     0.054 A 
ATOM     12  N   UNL A   1      31.246  28.097  22.645  1.00  0.00    -0.208 NA
ATOM     13  C   UNL A   1      28.621  27.651  23.399  1.00  0.00     0.093 A 
ATOM     14  C   UNL A   1      30.279  28.979  22.292  1.00  0.00     0.204 A 
ATOM     15  C   UNL A   1      28.952  28.762  22.634  1.00  0.00     0.311 A 
BRANCH  14  16
ATOM     16  N   UNL A   1      30.726  30.022  21.503  1.00  0.00    -0.378 N 
ATOM     17  H   UNL A   1      30.172  30.348  20.758  1.00  0.00     0.158 HD
ATOM     18  H   UNL A   1      31.599  30.438  21.687  1.00  0.00     0.158 HD
ENDBRANCH  14  16
BRANCH  15  19
ATOM     19  N   UNL A   1      27.895  29.653  22.198  1.00  0.00     0.066 N 
ATOM     20  O   UNL A   1      27.943  30.107  21.044  1.00  0.00    -0.258 OA
ATOM     21  O   UNL A   1      27.009  29.930  23.023  1.00  0.00    -0.258 OA
ENDBRANCH  15  19
ENDBRANCH   8  10
ENDBRANCH   5   8
ENDBRANCH   3   5
ENDBRANCH   2   3
ENDBRANCH   1   2
BRANCH   1  22
ATOM     22  C   UNL A   1      32.812  30.515  26.852  1.00  0.00     0.275 C 
BRANCH  22  23
ATOM     23  O   UNL A   1      33.740  29.932  27.783  1.00  0.00    -0.458 OA
BRANCH  23  24
ATOM     24  C   UNL A   1      34.578  30.819  28.371  1.00  0.00     0.338 C 
ATOM     25  O   UNL A   1      34.273  31.880  28.888  1.00  0.00    -0.246 OA
BRANCH  24  26
ATOM     26  C   UNL A   1      35.930  30.243  28.471  1.00  0.00     0.060 A 
ATOM     27  C   UNL A   1      36.364  29.829  29.736  1.00  0.00     0.016 A 
ATOM     28  C   UNL A   1      36.776  30.162  27.365  1.00  0.00     0.016 A 
ATOM     29  C   UNL A   1      37.653  29.339  29.904  1.00  0.00     0.010 A 
ATOM     30  C   UNL A   1      38.079  29.688  27.538  1.00  0.00     0.010 A 
ATOM     31  C   UNL A   1      38.526  29.292  28.811  1.00  0.00    -0.014 A 
BRANCH  31  32
ATOM     32  C   UNL A   1      39.945  28.945  29.031  1.00  0.00     0.031 A 
ATOM     33  C   UNL A   1      40.866  29.989  29.590  1.00  0.00     0.074 A 
ATOM     34  C   UNL A   1      40.388  27.704  28.762  1.00  0.00     0.049 A 
ATOM     35  N   UNL A   1      42.156  29.933  29.789  1.00  0.00    -0.248 NA
ATOM     36  C   UNL A   1      40.249  31.267  29.980  1.00  0.00     0.031 C 
ATOM     37  C   UNL A   1      39.563  26.600  28.273  1.00  0.00     0.029 A 
ATOM     38  N   UNL A   1      41.647  27.168  28.858  1.00  0.00    -0.354 N 
ATOM     39  C   UNL A   1      42.510  31.170  30.314  1.00  0.00     0.074 A 
ATOM     40  C   UNL A   1      41.301  31.961  30.390  1.00  0.00     0.031 C 
ATOM     41  C   UNL A   1      40.342  25.520  28.093  1.00  0.00     0.029 A 
ATOM     42  C   UNL A   1      41.723  25.868  28.419  1.00  0.00     0.049 A 
ATOM     43  H   UNL A   1      42.421  27.665  29.207  1.00  0.00     0.167 HD
ATOM     44  C   UNL A   1      43.734  31.601  30.699  1.00  0.00     0.037 A 
ATOM     45  C   UNL A   1      42.795  25.065  28.268  1.00  0.00     0.037 A 
ATOM     46  C   UNL A   1      44.928  30.803  30.613  1.00  0.00     0.049 A 
ATOM     47  C   UNL A   1      44.155  25.589  28.643  1.00  0.00     0.074 A 
ATOM     48  C   UNL A   1      46.222  31.146  30.962  1.00  0.00     0.029 A 
ATOM     49  N   UNL A   1      44.971  29.497  30.145  1.00  0.00    -0.354 N 
ATOM     50  N   UNL A   1      44.483  26.766  29.123  1.00  0.00    -0.248 NA
ATOM     51  C   UNL A   1      45.294  24.679  28.454  1.00  0.00     0.031 C 
ATOM     52  C   UNL A   1      47.054  30.059  30.670  1.00  0.00     0.029 A 
ATOM     53  C   UNL A   1      46.272  29.025  30.181  1.00  0.00     0.049 A 
ATOM     54  H   UNL A   1      44.192  28.983  29.832  1.00  0.00     0.167 HD
ATOM     55  C   UNL A   1      45.860  26.733  29.310  1.00  0.00     0.074 A 
ATOM     56  C   UNL A   1      46.303  25.414  28.904  1.00  0.00     0.031 C 
ATOM     57  C   UNL A   1      46.685  27.704  29.776  1.00  0.00     0.037 A 
BRANCH  44  58
ATOM     58  C   UNL A   1      43.841  33.010  31.211  1.00  0.00     0.058 A 
ATOM     59  C   UNL A   1      43.940  34.106  30.341  1.00  0.00     0.135 A 
ATOM     60  C   UNL A   1      43.832  33.266  32.591  1.00  0.00     0.135 A 
ATOM     61  F   UNL A   1      43.977  33.914  29.013  1.00  0.00    -0.206 F 
ATOM     62  C   UNL A   1      44.052  35.407  30.822  1.00  0.00     0.059 A 
ATOM     63  C   UNL A   1      43.920  34.560  33.095  1.00  0.00     0.059 A 
ATOM     64  F   UNL A   1      43.745  32.252  33.467  1.00  0.00    -0.206 F 
ATOM     65  C   UNL A   1      44.045  35.624  32.201  1.00  0.00     0.060 A 
BRANCH  65  66
ATOM     66  S   UNL A   1      44.196  37.316  32.812  1.00  0.00     0.124 S 
ATOM     67  O   UNL A   1      44.299  38.067  31.564  1.00  0.00    -0.237 OA
ATOM     68  O   UNL A   1      42.955  37.494  33.558  1.00  0.00    -0.237 OA
ATOM     69  O   UNL A   1      45.410  37.277  33.621  1.00  0.00    -0.744 OA
ENDBRANCH  65  66
ENDBRANCH  44  58
BRANCH  45  70
ATOM     70  C   UNL A   1      42.625  23.698  27.711  1.00  0.00     0.058 A 
ATOM     71  C   UNL A   1      42.639  23.469  26.328  1.00  0.00     0.135 A 
ATOM     72  C   UNL A   1      42.456  22.589  28.556  1.00  0.00     0.135 A 
ATOM     73  F   UNL A   1      42.787  24.498  25.480  1.00  0.00    -0.206 F 
ATOM     74  C   UNL A   1      42.479  22.191  25.800  1.00  0.00     0.059 A 
ATOM     75  C   UNL A   1      42.318  21.300  28.052  1.00  0.00     0.059 A 
ATOM     76  F   UNL A   1      42.446  22.754  29.888  1.00  0.00    -0.206 F 
ATOM     77  C   UNL A   1      42.321  21.112  26.671  1.00  0.00     0.060 A 
BRANCH  77  78
ATOM     78  S   UNL A   1      42.165  19.451  25.980  1.00  0.00     0.124 S 
ATOM     79  O   UNL A   1      42.665  18.629  27.076  1.00  0.00    -0.237 OA
ATOM     80  O   UNL A   1      40.732  19.360  25.716  1.00  0.00    -0.237 OA
ATOM     81  O   UNL A   1      43.010  19.503  24.791  1.00  0.00    -0.744 OA
ENDBRANCH  77  78
ENDBRANCH  45  70
BRANCH  57  82
ATOM     82  C   UNL A   1      48.143  27.366  29.898  1.00  0.00     0.058 A 
ATOM     83  C   UNL A   1      49.061  27.694  28.889  1.00  0.00     0.135 A 
ATOM     84  C   UNL A   1      48.636  26.758  31.064  1.00  0.00     0.135 A 
ATOM     85  F   UNL A   1      48.638  28.271  27.752  1.00  0.00    -0.206 F 
ATOM     86  C   UNL A   1      50.416  27.412  29.022  1.00  0.00     0.059 A 
ATOM     87  C   UNL A   1      49.990  26.489  31.229  1.00  0.00     0.059 A 
ATOM     88  F   UNL A   1      47.798  26.436  32.063  1.00  0.00    -0.206 F 
ATOM     89  C   UNL A   1      50.871  26.811  30.197  1.00  0.00     0.060 A 
BRANCH  89  90
ATOM     90  S   UNL A   1      52.638  26.483  30.377  1.00  0.00     0.124 S 
ATOM     91  O   UNL A   1      53.119  27.754  30.909  1.00  0.00    -0.237 OA
ATOM     92  O   UNL A   1      52.655  25.358  31.308  1.00  0.00    -0.237 OA
ATOM     93  O   UNL A   1      53.064  26.168  29.017  1.00  0.00    -0.744 OA
ENDBRANCH  89  90
ENDBRANCH  57  82
ENDBRANCH  31  32
ENDBRANCH  24  26
ENDBRANCH  23  24
ENDBRANCH  22  23
ENDBRANCH   1  22
TORSDOF 19
ENDMDL
MODEL 2
REMARK VINA RESULT:     -10.2      3.843      9.922
REMARK SMILES CC[C@@H](Nc1ccc([N+](=O)[O-])c(N)n1)C(=O)OCCOC(=O)c1ccc(-c2c3nc(c(-c4c(F)cc(S(=O)(=O)[O-])cc4F)c4ccc([nH]4)c(-c4c(F)cc(S(=O)(=O)[O-])cc4F)c4nc(c(-c5c(F)cc(S(=O)(=O)[O-])cc5F)c5ccc2[nH]5)C=C4)C=C3)cc1
REMARK SMILES IDX 18 1 17 2 15 3 16 4 3 5 2 6 1 7 4 8 5 10 6 11 14 12 7 13
REMARK SMILES IDX 12 14 8 15 13 16 9 19 10 20 11 21 19 22 20 23 21 24 22 25
REMARK SMILES IDX 23 26 24 27 88 28 25 29 87 30 26 31 27 32 28 33 81 34 29 35
REMARK SMILES IDX 86 36 80 37 82 38 30 39 85 40 79 41 78 42 31 44 65 45 44 46
REMARK SMILES IDX 64 47 45 48 48 49 63 50 83 51 46 52 47 53 62 55 84 56 49 57
REMARK SMILES IDX 32 58 33 59 42 60 34 61 35 62 41 63 43 64 36 65 37 66 38 67
REMARK SMILES IDX 39 68 40 69 66 70 67 71 76 72 68 73 69 74 75 75 77 76 70 77
REMARK SMILES IDX 71 78 72 79 73 80 74 81 50 82 51 83 60 84 52 85 53 86 59 87
REMARK SMILES IDX 61 88 54 89 55 90 56 91 57 92 58 93
REMARK H PARENT 4 9 13 17 13 18 82 43 48 54
REMARK Flexibility Score: inf
ROOT
ATOM      1  C   UNL A   1      35.329  23.550  24.016  1.00  0.00     0.274 C 
ENDROOT
BRANCH   1   2
ATOM      2  O   UNL A   1      35.015  23.433  22.614  1.00  0.00    -0.461 OA
BRANCH   2   3
ATOM      3  C   UNL A   1      33.695  23.274  22.307  1.00  0.00     0.328 C 
ATOM      4  O   UNL A   1      33.216  23.511  21.202  1.00  0.00    -0.250 OA
BRANCH   3   5
ATOM      5  C   UNL A   1      32.839  22.893  23.517  1.00  0.00     0.191 C 
BRANCH   5   6
ATOM      6  C   UNL A   1      31.908  24.045  23.944  1.00  0.00     0.033 C 
ATOM      7  C   UNL A   1      30.516  23.941  23.332  1.00  0.00     0.007 C 
ENDBRANCH   5   6
BRANCH   5   8
ATOM      8  N   UNL A   1      32.060  21.657  23.382  1.00  0.00    -0.357 N 
ATOM      9  H   UNL A   1      31.133  21.810  23.086  1.00  0.00     0.162 HD
BRANCH   8  10
ATOM     10  C   UNL A   1      32.348  20.342  23.580  1.00  0.00     0.129 A 
ATOM     11  C   UNL A   1      32.396  19.355  22.610  1.00  0.00     0.054 A 
ATOM     12  N   UNL A   1      32.539  20.027  24.882  1.00  0.00    -0.208 NA
ATOM     13  C   UNL A   1      32.616  18.029  22.969  1.00  0.00     0.093 A 
ATOM     14  C   UNL A   1      32.782  18.744  25.248  1.00  0.00     0.204 A 
ATOM     15  C   UNL A   1      32.796  17.722  24.311  1.00  0.00     0.311 A 
BRANCH  14  16
ATOM     16  N   UNL A   1      32.909  18.562  26.612  1.00  0.00    -0.378 N 
ATOM     17  H   UNL A   1      32.262  18.978  27.227  1.00  0.00     0.158 HD
ATOM     18  H   UNL A   1      33.646  18.016  26.969  1.00  0.00     0.158 HD
ENDBRANCH  14  16
BRANCH  15  19
ATOM     19  N   UNL A   1      32.976  16.335  24.695  1.00  0.00     0.066 N 
ATOM     20  O   UNL A   1      33.896  15.691  24.168  1.00  0.00    -0.258 OA
ATOM     21  O   UNL A   1      32.174  15.865  25.520  1.00  0.00    -0.258 OA
ENDBRANCH  15  19
ENDBRANCH   8  10
ENDBRANCH   5   8
ENDBRANCH   3   5
ENDBRANCH   2   3
ENDBRANCH   1   2
BRANCH   1  22
ATOM     22  C   UNL A   1      36.807  23.302  24.326  1.00  0.00     0.275 C 
BRANCH  22  23
ATOM     23  O   UNL A   1      37.164  23.768  25.639  1.00  0.00    -0.458 OA
BRANCH  23  24
ATOM     24  C   UNL A   1      38.362  23.323  26.087  1.00  0.00     0.338 C 
ATOM     25  O   UNL A   1      38.892  22.259  25.819  1.00  0.00    -0.246 OA
BRANCH  24  26
ATOM     26  C   UNL A   1      39.052  24.394  26.825  1.00  0.00     0.060 A 
ATOM     27  C   UNL A   1      38.733  24.556  28.179  1.00  0.00     0.016 A 
ATOM     28  C   UNL A   1      39.949  25.258  26.195  1.00  0.00     0.016 A 
ATOM     29  C   UNL A   1      39.303  25.590  28.910  1.00  0.00     0.010 A 
ATOM     30  C   UNL A   1      40.506  26.310  26.926  1.00  0.00     0.010 A 
ATOM     31  C   UNL A   1      40.171  26.490  28.280  1.00  0.00    -0.014 A 
BRANCH  31  32
ATOM     32  C   UNL A   1      40.628  27.689  29.012  1.00  0.00     0.031 A 
ATOM     33  C   UNL A   1      42.002  27.688  29.614  1.00  0.00     0.074 A 
ATOM     34  C   UNL A   1      39.833  28.770  29.105  1.00  0.00     0.049 A 
ATOM     35  N   UNL A   1      42.578  28.591  30.362  1.00  0.00    -0.248 NA
ATOM     36  C   UNL A   1      42.840  26.511  29.334  1.00  0.00     0.031 C 
ATOM     37  C   UNL A   1      38.505  28.895  28.505  1.00  0.00     0.029 A 
ATOM     38  N   UNL A   1      40.027  29.966  29.748  1.00  0.00    -0.354 N 
ATOM     39  C   UNL A   1      43.841  28.088  30.654  1.00  0.00     0.074 A 
ATOM     40  C   UNL A   1      43.941  26.795  30.014  1.00  0.00     0.031 C 
ATOM     41  C   UNL A   1      37.995  30.098  28.824  1.00  0.00     0.029 A 
ATOM     42  C   UNL A   1      38.944  30.807  29.679  1.00  0.00     0.049 A 
ATOM     43  H   UNL A   1      40.863  30.199  30.213  1.00  0.00     0.167 HD
ATOM     44  C   UNL A   1      44.824  28.659  31.387  1.00  0.00     0.037 A 
ATOM     45  C   UNL A   1      38.734  32.001  30.268  1.00  0.00     0.037 A 
ATOM     46  C   UNL A   1      44.707  29.946  32.020  1.00  0.00     0.049 A 
ATOM     47  C   UNL A   1      39.819  32.587  31.132  1.00  0.00     0.074 A 
ATOM     48  C   UNL A   1      45.636  30.612  32.798  1.00  0.00     0.029 A 
ATOM     49  N   UNL A   1      43.587  30.762  31.945  1.00  0.00    -0.354 N 
ATOM     50  N   UNL A   1      41.003  32.097  31.416  1.00  0.00    -0.248 NA
ATOM     51  C   UNL A   1      39.540  33.887  31.759  1.00  0.00     0.031 C 
ATOM     52  C   UNL A   1      45.065  31.817  33.224  1.00  0.00     0.029 A 
ATOM     53  C   UNL A   1      43.796  31.919  32.676  1.00  0.00     0.049 A 
ATOM     54  H   UNL A   1      42.765  30.549  31.448  1.00  0.00     0.167 HD
ATOM     55  C   UNL A   1      41.617  33.034  32.239  1.00  0.00     0.074 A 
ATOM     56  C   UNL A   1      40.679  34.127  32.396  1.00  0.00     0.031 C 
ATOM     57  C   UNL A   1      42.846  32.995  32.812  1.00  0.00     0.037 A 
BRANCH  44  58
ATOM     58  C   UNL A   1      46.094  27.876  31.569  1.00  0.00     0.058 A 
ATOM     59  C   UNL A   1      46.268  26.992  32.644  1.00  0.00     0.135 A 
ATOM     60  C   UNL A   1      47.146  28.005  30.649  1.00  0.00     0.135 A 
ATOM     61  F   UNL A   1      45.302  26.849  33.566  1.00  0.00    -0.206 F 
ATOM     62  C   UNL A   1      47.451  26.280  32.815  1.00  0.00     0.059 A 
ATOM     63  C   UNL A   1      48.329  27.286  30.787  1.00  0.00     0.059 A 
ATOM     64  F   UNL A   1      47.033  28.842  29.606  1.00  0.00    -0.206 F 
ATOM     65  C   UNL A   1      48.478  26.436  31.882  1.00  0.00     0.060 A 
BRANCH  65  66
ATOM     66  S   UNL A   1      50.009  25.511  32.119  1.00  0.00     0.124 S 
ATOM     67  O   UNL A   1      50.321  25.108  30.750  1.00  0.00    -0.237 OA
ATOM     68  O   UNL A   1      50.896  26.513  32.701  1.00  0.00    -0.237 OA
ATOM     69  O   UNL A   1      49.617  24.429  33.016  1.00  0.00    -0.744 OA
ENDBRANCH  65  66
ENDBRANCH  44  58
BRANCH  45  70
ATOM     70  C   UNL A   1      37.436  32.701  30.084  1.00  0.00     0.058 A 
ATOM     71  C   UNL A   1      37.280  33.703  29.116  1.00  0.00     0.135 A 
ATOM     72  C   UNL A   1      36.320  32.373  30.871  1.00  0.00     0.135 A 
ATOM     73  F   UNL A   1      38.320  34.058  28.347  1.00  0.00    -0.206 F 
ATOM     74  C   UNL A   1      36.068  34.363  28.940  1.00  0.00     0.059 A 
ATOM     75  C   UNL A   1      35.092  33.002  30.698  1.00  0.00     0.059 A 
ATOM     76  F   UNL A   1      36.415  31.413  31.806  1.00  0.00    -0.206 F 
ATOM     77  C   UNL A   1      34.978  34.004  29.736  1.00  0.00     0.060 A 
BRANCH  77  78
ATOM     78  S   UNL A   1      33.395  34.830  29.468  1.00  0.00     0.124 S 
ATOM     79  O   UNL A   1      32.698  33.864  28.626  1.00  0.00    -0.237 OA
ATOM     80  O   UNL A   1      32.888  34.974  30.829  1.00  0.00    -0.237 OA
ATOM     81  O   UNL A   1      33.776  36.079  28.815  1.00  0.00    -0.744 OA
ENDBRANCH  77  78
ENDBRANCH  45  70
BRANCH  57  82
ATOM     82  C   UNL A   1      43.256  34.181  33.638  1.00  0.00     0.058 A 
ATOM     83  C   UNL A   1      43.886  35.295  33.063  1.00  0.00     0.135 A 
ATOM     84  C   UNL A   1      42.963  34.225  35.011  1.00  0.00     0.135 A 
ATOM     85  F   UNL A   1      44.192  35.299  31.756  1.00  0.00    -0.206 F 
ATOM     86  C   UNL A   1      44.230  36.406  33.826  1.00  0.00     0.059 A 
ATOM     87  C   UNL A   1      43.277  35.335  35.787  1.00  0.00     0.059 A 
ATOM     88  F   UNL A   1      42.351  33.188  35.605  1.00  0.00    -0.206 F 
ATOM     89  C   UNL A   1      43.920  36.417  35.187  1.00  0.00     0.060 A 
BRANCH  89  90
ATOM     90  S   UNL A   1      44.338  37.879  36.161  1.00  0.00     0.124 S 
ATOM     91  O   UNL A   1      45.772  37.699  36.359  1.00  0.00    -0.237 OA
ATOM     92  O   UNL A   1      43.953  38.970  35.270  1.00  0.00    -0.237 OA
ATOM     93  O   UNL A   1      43.514  37.736  37.357  1.00  0.00    -0.744 OA
ENDBRANCH  89  90
ENDBRANCH  57  82
ENDBRANCH  31  32
ENDBRANCH  24  26
ENDBRANCH  23  24
ENDBRANCH  22  23
ENDBRANCH   1  22
TORSDOF 19
ENDMDL
MODEL 3
REMARK VINA RESULT:     -10.1      1.212      2.030
REMARK SMILES CC[C@@H](Nc1ccc([N+](=O)[O-])c(N)n1)C(=O)OCCOC(=O)c1ccc(-c2c3nc(c(-c4c(F)cc(S(=O)(=O)[O-])cc4F)c4ccc([nH]4)c(-c4c(F)cc(S(=O)(=O)[O-])cc4F)c4nc(c(-c5c(F)cc(S(=O)(=O)[O-])cc5F)c5ccc2[nH]5)C=C4)C=C3)cc1
REMARK SMILES IDX 18 1 17 2 15 3 16 4 3 5 2 6 1 7 4 8 5 10 6 11 14 12 7 13
REMARK SMILES IDX 12 14 8 15 13 16 9 19 10 20 11 21 19 22 20 23 21 24 22 25
REMARK SMILES IDX 23 26 24 27 88 28 25 29 87 30 26 31 27 32 28 33 81 34 29 35
REMARK SMILES IDX 86 36 80 37 82 38 30 39 85 40 79 41 78 42 31 44 65 45 44 46
REMARK SMILES IDX 64 47 45 48 48 49 63 50 83 51 46 52 47 53 62 55 84 56 49 57
REMARK SMILES IDX 32 58 33 59 42 60 34 61 35 62 41 63 43 64 36 65 37 66 38 67
REMARK SMILES IDX 39 68 40 69 66 70 67 71 76 72 68 73 69 74 75 75 77 76 70 77
REMARK SMILES IDX 71 78 72 79 73 80 74 81 50 82 51 83 60 84 52 85 53 86 59 87
REMARK SMILES IDX 61 88 54 89 55 90 56 91 57 92 58 93
REMARK H PARENT 4 9 13 17 13 18 82 43 48 54
REMARK Flexibility Score: inf
ROOT
ATOM      1  C   UNL A   1      32.413  27.573  26.012  1.00  0.00     0.274 C 
ENDROOT
BRANCH   1   2
ATOM      2  O   UNL A   1      30.987  27.373  25.943  1.00  0.00    -0.461 OA
BRANCH   2   3
ATOM      3  C   UNL A   1      30.573  26.096  25.692  1.00  0.00     0.328 C 
ATOM      4  O   UNL A   1      30.420  25.244  26.562  1.00  0.00    -0.250 OA
BRANCH   3   5
ATOM      5  C   UNL A   1      30.443  25.790  24.199  1.00  0.00     0.191 C 
BRANCH   5   6
ATOM      6  C   UNL A   1      30.516  24.276  23.917  1.00  0.00     0.033 C 
ATOM      7  C   UNL A   1      31.727  23.886  23.077  1.00  0.00     0.007 C 
ENDBRANCH   5   6
BRANCH   5   8
ATOM      8  N   UNL A   1      29.264  26.356  23.533  1.00  0.00    -0.357 N 
ATOM      9  H   UNL A   1      28.612  25.676  23.248  1.00  0.00     0.162 HD
BRANCH   8  10
ATOM     10  C   UNL A   1      28.882  27.626  23.226  1.00  0.00     0.129 A 
ATOM     11  C   UNL A   1      27.644  28.194  23.473  1.00  0.00     0.054 A 
ATOM     12  N   UNL A   1      29.832  28.324  22.564  1.00  0.00    -0.208 NA
ATOM     13  C   UNL A   1      27.360  29.480  23.022  1.00  0.00     0.093 A 
ATOM     14  C   UNL A   1      29.584  29.588  22.140  1.00  0.00     0.204 A 
ATOM     15  C   UNL A   1      28.343  30.177  22.332  1.00  0.00     0.311 A 
BRANCH  14  16
ATOM     16  N   UNL A   1      30.626  30.163  21.437  1.00  0.00    -0.378 N 
ATOM     17  H   UNL A   1      30.759  29.942  20.487  1.00  0.00     0.158 HD
ATOM     18  H   UNL A   1      31.235  30.791  21.887  1.00  0.00     0.158 HD
ENDBRANCH  14  16
BRANCH  15  19
ATOM     19  N   UNL A   1      28.035  31.497  21.817  1.00  0.00     0.066 N 
ATOM     20  O   UNL A   1      28.036  31.666  20.587  1.00  0.00    -0.258 OA
ATOM     21  O   UNL A   1      27.811  32.393  22.647  1.00  0.00    -0.258 OA
ENDBRANCH  15  19
ENDBRANCH   8  10
ENDBRANCH   5   8
ENDBRANCH   3   5
ENDBRANCH   2   3
ENDBRANCH   1   2
BRANCH   1  22
ATOM     22  C   UNL A   1      32.818  28.683  26.985  1.00  0.00     0.275 C 
BRANCH  22  23
ATOM     23  O   UNL A   1      34.239  28.903  26.984  1.00  0.00    -0.458 OA
BRANCH  23  24
ATOM     24  C   UNL A   1      34.634  30.033  27.617  1.00  0.00     0.338 C 
ATOM     25  O   UNL A   1      33.940  31.000  27.886  1.00  0.00    -0.246 OA
BRANCH  24  26
ATOM     26  C   UNL A   1      36.010  29.876  28.116  1.00  0.00     0.060 A 
ATOM     27  C   UNL A   1      37.055  30.098  27.212  1.00  0.00     0.016 A 
ATOM     28  C   UNL A   1      36.273  29.465  29.424  1.00  0.00     0.016 A 
ATOM     29  C   UNL A   1      38.372  29.901  27.607  1.00  0.00     0.010 A 
ATOM     30  C   UNL A   1      37.597  29.248  29.815  1.00  0.00     0.010 A 
ATOM     31  C   UNL A   1      38.647  29.448  28.903  1.00  0.00    -0.014 A 
BRANCH  31  32
ATOM     32  C   UNL A   1      40.030  29.066  29.258  1.00  0.00     0.031 A 
ATOM     33  C   UNL A   1      40.893  30.062  29.975  1.00  0.00     0.074 A 
ATOM     34  C   UNL A   1      40.490  27.836  28.969  1.00  0.00     0.049 A 
ATOM     35  N   UNL A   1      42.152  29.976  30.312  1.00  0.00    -0.248 NA
ATOM     36  C   UNL A   1      40.248  31.326  30.368  1.00  0.00     0.031 C 
ATOM     37  C   UNL A   1      39.714  26.775  28.327  1.00  0.00     0.029 A 
ATOM     38  N   UNL A   1      41.725  27.276  29.171  1.00  0.00    -0.354 N 
ATOM     39  C   UNL A   1      42.456  31.175  30.944  1.00  0.00     0.074 A 
ATOM     40  C   UNL A   1      41.254  31.979  30.931  1.00  0.00     0.031 C 
ATOM     41  C   UNL A   1      40.499  25.694  28.172  1.00  0.00     0.029 A 
ATOM     42  C   UNL A   1      41.837  26.002  28.669  1.00  0.00     0.049 A 
ATOM     43  H   UNL A   1      42.459  27.741  29.633  1.00  0.00     0.167 HD
ATOM     44  C   UNL A   1      43.633  31.565  31.487  1.00  0.00     0.037 A 
ATOM     45  C   UNL A   1      42.912  25.193  28.592  1.00  0.00     0.037 A 
ATOM     46  C   UNL A   1      44.822  30.754  31.488  1.00  0.00     0.049 A 
ATOM     47  C   UNL A   1      44.227  25.674  29.145  1.00  0.00     0.074 A 
ATOM     48  C   UNL A   1      46.072  31.057  31.997  1.00  0.00     0.029 A 
ATOM     49  N   UNL A   1      44.905  29.477  30.952  1.00  0.00    -0.354 N 
ATOM     50  N   UNL A   1      44.509  26.816  29.726  1.00  0.00    -0.248 NA
ATOM     51  C   UNL A   1      45.372  24.758  29.031  1.00  0.00     0.031 C 
ATOM     52  C   UNL A   1      46.922  29.976  31.737  1.00  0.00     0.029 A 
ATOM     53  C   UNL A   1      46.190  28.983  31.105  1.00  0.00     0.049 A 
ATOM     54  H   UNL A   1      44.162  28.993  30.526  1.00  0.00     0.167 HD
ATOM     55  C   UNL A   1      45.857  26.751  30.062  1.00  0.00     0.074 A 
ATOM     56  C   UNL A   1      46.330  25.450  29.632  1.00  0.00     0.031 C 
ATOM     57  C   UNL A   1      46.633  27.681  30.672  1.00  0.00     0.037 A 
BRANCH  44  58
ATOM     58  C   UNL A   1      43.695  32.940  32.088  1.00  0.00     0.058 A 
ATOM     59  C   UNL A   1      43.992  34.072  31.315  1.00  0.00     0.135 A 
ATOM     60  C   UNL A   1      43.442  33.129  33.456  1.00  0.00     0.135 A 
ATOM     61  F   UNL A   1      44.264  33.944  30.006  1.00  0.00    -0.206 F 
ATOM     62  C   UNL A   1      44.061  35.342  31.880  1.00  0.00     0.059 A 
ATOM     63  C   UNL A   1      43.483  34.392  34.040  1.00  0.00     0.059 A 
ATOM     64  F   UNL A   1      43.160  32.078  34.243  1.00  0.00    -0.206 F 
ATOM     65  C   UNL A   1      43.808  35.491  33.246  1.00  0.00     0.060 A 
BRANCH  65  66
ATOM     66  S   UNL A   1      43.906  37.142  33.968  1.00  0.00     0.124 S 
ATOM     67  O   UNL A   1      44.555  37.891  32.895  1.00  0.00    -0.237 OA
ATOM     68  O   UNL A   1      42.503  37.465  34.206  1.00  0.00    -0.237 OA
ATOM     69  O   UNL A   1      44.712  36.940  35.168  1.00  0.00    -0.744 OA
ENDBRANCH  65  66
ENDBRANCH  44  58
BRANCH  45  70
ATOM     70  C   UNL A   1      42.793  23.862  27.941  1.00  0.00     0.058 A 
ATOM     71  C   UNL A   1      42.572  22.700  28.694  1.00  0.00     0.135 A 
ATOM     72  C   UNL A   1      42.889  23.729  26.546  1.00  0.00     0.135 A 
ATOM     73  F   UNL A   1      42.484  22.775  30.030  1.00  0.00    -0.206 F 
ATOM     74  C   UNL A   1      42.462  21.451  28.090  1.00  0.00     0.059 A 
ATOM     75  C   UNL A   1      42.759  22.494  25.919  1.00  0.00     0.059 A 
ATOM     76  F   UNL A   1      43.090  24.812  25.779  1.00  0.00    -0.206 F 
ATOM     77  C   UNL A   1      42.555  21.359  26.701  1.00  0.00     0.060 A 
BRANCH  77  78
ATOM     78  S   UNL A   1      42.360  19.742  25.920  1.00  0.00     0.124 S 
ATOM     79  O   UNL A   1      42.667  18.843  27.028  1.00  0.00    -0.237 OA
ATOM     80  O   UNL A   1      40.966  19.773  25.490  1.00  0.00    -0.237 OA
ATOM     81  O   UNL A   1      43.341  19.772  24.840  1.00  0.00    -0.744 OA
ENDBRANCH  77  78
ENDBRANCH  45  70
BRANCH  57  82
ATOM     82  C   UNL A   1      48.066  27.315  30.935  1.00  0.00     0.058 A 
ATOM     83  C   UNL A   1      48.467  26.744  32.152  1.00  0.00     0.135 A 
ATOM     84  C   UNL A   1      49.038  27.486  29.935  1.00  0.00     0.135 A 
ATOM     85  F   UNL A   1      47.576  26.566  33.141  1.00  0.00    -0.206 F 
ATOM     86  C   UNL A   1      49.788  26.372  32.377  1.00  0.00     0.059 A 
ATOM     87  C   UNL A   1      50.359  27.099  30.131  1.00  0.00     0.059 A 
ATOM     88  F   UNL A   1      48.701  28.018  28.750  1.00  0.00    -0.206 F 
ATOM     89  C   UNL A   1      50.727  26.553  31.360  1.00  0.00     0.060 A 
BRANCH  89  90
ATOM     90  S   UNL A   1      52.432  26.032  31.648  1.00  0.00     0.124 S 
ATOM     91  O   UNL A   1      52.257  24.619  31.968  1.00  0.00    -0.237 OA
ATOM     92  O   UNL A   1      53.068  26.318  30.366  1.00  0.00    -0.237 OA
ATOM     93  O   UNL A   1      52.861  26.881  32.756  1.00  0.00    -0.744 OA
ENDBRANCH  89  90
ENDBRANCH  57  82
ENDBRANCH  31  32
ENDBRANCH  24  26
ENDBRANCH  23  24
ENDBRANCH  22  23
ENDBRANCH   1  22
TORSDOF 19
ENDMDL
