MODEL 1
REMARK VINA RESULT:     -12.0      0.000      0.000
REMARK SMILES CCn1c(C(=O)OCCOC(=O)c2ccc(-c3c4nc(c(-c5c(F)cc(S(=O)(=O)[O-])cc5F)c5ccc([nH]5)c(-c5c(F)cc(S(=O)(=O)[O-])cc5F)c5nc(c(-c6c(F)cc(S(=O)(=O)[O-])cc6F)c6ccc3[nH]6)C=C5)C=C4)cc2)c(C[NH2+]Cc2ccccc2Cl)c2ccc(C)cc21
REMARK SMILES IDX 8 1 7 2 5 3 6 4 4 5 3 6 96 7 79 8 90 9 95 10 91 11 93 12
REMARK SMILES IDX 92 13 94 14 2 15 1 16 80 17 81 18 82 21 83 22 84 23 88 24
REMARK SMILES IDX 85 25 87 26 89 27 86 28 9 29 10 30 11 31 12 32 13 33 14 34
REMARK SMILES IDX 78 35 15 36 77 37 16 38 17 39 18 40 71 41 19 42 76 43 70 44
REMARK SMILES IDX 72 45 20 46 75 47 69 48 68 49 21 51 55 52 34 53 54 54 35 55
REMARK SMILES IDX 38 56 53 57 73 58 36 59 37 60 52 62 74 63 39 64 22 65 23 66
REMARK SMILES IDX 32 67 24 68 25 69 31 70 33 71 26 72 27 73 28 74 29 75 30 76
REMARK SMILES IDX 56 77 57 78 66 79 58 80 59 81 65 82 67 83 60 84 61 85 62 86
REMARK SMILES IDX 63 87 64 88 40 89 41 90 50 91 42 92 43 93 49 94 51 95 44 96
REMARK SMILES IDX 45 97 46 98 47 99 48 100
REMARK H PARENT 81 19 81 20 72 50 38 61
REMARK Flexibility Score: inf
ROOT
ATOM      1  C   UNL A   1      33.949  29.711  26.818  1.00  0.00     0.275 C 
ENDROOT
BRANCH   1   2
ATOM      2  O   UNL A   1      32.955  28.689  27.109  1.00  0.00    -0.457 OA
BRANCH   2   3
ATOM      3  C   UNL A   1      32.968  27.662  26.198  1.00  0.00     0.355 C 
ATOM      4  O   UNL A   1      33.790  26.763  26.223  1.00  0.00    -0.244 OA
BRANCH   3   5
ATOM      5  C   UNL A   1      32.055  27.846  25.072  1.00  0.00     0.137 A 
ATOM      6  N   UNL A   1      32.048  28.568  23.896  1.00  0.00    -0.335 N 
ATOM      7  C   UNL A   1      30.721  28.797  23.530  1.00  0.00     0.049 A 
ATOM      8  C   UNL A   1      30.785  27.277  25.175  1.00  0.00     0.047 A 
ATOM      9  C   UNL A   1      29.942  27.857  24.190  1.00  0.00     0.009 A 
ATOM     10  C   UNL A   1      30.185  29.700  22.598  1.00  0.00     0.030 A 
ATOM     11  C   UNL A   1      28.597  27.715  23.797  1.00  0.00     0.011 A 
ATOM     12  C   UNL A   1      28.858  29.539  22.197  1.00  0.00    -0.049 A 
ATOM     13  C   UNL A   1      28.080  28.539  22.782  1.00  0.00     0.004 A 
ATOM     14  C   UNL A   1      28.327  30.439  21.121  1.00  0.00     0.044 C 
BRANCH   6  15
ATOM     15  C   UNL A   1      33.084  29.088  23.017  1.00  0.00     0.119 C 
ATOM     16  C   UNL A   1      33.865  28.159  22.118  1.00  0.00     0.027 C 
ENDBRANCH   6  15
BRANCH   8  17
ATOM     17  C   UNL A   1      30.495  26.217  26.190  1.00  0.00     0.300 C 
BRANCH  17  18
ATOM     18  N   UNL A   1      30.326  25.003  25.373  1.00  0.00    -0.339 N 
ATOM     19  H   UNL A   1      30.309  25.283  24.392  1.00  0.00     0.346 HD
ATOM     20  H   UNL A   1      29.459  24.569  25.688  1.00  0.00     0.346 HD
BRANCH  18  21
ATOM     21  C   UNL A   1      31.361  24.002  25.536  1.00  0.00     0.299 C 
BRANCH  21  22
ATOM     22  C   UNL A   1      32.132  23.676  24.278  1.00  0.00     0.025 A 
ATOM     23  C   UNL A   1      32.611  24.689  23.421  1.00  0.00     0.011 A 
ATOM     24  C   UNL A   1      32.318  22.344  23.890  1.00  0.00     0.049 A 
ATOM     25  C   UNL A   1      33.048  24.393  22.135  1.00  0.00     0.001 A 
ATOM     26  C   UNL A   1      32.806  22.046  22.618  1.00  0.00     0.021 A 
ATOM     27  Cl  UNL A   1      31.953  21.026  24.949  1.00  0.00    -0.084 Cl
ATOM     28  C   UNL A   1      33.122  23.069  21.725  1.00  0.00     0.002 A 
ENDBRANCH  21  22
ENDBRANCH  18  21
ENDBRANCH  17  18
ENDBRANCH   8  17
ENDBRANCH   3   5
ENDBRANCH   2   3
ENDBRANCH   1   2
BRANCH   1  29
ATOM     29  C   UNL A   1      33.675  31.006  27.600  1.00  0.00     0.275 C 
BRANCH  29  30
ATOM     30  O   UNL A   1      34.863  31.827  27.640  1.00  0.00    -0.458 OA
BRANCH  30  31
ATOM     31  C   UNL A   1      35.296  32.248  28.857  1.00  0.00     0.338 C 
ATOM     32  O   UNL A   1      34.604  32.634  29.787  1.00  0.00    -0.246 OA
BRANCH  31  33
ATOM     33  C   UNL A   1      36.709  31.824  28.980  1.00  0.00     0.060 A 
ATOM     34  C   UNL A   1      37.623  32.028  29.999  1.00  0.00     0.016 A 
ATOM     35  C   UNL A   1      37.074  30.911  28.027  1.00  0.00     0.016 A 
ATOM     36  C   UNL A   1      38.820  31.257  29.984  1.00  0.00     0.010 A 
ATOM     37  C   UNL A   1      37.840  29.851  28.401  1.00  0.00     0.010 A 
ATOM     38  C   UNL A   1      38.930  30.115  29.156  1.00  0.00    -0.014 A 
BRANCH  38  39
ATOM     39  C   UNL A   1      39.854  28.975  29.275  1.00  0.00     0.031 A 
ATOM     40  C   UNL A   1      40.146  28.622  30.667  1.00  0.00     0.074 A 
ATOM     41  C   UNL A   1      40.368  28.156  28.317  1.00  0.00     0.049 A 
ATOM     42  N   UNL A   1      40.900  29.329  31.429  1.00  0.00    -0.248 NA
ATOM     43  C   UNL A   1      39.401  27.574  31.365  1.00  0.00     0.031 C 
ATOM     44  C   UNL A   1      40.051  27.989  26.892  1.00  0.00     0.029 A 
ATOM     45  N   UNL A   1      41.415  27.279  28.478  1.00  0.00    -0.354 N 
ATOM     46  C   UNL A   1      40.974  28.653  32.623  1.00  0.00     0.074 A 
ATOM     47  C   UNL A   1      39.856  27.743  32.613  1.00  0.00     0.031 C 
ATOM     48  C   UNL A   1      40.809  27.000  26.350  1.00  0.00     0.029 A 
ATOM     49  C   UNL A   1      41.797  26.585  27.330  1.00  0.00     0.049 A 
ATOM     50  H   UNL A   1      41.864  27.150  29.345  1.00  0.00     0.167 HD
ATOM     51  C   UNL A   1      42.105  28.763  33.372  1.00  0.00     0.037 A 
ATOM     52  C   UNL A   1      42.935  25.858  27.140  1.00  0.00     0.037 A 
ATOM     53  C   UNL A   1      43.006  29.746  32.783  1.00  0.00     0.049 A 
ATOM     54  C   UNL A   1      43.947  26.421  28.075  1.00  0.00     0.074 A 
ATOM     55  C   UNL A   1      42.897  31.089  32.464  1.00  0.00     0.029 A 
ATOM     56  N   UNL A   1      44.041  29.272  32.001  1.00  0.00    -0.354 N 
ATOM     57  N   UNL A   1      44.450  27.619  27.961  1.00  0.00    -0.248 NA
ATOM     58  C   UNL A   1      44.051  25.825  29.396  1.00  0.00     0.031 C 
ATOM     59  C   UNL A   1      43.510  31.221  31.179  1.00  0.00     0.029 A 
ATOM     60  C   UNL A   1      44.045  29.982  30.822  1.00  0.00     0.049 A 
ATOM     61  H   UNL A   1      44.666  28.551  32.245  1.00  0.00     0.167 HD
ATOM     62  C   UNL A   1      44.519  28.100  29.261  1.00  0.00     0.074 A 
ATOM     63  C   UNL A   1      44.344  26.918  30.106  1.00  0.00     0.031 C 
ATOM     64  C   UNL A   1      44.442  29.437  29.534  1.00  0.00     0.037 A 
BRANCH  51  65
ATOM     65  C   UNL A   1      42.573  27.777  34.400  1.00  0.00     0.058 A 
ATOM     66  C   UNL A   1      42.561  28.171  35.753  1.00  0.00     0.135 A 
ATOM     67  C   UNL A   1      43.245  26.569  34.118  1.00  0.00     0.135 A 
ATOM     68  F   UNL A   1      41.931  29.294  36.136  1.00  0.00    -0.206 F 
ATOM     69  C   UNL A   1      43.246  27.470  36.740  1.00  0.00     0.059 A 
ATOM     70  C   UNL A   1      43.892  25.824  35.097  1.00  0.00     0.059 A 
ATOM     71  F   UNL A   1      43.387  26.096  32.877  1.00  0.00    -0.206 F 
ATOM     72  C   UNL A   1      43.925  26.307  36.396  1.00  0.00     0.060 A 
BRANCH  72  73
ATOM     73  S   UNL A   1      44.904  25.468  37.651  1.00  0.00     0.124 S 
ATOM     74  O   UNL A   1      44.173  25.812  38.864  1.00  0.00    -0.237 OA
ATOM     75  O   UNL A   1      44.813  24.077  37.218  1.00  0.00    -0.237 OA
ATOM     76  O   UNL A   1      46.222  26.079  37.511  1.00  0.00    -0.744 OA
ENDBRANCH  72  73
ENDBRANCH  51  65
BRANCH  52  77
ATOM     77  C   UNL A   1      43.167  24.582  26.403  1.00  0.00     0.058 A 
ATOM     78  C   UNL A   1      44.063  24.499  25.316  1.00  0.00     0.135 A 
ATOM     79  C   UNL A   1      42.761  23.353  26.955  1.00  0.00     0.135 A 
ATOM     80  F   UNL A   1      44.524  25.617  24.733  1.00  0.00    -0.206 F 
ATOM     81  C   UNL A   1      44.569  23.279  24.844  1.00  0.00     0.059 A 
ATOM     82  C   UNL A   1      43.253  22.123  26.501  1.00  0.00     0.059 A 
ATOM     83  F   UNL A   1      41.945  23.320  28.018  1.00  0.00    -0.206 F 
ATOM     84  C   UNL A   1      44.177  22.094  25.462  1.00  0.00     0.060 A 
BRANCH  84  85
ATOM     85  S   UNL A   1      44.961  20.532  24.977  1.00  0.00     0.124 S 
ATOM     86  O   UNL A   1      46.339  20.733  25.407  1.00  0.00    -0.237 OA
ATOM     87  O   UNL A   1      44.194  19.550  25.736  1.00  0.00    -0.237 OA
ATOM     88  O   UNL A   1      44.761  20.486  23.530  1.00  0.00    -0.744 OA
ENDBRANCH  84  85
ENDBRANCH  52  77
BRANCH  64  89
ATOM     89  C   UNL A   1      44.566  30.418  28.384  1.00  0.00     0.058 A 
ATOM     90  C   UNL A   1      43.536  30.727  27.476  1.00  0.00     0.135 A 
ATOM     91  C   UNL A   1      45.733  31.194  28.290  1.00  0.00     0.135 A 
ATOM     92  F   UNL A   1      42.356  30.100  27.534  1.00  0.00    -0.206 F 
ATOM     93  C   UNL A   1      43.663  31.735  26.515  1.00  0.00     0.059 A 
ATOM     94  C   UNL A   1      45.873  32.224  27.360  1.00  0.00     0.059 A 
ATOM     95  F   UNL A   1      46.745  30.989  29.150  1.00  0.00    -0.206 F 
ATOM     96  C   UNL A   1      44.836  32.486  26.469  1.00  0.00     0.060 A 
BRANCH  96  97
ATOM     97  S   UNL A   1      44.966  33.844  25.284  1.00  0.00     0.124 S 
ATOM     98  O   UNL A   1      44.079  34.847  25.861  1.00  0.00    -0.237 OA
ATOM     99  O   UNL A   1      46.392  34.162  25.320  1.00  0.00    -0.237 OA
ATOM    100  O   UNL A   1      44.502  33.250  24.032  1.00  0.00    -0.744 OA
ENDBRANCH  96  97
ENDBRANCH  64  89
ENDBRANCH  38  39
ENDBRANCH  31  33
ENDBRANCH  30  31
ENDBRANCH  29  30
ENDBRANCH   1  29
TORSDOF 19
ENDMDL
MODEL 2
REMARK VINA RESULT:     -12.0      1.294      3.069
REMARK SMILES CCn1c(C(=O)OCCOC(=O)c2ccc(-c3c4nc(c(-c5c(F)cc(S(=O)(=O)[O-])cc5F)c5ccc([nH]5)c(-c5c(F)cc(S(=O)(=O)[O-])cc5F)c5nc(c(-c6c(F)cc(S(=O)(=O)[O-])cc6F)c6ccc3[nH]6)C=C5)C=C4)cc2)c(C[NH2+]Cc2ccccc2Cl)c2ccc(C)cc21
REMARK SMILES IDX 8 1 7 2 5 3 6 4 4 5 3 6 96 7 79 8 90 9 95 10 91 11 93 12
REMARK SMILES IDX 92 13 94 14 2 15 1 16 80 17 81 18 82 21 83 22 84 23 88 24
REMARK SMILES IDX 85 25 87 26 89 27 86 28 9 29 10 30 11 31 12 32 13 33 14 34
REMARK SMILES IDX 78 35 15 36 77 37 16 38 17 39 18 40 71 41 19 42 76 43 70 44
REMARK SMILES IDX 72 45 20 46 75 47 69 48 68 49 21 51 55 52 34 53 54 54 35 55
REMARK SMILES IDX 38 56 53 57 73 58 36 59 37 60 52 62 74 63 39 64 22 65 23 66
REMARK SMILES IDX 32 67 24 68 25 69 31 70 33 71 26 72 27 73 28 74 29 75 30 76
REMARK SMILES IDX 56 77 57 78 66 79 58 80 59 81 65 82 67 83 60 84 61 85 62 86
REMARK SMILES IDX 63 87 64 88 40 89 41 90 50 91 42 92 43 93 49 94 51 95 44 96
REMARK SMILES IDX 45 97 46 98 47 99 48 100
REMARK H PARENT 81 19 81 20 72 50 38 61
REMARK Flexibility Score: inf
ROOT
ATOM      1  C   UNL A   1      33.017  30.537  26.297  1.00  0.00     0.275 C 
ENDROOT
BRANCH   1   2
ATOM      2  O   UNL A   1      32.462  29.198  26.423  1.00  0.00    -0.457 OA
BRANCH   2   3
ATOM      3  C   UNL A   1      33.384  28.215  26.164  1.00  0.00     0.355 C 
ATOM      4  O   UNL A   1      34.552  28.294  26.501  1.00  0.00    -0.244 OA
BRANCH   3   5
ATOM      5  C   UNL A   1      32.907  27.165  25.266  1.00  0.00     0.137 A 
ATOM      6  N   UNL A   1      32.345  25.912  25.400  1.00  0.00    -0.335 N 
ATOM      7  C   UNL A   1      32.636  25.175  24.251  1.00  0.00     0.049 A 
ATOM      8  C   UNL A   1      33.148  27.329  23.901  1.00  0.00     0.047 A 
ATOM      9  C   UNL A   1      32.958  26.081  23.250  1.00  0.00     0.009 A 
ATOM     10  C   UNL A   1      32.542  23.794  24.018  1.00  0.00     0.030 A 
ATOM     11  C   UNL A   1      33.047  25.605  21.927  1.00  0.00     0.011 A 
ATOM     12  C   UNL A   1      32.610  23.332  22.702  1.00  0.00    -0.049 A 
ATOM     13  C   UNL A   1      32.841  24.238  21.666  1.00  0.00     0.004 A 
ATOM     14  C   UNL A   1      32.399  21.868  22.452  1.00  0.00     0.044 C 
BRANCH   6  15
ATOM     15  C   UNL A   1      31.548  25.261  26.429  1.00  0.00     0.119 C 
ATOM     16  C   UNL A   1      30.051  25.456  26.478  1.00  0.00     0.027 C 
ENDBRANCH   6  15
BRANCH   8  17
ATOM     17  C   UNL A   1      33.519  28.664  23.337  1.00  0.00     0.300 C 
BRANCH  17  18
ATOM     18  N   UNL A   1      32.242  29.399  23.345  1.00  0.00    -0.339 N 
ATOM     19  H   UNL A   1      32.447  30.387  23.191  1.00  0.00     0.346 HD
ATOM     20  H   UNL A   1      31.811  29.208  24.249  1.00  0.00     0.346 HD
BRANCH  18  21
ATOM     21  C   UNL A   1      31.283  28.978  22.344  1.00  0.00     0.299 C 
BRANCH  21  22
ATOM     22  C   UNL A   1      29.884  28.745  22.864  1.00  0.00     0.025 A 
ATOM     23  C   UNL A   1      29.527  27.546  23.516  1.00  0.00     0.011 A 
ATOM     24  C   UNL A   1      28.879  29.692  22.634  1.00  0.00     0.049 A 
ATOM     25  C   UNL A   1      28.195  27.210  23.721  1.00  0.00     0.001 A 
ATOM     26  C   UNL A   1      27.545  29.375  22.889  1.00  0.00     0.021 A 
ATOM     27  Cl  UNL A   1      29.236  31.271  22.027  1.00  0.00    -0.084 Cl
ATOM     28  C   UNL A   1      27.200  28.118  23.385  1.00  0.00     0.002 A 
ENDBRANCH  21  22
ENDBRANCH  18  21
ENDBRANCH  17  18
ENDBRANCH   8  17
ENDBRANCH   3   5
ENDBRANCH   2   3
ENDBRANCH   1   2
BRANCH   1  29
ATOM     29  C   UNL A   1      33.355  31.141  27.669  1.00  0.00     0.275 C 
BRANCH  29  30
ATOM     30  O   UNL A   1      34.661  31.759  27.636  1.00  0.00    -0.458 OA
BRANCH  30  31
ATOM     31  C   UNL A   1      35.180  32.199  28.811  1.00  0.00     0.338 C 
ATOM     32  O   UNL A   1      34.556  32.595  29.785  1.00  0.00    -0.246 OA
BRANCH  31  33
ATOM     33  C   UNL A   1      36.600  31.782  28.836  1.00  0.00     0.060 A 
ATOM     34  C   UNL A   1      37.611  32.089  29.729  1.00  0.00     0.016 A 
ATOM     35  C   UNL A   1      36.871  30.769  27.956  1.00  0.00     0.016 A 
ATOM     36  C   UNL A   1      38.804  31.314  29.677  1.00  0.00     0.010 A 
ATOM     37  C   UNL A   1      37.676  29.751  28.363  1.00  0.00     0.010 A 
ATOM     38  C   UNL A   1      38.836  30.089  28.970  1.00  0.00    -0.014 A 
BRANCH  38  39
ATOM     39  C   UNL A   1      39.773  28.963  29.118  1.00  0.00     0.031 A 
ATOM     40  C   UNL A   1      40.040  28.625  30.518  1.00  0.00     0.074 A 
ATOM     41  C   UNL A   1      40.318  28.143  28.178  1.00  0.00     0.049 A 
ATOM     42  N   UNL A   1      40.768  29.348  31.291  1.00  0.00    -0.248 NA
ATOM     43  C   UNL A   1      39.295  27.572  31.210  1.00  0.00     0.031 C 
ATOM     44  C   UNL A   1      40.033  27.961  26.748  1.00  0.00     0.029 A 
ATOM     45  N   UNL A   1      41.374  27.282  28.368  1.00  0.00    -0.354 N 
ATOM     46  C   UNL A   1      40.826  28.683  32.492  1.00  0.00     0.074 A 
ATOM     47  C   UNL A   1      39.721  27.757  32.466  1.00  0.00     0.031 C 
ATOM     48  C   UNL A   1      40.816  26.978  26.229  1.00  0.00     0.029 A 
ATOM     49  C   UNL A   1      41.789  26.585  27.234  1.00  0.00     0.049 A 
ATOM     50  H   UNL A   1      41.805  27.167  29.245  1.00  0.00     0.167 HD
ATOM     51  C   UNL A   1      41.940  28.815  33.262  1.00  0.00     0.037 A 
ATOM     52  C   UNL A   1      42.941  25.872  27.074  1.00  0.00     0.037 A 
ATOM     53  C   UNL A   1      42.840  29.806  32.685  1.00  0.00     0.049 A 
ATOM     54  C   UNL A   1      43.925  26.456  28.025  1.00  0.00     0.074 A 
ATOM     55  C   UNL A   1      42.718  31.144  32.353  1.00  0.00     0.029 A 
ATOM     56  N   UNL A   1      43.896  29.339  31.929  1.00  0.00    -0.354 N 
ATOM     57  N   UNL A   1      44.414  27.661  27.912  1.00  0.00    -0.248 NA
ATOM     58  C   UNL A   1      44.010  25.873  29.353  1.00  0.00     0.031 C 
ATOM     59  C   UNL A   1      43.357  31.274  31.080  1.00  0.00     0.029 A 
ATOM     60  C   UNL A   1      43.916  30.040  30.744  1.00  0.00     0.049 A 
ATOM     61  H   UNL A   1      44.526  28.629  32.191  1.00  0.00     0.167 HD
ATOM     62  C   UNL A   1      44.449  28.152  29.208  1.00  0.00     0.074 A 
ATOM     63  C   UNL A   1      44.272  26.975  30.059  1.00  0.00     0.031 C 
ATOM     64  C   UNL A   1      44.347  29.490  29.469  1.00  0.00     0.037 A 
BRANCH  51  65
ATOM     65  C   UNL A   1      42.400  27.843  34.309  1.00  0.00     0.058 A 
ATOM     66  C   UNL A   1      42.150  28.155  35.661  1.00  0.00     0.135 A 
ATOM     67  C   UNL A   1      43.266  26.755  34.079  1.00  0.00     0.135 A 
ATOM     68  F   UNL A   1      41.323  29.158  35.992  1.00  0.00    -0.206 F 
ATOM     69  C   UNL A   1      42.789  27.496  36.706  1.00  0.00     0.059 A 
ATOM     70  C   UNL A   1      43.875  26.049  35.110  1.00  0.00     0.059 A 
ATOM     71  F   UNL A   1      43.640  26.377  32.852  1.00  0.00    -0.206 F 
ATOM     72  C   UNL A   1      43.665  26.456  36.418  1.00  0.00     0.060 A 
BRANCH  72  73
ATOM     73  S   UNL A   1      44.574  25.686  37.765  1.00  0.00     0.124 S 
ATOM     74  O   UNL A   1      44.328  24.273  37.508  1.00  0.00    -0.237 OA
ATOM     75  O   UNL A   1      45.933  26.158  37.516  1.00  0.00    -0.237 OA
ATOM     76  O   UNL A   1      43.934  26.234  38.957  1.00  0.00    -0.744 OA
ENDBRANCH  72  73
ENDBRANCH  51  65
BRANCH  52  77
ATOM     77  C   UNL A   1      43.206  24.594  26.352  1.00  0.00     0.058 A 
ATOM     78  C   UNL A   1      44.201  24.490  25.356  1.00  0.00     0.135 A 
ATOM     79  C   UNL A   1      42.712  23.375  26.851  1.00  0.00     0.135 A 
ATOM     80  F   UNL A   1      44.749  25.596  24.831  1.00  0.00    -0.206 F 
ATOM     81  C   UNL A   1      44.714  23.257  24.926  1.00  0.00     0.059 A 
ATOM     82  C   UNL A   1      43.208  22.133  26.437  1.00  0.00     0.059 A 
ATOM     83  F   UNL A   1      41.795  23.361  27.829  1.00  0.00    -0.206 F 
ATOM     84  C   UNL A   1      44.228  22.081  25.493  1.00  0.00     0.060 A 
BRANCH  84  85
ATOM     85  S   UNL A   1      45.009  20.500  25.073  1.00  0.00     0.124 S 
ATOM     86  O   UNL A   1      46.394  20.724  25.473  1.00  0.00    -0.237 OA
ATOM     87  O   UNL A   1      44.257  19.554  25.892  1.00  0.00    -0.237 OA
ATOM     88  O   UNL A   1      44.789  20.382  23.634  1.00  0.00    -0.744 OA
ENDBRANCH  84  85
ENDBRANCH  52  77
BRANCH  64  89
ATOM     89  C   UNL A   1      44.482  30.464  28.314  1.00  0.00     0.058 A 
ATOM     90  C   UNL A   1      43.475  30.735  27.369  1.00  0.00     0.135 A 
ATOM     91  C   UNL A   1      45.629  31.273  28.252  1.00  0.00     0.135 A 
ATOM     92  F   UNL A   1      42.312  30.074  27.393  1.00  0.00    -0.206 F 
ATOM     93  C   UNL A   1      43.606  31.737  26.402  1.00  0.00     0.059 A 
ATOM     94  C   UNL A   1      45.771  32.299  27.316  1.00  0.00     0.059 A 
ATOM     95  F   UNL A   1      46.617  31.106  29.147  1.00  0.00    -0.206 F 
ATOM     96  C   UNL A   1      44.757  32.522  26.388  1.00  0.00     0.060 A 
BRANCH  96  97
ATOM     97  S   UNL A   1      44.888  33.871  25.194  1.00  0.00     0.124 S 
ATOM     98  O   UNL A   1      43.995  34.875  25.760  1.00  0.00    -0.237 OA
ATOM     99  O   UNL A   1      46.312  34.195  25.235  1.00  0.00    -0.237 OA
ATOM    100  O   UNL A   1      44.433  33.267  23.944  1.00  0.00    -0.744 OA
ENDBRANCH  96  97
ENDBRANCH  64  89
ENDBRANCH  38  39
ENDBRANCH  31  33
ENDBRANCH  30  31
ENDBRANCH  29  30
ENDBRANCH   1  29
TORSDOF 19
ENDMDL
MODEL 3
REMARK VINA RESULT:     -10.8      5.603     11.826
REMARK SMILES CCn1c(C(=O)OCCOC(=O)c2ccc(-c3c4nc(c(-c5c(F)cc(S(=O)(=O)[O-])cc5F)c5ccc([nH]5)c(-c5c(F)cc(S(=O)(=O)[O-])cc5F)c5nc(c(-c6c(F)cc(S(=O)(=O)[O-])cc6F)c6ccc3[nH]6)C=C5)C=C4)cc2)c(C[NH2+]Cc2ccccc2Cl)c2ccc(C)cc21
REMARK SMILES IDX 8 1 7 2 5 3 6 4 4 5 3 6 96 7 79 8 90 9 95 10 91 11 93 12
REMARK SMILES IDX 92 13 94 14 2 15 1 16 80 17 81 18 82 21 83 22 84 23 88 24
REMARK SMILES IDX 85 25 87 26 89 27 86 28 9 29 10 30 11 31 12 32 13 33 14 34
REMARK SMILES IDX 78 35 15 36 77 37 16 38 17 39 18 40 71 41 19 42 76 43 70 44
REMARK SMILES IDX 72 45 20 46 75 47 69 48 68 49 21 51 55 52 34 53 54 54 35 55
REMARK SMILES IDX 38 56 53 57 73 58 36 59 37 60 52 62 74 63 39 64 22 65 23 66
REMARK SMILES IDX 32 67 24 68 25 69 31 70 33 71 26 72 27 73 28 74 29 75 30 76
REMARK SMILES IDX 56 77 57 78 66 79 58 80 59 81 65 82 67 83 60 84 61 85 62 86
REMARK SMILES IDX 63 87 64 88 40 89 41 90 50 91 42 92 43 93 49 94 51 95 44 96
REMARK SMILES IDX 45 97 46 98 47 99 48 100
REMARK H PARENT 81 19 81 20 72 50 38 61
REMARK Flexibility Score: inf
ROOT
ATOM      1  C   UNL A   1      45.655  25.092  28.732  1.00  0.00     0.275 C 
ENDROOT
BRANCH   1   2
ATOM      2  O   UNL A   1      44.848  24.018  28.177  1.00  0.00    -0.457 OA
BRANCH   2   3
ATOM      3  C   UNL A   1      44.156  24.400  27.054  1.00  0.00     0.355 C 
ATOM      4  O   UNL A   1      44.599  24.276  25.926  1.00  0.00    -0.244 OA
BRANCH   3   5
ATOM      5  C   UNL A   1      42.940  25.163  27.329  1.00  0.00     0.137 A 
ATOM      6  N   UNL A   1      42.616  26.486  27.549  1.00  0.00    -0.335 N 
ATOM      7  C   UNL A   1      41.445  26.531  28.307  1.00  0.00     0.049 A 
ATOM      8  C   UNL A   1      41.768  24.441  27.564  1.00  0.00     0.047 A 
ATOM      9  C   UNL A   1      40.812  25.304  28.162  1.00  0.00     0.009 A 
ATOM     10  C   UNL A   1      40.872  27.596  29.020  1.00  0.00     0.030 A 
ATOM     11  C   UNL A   1      39.487  25.182  28.624  1.00  0.00     0.011 A 
ATOM     12  C   UNL A   1      39.551  27.475  29.455  1.00  0.00    -0.049 A 
ATOM     13  C   UNL A   1      38.862  26.281  29.239  1.00  0.00     0.004 A 
ATOM     14  C   UNL A   1      38.912  28.659  30.120  1.00  0.00     0.044 C 
BRANCH   6  15
ATOM     15  C   UNL A   1      43.209  27.756  27.159  1.00  0.00     0.119 C 
ATOM     16  C   UNL A   1      42.505  28.662  26.176  1.00  0.00     0.027 C 
ENDBRANCH   6  15
BRANCH   8  17
ATOM     17  C   UNL A   1      41.660  23.000  27.179  1.00  0.00     0.300 C 
BRANCH  17  18
ATOM     18  N   UNL A   1      40.583  22.999  26.174  1.00  0.00    -0.339 N 
ATOM     19  H   UNL A   1      41.000  22.802  25.264  1.00  0.00     0.346 HD
ATOM     20  H   UNL A   1      40.143  23.918  26.230  1.00  0.00     0.346 HD
BRANCH  18  21
ATOM     21  C   UNL A   1      39.528  22.033  26.402  1.00  0.00     0.299 C 
BRANCH  21  22
ATOM     22  C   UNL A   1      38.194  22.393  25.791  1.00  0.00     0.025 A 
ATOM     23  C   UNL A   1      37.662  23.696  25.891  1.00  0.00     0.011 A 
ATOM     24  C   UNL A   1      37.411  21.408  25.176  1.00  0.00     0.049 A 
ATOM     25  C   UNL A   1      36.327  23.950  25.600  1.00  0.00     0.001 A 
ATOM     26  C   UNL A   1      36.085  21.679  24.835  1.00  0.00     0.021 A 
ATOM     27  Cl  UNL A   1      38.036  19.836  24.821  1.00  0.00    -0.084 Cl
ATOM     28  C   UNL A   1      35.531  22.932  25.093  1.00  0.00     0.002 A 
ENDBRANCH  21  22
ENDBRANCH  18  21
ENDBRANCH  17  18
ENDBRANCH   8  17
ENDBRANCH   3   5
ENDBRANCH   2   3
ENDBRANCH   1   2
BRANCH   1  29
ATOM     29  C   UNL A   1      45.386  25.286  30.233  1.00  0.00     0.275 C 
BRANCH  29  30
ATOM     30  O   UNL A   1      44.292  26.209  30.430  1.00  0.00    -0.458 OA
BRANCH  30  31
ATOM     31  C   UNL A   1      44.544  27.343  31.134  1.00  0.00     0.338 C 
ATOM     32  O   UNL A   1      45.544  28.041  31.065  1.00  0.00    -0.246 OA
BRANCH  31  33
ATOM     33  C   UNL A   1      43.258  27.772  31.729  1.00  0.00     0.060 A 
ATOM     34  C   UNL A   1      42.481  27.183  32.711  1.00  0.00     0.016 A 
ATOM     35  C   UNL A   1      42.922  29.057  31.394  1.00  0.00     0.016 A 
ATOM     36  C   UNL A   1      41.445  27.964  33.298  1.00  0.00     0.010 A 
ATOM     37  C   UNL A   1      42.412  29.869  32.360  1.00  0.00     0.010 A 
ATOM     38  C   UNL A   1      41.414  29.368  33.122  1.00  0.00    -0.014 A 
BRANCH  38  39
ATOM     39  C   UNL A   1      40.728  30.385  33.936  1.00  0.00     0.031 A 
ATOM     40  C   UNL A   1      39.423  30.765  33.390  1.00  0.00     0.074 A 
ATOM     41  C   UNL A   1      41.065  30.920  35.142  1.00  0.00     0.049 A 
ATOM     42  N   UNL A   1      39.283  31.493  32.341  1.00  0.00    -0.248 NA
ATOM     43  C   UNL A   1      38.184  30.138  33.855  1.00  0.00     0.031 C 
ATOM     44  C   UNL A   1      42.091  30.555  36.127  1.00  0.00     0.029 A 
ATOM     45  N   UNL A   1      40.509  32.041  35.713  1.00  0.00    -0.354 N 
ATOM     46  C   UNL A   1      37.930  31.674  32.181  1.00  0.00     0.074 A 
ATOM     47  C   UNL A   1      37.313  30.633  32.965  1.00  0.00     0.031 C 
ATOM     48  C   UNL A   1      42.014  31.365  37.216  1.00  0.00     0.029 A 
ATOM     49  C   UNL A   1      41.062  32.426  36.935  1.00  0.00     0.049 A 
ATOM     50  H   UNL A   1      39.771  32.536  35.289  1.00  0.00     0.167 HD
ATOM     51  C   UNL A   1      37.485  32.824  31.607  1.00  0.00     0.037 A 
ATOM     52  C   UNL A   1      40.885  33.610  37.589  1.00  0.00     0.037 A 
ATOM     53  C   UNL A   1      38.609  33.616  31.125  1.00  0.00     0.049 A 
ATOM     54  C   UNL A   1      40.543  34.613  36.545  1.00  0.00     0.074 A 
ATOM     55  C   UNL A   1      39.642  33.385  30.232  1.00  0.00     0.029 A 
ATOM     56  N   UNL A   1      39.048  34.650  31.928  1.00  0.00    -0.354 N 
ATOM     57  N   UNL A   1      41.377  35.013  35.625  1.00  0.00    -0.248 NA
ATOM     58  C   UNL A   1      39.137  34.823  36.244  1.00  0.00     0.031 C 
ATOM     59  C   UNL A   1      40.807  33.929  30.859  1.00  0.00     0.029 A 
ATOM     60  C   UNL A   1      40.415  34.546  32.048  1.00  0.00     0.049 A 
ATOM     61  H   UNL A   1      38.482  35.341  32.342  1.00  0.00     0.167 HD
ATOM     62  C   UNL A   1      40.615  35.100  34.469  1.00  0.00     0.074 A 
ATOM     63  C   UNL A   1      39.228  35.058  34.932  1.00  0.00     0.031 C 
ATOM     64  C   UNL A   1      41.169  34.928  33.231  1.00  0.00     0.037 A 
BRANCH  51  65
ATOM     65  C   UNL A   1      36.116  33.415  31.780  1.00  0.00     0.058 A 
ATOM     66  C   UNL A   1      35.400  33.782  30.622  1.00  0.00     0.135 A 
ATOM     67  C   UNL A   1      35.572  33.853  33.004  1.00  0.00     0.135 A 
ATOM     68  F   UNL A   1      35.818  33.398  29.406  1.00  0.00    -0.206 F 
ATOM     69  C   UNL A   1      34.279  34.603  30.670  1.00  0.00     0.059 A 
ATOM     70  C   UNL A   1      34.423  34.632  33.078  1.00  0.00     0.059 A 
ATOM     71  F   UNL A   1      36.168  33.631  34.179  1.00  0.00    -0.206 F 
ATOM     72  C   UNL A   1      33.810  35.039  31.904  1.00  0.00     0.060 A 
BRANCH  72  73
ATOM     73  S   UNL A   1      32.432  36.193  31.952  1.00  0.00     0.124 S 
ATOM     74  O   UNL A   1      31.378  35.361  32.520  1.00  0.00    -0.237 OA
ATOM     75  O   UNL A   1      32.956  37.247  32.816  1.00  0.00    -0.237 OA
ATOM     76  O   UNL A   1      32.258  36.566  30.551  1.00  0.00    -0.744 OA
ENDBRANCH  72  73
ENDBRANCH  51  65
BRANCH  52  77
ATOM     77  C   UNL A   1      40.753  33.911  39.044  1.00  0.00     0.058 A 
ATOM     78  C   UNL A   1      41.544  34.891  39.679  1.00  0.00     0.135 A 
ATOM     79  C   UNL A   1      39.628  33.472  39.767  1.00  0.00     0.135 A 
ATOM     80  F   UNL A   1      42.628  35.388  39.062  1.00  0.00    -0.206 F 
ATOM     81  C   UNL A   1      41.209  35.444  40.924  1.00  0.00     0.059 A 
ATOM     82  C   UNL A   1      39.273  34.008  41.010  1.00  0.00     0.059 A 
ATOM     83  F   UNL A   1      38.786  32.573  39.236  1.00  0.00    -0.206 F 
ATOM     84  C   UNL A   1      40.054  35.013  41.572  1.00  0.00     0.060 A 
BRANCH  84  85
ATOM     85  S   UNL A   1      39.520  35.846  43.092  1.00  0.00     0.124 S 
ATOM     86  O   UNL A   1      40.416  35.272  44.089  1.00  0.00    -0.237 OA
ATOM     87  O   UNL A   1      39.744  37.252  42.770  1.00  0.00    -0.237 OA
ATOM     88  O   UNL A   1      38.117  35.458  43.219  1.00  0.00    -0.744 OA
ENDBRANCH  84  85
ENDBRANCH  52  77
BRANCH  64  89
ATOM     89  C   UNL A   1      42.681  34.922  33.111  1.00  0.00     0.058 A 
ATOM     90  C   UNL A   1      43.489  36.073  33.057  1.00  0.00     0.135 A 
ATOM     91  C   UNL A   1      43.354  33.693  33.209  1.00  0.00     0.135 A 
ATOM     92  F   UNL A   1      42.945  37.296  33.041  1.00  0.00    -0.206 F 
ATOM     93  C   UNL A   1      44.885  36.010  33.078  1.00  0.00     0.059 A 
ATOM     94  C   UNL A   1      44.746  33.605  33.262  1.00  0.00     0.059 A 
ATOM     95  F   UNL A   1      42.654  32.550  33.309  1.00  0.00    -0.206 F 
ATOM     96  C   UNL A   1      45.507  34.768  33.189  1.00  0.00     0.060 A 
BRANCH  96  97
ATOM     97  S   UNL A   1      47.309  34.693  33.302  1.00  0.00     0.124 S 
ATOM     98  O   UNL A   1      47.526  34.566  34.739  1.00  0.00    -0.237 OA
ATOM     99  O   UNL A   1      47.629  33.511  32.506  1.00  0.00    -0.237 OA
ATOM    100  O   UNL A   1      47.741  35.961  32.718  1.00  0.00    -0.744 OA
ENDBRANCH  96  97
ENDBRANCH  64  89
ENDBRANCH  38  39
ENDBRANCH  31  33
ENDBRANCH  30  31
ENDBRANCH  29  30
ENDBRANCH   1  29
TORSDOF 19
ENDMDL
