MODEL 1
REMARK VINA RESULT:     -10.6      0.000      0.000
REMARK SMILES O=C(OCCOC(=O)c1ccc2nc(Cl)sc2c1)c1ccc(-c2c3nc(c(-c4c(F)cc(S(=O)(=O)[O-])cc4F)c4ccc([nH]4)c(-c4c(F)cc(S(=O)(=O)[O-])cc4F)c4nc(c(-c5c(F)cc(S(=O)(=O)[O-])cc5F)c5ccc2[nH]5)C=C4)C=C3)cc1
REMARK SMILES IDX 3 1 2 2 1 3 19 4 20 5 84 6 21 7 83 8 22 9 23 10 24 11 77 12
REMARK SMILES IDX 25 13 82 14 76 15 78 16 26 17 81 18 75 19 74 20 27 22 61 23
REMARK SMILES IDX 40 24 60 25 41 26 44 27 59 28 79 29 42 30 43 31 58 33 80 34
REMARK SMILES IDX 45 35 28 36 29 37 38 38 30 39 31 40 37 41 39 42 32 43 33 44
REMARK SMILES IDX 34 45 35 46 36 47 62 48 63 49 72 50 64 51 65 52 71 53 73 54
REMARK SMILES IDX 66 55 67 56 68 57 69 58 70 59 46 60 47 61 56 62 48 63 49 64
REMARK SMILES IDX 55 65 57 66 50 67 51 68 52 69 53 70 54 71 4 72 5 73 6 74
REMARK SMILES IDX 7 75 8 76 9 77 10 78 18 79 11 80 17 81 12 82 16 83 13 84
REMARK SMILES IDX 14 85 15 86
REMARK H PARENT 78 21 44 32
REMARK Flexibility Score: inf
ROOT
ATOM      1  O   UNL A   1      40.342  20.880  27.243  1.00  0.00    -0.458 OA
ENDROOT
BRANCH   1   2
ATOM      2  C   UNL A   1      39.855  22.076  26.817  1.00  0.00     0.338 C 
ATOM      3  O   UNL A   1      38.958  22.083  25.973  1.00  0.00    -0.246 OA
BRANCH   2   4
ATOM      4  C   UNL A   1      40.548  23.372  27.129  1.00  0.00     0.060 A 
ATOM      5  C   UNL A   1      40.072  24.538  26.494  1.00  0.00     0.016 A 
ATOM      6  C   UNL A   1      41.664  23.509  27.941  1.00  0.00     0.016 A 
ATOM      7  C   UNL A   1      40.741  25.775  26.608  1.00  0.00     0.010 A 
ATOM      8  C   UNL A   1      42.362  24.721  28.007  1.00  0.00     0.010 A 
ATOM      9  C   UNL A   1      41.917  25.882  27.349  1.00  0.00    -0.014 A 
BRANCH   9  10
ATOM     10  C   UNL A   1      42.525  27.243  27.594  1.00  0.00     0.031 A 
ATOM     11  C   UNL A   1      41.412  28.255  27.702  1.00  0.00     0.074 A 
ATOM     12  C   UNL A   1      43.513  27.438  28.501  1.00  0.00     0.049 A 
ATOM     13  N   UNL A   1      40.686  28.473  28.757  1.00  0.00    -0.248 NA
ATOM     14  C   UNL A   1      40.854  28.815  26.469  1.00  0.00     0.031 C 
ATOM     15  C   UNL A   1      43.444  27.055  29.905  1.00  0.00     0.029 A 
ATOM     16  N   UNL A   1      44.676  28.205  28.424  1.00  0.00    -0.354 N 
ATOM     17  C   UNL A   1      39.558  29.152  28.336  1.00  0.00     0.074 A 
ATOM     18  C   UNL A   1      39.704  29.340  26.909  1.00  0.00     0.031 C 
ATOM     19  C   UNL A   1      44.536  27.496  30.553  1.00  0.00     0.029 A 
ATOM     20  C   UNL A   1      45.268  28.410  29.679  1.00  0.00     0.049 A 
ATOM     21  H   UNL A   1      45.040  28.561  27.582  1.00  0.00     0.167 HD
ATOM     22  C   UNL A   1      38.556  29.519  29.174  1.00  0.00     0.037 A 
ATOM     23  C   UNL A   1      45.745  29.611  30.144  1.00  0.00     0.037 A 
ATOM     24  C   UNL A   1      38.751  29.200  30.556  1.00  0.00     0.049 A 
ATOM     25  C   UNL A   1      44.512  30.216  30.795  1.00  0.00     0.074 A 
ATOM     26  C   UNL A   1      38.281  28.295  31.479  1.00  0.00     0.029 A 
ATOM     27  N   UNL A   1      39.667  29.960  31.244  1.00  0.00    -0.354 N 
ATOM     28  N   UNL A   1      43.989  29.876  31.950  1.00  0.00    -0.248 NA
ATOM     29  C   UNL A   1      43.582  30.898  29.895  1.00  0.00     0.031 C 
ATOM     30  C   UNL A   1      39.262  28.274  32.523  1.00  0.00     0.029 A 
ATOM     31  C   UNL A   1      40.285  29.153  32.162  1.00  0.00     0.049 A 
ATOM     32  H   UNL A   1      39.847  30.917  31.103  1.00  0.00     0.167 HD
ATOM     33  C   UNL A   1      42.602  29.979  31.774  1.00  0.00     0.074 A 
ATOM     34  C   UNL A   1      42.428  30.657  30.504  1.00  0.00     0.031 C 
ATOM     35  C   UNL A   1      41.676  29.323  32.543  1.00  0.00     0.037 A 
BRANCH  22  36
ATOM     36  C   UNL A   1      37.482  30.444  28.768  1.00  0.00     0.058 A 
ATOM     37  C   UNL A   1      37.687  31.806  29.032  1.00  0.00     0.135 A 
ATOM     38  C   UNL A   1      36.241  30.039  28.267  1.00  0.00     0.135 A 
ATOM     39  F   UNL A   1      38.876  32.227  29.497  1.00  0.00    -0.206 F 
ATOM     40  C   UNL A   1      36.681  32.738  28.859  1.00  0.00     0.059 A 
ATOM     41  C   UNL A   1      35.214  30.963  28.075  1.00  0.00     0.059 A 
ATOM     42  F   UNL A   1      36.007  28.746  27.991  1.00  0.00    -0.206 F 
ATOM     43  C   UNL A   1      35.440  32.305  28.396  1.00  0.00     0.060 A 
BRANCH  43  44
ATOM     44  S   UNL A   1      34.132  33.538  28.254  1.00  0.00     0.124 S 
ATOM     45  O   UNL A   1      33.878  33.865  29.653  1.00  0.00    -0.237 OA
ATOM     46  O   UNL A   1      34.786  34.577  27.465  1.00  0.00    -0.237 OA
ATOM     47  O   UNL A   1      33.061  32.817  27.574  1.00  0.00    -0.744 OA
ENDBRANCH  43  44
ENDBRANCH  22  36
BRANCH  23  48
ATOM     48  C   UNL A   1      46.722  30.343  29.288  1.00  0.00     0.058 A 
ATOM     49  C   UNL A   1      47.983  30.628  29.853  1.00  0.00     0.135 A 
ATOM     50  C   UNL A   1      46.539  30.742  27.955  1.00  0.00     0.135 A 
ATOM     51  F   UNL A   1      48.193  30.434  31.165  1.00  0.00    -0.206 F 
ATOM     52  C   UNL A   1      49.057  31.075  29.093  1.00  0.00     0.059 A 
ATOM     53  C   UNL A   1      47.606  31.175  27.164  1.00  0.00     0.059 A 
ATOM     54  F   UNL A   1      45.335  30.688  27.372  1.00  0.00    -0.206 F 
ATOM     55  C   UNL A   1      48.873  31.277  27.730  1.00  0.00     0.060 A 
BRANCH  55  56
ATOM     56  S   UNL A   1      50.334  31.553  26.708  1.00  0.00     0.124 S 
ATOM     57  O   UNL A   1      51.360  31.836  27.705  1.00  0.00    -0.237 OA
ATOM     58  O   UNL A   1      50.452  30.270  26.021  1.00  0.00    -0.237 OA
ATOM     59  O   UNL A   1      49.950  32.678  25.862  1.00  0.00    -0.744 OA
ENDBRANCH  55  56
ENDBRANCH  23  48
BRANCH  35  60
ATOM     60  C   UNL A   1      42.183  28.586  33.746  1.00  0.00     0.058 A 
ATOM     61  C   UNL A   1      42.180  29.203  35.002  1.00  0.00     0.135 A 
ATOM     62  C   UNL A   1      42.555  27.227  33.690  1.00  0.00     0.135 A 
ATOM     63  F   UNL A   1      41.811  30.489  35.124  1.00  0.00    -0.206 F 
ATOM     64  C   UNL A   1      42.489  28.498  36.162  1.00  0.00     0.059 A 
ATOM     65  C   UNL A   1      42.843  26.496  34.841  1.00  0.00     0.059 A 
ATOM     66  F   UNL A   1      42.594  26.573  32.516  1.00  0.00    -0.206 F 
ATOM     67  C   UNL A   1      42.797  27.140  36.076  1.00  0.00     0.060 A 
BRANCH  67  68
ATOM     68  S   UNL A   1      43.049  26.215  37.607  1.00  0.00     0.124 S 
ATOM     69  O   UNL A   1      43.716  25.009  37.130  1.00  0.00    -0.237 OA
ATOM     70  O   UNL A   1      43.875  27.131  38.387  1.00  0.00    -0.237 OA
ATOM     71  O   UNL A   1      41.694  26.021  38.118  1.00  0.00    -0.744 OA
ENDBRANCH  67  68
ENDBRANCH  35  60
ENDBRANCH   9  10
ENDBRANCH   2   4
ENDBRANCH   1   2
BRANCH   1  72
ATOM     72  C   UNL A   1      41.028  19.886  26.452  1.00  0.00     0.275 C 
BRANCH  72  73
ATOM     73  C   UNL A   1      42.549  20.104  26.359  1.00  0.00     0.275 C 
BRANCH  73  74
ATOM     74  O   UNL A   1      42.902  21.097  25.394  1.00  0.00    -0.458 OA
BRANCH  74  75
ATOM     75  C   UNL A   1      44.239  21.278  25.187  1.00  0.00     0.338 C 
ATOM     76  O   UNL A   1      45.001  20.537  24.620  1.00  0.00    -0.246 OA
BRANCH  75  77
ATOM     77  C   UNL A   1      44.526  22.681  25.575  1.00  0.00     0.061 A 
ATOM     78  C   UNL A   1      44.050  23.722  24.789  1.00  0.00     0.018 A 
ATOM     79  C   UNL A   1      45.396  22.917  26.655  1.00  0.00     0.037 A 
ATOM     80  C   UNL A   1      44.471  25.021  25.049  1.00  0.00     0.031 A 
ATOM     81  C   UNL A   1      45.909  24.221  26.804  1.00  0.00     0.057 A 
ATOM     82  C   UNL A   1      45.480  25.275  25.992  1.00  0.00     0.083 A 
ATOM     83  S   UNL A   1      47.133  24.817  27.869  1.00  0.00    -0.102 S 
ATOM     84  N   UNL A   1      46.143  26.476  26.164  1.00  0.00    -0.225 NA
ATOM     85  C   UNL A   1      47.068  26.314  27.069  1.00  0.00     0.184 A 
ATOM     86  Cl  UNL A   1      48.218  27.536  27.430  1.00  0.00    -0.050 Cl
ENDBRANCH  75  77
ENDBRANCH  74  75
ENDBRANCH  73  74
ENDBRANCH  72  73
ENDBRANCH   1  72
TORSDOF 14
ENDMDL
MODEL 2
REMARK VINA RESULT:     -10.2      6.540     11.231
REMARK SMILES O=C(OCCOC(=O)c1ccc2nc(Cl)sc2c1)c1ccc(-c2c3nc(c(-c4c(F)cc(S(=O)(=O)[O-])cc4F)c4ccc([nH]4)c(-c4c(F)cc(S(=O)(=O)[O-])cc4F)c4nc(c(-c5c(F)cc(S(=O)(=O)[O-])cc5F)c5ccc2[nH]5)C=C4)C=C3)cc1
REMARK SMILES IDX 3 1 2 2 1 3 19 4 20 5 84 6 21 7 83 8 22 9 23 10 24 11 77 12
REMARK SMILES IDX 25 13 82 14 76 15 78 16 26 17 81 18 75 19 74 20 27 22 61 23
REMARK SMILES IDX 40 24 60 25 41 26 44 27 59 28 79 29 42 30 43 31 58 33 80 34
REMARK SMILES IDX 45 35 28 36 29 37 38 38 30 39 31 40 37 41 39 42 32 43 33 44
REMARK SMILES IDX 34 45 35 46 36 47 62 48 63 49 72 50 64 51 65 52 71 53 73 54
REMARK SMILES IDX 66 55 67 56 68 57 69 58 70 59 46 60 47 61 56 62 48 63 49 64
REMARK SMILES IDX 55 65 57 66 50 67 51 68 52 69 53 70 54 71 4 72 5 73 6 74
REMARK SMILES IDX 7 75 8 76 9 77 10 78 18 79 11 80 17 81 12 82 16 83 13 84
REMARK SMILES IDX 14 85 15 86
REMARK H PARENT 78 21 44 32
REMARK Flexibility Score: inf
ROOT
ATOM      1  O   UNL A   1      42.562  38.020  26.666  1.00  0.00    -0.458 OA
ENDROOT
BRANCH   1   2
ATOM      2  C   UNL A   1      43.418  37.212  27.346  1.00  0.00     0.338 C 
ATOM      3  O   UNL A   1      44.570  37.088  26.931  1.00  0.00    -0.246 OA
BRANCH   2   4
ATOM      4  C   UNL A   1      42.940  36.265  28.410  1.00  0.00     0.060 A 
ATOM      5  C   UNL A   1      43.847  35.916  29.432  1.00  0.00     0.016 A 
ATOM      6  C   UNL A   1      41.697  35.650  28.435  1.00  0.00     0.016 A 
ATOM      7  C   UNL A   1      43.545  34.928  30.392  1.00  0.00     0.010 A 
ATOM      8  C   UNL A   1      41.418  34.627  29.350  1.00  0.00     0.010 A 
ATOM      9  C   UNL A   1      42.329  34.246  30.352  1.00  0.00    -0.014 A 
BRANCH   9  10
ATOM     10  C   UNL A   1      41.958  33.313  31.481  1.00  0.00     0.031 A 
ATOM     11  C   UNL A   1      40.470  33.402  31.709  1.00  0.00     0.074 A 
ATOM     12  C   UNL A   1      42.434  32.046  31.555  1.00  0.00     0.049 A 
ATOM     13  N   UNL A   1      39.558  32.796  31.009  1.00  0.00    -0.248 NA
ATOM     14  C   UNL A   1      39.954  34.489  32.546  1.00  0.00     0.031 C 
ATOM     15  C   UNL A   1      42.320  31.050  30.499  1.00  0.00     0.029 A 
ATOM     16  N   UNL A   1      42.912  31.320  32.645  1.00  0.00    -0.354 N 
ATOM     17  C   UNL A   1      38.361  33.438  31.267  1.00  0.00     0.074 A 
ATOM     18  C   UNL A   1      38.655  34.483  32.222  1.00  0.00     0.031 C 
ATOM     19  C   UNL A   1      42.786  29.866  30.934  1.00  0.00     0.029 A 
ATOM     20  C   UNL A   1      43.001  29.945  32.378  1.00  0.00     0.049 A 
ATOM     21  H   UNL A   1      43.160  31.727  33.506  1.00  0.00     0.167 HD
ATOM     22  C   UNL A   1      37.189  33.089  30.677  1.00  0.00     0.037 A 
ATOM     23  C   UNL A   1      42.576  28.946  33.217  1.00  0.00     0.037 A 
ATOM     24  C   UNL A   1      37.249  31.967  29.790  1.00  0.00     0.049 A 
ATOM     25  C   UNL A   1      41.123  28.777  32.807  1.00  0.00     0.074 A 
ATOM     26  C   UNL A   1      37.223  31.723  28.436  1.00  0.00     0.029 A 
ATOM     27  N   UNL A   1      37.381  30.726  30.367  1.00  0.00    -0.354 N 
ATOM     28  N   UNL A   1      40.677  28.180  31.726  1.00  0.00    -0.248 NA
ATOM     29  C   UNL A   1      40.176  29.721  33.402  1.00  0.00     0.031 C 
ATOM     30  C   UNL A   1      37.793  30.419  28.275  1.00  0.00     0.029 A 
ATOM     31  C   UNL A   1      38.154  29.953  29.541  1.00  0.00     0.049 A 
ATOM     32  H   UNL A   1      36.990  30.442  31.224  1.00  0.00     0.167 HD
ATOM     33  C   UNL A   1      39.564  28.930  31.319  1.00  0.00     0.074 A 
ATOM     34  C   UNL A   1      39.288  29.832  32.422  1.00  0.00     0.031 C 
ATOM     35  C   UNL A   1      39.067  28.941  30.042  1.00  0.00     0.037 A 
BRANCH  22  36
ATOM     36  C   UNL A   1      35.888  33.612  31.131  1.00  0.00     0.058 A 
ATOM     37  C   UNL A   1      35.182  34.419  30.228  1.00  0.00     0.135 A 
ATOM     38  C   UNL A   1      35.389  33.464  32.429  1.00  0.00     0.135 A 
ATOM     39  F   UNL A   1      35.628  34.566  28.968  1.00  0.00    -0.206 F 
ATOM     40  C   UNL A   1      34.043  35.106  30.606  1.00  0.00     0.059 A 
ATOM     41  C   UNL A   1      34.237  34.139  32.831  1.00  0.00     0.059 A 
ATOM     42  F   UNL A   1      36.030  32.692  33.321  1.00  0.00    -0.206 F 
ATOM     43  C   UNL A   1      33.586  34.974  31.916  1.00  0.00     0.060 A 
BRANCH  43  44
ATOM     44  S   UNL A   1      32.142  35.942  32.392  1.00  0.00     0.124 S 
ATOM     45  O   UNL A   1      32.665  36.732  33.502  1.00  0.00    -0.237 OA
ATOM     46  O   UNL A   1      31.859  36.678  31.164  1.00  0.00    -0.237 OA
ATOM     47  O   UNL A   1      31.159  34.927  32.755  1.00  0.00    -0.744 OA
ENDBRANCH  43  44
ENDBRANCH  22  36
BRANCH  23  48
ATOM     48  C   UNL A   1      43.088  28.957  34.618  1.00  0.00     0.058 A 
ATOM     49  C   UNL A   1      43.896  27.871  35.014  1.00  0.00     0.135 A 
ATOM     50  C   UNL A   1      42.888  29.960  35.578  1.00  0.00     0.135 A 
ATOM     51  F   UNL A   1      44.008  26.790  34.226  1.00  0.00    -0.206 F 
ATOM     52  C   UNL A   1      44.632  27.881  36.193  1.00  0.00     0.059 A 
ATOM     53  C   UNL A   1      43.629  30.005  36.761  1.00  0.00     0.059 A 
ATOM     54  F   UNL A   1      42.000  30.943  35.382  1.00  0.00    -0.206 F 
ATOM     55  C   UNL A   1      44.544  28.991  37.026  1.00  0.00     0.060 A 
BRANCH  55  56
ATOM     56  S   UNL A   1      45.727  29.130  38.382  1.00  0.00     0.124 S 
ATOM     57  O   UNL A   1      44.890  29.612  39.475  1.00  0.00    -0.237 OA
ATOM     58  O   UNL A   1      46.194  27.751  38.500  1.00  0.00    -0.237 OA
ATOM     59  O   UNL A   1      46.713  30.080  37.878  1.00  0.00    -0.744 OA
ENDBRANCH  55  56
ENDBRANCH  23  48
BRANCH  35  60
ATOM     60  C   UNL A   1      39.652  27.962  29.071  1.00  0.00     0.058 A 
ATOM     61  C   UNL A   1      40.587  28.388  28.120  1.00  0.00     0.135 A 
ATOM     62  C   UNL A   1      39.393  26.579  29.153  1.00  0.00     0.135 A 
ATOM     63  F   UNL A   1      40.896  29.691  28.010  1.00  0.00    -0.206 F 
ATOM     64  C   UNL A   1      41.270  27.482  27.312  1.00  0.00     0.059 A 
ATOM     65  C   UNL A   1      40.084  25.653  28.372  1.00  0.00     0.059 A 
ATOM     66  F   UNL A   1      38.497  26.099  30.033  1.00  0.00    -0.206 F 
ATOM     67  C   UNL A   1      41.030  26.116  27.461  1.00  0.00     0.060 A 
BRANCH  67  68
ATOM     68  S   UNL A   1      42.034  24.957  26.507  1.00  0.00     0.124 S 
ATOM     69  O   UNL A   1      41.261  23.724  26.611  1.00  0.00    -0.237 OA
ATOM     70  O   UNL A   1      42.057  25.582  25.188  1.00  0.00    -0.237 OA
ATOM     71  O   UNL A   1      43.316  24.954  27.208  1.00  0.00    -0.744 OA
ENDBRANCH  67  68
ENDBRANCH  35  60
ENDBRANCH   9  10
ENDBRANCH   2   4
ENDBRANCH   1   2
BRANCH   1  72
ATOM     72  C   UNL A   1      42.270  39.408  26.937  1.00  0.00     0.275 C 
BRANCH  72  73
ATOM     73  C   UNL A   1      43.418  40.368  26.575  1.00  0.00     0.275 C 
BRANCH  73  74
ATOM     74  O   UNL A   1      43.271  40.931  25.270  1.00  0.00    -0.458 OA
BRANCH  74  75
ATOM     75  C   UNL A   1      43.584  42.254  25.152  1.00  0.00     0.338 C 
ATOM     76  O   UNL A   1      44.304  42.904  25.867  1.00  0.00    -0.246 OA
BRANCH  75  77
ATOM     77  C   UNL A   1      43.064  42.682  23.830  1.00  0.00     0.061 A 
ATOM     78  C   UNL A   1      41.813  42.248  23.411  1.00  0.00     0.018 A 
ATOM     79  C   UNL A   1      43.914  43.404  22.973  1.00  0.00     0.037 A 
ATOM     80  C   UNL A   1      41.407  42.497  22.106  1.00  0.00     0.031 A 
ATOM     81  C   UNL A   1      43.530  43.519  21.622  1.00  0.00     0.057 A 
ATOM     82  C   UNL A   1      42.296  43.046  21.167  1.00  0.00     0.083 A 
ATOM     83  S   UNL A   1      44.405  44.146  20.269  1.00  0.00    -0.102 S 
ATOM     84  N   UNL A   1      42.091  43.116  19.802  1.00  0.00    -0.225 NA
ATOM     85  C   UNL A   1      43.162  43.608  19.244  1.00  0.00     0.184 A 
ATOM     86  Cl  UNL A   1      43.355  43.684  17.540  1.00  0.00    -0.050 Cl
ENDBRANCH  75  77
ENDBRANCH  74  75
ENDBRANCH  73  74
ENDBRANCH  72  73
ENDBRANCH   1  72
TORSDOF 14
ENDMDL
MODEL 3
REMARK VINA RESULT:      -9.9      3.279     10.696
REMARK SMILES O=C(OCCOC(=O)c1ccc2nc(Cl)sc2c1)c1ccc(-c2c3nc(c(-c4c(F)cc(S(=O)(=O)[O-])cc4F)c4ccc([nH]4)c(-c4c(F)cc(S(=O)(=O)[O-])cc4F)c4nc(c(-c5c(F)cc(S(=O)(=O)[O-])cc5F)c5ccc2[nH]5)C=C4)C=C3)cc1
REMARK SMILES IDX 3 1 2 2 1 3 19 4 20 5 84 6 21 7 83 8 22 9 23 10 24 11 77 12
REMARK SMILES IDX 25 13 82 14 76 15 78 16 26 17 81 18 75 19 74 20 27 22 61 23
REMARK SMILES IDX 40 24 60 25 41 26 44 27 59 28 79 29 42 30 43 31 58 33 80 34
REMARK SMILES IDX 45 35 28 36 29 37 38 38 30 39 31 40 37 41 39 42 32 43 33 44
REMARK SMILES IDX 34 45 35 46 36 47 62 48 63 49 72 50 64 51 65 52 71 53 73 54
REMARK SMILES IDX 66 55 67 56 68 57 69 58 70 59 46 60 47 61 56 62 48 63 49 64
REMARK SMILES IDX 55 65 57 66 50 67 51 68 52 69 53 70 54 71 4 72 5 73 6 74
REMARK SMILES IDX 7 75 8 76 9 77 10 78 18 79 11 80 17 81 12 82 16 83 13 84
REMARK SMILES IDX 14 85 15 86
REMARK H PARENT 78 21 44 32
REMARK Flexibility Score: inf
ROOT
ATOM      1  O   UNL A   1      34.113  33.420  28.831  1.00  0.00    -0.458 OA
ENDROOT
BRANCH   1   2
ATOM      2  C   UNL A   1      34.954  32.504  28.281  1.00  0.00     0.338 C 
ATOM      3  O   UNL A   1      34.592  31.899  27.272  1.00  0.00    -0.246 OA
BRANCH   2   4
ATOM      4  C   UNL A   1      36.175  32.012  29.005  1.00  0.00     0.060 A 
ATOM      5  C   UNL A   1      36.126  30.721  29.569  1.00  0.00     0.016 A 
ATOM      6  C   UNL A   1      37.329  32.750  29.224  1.00  0.00     0.016 A 
ATOM      7  C   UNL A   1      37.161  30.225  30.389  1.00  0.00     0.010 A 
ATOM      8  C   UNL A   1      38.329  32.283  30.085  1.00  0.00     0.010 A 
ATOM      9  C   UNL A   1      38.274  31.011  30.682  1.00  0.00    -0.014 A 
BRANCH   9  10
ATOM     10  C   UNL A   1      39.444  30.405  31.423  1.00  0.00     0.031 A 
ATOM     11  C   UNL A   1      39.726  29.042  30.842  1.00  0.00     0.074 A 
ATOM     12  C   UNL A   1      40.568  31.112  31.696  1.00  0.00     0.049 A 
ATOM     13  N   UNL A   1      40.391  28.806  29.751  1.00  0.00    -0.248 NA
ATOM     14  C   UNL A   1      38.938  27.902  31.318  1.00  0.00     0.031 C 
ATOM     15  C   UNL A   1      41.371  31.816  30.706  1.00  0.00     0.029 A 
ATOM     16  N   UNL A   1      41.345  31.166  32.853  1.00  0.00    -0.354 N 
ATOM     17  C   UNL A   1      40.082  27.514  29.364  1.00  0.00     0.074 A 
ATOM     18  C   UNL A   1      39.176  26.994  30.363  1.00  0.00     0.031 C 
ATOM     19  C   UNL A   1      42.478  32.312  31.285  1.00  0.00     0.029 A 
ATOM     20  C   UNL A   1      42.600  31.752  32.630  1.00  0.00     0.049 A 
ATOM     21  H   UNL A   1      41.045  30.831  33.728  1.00  0.00     0.167 HD
ATOM     22  C   UNL A   1      40.577  26.938  28.239  1.00  0.00     0.037 A 
ATOM     23  C   UNL A   1      43.796  31.264  33.093  1.00  0.00     0.037 A 
ATOM     24  C   UNL A   1      41.490  27.737  27.480  1.00  0.00     0.049 A 
ATOM     25  C   UNL A   1      44.210  30.317  31.979  1.00  0.00     0.074 A 
ATOM     26  C   UNL A   1      41.501  28.454  26.306  1.00  0.00     0.029 A 
ATOM     27  N   UNL A   1      42.751  27.904  28.004  1.00  0.00    -0.354 N 
ATOM     28  N   UNL A   1      44.698  30.650  30.807  1.00  0.00    -0.248 NA
ATOM     29  C   UNL A   1      43.613  28.981  32.020  1.00  0.00     0.031 C 
ATOM     30  C   UNL A   1      42.601  29.364  26.427  1.00  0.00     0.029 A 
ATOM     31  C   UNL A   1      43.182  29.163  27.680  1.00  0.00     0.049 A 
ATOM     32  H   UNL A   1      43.255  27.236  28.521  1.00  0.00     0.167 HD
ATOM     33  C   UNL A   1      44.155  29.728  29.901  1.00  0.00     0.074 A 
ATOM     34  C   UNL A   1      43.537  28.705  30.724  1.00  0.00     0.031 C 
ATOM     35  C   UNL A   1      44.037  29.947  28.554  1.00  0.00     0.037 A 
BRANCH  22  36
ATOM     36  C   UNL A   1      40.439  25.497  27.961  1.00  0.00     0.058 A 
ATOM     37  C   UNL A   1      41.504  24.673  28.352  1.00  0.00     0.135 A 
ATOM     38  C   UNL A   1      39.392  24.934  27.226  1.00  0.00     0.135 A 
ATOM     39  F   UNL A   1      42.517  25.183  29.074  1.00  0.00    -0.206 F 
ATOM     40  C   UNL A   1      41.565  23.342  27.985  1.00  0.00     0.059 A 
ATOM     41  C   UNL A   1      39.425  23.591  26.853  1.00  0.00     0.059 A 
ATOM     42  F   UNL A   1      38.348  25.686  26.841  1.00  0.00    -0.206 F 
ATOM     43  C   UNL A   1      40.527  22.812  27.219  1.00  0.00     0.060 A 
BRANCH  43  44
ATOM     44  S   UNL A   1      40.677  21.093  26.698  1.00  0.00     0.124 S 
ATOM     45  O   UNL A   1      39.426  20.891  25.975  1.00  0.00    -0.237 OA
ATOM     46  O   UNL A   1      41.886  21.132  25.882  1.00  0.00    -0.237 OA
ATOM     47  O   UNL A   1      40.797  20.366  27.958  1.00  0.00    -0.744 OA
ENDBRANCH  43  44
ENDBRANCH  22  36
BRANCH  23  48
ATOM     48  C   UNL A   1      43.910  30.988  34.554  1.00  0.00     0.058 A 
ATOM     49  C   UNL A   1      44.971  31.611  35.244  1.00  0.00     0.135 A 
ATOM     50  C   UNL A   1      43.042  30.207  35.332  1.00  0.00     0.135 A 
ATOM     51  F   UNL A   1      45.942  32.240  34.562  1.00  0.00    -0.206 F 
ATOM     52  C   UNL A   1      45.043  31.640  36.631  1.00  0.00     0.059 A 
ATOM     53  C   UNL A   1      43.081  30.233  36.728  1.00  0.00     0.059 A 
ATOM     54  F   UNL A   1      42.112  29.428  34.767  1.00  0.00    -0.206 F 
ATOM     55  C   UNL A   1      44.048  31.005  37.366  1.00  0.00     0.060 A 
BRANCH  55  56
ATOM     56  S   UNL A   1      43.979  31.309  39.143  1.00  0.00     0.124 S 
ATOM     57  O   UNL A   1      44.528  30.073  39.689  1.00  0.00    -0.237 OA
ATOM     58  O   UNL A   1      44.828  32.491  39.266  1.00  0.00    -0.237 OA
ATOM     59  O   UNL A   1      42.560  31.534  39.396  1.00  0.00    -0.744 OA
ENDBRANCH  55  56
ENDBRANCH  23  48
BRANCH  35  60
ATOM     60  C   UNL A   1      44.684  31.182  28.002  1.00  0.00     0.058 A 
ATOM     61  C   UNL A   1      46.013  31.144  27.564  1.00  0.00     0.135 A 
ATOM     62  C   UNL A   1      43.961  32.372  27.783  1.00  0.00     0.135 A 
ATOM     63  F   UNL A   1      46.746  30.029  27.721  1.00  0.00    -0.206 F 
ATOM     64  C   UNL A   1      46.593  32.222  26.900  1.00  0.00     0.059 A 
ATOM     65  C   UNL A   1      44.513  33.453  27.098  1.00  0.00     0.059 A 
ATOM     66  F   UNL A   1      42.684  32.485  28.190  1.00  0.00    -0.206 F 
ATOM     67  C   UNL A   1      45.830  33.363  26.650  1.00  0.00     0.060 A 
BRANCH  67  68
ATOM     68  S   UNL A   1      46.558  34.685  25.658  1.00  0.00     0.124 S 
ATOM     69  O   UNL A   1      47.922  34.205  25.463  1.00  0.00    -0.237 OA
ATOM     70  O   UNL A   1      45.709  34.683  24.471  1.00  0.00    -0.237 OA
ATOM     71  O   UNL A   1      46.425  35.866  26.509  1.00  0.00    -0.744 OA
ENDBRANCH  67  68
ENDBRANCH  35  60
ENDBRANCH   9  10
ENDBRANCH   2   4
ENDBRANCH   1   2
BRANCH   1  72
ATOM     72  C   UNL A   1      33.995  34.816  28.486  1.00  0.00     0.275 C 
BRANCH  72  73
ATOM     73  C   UNL A   1      33.311  35.671  29.569  1.00  0.00     0.275 C 
BRANCH  73  74
ATOM     74  O   UNL A   1      33.078  34.942  30.776  1.00  0.00    -0.458 OA
BRANCH  74  75
ATOM     75  C   UNL A   1      33.676  35.438  31.897  1.00  0.00     0.338 C 
ATOM     76  O   UNL A   1      33.292  36.342  32.595  1.00  0.00    -0.246 OA
BRANCH  75  77
ATOM     77  C   UNL A   1      34.764  34.489  32.235  1.00  0.00     0.061 A 
ATOM     78  C   UNL A   1      34.479  33.135  32.364  1.00  0.00     0.018 A 
ATOM     79  C   UNL A   1      36.034  35.003  32.556  1.00  0.00     0.037 A 
ATOM     80  C   UNL A   1      35.454  32.277  32.857  1.00  0.00     0.031 A 
ATOM     81  C   UNL A   1      36.950  34.133  33.179  1.00  0.00     0.057 A 
ATOM     82  C   UNL A   1      36.665  32.777  33.363  1.00  0.00     0.083 A 
ATOM     83  S   UNL A   1      38.494  34.466  33.882  1.00  0.00    -0.102 S 
ATOM     84  N   UNL A   1      37.598  32.060  34.090  1.00  0.00    -0.225 NA
ATOM     85  C   UNL A   1      38.548  32.871  34.463  1.00  0.00     0.184 A 
ATOM     86  Cl  UNL A   1      39.798  32.384  35.534  1.00  0.00    -0.050 Cl
ENDBRANCH  75  77
ENDBRANCH  74  75
ENDBRANCH  73  74
ENDBRANCH  72  73
ENDBRANCH   1  72
TORSDOF 14
ENDMDL
