MODEL 1
REMARK VINA RESULT:     -12.1      0.000      0.000
REMARK SMILES COc1ccc(-c2sc(N)nc2C(=O)OCCOC(=O)c2ccc(-c3c4nc(c(-c5c(F)cc(S(=O)(=O)[O-])cc5F)c5ccc([nH]5)c(-c5c(F)cc(S(=O)(=O)[O-])cc5F)c5nc(c(-c6c(F)cc(S(=O)(=O)[O-])cc6F)c6ccc3[nH]6)C=C5)C=C4)cc2)cc1OC
REMARK SMILES IDX 17 1 16 2 15 3 13 4 14 5 12 6 7 7 8 8 9 9 11 10 6 11 3 12
REMARK SMILES IDX 4 13 88 14 5 15 87 16 2 17 1 18 89 19 90 20 10 21 18 24
REMARK SMILES IDX 19 25 20 26 21 27 22 28 86 29 23 30 85 31 24 32 25 33 26 34
REMARK SMILES IDX 79 35 27 36 84 37 78 38 80 39 28 40 83 41 77 42 76 43 29 45
REMARK SMILES IDX 63 46 42 47 62 48 43 49 46 50 61 51 81 52 44 53 45 54 60 56
REMARK SMILES IDX 82 57 47 58 30 59 31 60 40 61 32 62 33 63 39 64 41 65 34 66
REMARK SMILES IDX 35 67 36 68 37 69 38 70 64 71 65 72 74 73 66 74 67 75 73 76
REMARK SMILES IDX 75 77 68 78 69 79 70 80 71 81 72 82 48 83 49 84 58 85 50 86
REMARK SMILES IDX 51 87 57 88 59 89 52 90 53 91 54 92 55 93 56 94
REMARK H PARENT 10 22 10 23 80 44 46 55
REMARK Flexibility Score: inf
ROOT
ATOM      1  C   UNL A   1      39.287  22.620  26.220  1.00  0.00     0.275 C 
ENDROOT
BRANCH   1   2
ATOM      2  C   UNL A   1      38.522  21.436  25.634  1.00  0.00     0.275 C 
BRANCH   2   3
ATOM      3  O   UNL A   1      37.102  21.605  25.826  1.00  0.00    -0.457 OA
BRANCH   3   4
ATOM      4  C   UNL A   1      36.362  21.738  24.686  1.00  0.00     0.358 C 
ATOM      5  O   UNL A   1      36.814  22.139  23.620  1.00  0.00    -0.244 OA
BRANCH   4   6
ATOM      6  C   UNL A   1      34.959  21.359  24.863  1.00  0.00     0.169 A 
ATOM      7  C   UNL A   1      33.886  22.248  24.881  1.00  0.00     0.071 A 
ATOM      8  S   UNL A   1      32.455  21.417  25.296  1.00  0.00    -0.096 S 
ATOM      9  C   UNL A   1      33.357  19.966  25.483  1.00  0.00     0.181 A 
ATOM     10  N   UNL A   1      34.622  20.040  25.159  1.00  0.00    -0.213 NA
BRANCH   7  11
ATOM     11  C   UNL A   1      33.897  23.703  24.726  1.00  0.00    -0.002 A 
ATOM     12  C   UNL A   1      32.784  27.110  23.725  1.00  0.00     0.160 A 
ATOM     13  C   UNL A   1      33.427  25.934  22.598  1.00  0.00     0.051 A 
ATOM     14  C   UNL A   1      32.617  26.661  25.460  1.00  0.00     0.161 A 
ATOM     15  C   UNL A   1      33.945  24.303  23.063  1.00  0.00     0.014 A 
ATOM     16  C   UNL A   1      33.285  24.824  26.019  1.00  0.00     0.060 A 
BRANCH  12  17
ATOM     17  O   UNL A   1      32.451  28.347  23.248  1.00  0.00    -0.493 OA
ATOM     18  C   UNL A   1      31.127  28.357  22.705  1.00  0.00     0.278 C 
ENDBRANCH  12  17
BRANCH  14  19
ATOM     19  O   UNL A   1      31.545  27.456  25.978  1.00  0.00    -0.493 OA
ATOM     20  C   UNL A   1      31.724  28.136  27.209  1.00  0.00     0.278 C 
ENDBRANCH  14  19
ENDBRANCH   7  11
BRANCH   9  21
ATOM     21  N   UNL A   1      32.811  18.846  25.969  1.00  0.00    -0.375 N 
ATOM     22  H   UNL A   1      32.131  18.898  26.677  1.00  0.00     0.159 HD
ATOM     23  H   UNL A   1      33.090  17.970  25.616  1.00  0.00     0.159 HD
ENDBRANCH   9  21
ENDBRANCH   4   6
ENDBRANCH   3   4
ENDBRANCH   2   3
ENDBRANCH   1   2
BRANCH   1  24
ATOM     24  O   UNL A   1      40.593  22.191  26.646  1.00  0.00    -0.458 OA
BRANCH  24  25
ATOM     25  C   UNL A   1      41.511  23.176  26.650  1.00  0.00     0.338 C 
ATOM     26  O   UNL A   1      42.319  23.439  25.770  1.00  0.00    -0.246 OA
BRANCH  25  27
ATOM     27  C   UNL A   1      41.378  24.049  27.813  1.00  0.00     0.060 A 
ATOM     28  C   UNL A   1      39.809  24.871  28.138  1.00  0.00     0.016 A 
ATOM     29  C   UNL A   1      42.861  24.879  28.315  1.00  0.00     0.016 A 
ATOM     30  C   UNL A   1      39.864  26.711  28.970  1.00  0.00     0.010 A 
ATOM     31  C   UNL A   1      42.849  26.453  29.163  1.00  0.00     0.010 A 
ATOM     32  C   UNL A   1      41.401  27.425  29.521  1.00  0.00    -0.014 A 
BRANCH  32  33
ATOM     33  C   UNL A   1      41.343  28.571  30.572  1.00  0.00     0.031 A 
ATOM     34  C   UNL A   1      42.024  28.390  31.922  1.00  0.00     0.074 A 
ATOM     35  C   UNL A   1      40.531  29.670  30.458  1.00  0.00     0.049 A 
ATOM     36  N   UNL A   1      41.772  28.965  33.074  1.00  0.00    -0.248 NA
ATOM     37  C   UNL A   1      43.126  27.422  31.991  1.00  0.00     0.031 C 
ATOM     38  C   UNL A   1      39.854  30.199  29.275  1.00  0.00     0.029 A 
ATOM     39  N   UNL A   1      40.023  30.520  31.438  1.00  0.00    -0.354 N 
ATOM     40  C   UNL A   1      42.647  28.388  33.993  1.00  0.00     0.074 A 
ATOM     41  C   UNL A   1      43.325  27.317  33.298  1.00  0.00     0.031 C 
ATOM     42  C   UNL A   1      38.879  31.050  29.596  1.00  0.00     0.029 A 
ATOM     43  C   UNL A   1      38.937  31.275  31.013  1.00  0.00     0.049 A 
ATOM     44  H   UNL A   1      40.398  30.580  32.346  1.00  0.00     0.167 HD
ATOM     45  C   UNL A   1      42.952  28.775  35.258  1.00  0.00     0.037 A 
ATOM     46  C   UNL A   1      38.076  32.116  31.618  1.00  0.00     0.037 A 
ATOM     47  C   UNL A   1      42.403  29.950  35.892  1.00  0.00     0.049 A 
ATOM     48  C   UNL A   1      38.394  32.532  33.006  1.00  0.00     0.074 A 
ATOM     49  C   UNL A   1      42.782  30.540  37.085  1.00  0.00     0.029 A 
ATOM     50  N   UNL A   1      41.379  30.727  35.373  1.00  0.00    -0.354 N 
ATOM     51  N   UNL A   1      39.292  32.025  33.811  1.00  0.00    -0.248 NA
ATOM     52  C   UNL A   1      37.676  33.697  33.529  1.00  0.00     0.031 C 
ATOM     53  C   UNL A   1      41.954  31.643  37.313  1.00  0.00     0.029 A 
ATOM     54  C   UNL A   1      41.094  31.772  36.237  1.00  0.00     0.049 A 
ATOM     55  H   UNL A   1      40.921  30.560  34.517  1.00  0.00     0.167 HD
ATOM     56  C   UNL A   1      39.300  32.855  34.916  1.00  0.00     0.074 A 
ATOM     57  C   UNL A   1      38.309  33.887  34.678  1.00  0.00     0.031 C 
ATOM     58  C   UNL A   1      40.089  32.780  36.012  1.00  0.00     0.037 A 
BRANCH  45  59
ATOM     59  C   UNL A   1      43.991  27.983  36.020  1.00  0.00     0.058 A 
ATOM     60  C   UNL A   1      45.365  28.258  35.908  1.00  0.00     0.135 A 
ATOM     61  C   UNL A   1      43.607  26.974  36.920  1.00  0.00     0.135 A 
ATOM     62  F   UNL A   1      45.799  29.213  35.069  1.00  0.00    -0.206 F 
ATOM     63  C   UNL A   1      46.319  27.531  36.614  1.00  0.00     0.059 A 
ATOM     64  C   UNL A   1      44.543  26.261  37.669  1.00  0.00     0.059 A 
ATOM     65  F   UNL A   1      42.309  26.675  37.087  1.00  0.00    -0.206 F 
ATOM     66  C   UNL A   1      45.897  26.537  37.495  1.00  0.00     0.060 A 
BRANCH  66  67
ATOM     67  S   UNL A   1      47.152  25.622  38.419  1.00  0.00     0.124 S 
ATOM     68  O   UNL A   1      46.637  25.717  39.781  1.00  0.00    -0.237 OA
ATOM     69  O   UNL A   1      47.085  24.300  37.807  1.00  0.00    -0.237 OA
ATOM     70  O   UNL A   1      48.379  26.370  38.159  1.00  0.00    -0.744 OA
ENDBRANCH  66  67
ENDBRANCH  45  59
BRANCH  46  71
ATOM     71  C   UNL A   1      36.937  32.714  30.857  1.00  0.00     0.058 A 
ATOM     72  C   UNL A   1      35.628  32.220  30.976  1.00  0.00     0.135 A 
ATOM     73  C   UNL A   1      37.131  33.836  30.033  1.00  0.00     0.135 A 
ATOM     74  F   UNL A   1      35.381  31.167  31.769  1.00  0.00    -0.206 F 
ATOM     75  C   UNL A   1      34.563  32.788  30.282  1.00  0.00     0.059 A 
ATOM     76  C   UNL A   1      36.078  34.435  29.344  1.00  0.00     0.059 A 
ATOM     77  F   UNL A   1      38.355  34.373  29.908  1.00  0.00    -0.206 F 
ATOM     78  C   UNL A   1      34.798  33.896  29.463  1.00  0.00     0.060 A 
BRANCH  78  79
ATOM     79  S   UNL A   1      33.400  34.624  28.576  1.00  0.00     0.124 S 
ATOM     80  O   UNL A   1      32.529  35.021  29.675  1.00  0.00    -0.237 OA
ATOM     81  O   UNL A   1      34.040  35.713  27.843  1.00  0.00    -0.237 OA
ATOM     82  O   UNL A   1      32.913  33.523  27.751  1.00  0.00    -0.744 OA
ENDBRANCH  78  79
ENDBRANCH  46  71
BRANCH  58  83
ATOM     83  C   UNL A   1      39.917  33.863  37.029  1.00  0.00     0.058 A 
ATOM     84  C   UNL A   1      40.605  35.081  36.922  1.00  0.00     0.135 A 
ATOM     85  C   UNL A   1      39.063  33.675  38.125  1.00  0.00     0.135 A 
ATOM     86  F   UNL A   1      41.451  35.293  35.902  1.00  0.00    -0.206 F 
ATOM     87  C   UNL A   1      40.473  36.068  37.888  1.00  0.00     0.059 A 
ATOM     88  C   UNL A   1      38.887  34.664  39.084  1.00  0.00     0.059 A 
ATOM     89  F   UNL A   1      38.388  32.523  38.271  1.00  0.00    -0.206 F 
ATOM     90  C   UNL A   1      39.610  35.851  38.963  1.00  0.00     0.060 A 
BRANCH  90  91
ATOM     91  S   UNL A   1      39.427  37.157  40.190  1.00  0.00     0.124 S 
ATOM     92  O   UNL A   1      38.681  38.161  39.439  1.00  0.00    -0.237 OA
ATOM     93  O   UNL A   1      38.689  36.480  41.253  1.00  0.00    -0.237 OA
ATOM     94  O   UNL A   1      40.804  37.511  40.519  1.00  0.00    -0.744 OA
ENDBRANCH  90  91
ENDBRANCH  58  83
ENDBRANCH  32  33
ENDBRANCH  25  27
ENDBRANCH  24  25
ENDBRANCH   1  24
TORSDOF 18
ENDMDL
MODEL 2
REMARK VINA RESULT:     -11.2      3.983      6.463
REMARK SMILES COc1ccc(-c2sc(N)nc2C(=O)OCCOC(=O)c2ccc(-c3c4nc(c(-c5c(F)cc(S(=O)(=O)[O-])cc5F)c5ccc([nH]5)c(-c5c(F)cc(S(=O)(=O)[O-])cc5F)c5nc(c(-c6c(F)cc(S(=O)(=O)[O-])cc6F)c6ccc3[nH]6)C=C5)C=C4)cc2)cc1OC
REMARK SMILES IDX 17 1 16 2 15 3 13 4 14 5 12 6 7 7 8 8 9 9 11 10 6 11 3 12
REMARK SMILES IDX 4 13 88 14 5 15 87 16 2 17 1 18 89 19 90 20 10 21 18 24
REMARK SMILES IDX 19 25 20 26 21 27 22 28 86 29 23 30 85 31 24 32 25 33 26 34
REMARK SMILES IDX 79 35 27 36 84 37 78 38 80 39 28 40 83 41 77 42 76 43 29 45
REMARK SMILES IDX 63 46 42 47 62 48 43 49 46 50 61 51 81 52 44 53 45 54 60 56
REMARK SMILES IDX 82 57 47 58 30 59 31 60 40 61 32 62 33 63 39 64 41 65 34 66
REMARK SMILES IDX 35 67 36 68 37 69 38 70 64 71 65 72 74 73 66 74 67 75 73 76
REMARK SMILES IDX 75 77 68 78 69 79 70 80 71 81 72 82 48 83 49 84 58 85 50 86
REMARK SMILES IDX 51 87 57 88 59 89 52 90 53 91 54 92 55 93 56 94
REMARK H PARENT 10 22 10 23 80 44 46 55
REMARK Flexibility Score: inf
ROOT
ATOM      1  C   UNL A   1      43.091  22.602  25.015  1.00  0.00     0.275 C 
ENDROOT
BRANCH   1   2
ATOM      2  C   UNL A   1      44.291  23.251  24.328  1.00  0.00     0.275 C 
BRANCH   2   3
ATOM      3  O   UNL A   1      44.641  24.488  24.982  1.00  0.00    -0.457 OA
BRANCH   3   4
ATOM      4  C   UNL A   1      45.783  24.461  25.730  1.00  0.00     0.358 C 
ATOM      5  O   UNL A   1      45.994  23.652  26.626  1.00  0.00    -0.244 OA
BRANCH   4   6
ATOM      6  C   UNL A   1      46.739  25.506  25.360  1.00  0.00     0.169 A 
ATOM      7  C   UNL A   1      46.799  26.775  25.934  1.00  0.00     0.071 A 
ATOM      8  S   UNL A   1      47.927  27.737  25.089  1.00  0.00    -0.096 S 
ATOM      9  C   UNL A   1      48.206  26.441  23.995  1.00  0.00     0.181 A 
ATOM     10  N   UNL A   1      47.598  25.319  24.279  1.00  0.00    -0.213 NA
BRANCH   7  11
ATOM     11  C   UNL A   1      45.970  27.341  26.999  1.00  0.00    -0.002 A 
ATOM     12  C   UNL A   1      44.872  29.639  29.711  1.00  0.00     0.160 A 
ATOM     13  C   UNL A   1      46.161  28.468  29.900  1.00  0.00     0.051 A 
ATOM     14  C   UNL A   1      44.038  29.776  28.121  1.00  0.00     0.161 A 
ATOM     15  C   UNL A   1      46.702  27.380  28.609  1.00  0.00     0.014 A 
ATOM     16  C   UNL A   1      44.593  28.477  26.660  1.00  0.00     0.060 A 
BRANCH  12  17
ATOM     17  O   UNL A   1      44.525  30.398  30.793  1.00  0.00    -0.493 OA
ATOM     18  C   UNL A   1      45.438  31.484  30.983  1.00  0.00     0.278 C 
ENDBRANCH  12  17
BRANCH  14  19
ATOM     19  O   UNL A   1      43.562  31.123  28.034  1.00  0.00    -0.493 OA
ATOM     20  C   UNL A   1      44.358  32.094  27.373  1.00  0.00     0.278 C 
ENDBRANCH  14  19
ENDBRANCH   7  11
BRANCH   9  21
ATOM     21  N   UNL A   1      48.963  26.583  22.902  1.00  0.00    -0.375 N 
ATOM     22  H   UNL A   1      49.773  26.035  22.790  1.00  0.00     0.159 HD
ATOM     23  H   UNL A   1      48.710  27.236  22.210  1.00  0.00     0.159 HD
ENDBRANCH   9  21
ENDBRANCH   4   6
ENDBRANCH   3   4
ENDBRANCH   2   3
ENDBRANCH   1   2
BRANCH   1  24
ATOM     24  O   UNL A   1      42.340  23.603  25.725  1.00  0.00    -0.458 OA
BRANCH  24  25
ATOM     25  C   UNL A   1      41.502  23.095  26.650  1.00  0.00     0.338 C 
ATOM     26  O   UNL A   1      40.969  21.994  26.640  1.00  0.00    -0.246 OA
BRANCH  25  27
ATOM     27  C   UNL A   1      41.368  23.969  27.812  1.00  0.00     0.060 A 
ATOM     28  C   UNL A   1      39.817  24.834  28.104  1.00  0.00     0.016 A 
ATOM     29  C   UNL A   1      42.863  24.755  28.349  1.00  0.00     0.016 A 
ATOM     30  C   UNL A   1      39.905  26.670  28.942  1.00  0.00     0.010 A 
ATOM     31  C   UNL A   1      42.877  26.327  29.201  1.00  0.00     0.010 A 
ATOM     32  C   UNL A   1      41.449  27.339  29.529  1.00  0.00    -0.014 A 
BRANCH  32  33
ATOM     33  C   UNL A   1      41.401  28.484  30.582  1.00  0.00     0.031 A 
ATOM     34  C   UNL A   1      42.088  28.298  31.928  1.00  0.00     0.074 A 
ATOM     35  C   UNL A   1      40.593  29.587  30.473  1.00  0.00     0.049 A 
ATOM     36  N   UNL A   1      41.843  28.873  33.083  1.00  0.00    -0.248 NA
ATOM     37  C   UNL A   1      43.186  27.326  31.992  1.00  0.00     0.031 C 
ATOM     38  C   UNL A   1      39.913  30.119  29.293  1.00  0.00     0.029 A 
ATOM     39  N   UNL A   1      40.093  30.437  31.456  1.00  0.00    -0.354 N 
ATOM     40  C   UNL A   1      42.720  28.292  33.996  1.00  0.00     0.074 A 
ATOM     41  C   UNL A   1      43.390  27.218  33.297  1.00  0.00     0.031 C 
ATOM     42  C   UNL A   1      38.943  30.974  29.619  1.00  0.00     0.029 A 
ATOM     43  C   UNL A   1      39.008  31.197  31.037  1.00  0.00     0.049 A 
ATOM     44  H   UNL A   1      40.472  30.495  32.363  1.00  0.00     0.167 HD
ATOM     45  C   UNL A   1      43.032  28.676  35.261  1.00  0.00     0.037 A 
ATOM     46  C   UNL A   1      38.154  32.041  31.646  1.00  0.00     0.037 A 
ATOM     47  C   UNL A   1      42.491  29.851  35.898  1.00  0.00     0.049 A 
ATOM     48  C   UNL A   1      38.480  32.454  33.034  1.00  0.00     0.074 A 
ATOM     49  C   UNL A   1      42.878  30.439  37.091  1.00  0.00     0.029 A 
ATOM     50  N   UNL A   1      41.467  30.633  35.385  1.00  0.00    -0.354 N 
ATOM     51  N   UNL A   1      39.378  31.942  33.834  1.00  0.00    -0.248 NA
ATOM     52  C   UNL A   1      37.769  33.621  33.562  1.00  0.00     0.031 C 
ATOM     53  C   UNL A   1      42.055  31.545  37.324  1.00  0.00     0.029 A 
ATOM     54  C   UNL A   1      41.190  31.679  36.252  1.00  0.00     0.049 A 
ATOM     55  H   UNL A   1      41.005  30.470  34.531  1.00  0.00     0.167 HD
ATOM     56  C   UNL A   1      39.395  32.771  34.941  1.00  0.00     0.074 A 
ATOM     57  C   UNL A   1      38.408  33.807  34.708  1.00  0.00     0.031 C 
ATOM     58  C   UNL A   1      40.189  32.691  36.033  1.00  0.00     0.037 A 
BRANCH  45  59
ATOM     59  C   UNL A   1      44.071  27.878  36.018  1.00  0.00     0.058 A 
ATOM     60  C   UNL A   1      45.447  28.133  35.883  1.00  0.00     0.135 A 
ATOM     61  C   UNL A   1      43.686  26.885  36.934  1.00  0.00     0.135 A 
ATOM     62  F   UNL A   1      45.882  29.072  35.026  1.00  0.00    -0.206 F 
ATOM     63  C   UNL A   1      46.401  27.402  36.583  1.00  0.00     0.059 A 
ATOM     64  C   UNL A   1      44.623  26.168  37.678  1.00  0.00     0.059 A 
ATOM     65  F   UNL A   1      42.387  26.605  37.123  1.00  0.00    -0.206 F 
ATOM     66  C   UNL A   1      45.979  26.423  37.482  1.00  0.00     0.060 A 
BRANCH  66  67
ATOM     67  S   UNL A   1      47.234  25.503  38.398  1.00  0.00     0.124 S 
ATOM     68  O   UNL A   1      47.699  24.559  37.387  1.00  0.00    -0.237 OA
ATOM     69  O   UNL A   1      48.179  26.552  38.767  1.00  0.00    -0.237 OA
ATOM     70  O   UNL A   1      46.487  24.917  39.506  1.00  0.00    -0.744 OA
ENDBRANCH  66  67
ENDBRANCH  45  59
BRANCH  46  71
ATOM     71  C   UNL A   1      37.013  32.645  30.891  1.00  0.00     0.058 A 
ATOM     72  C   UNL A   1      35.703  32.157  31.017  1.00  0.00     0.135 A 
ATOM     73  C   UNL A   1      37.209  33.766  30.067  1.00  0.00     0.135 A 
ATOM     74  F   UNL A   1      35.455  31.104  31.811  1.00  0.00    -0.206 F 
ATOM     75  C   UNL A   1      34.637  32.730  30.328  1.00  0.00     0.059 A 
ATOM     76  C   UNL A   1      36.155  34.371  29.383  1.00  0.00     0.059 A 
ATOM     77  F   UNL A   1      38.434  34.297  29.937  1.00  0.00    -0.206 F 
ATOM     78  C   UNL A   1      34.873  33.836  29.509  1.00  0.00     0.060 A 
BRANCH  78  79
ATOM     79  S   UNL A   1      33.475  34.571  28.628  1.00  0.00     0.124 S 
ATOM     80  O   UNL A   1      33.045  33.464  27.782  1.00  0.00    -0.237 OA
ATOM     81  O   UNL A   1      32.576  34.923  29.724  1.00  0.00    -0.237 OA
ATOM     82  O   UNL A   1      34.073  35.703  27.928  1.00  0.00    -0.744 OA
ENDBRANCH  78  79
ENDBRANCH  46  71
BRANCH  58  83
ATOM     83  C   UNL A   1      40.026  33.773  37.051  1.00  0.00     0.058 A 
ATOM     84  C   UNL A   1      39.272  33.572  38.217  1.00  0.00     0.135 A 
ATOM     85  C   UNL A   1      40.623  35.027  36.853  1.00  0.00     0.135 A 
ATOM     86  F   UNL A   1      38.663  32.396  38.435  1.00  0.00    -0.206 F 
ATOM     87  C   UNL A   1      39.089  34.591  39.140  1.00  0.00     0.059 A 
ATOM     88  C   UNL A   1      40.485  36.049  37.783  1.00  0.00     0.059 A 
ATOM     89  F   UNL A   1      41.350  35.267  35.750  1.00  0.00    -0.206 F 
ATOM     90  C   UNL A   1      39.702  35.825  38.916  1.00  0.00     0.060 A 
BRANCH  90  91
ATOM     91  S   UNL A   1      39.482  37.126  40.141  1.00  0.00     0.124 S 
ATOM     92  O   UNL A   1      38.471  36.539  41.014  1.00  0.00    -0.237 OA
ATOM     93  O   UNL A   1      40.821  37.245  40.710  1.00  0.00    -0.237 OA
ATOM     94  O   UNL A   1      39.041  38.270  39.347  1.00  0.00    -0.744 OA
ENDBRANCH  90  91
ENDBRANCH  58  83
ENDBRANCH  32  33
ENDBRANCH  25  27
ENDBRANCH  24  25
ENDBRANCH   1  24
TORSDOF 18
ENDMDL
MODEL 3
REMARK VINA RESULT:     -10.7      6.673      9.633
REMARK SMILES COc1ccc(-c2sc(N)nc2C(=O)OCCOC(=O)c2ccc(-c3c4nc(c(-c5c(F)cc(S(=O)(=O)[O-])cc5F)c5ccc([nH]5)c(-c5c(F)cc(S(=O)(=O)[O-])cc5F)c5nc(c(-c6c(F)cc(S(=O)(=O)[O-])cc6F)c6ccc3[nH]6)C=C5)C=C4)cc2)cc1OC
REMARK SMILES IDX 17 1 16 2 15 3 13 4 14 5 12 6 7 7 8 8 9 9 11 10 6 11 3 12
REMARK SMILES IDX 4 13 88 14 5 15 87 16 2 17 1 18 89 19 90 20 10 21 18 24
REMARK SMILES IDX 19 25 20 26 21 27 22 28 86 29 23 30 85 31 24 32 25 33 26 34
REMARK SMILES IDX 79 35 27 36 84 37 78 38 80 39 28 40 83 41 77 42 76 43 29 45
REMARK SMILES IDX 63 46 42 47 62 48 43 49 46 50 61 51 81 52 44 53 45 54 60 56
REMARK SMILES IDX 82 57 47 58 30 59 31 60 40 61 32 62 33 63 39 64 41 65 34 66
REMARK SMILES IDX 35 67 36 68 37 69 38 70 64 71 65 72 74 73 66 74 67 75 73 76
REMARK SMILES IDX 75 77 68 78 69 79 70 80 71 81 72 82 48 83 49 84 58 85 50 86
REMARK SMILES IDX 51 87 57 88 59 89 52 90 53 91 54 92 55 93 56 94
REMARK H PARENT 10 22 10 23 80 44 46 55
REMARK Flexibility Score: inf
ROOT
ATOM      1  C   UNL A   1      41.271  22.881  28.404  1.00  0.00     0.275 C 
ENDROOT
BRANCH   1   2
ATOM      2  C   UNL A   1      42.133  21.623  28.325  1.00  0.00     0.275 C 
BRANCH   2   3
ATOM      3  O   UNL A   1      41.822  20.870  27.134  1.00  0.00    -0.457 OA
BRANCH   3   4
ATOM      4  C   UNL A   1      42.226  21.430  25.956  1.00  0.00     0.358 C 
ATOM      5  O   UNL A   1      41.551  22.223  25.310  1.00  0.00    -0.244 OA
BRANCH   4   6
ATOM      6  C   UNL A   1      43.553  20.983  25.531  1.00  0.00     0.169 A 
ATOM      7  C   UNL A   1      44.715  21.752  25.592  1.00  0.00     0.071 A 
ATOM      8  S   UNL A   1      45.996  20.922  24.829  1.00  0.00    -0.096 S 
ATOM      9  C   UNL A   1      44.920  19.646  24.420  1.00  0.00     0.181 A 
ATOM     10  N   UNL A   1      43.709  19.750  24.900  1.00  0.00    -0.213 NA
BRANCH   7  11
ATOM     11  C   UNL A   1      44.884  23.121  26.079  1.00  0.00    -0.002 A 
ATOM     12  C   UNL A   1      46.555  26.151  27.445  1.00  0.00     0.160 A 
ATOM     13  C   UNL A   1      46.181  24.738  28.409  1.00  0.00     0.051 A 
ATOM     14  C   UNL A   1      46.145  26.152  25.693  1.00  0.00     0.161 A 
ATOM     15  C   UNL A   1      45.400  23.283  27.763  1.00  0.00     0.014 A 
ATOM     16  C   UNL A   1      45.174  24.523  24.960  1.00  0.00     0.060 A 
BRANCH  12  17
ATOM     17  O   UNL A   1      47.129  27.224  28.068  1.00  0.00    -0.493 OA
ATOM     18  C   UNL A   1      48.522  27.002  28.312  1.00  0.00     0.278 C 
ENDBRANCH  12  17
BRANCH  14  19
ATOM     19  O   UNL A   1      47.077  27.038  25.063  1.00  0.00    -0.493 OA
ATOM     20  C   UNL A   1      46.590  28.037  24.182  1.00  0.00     0.278 C 
ENDBRANCH  14  19
ENDBRANCH   7  11
BRANCH   9  21
ATOM     21  N   UNL A   1      45.287  18.633  23.628  1.00  0.00    -0.375 N 
ATOM     22  H   UNL A   1      46.184  18.625  23.224  1.00  0.00     0.159 HD
ATOM     23  H   UNL A   1      44.659  17.895  23.450  1.00  0.00     0.159 HD
ENDBRANCH   9  21
ENDBRANCH   4   6
ENDBRANCH   3   4
ENDBRANCH   2   3
ENDBRANCH   1   2
BRANCH   1  24
ATOM     24  O   UNL A   1      42.079  23.997  28.819  1.00  0.00    -0.458 OA
BRANCH  24  25
ATOM     25  C   UNL A   1      42.035  25.042  27.969  1.00  0.00     0.338 C 
ATOM     26  O   UNL A   1      41.982  25.000  26.748  1.00  0.00    -0.246 OA
BRANCH  25  27
ATOM     27  C   UNL A   1      41.920  26.318  28.669  1.00  0.00     0.060 A 
ATOM     28  C   UNL A   1      40.671  27.509  28.157  1.00  0.00     0.016 A 
ATOM     29  C   UNL A   1      43.429  26.949  29.352  1.00  0.00     0.016 A 
ATOM     30  C   UNL A   1      41.119  29.472  28.317  1.00  0.00     0.010 A 
ATOM     31  C   UNL A   1      43.726  28.697  29.590  1.00  0.00     0.010 A 
ATOM     32  C   UNL A   1      42.628  30.009  29.099  1.00  0.00    -0.014 A 
BRANCH  32  33
ATOM     33  C   UNL A   1      42.697  31.467  29.637  1.00  0.00     0.031 A 
ATOM     34  C   UNL A   1      43.834  32.379  29.197  1.00  0.00     0.074 A 
ATOM     35  C   UNL A   1      41.919  31.939  30.662  1.00  0.00     0.049 A 
ATOM     36  N   UNL A   1      44.352  33.426  29.796  1.00  0.00    -0.248 NA
ATOM     37  C   UNL A   1      44.489  32.066  27.920  1.00  0.00     0.031 C 
ATOM     38  C   UNL A   1      40.686  31.382  31.218  1.00  0.00     0.029 A 
ATOM     39  N   UNL A   1      42.133  32.999  31.541  1.00  0.00    -0.354 N 
ATOM     40  C   UNL A   1      45.409  33.848  28.992  1.00  0.00     0.074 A 
ATOM     41  C   UNL A   1      45.553  32.856  27.950  1.00  0.00     0.031 C 
ATOM     42  C   UNL A   1      40.403  31.891  32.417  1.00  0.00     0.029 A 
ATOM     43  C   UNL A   1      41.343  32.945  32.683  1.00  0.00     0.049 A 
ATOM     44  H   UNL A   1      42.782  33.719  31.370  1.00  0.00     0.167 HD
ATOM     45  C   UNL A   1      46.123  35.002  29.036  1.00  0.00     0.037 A 
ATOM     46  C   UNL A   1      41.281  33.657  33.824  1.00  0.00     0.037 A 
ATOM     47  C   UNL A   1      45.864  36.070  29.969  1.00  0.00     0.049 A 
ATOM     48  C   UNL A   1      42.071  34.912  33.886  1.00  0.00     0.074 A 
ATOM     49  C   UNL A   1      46.391  37.350  29.981  1.00  0.00     0.029 A 
ATOM     50  N   UNL A   1      44.987  35.994  31.041  1.00  0.00    -0.354 N 
ATOM     51  N   UNL A   1      42.996  35.321  33.057  1.00  0.00    -0.248 NA
ATOM     52  C   UNL A   1      41.736  35.853  34.958  1.00  0.00     0.031 C 
ATOM     53  C   UNL A   1      45.872  38.030  31.087  1.00  0.00     0.029 A 
ATOM     54  C   UNL A   1      44.982  37.193  31.735  1.00  0.00     0.049 A 
ATOM     55  H   UNL A   1      44.447  35.204  31.274  1.00  0.00     0.167 HD
ATOM     56  C   UNL A   1      43.308  36.604  33.463  1.00  0.00     0.074 A 
ATOM     57  C   UNL A   1      42.482  36.895  34.619  1.00  0.00     0.031 C 
ATOM     58  C   UNL A   1      44.181  37.470  32.900  1.00  0.00     0.037 A 
BRANCH  45  59
ATOM     59  C   UNL A   1      47.196  35.222  27.992  1.00  0.00     0.058 A 
ATOM     60  C   UNL A   1      46.914  35.813  26.749  1.00  0.00     0.135 A 
ATOM     61  C   UNL A   1      48.536  34.892  28.260  1.00  0.00     0.135 A 
ATOM     62  F   UNL A   1      45.654  36.156  26.431  1.00  0.00    -0.206 F 
ATOM     63  C   UNL A   1      47.903  36.019  25.793  1.00  0.00     0.059 A 
ATOM     64  C   UNL A   1      49.551  35.128  27.332  1.00  0.00     0.059 A 
ATOM     65  F   UNL A   1      48.875  34.340  29.436  1.00  0.00    -0.206 F 
ATOM     66  C   UNL A   1      49.220  35.676  26.095  1.00  0.00     0.060 A 
BRANCH  66  67
ATOM     67  S   UNL A   1      50.492  35.975  24.847  1.00  0.00     0.124 S 
ATOM     68  O   UNL A   1      49.773  36.814  23.894  1.00  0.00    -0.237 OA
ATOM     69  O   UNL A   1      51.533  36.644  25.621  1.00  0.00    -0.237 OA
ATOM     70  O   UNL A   1      50.828  34.636  24.375  1.00  0.00    -0.744 OA
ENDBRANCH  66  67
ENDBRANCH  45  59
BRANCH  46  71
ATOM     71  C   UNL A   1      40.336  33.266  34.915  1.00  0.00     0.058 A 
ATOM     72  C   UNL A   1      40.742  32.466  35.994  1.00  0.00     0.135 A 
ATOM     73  C   UNL A   1      39.012  33.737  34.923  1.00  0.00     0.135 A 
ATOM     74  F   UNL A   1      42.003  32.009  36.050  1.00  0.00    -0.206 F 
ATOM     75  C   UNL A   1      39.867  32.116  37.019  1.00  0.00     0.059 A 
ATOM     76  C   UNL A   1      38.123  33.418  35.948  1.00  0.00     0.059 A 
ATOM     77  F   UNL A   1      38.578  34.535  33.935  1.00  0.00    -0.206 F 
ATOM     78  C   UNL A   1      38.556  32.594  36.986  1.00  0.00     0.060 A 
BRANCH  78  79
ATOM     79  S   UNL A   1      37.437  32.135  38.331  1.00  0.00     0.124 S 
ATOM     80  O   UNL A   1      38.254  32.421  39.504  1.00  0.00    -0.237 OA
ATOM     81  O   UNL A   1      36.307  33.033  38.106  1.00  0.00    -0.237 OA
ATOM     82  O   UNL A   1      37.167  30.724  38.080  1.00  0.00    -0.744 OA
ENDBRANCH  78  79
ENDBRANCH  46  71
BRANCH  58  83
ATOM     83  C   UNL A   1      44.266  38.826  33.525  1.00  0.00     0.058 A 
ATOM     84  C   UNL A   1      43.531  39.910  33.022  1.00  0.00     0.135 A 
ATOM     85  C   UNL A   1      45.099  39.044  34.632  1.00  0.00     0.135 A 
ATOM     86  F   UNL A   1      42.740  39.752  31.949  1.00  0.00    -0.206 F 
ATOM     87  C   UNL A   1      43.643  41.175  33.579  1.00  0.00     0.059 A 
ATOM     88  C   UNL A   1      45.198  40.293  35.229  1.00  0.00     0.059 A 
ATOM     89  F   UNL A   1      45.826  38.037  35.144  1.00  0.00    -0.206 F 
ATOM     90  C   UNL A   1      44.476  41.356  34.684  1.00  0.00     0.060 A 
BRANCH  90  91
ATOM     91  S   UNL A   1      44.584  42.998  35.416  1.00  0.00     0.124 S 
ATOM     92  O   UNL A   1      45.988  43.328  35.190  1.00  0.00    -0.237 OA
ATOM     93  O   UNL A   1      43.619  43.754  34.623  1.00  0.00    -0.237 OA
ATOM     94  O   UNL A   1      44.206  42.776  36.808  1.00  0.00    -0.744 OA
ENDBRANCH  90  91
ENDBRANCH  58  83
ENDBRANCH  32  33
ENDBRANCH  25  27
ENDBRANCH  24  25
ENDBRANCH   1  24
TORSDOF 18
ENDMDL
