MODEL 1
REMARK VINA RESULT:     -11.0      0.000      0.000
REMARK SMILES Cc1[nH]c(=O)n(C)c(=O)c1CC(=O)OCCOC(=O)c1ccc(-c2c3nc(c(-c4c(F)cc(S(=O)(=O)[O-])cc4F)c4ccc([nH]4)c(-c4c(F)cc(S(=O)(=O)[O-])cc4F)c4nc(c(-c5c(F)cc(S(=O)(=O)[O-])cc5F)c5ccc2[nH]5)C=C4)C=C3)cc1
REMARK SMILES IDX 16 1 15 2 14 3 12 4 13 5 11 6 10 7 1 8 2 9 3 10 4 11 8 13
REMARK SMILES IDX 5 14 6 15 9 16 7 17 17 18 18 19 19 20 20 21 21 22 85 23
REMARK SMILES IDX 22 24 84 25 23 26 24 27 25 28 78 29 26 30 83 31 77 32 79 33
REMARK SMILES IDX 27 34 82 35 76 36 75 37 28 39 62 40 41 41 61 42 42 43 45 44
REMARK SMILES IDX 60 45 80 46 43 47 44 48 59 50 81 51 46 52 29 53 30 54 39 55
REMARK SMILES IDX 31 56 32 57 38 58 40 59 33 60 34 61 35 62 36 63 37 64 63 65
REMARK SMILES IDX 64 66 73 67 65 68 66 69 72 70 74 71 67 72 68 73 69 74 70 75
REMARK SMILES IDX 71 76 47 77 48 78 57 79 49 80 50 81 56 82 58 83 51 84 52 85
REMARK SMILES IDX 53 86 54 87 55 88
REMARK H PARENT 3 12 79 38 45 49
REMARK Flexibility Score: inf
ROOT
ATOM      1  C   UNL A   1      37.044  31.423  33.590  1.00  0.00     0.275 C 
ENDROOT
BRANCH   1   2
ATOM      2  C   UNL A   1      37.001  32.782  34.283  1.00  0.00     0.274 C 
BRANCH   2   3
ATOM      3  O   UNL A   1      35.648  33.282  34.342  1.00  0.00    -0.462 OA
BRANCH   3   4
ATOM      4  C   UNL A   1      35.434  34.469  33.710  1.00  0.00     0.310 C 
ATOM      5  O   UNL A   1      36.304  35.310  33.502  1.00  0.00    -0.252 OA
BRANCH   4   6
ATOM      6  C   UNL A   1      33.986  34.713  33.315  1.00  0.00     0.165 C 
BRANCH   6   7
ATOM      7  C   UNL A   1      33.782  35.487  32.043  1.00  0.00     0.048 A 
ATOM      8  C   UNL A   1      33.790  37.787  33.080  1.00  0.00     0.065 C 
ATOM      9  C   UNL A   1      33.677  36.822  31.934  1.00  0.00     0.026 A 
ATOM     10  N   UNL A   1      33.457  37.386  30.707  1.00  0.00    -0.311 N 
ATOM     11  C   UNL A   1      33.295  36.698  29.537  1.00  0.00     0.328 A 
ATOM     12  H   UNL A   1      33.410  38.369  30.663  1.00  0.00     0.171 HD
ATOM     13  C   UNL A   1      33.734  34.671  30.792  1.00  0.00     0.259 A 
ATOM     14  O   UNL A   1      33.074  37.318  28.498  1.00  0.00    -0.248 OA
ATOM     15  N   UNL A   1      33.406  35.327  29.623  1.00  0.00    -0.263 N 
ATOM     16  O   UNL A   1      34.010  33.476  30.856  1.00  0.00    -0.269 OA
ATOM     17  C   UNL A   1      33.265  34.560  28.401  1.00  0.00     0.158 C 
ENDBRANCH   6   7
ENDBRANCH   4   6
ENDBRANCH   3   4
ENDBRANCH   2   3
ENDBRANCH   1   2
BRANCH   1  18
ATOM     18  O   UNL A   1      37.103  31.618  32.170  1.00  0.00    -0.458 OA
BRANCH  18  19
ATOM     19  C   UNL A   1      37.073  30.491  31.419  1.00  0.00     0.338 C 
ATOM     20  O   UNL A   1      36.142  29.714  31.295  1.00  0.00    -0.246 OA
BRANCH  19  21
ATOM     21  C   UNL A   1      38.402  30.291  30.811  1.00  0.00     0.060 A 
ATOM     22  C   UNL A   1      38.588  30.446  29.435  1.00  0.00     0.016 A 
ATOM     23  C   UNL A   1      39.459  29.872  31.617  1.00  0.00     0.016 A 
ATOM     24  C   UNL A   1      39.809  30.120  28.851  1.00  0.00     0.010 A 
ATOM     25  C   UNL A   1      40.708  29.623  31.041  1.00  0.00     0.010 A 
ATOM     26  C   UNL A   1      40.886  29.716  29.650  1.00  0.00    -0.014 A 
BRANCH  26  27
ATOM     27  C   UNL A   1      42.188  29.357  29.031  1.00  0.00     0.031 A 
ATOM     28  C   UNL A   1      42.409  27.964  28.505  1.00  0.00     0.074 A 
ATOM     29  C   UNL A   1      43.166  30.278  28.938  1.00  0.00     0.049 A 
ATOM     30  N   UNL A   1      43.510  27.417  28.058  1.00  0.00    -0.248 NA
ATOM     31  C   UNL A   1      41.243  27.064  28.490  1.00  0.00     0.031 C 
ATOM     32  C   UNL A   1      43.061  31.671  29.377  1.00  0.00     0.029 A 
ATOM     33  N   UNL A   1      44.444  30.182  28.446  1.00  0.00    -0.354 N 
ATOM     34  C   UNL A   1      43.179  26.105  27.739  1.00  0.00     0.074 A 
ATOM     35  C   UNL A   1      41.780  25.930  28.060  1.00  0.00     0.031 C 
ATOM     36  C   UNL A   1      44.217  32.303  29.119  1.00  0.00     0.029 A 
ATOM     37  C   UNL A   1      45.166  31.348  28.558  1.00  0.00     0.049 A 
ATOM     38  H   UNL A   1      44.809  29.358  28.051  1.00  0.00     0.167 HD
ATOM     39  C   UNL A   1      43.972  25.138  27.220  1.00  0.00     0.037 A 
ATOM     40  C   UNL A   1      46.457  31.610  28.273  1.00  0.00     0.037 A 
ATOM     41  C   UNL A   1      45.353  25.333  26.863  1.00  0.00     0.049 A 
ATOM     42  C   UNL A   1      47.328  30.506  27.739  1.00  0.00     0.074 A 
ATOM     43  C   UNL A   1      46.231  24.422  26.302  1.00  0.00     0.029 A 
ATOM     44  N   UNL A   1      46.054  26.520  27.020  1.00  0.00    -0.354 N 
ATOM     45  N   UNL A   1      47.006  29.266  27.462  1.00  0.00    -0.248 NA
ATOM     46  C   UNL A   1      48.741  30.831  27.495  1.00  0.00     0.031 C 
ATOM     47  C   UNL A   1      47.474  25.046  26.155  1.00  0.00     0.029 A 
ATOM     48  C   UNL A   1      47.360  26.358  26.586  1.00  0.00     0.049 A 
ATOM     49  H   UNL A   1      45.680  27.354  27.386  1.00  0.00     0.167 HD
ATOM     50  C   UNL A   1      48.172  28.665  27.004  1.00  0.00     0.074 A 
ATOM     51  C   UNL A   1      49.204  29.681  27.022  1.00  0.00     0.031 C 
ATOM     52  C   UNL A   1      48.373  27.382  26.611  1.00  0.00     0.037 A 
BRANCH  39  53
ATOM     53  C   UNL A   1      43.379  23.774  27.010  1.00  0.00     0.058 A 
ATOM     54  C   UNL A   1      42.979  23.331  25.741  1.00  0.00     0.135 A 
ATOM     55  C   UNL A   1      43.281  22.871  28.081  1.00  0.00     0.135 A 
ATOM     56  F   UNL A   1      43.035  24.160  24.686  1.00  0.00    -0.206 F 
ATOM     57  C   UNL A   1      42.496  22.042  25.541  1.00  0.00     0.059 A 
ATOM     58  C   UNL A   1      42.822  21.570  27.901  1.00  0.00     0.059 A 
ATOM     59  F   UNL A   1      43.649  23.247  29.317  1.00  0.00    -0.206 F 
ATOM     60  C   UNL A   1      42.427  21.165  26.627  1.00  0.00     0.060 A 
BRANCH  60  61
ATOM     61  S   UNL A   1      41.835  19.484  26.341  1.00  0.00     0.124 S 
ATOM     62  O   UNL A   1      42.548  19.126  25.118  1.00  0.00    -0.237 OA
ATOM     63  O   UNL A   1      42.268  18.792  27.552  1.00  0.00    -0.237 OA
ATOM     64  O   UNL A   1      40.392  19.649  26.199  1.00  0.00    -0.744 OA
ENDBRANCH  60  61
ENDBRANCH  39  53
BRANCH  40  65
ATOM     65  C   UNL A   1      47.009  32.969  28.519  1.00  0.00     0.058 A 
ATOM     66  C   UNL A   1      47.565  33.309  29.759  1.00  0.00     0.135 A 
ATOM     67  C   UNL A   1      47.004  33.948  27.513  1.00  0.00     0.135 A 
ATOM     68  F   UNL A   1      47.583  32.410  30.755  1.00  0.00    -0.206 F 
ATOM     69  C   UNL A   1      48.093  34.574  29.999  1.00  0.00     0.059 A 
ATOM     70  C   UNL A   1      47.547  35.212  27.720  1.00  0.00     0.059 A 
ATOM     71  F   UNL A   1      46.491  33.669  26.305  1.00  0.00    -0.206 F 
ATOM     72  C   UNL A   1      48.082  35.518  28.970  1.00  0.00     0.060 A 
BRANCH  72  73
ATOM     73  S   UNL A   1      48.813  37.141  29.275  1.00  0.00     0.124 S 
ATOM     74  O   UNL A   1      48.995  37.641  27.918  1.00  0.00    -0.237 OA
ATOM     75  O   UNL A   1      47.780  37.800  30.066  1.00  0.00    -0.237 OA
ATOM     76  O   UNL A   1      50.041  36.825  30.000  1.00  0.00    -0.744 OA
ENDBRANCH  72  73
ENDBRANCH  40  65
BRANCH  52  77
ATOM     77  C   UNL A   1      49.754  27.002  26.160  1.00  0.00     0.058 A 
ATOM     78  C   UNL A   1      50.710  26.522  27.067  1.00  0.00     0.135 A 
ATOM     79  C   UNL A   1      50.096  27.039  24.799  1.00  0.00     0.135 A 
ATOM     80  F   UNL A   1      50.432  26.475  28.380  1.00  0.00    -0.206 F 
ATOM     81  C   UNL A   1      51.963  26.095  26.642  1.00  0.00     0.059 A 
ATOM     82  C   UNL A   1      51.336  26.596  24.348  1.00  0.00     0.059 A 
ATOM     83  F   UNL A   1      49.212  27.482  23.891  1.00  0.00    -0.206 F 
ATOM     84  C   UNL A   1      52.264  26.129  25.278  1.00  0.00     0.060 A 
BRANCH  84  85
ATOM     85  S   UNL A   1      53.874  25.517  24.735  1.00  0.00     0.124 S 
ATOM     86  O   UNL A   1      54.002  26.149  23.426  1.00  0.00    -0.237 OA
ATOM     87  O   UNL A   1      54.765  26.023  25.773  1.00  0.00    -0.237 OA
ATOM     88  O   UNL A   1      53.699  24.068  24.718  1.00  0.00    -0.744 OA
ENDBRANCH  84  85
ENDBRANCH  52  77
ENDBRANCH  26  27
ENDBRANCH  19  21
ENDBRANCH  18  19
ENDBRANCH   1  18
TORSDOF 15
ENDMDL
MODEL 2
REMARK VINA RESULT:     -10.9      7.215     13.512
REMARK SMILES Cc1[nH]c(=O)n(C)c(=O)c1CC(=O)OCCOC(=O)c1ccc(-c2c3nc(c(-c4c(F)cc(S(=O)(=O)[O-])cc4F)c4ccc([nH]4)c(-c4c(F)cc(S(=O)(=O)[O-])cc4F)c4nc(c(-c5c(F)cc(S(=O)(=O)[O-])cc5F)c5ccc2[nH]5)C=C4)C=C3)cc1
REMARK SMILES IDX 16 1 15 2 14 3 12 4 13 5 11 6 10 7 1 8 2 9 3 10 4 11 8 13
REMARK SMILES IDX 5 14 6 15 9 16 7 17 17 18 18 19 19 20 20 21 21 22 85 23
REMARK SMILES IDX 22 24 84 25 23 26 24 27 25 28 78 29 26 30 83 31 77 32 79 33
REMARK SMILES IDX 27 34 82 35 76 36 75 37 28 39 62 40 41 41 61 42 42 43 45 44
REMARK SMILES IDX 60 45 80 46 43 47 44 48 59 50 81 51 46 52 29 53 30 54 39 55
REMARK SMILES IDX 31 56 32 57 38 58 40 59 33 60 34 61 35 62 36 63 37 64 63 65
REMARK SMILES IDX 64 66 73 67 65 68 66 69 72 70 74 71 67 72 68 73 69 74 70 75
REMARK SMILES IDX 71 76 47 77 48 78 57 79 49 80 50 81 56 82 58 83 51 84 52 85
REMARK SMILES IDX 53 86 54 87 55 88
REMARK H PARENT 3 12 79 38 45 49
REMARK Flexibility Score: inf
ROOT
ATOM      1  C   UNL A   1      38.916  22.502  26.237  1.00  0.00     0.275 C 
ENDROOT
BRANCH   1   2
ATOM      2  C   UNL A   1      37.654  22.221  25.425  1.00  0.00     0.274 C 
BRANCH   2   3
ATOM      3  O   UNL A   1      36.924  23.442  25.179  1.00  0.00    -0.462 OA
BRANCH   3   4
ATOM      4  C   UNL A   1      35.957  23.363  24.224  1.00  0.00     0.310 C 
ATOM      5  O   UNL A   1      36.176  23.299  23.018  1.00  0.00    -0.252 OA
BRANCH   4   6
ATOM      6  C   UNL A   1      34.538  23.416  24.769  1.00  0.00     0.165 C 
BRANCH   6   7
ATOM      7  C   UNL A   1      33.909  22.084  25.072  1.00  0.00     0.048 A 
ATOM      8  C   UNL A   1      34.429  22.056  27.541  1.00  0.00     0.065 C 
ATOM      9  C   UNL A   1      33.874  21.478  26.271  1.00  0.00     0.026 A 
ATOM     10  N   UNL A   1      33.294  20.244  26.388  1.00  0.00    -0.311 N 
ATOM     11  C   UNL A   1      32.753  19.523  25.360  1.00  0.00     0.328 A 
ATOM     12  H   UNL A   1      33.265  19.841  27.286  1.00  0.00     0.171 HD
ATOM     13  C   UNL A   1      33.233  21.413  23.922  1.00  0.00     0.259 A 
ATOM     14  O   UNL A   1      32.283  18.409  25.587  1.00  0.00    -0.248 OA
ATOM     15  N   UNL A   1      32.771  20.129  24.123  1.00  0.00    -0.263 N 
ATOM     16  O   UNL A   1      33.099  22.036  22.871  1.00  0.00    -0.269 OA
ATOM     17  C   UNL A   1      32.184  19.409  23.009  1.00  0.00     0.158 C 
ENDBRANCH   6   7
ENDBRANCH   4   6
ENDBRANCH   3   4
ENDBRANCH   2   3
ENDBRANCH   1   2
BRANCH   1  18
ATOM     18  O   UNL A   1      39.025  23.913  26.469  1.00  0.00    -0.458 OA
BRANCH  18  19
ATOM     19  C   UNL A   1      40.280  24.382  26.670  1.00  0.00     0.338 C 
ATOM     20  O   UNL A   1      41.316  23.925  26.219  1.00  0.00    -0.246 OA
BRANCH  19  21
ATOM     21  C   UNL A   1      40.217  25.520  27.605  1.00  0.00     0.060 A 
ATOM     22  C   UNL A   1      41.135  26.570  27.514  1.00  0.00     0.016 A 
ATOM     23  C   UNL A   1      39.274  25.503  28.631  1.00  0.00     0.016 A 
ATOM     24  C   UNL A   1      41.157  27.568  28.485  1.00  0.00     0.010 A 
ATOM     25  C   UNL A   1      39.245  26.547  29.559  1.00  0.00     0.010 A 
ATOM     26  C   UNL A   1      40.204  27.573  29.512  1.00  0.00    -0.014 A 
BRANCH  26  27
ATOM     27  C   UNL A   1      40.230  28.630  30.555  1.00  0.00     0.031 A 
ATOM     28  C   UNL A   1      41.218  28.542  31.687  1.00  0.00     0.074 A 
ATOM     29  C   UNL A   1      39.371  29.665  30.486  1.00  0.00     0.049 A 
ATOM     30  N   UNL A   1      41.309  29.282  32.762  1.00  0.00    -0.248 NA
ATOM     31  C   UNL A   1      42.231  27.475  31.606  1.00  0.00     0.031 C 
ATOM     32  C   UNL A   1      38.391  29.883  29.420  1.00  0.00     0.029 A 
ATOM     33  N   UNL A   1      39.182  30.731  31.331  1.00  0.00    -0.354 N 
ATOM     34  C   UNL A   1      42.363  28.754  33.498  1.00  0.00     0.074 A 
ATOM     35  C   UNL A   1      42.872  27.621  32.758  1.00  0.00     0.031 C 
ATOM     36  C   UNL A   1      37.718  31.018  29.665  1.00  0.00     0.029 A 
ATOM     37  C   UNL A   1      38.170  31.575  30.935  1.00  0.00     0.049 A 
ATOM     38  H   UNL A   1      39.719  30.877  32.143  1.00  0.00     0.167 HD
ATOM     39  C   UNL A   1      42.864  29.184  34.680  1.00  0.00     0.037 A 
ATOM     40  C   UNL A   1      37.642  32.655  31.543  1.00  0.00     0.037 A 
ATOM     41  C   UNL A   1      42.380  30.341  35.389  1.00  0.00     0.049 A 
ATOM     42  C   UNL A   1      38.186  33.085  32.878  1.00  0.00     0.074 A 
ATOM     43  C   UNL A   1      42.843  30.873  36.579  1.00  0.00     0.029 A 
ATOM     44  N   UNL A   1      41.335  31.149  34.969  1.00  0.00    -0.354 N 
ATOM     45  N   UNL A   1      39.170  32.564  33.570  1.00  0.00    -0.248 NA
ATOM     46  C   UNL A   1      37.540  34.238  33.521  1.00  0.00     0.031 C 
ATOM     47  C   UNL A   1      42.053  31.981  36.899  1.00  0.00     0.029 A 
ATOM     48  C   UNL A   1      41.124  32.164  35.888  1.00  0.00     0.049 A 
ATOM     49  H   UNL A   1      40.819  31.021  34.140  1.00  0.00     0.167 HD
ATOM     50  C   UNL A   1      39.266  33.328  34.727  1.00  0.00     0.074 A 
ATOM     51  C   UNL A   1      38.254  34.360  34.633  1.00  0.00     0.031 C 
ATOM     52  C   UNL A   1      40.112  33.184  35.777  1.00  0.00     0.037 A 
BRANCH  39  53
ATOM     53  C   UNL A   1      43.989  28.402  35.298  1.00  0.00     0.058 A 
ATOM     54  C   UNL A   1      45.332  28.723  35.053  1.00  0.00     0.135 A 
ATOM     55  C   UNL A   1      43.717  27.367  36.207  1.00  0.00     0.135 A 
ATOM     56  F   UNL A   1      45.647  29.692  34.178  1.00  0.00    -0.206 F 
ATOM     57  C   UNL A   1      46.368  28.040  35.682  1.00  0.00     0.059 A 
ATOM     58  C   UNL A   1      44.736  26.686  36.865  1.00  0.00     0.059 A 
ATOM     59  F   UNL A   1      42.447  27.019  36.475  1.00  0.00    -0.206 F 
ATOM     60  C   UNL A   1      46.059  27.027  36.593  1.00  0.00     0.060 A 
BRANCH  60  61
ATOM     61  S   UNL A   1      47.415  26.179  37.430  1.00  0.00     0.124 S 
ATOM     62  O   UNL A   1      47.111  24.781  37.138  1.00  0.00    -0.237 OA
ATOM     63  O   UNL A   1      48.589  26.725  36.755  1.00  0.00    -0.237 OA
ATOM     64  O   UNL A   1      47.257  26.576  38.826  1.00  0.00    -0.744 OA
ENDBRANCH  60  61
ENDBRANCH  39  53
BRANCH  40  65
ATOM     65  C   UNL A   1      36.513  33.385  30.906  1.00  0.00     0.058 A 
ATOM     66  C   UNL A   1      36.721  34.197  29.782  1.00  0.00     0.135 A 
ATOM     67  C   UNL A   1      35.204  33.274  31.401  1.00  0.00     0.135 A 
ATOM     68  F   UNL A   1      37.956  34.344  29.280  1.00  0.00    -0.206 F 
ATOM     69  C   UNL A   1      35.672  34.879  29.173  1.00  0.00     0.059 A 
ATOM     70  C   UNL A   1      34.135  33.926  30.794  1.00  0.00     0.059 A 
ATOM     71  F   UNL A   1      34.952  32.502  32.469  1.00  0.00    -0.206 F 
ATOM     72  C   UNL A   1      34.381  34.733  29.686  1.00  0.00     0.060 A 
BRANCH  72  73
ATOM     73  S   UNL A   1      33.019  35.583  28.857  1.00  0.00     0.124 S 
ATOM     74  O   UNL A   1      33.725  36.639  28.141  1.00  0.00    -0.237 OA
ATOM     75  O   UNL A   1      32.450  34.522  28.034  1.00  0.00    -0.237 OA
ATOM     76  O   UNL A   1      32.177  36.026  29.965  1.00  0.00    -0.744 OA
ENDBRANCH  72  73
ENDBRANCH  40  65
BRANCH  52  77
ATOM     77  C   UNL A   1      39.990  34.164  36.907  1.00  0.00     0.058 A 
ATOM     78  C   UNL A   1      40.723  35.360  36.917  1.00  0.00     0.135 A 
ATOM     79  C   UNL A   1      39.072  33.944  37.947  1.00  0.00     0.135 A 
ATOM     80  F   UNL A   1      41.619  35.611  35.949  1.00  0.00    -0.206 F 
ATOM     81  C   UNL A   1      40.555  36.305  37.923  1.00  0.00     0.059 A 
ATOM     82  C   UNL A   1      38.871  34.886  38.952  1.00  0.00     0.059 A 
ATOM     83  F   UNL A   1      38.341  32.819  37.977  1.00  0.00    -0.206 F 
ATOM     84  C   UNL A   1      39.621  36.062  38.932  1.00  0.00     0.060 A 
BRANCH  84  85
ATOM     85  S   UNL A   1      39.371  37.325  40.199  1.00  0.00     0.124 S 
ATOM     86  O   UNL A   1      38.464  38.246  39.523  1.00  0.00    -0.237 OA
ATOM     87  O   UNL A   1      38.792  36.555  41.295  1.00  0.00    -0.237 OA
ATOM     88  O   UNL A   1      40.718  37.834  40.441  1.00  0.00    -0.744 OA
ENDBRANCH  84  85
ENDBRANCH  52  77
ENDBRANCH  26  27
ENDBRANCH  19  21
ENDBRANCH  18  19
ENDBRANCH   1  18
TORSDOF 15
ENDMDL
MODEL 3
REMARK VINA RESULT:     -10.8      6.223     14.622
REMARK SMILES Cc1[nH]c(=O)n(C)c(=O)c1CC(=O)OCCOC(=O)c1ccc(-c2c3nc(c(-c4c(F)cc(S(=O)(=O)[O-])cc4F)c4ccc([nH]4)c(-c4c(F)cc(S(=O)(=O)[O-])cc4F)c4nc(c(-c5c(F)cc(S(=O)(=O)[O-])cc5F)c5ccc2[nH]5)C=C4)C=C3)cc1
REMARK SMILES IDX 16 1 15 2 14 3 12 4 13 5 11 6 10 7 1 8 2 9 3 10 4 11 8 13
REMARK SMILES IDX 5 14 6 15 9 16 7 17 17 18 18 19 19 20 20 21 21 22 85 23
REMARK SMILES IDX 22 24 84 25 23 26 24 27 25 28 78 29 26 30 83 31 77 32 79 33
REMARK SMILES IDX 27 34 82 35 76 36 75 37 28 39 62 40 41 41 61 42 42 43 45 44
REMARK SMILES IDX 60 45 80 46 43 47 44 48 59 50 81 51 46 52 29 53 30 54 39 55
REMARK SMILES IDX 31 56 32 57 38 58 40 59 33 60 34 61 35 62 36 63 37 64 63 65
REMARK SMILES IDX 64 66 73 67 65 68 66 69 72 70 74 71 67 72 68 73 69 74 70 75
REMARK SMILES IDX 71 76 47 77 48 78 57 79 49 80 50 81 56 82 58 83 51 84 52 85
REMARK SMILES IDX 53 86 54 87 55 88
REMARK H PARENT 3 12 79 38 45 49
REMARK Flexibility Score: inf
ROOT
ATOM      1  C   UNL A   1      44.021  25.904  25.195  1.00  0.00     0.275 C 
ENDROOT
BRANCH   1   2
ATOM      2  C   UNL A   1      45.422  25.465  25.613  1.00  0.00     0.274 C 
BRANCH   2   3
ATOM      3  O   UNL A   1      45.926  24.451  24.718  1.00  0.00    -0.462 OA
BRANCH   3   4
ATOM      4  C   UNL A   1      45.838  23.171  25.175  1.00  0.00     0.310 C 
ATOM      5  O   UNL A   1      46.360  22.766  26.209  1.00  0.00    -0.252 OA
BRANCH   4   6
ATOM      6  C   UNL A   1      45.068  22.234  24.257  1.00  0.00     0.165 C 
BRANCH   6   7
ATOM      7  C   UNL A   1      44.560  20.972  24.896  1.00  0.00     0.048 A 
ATOM      8  C   UNL A   1      46.710  19.661  24.734  1.00  0.00     0.065 C 
ATOM      9  C   UNL A   1      45.262  19.842  25.090  1.00  0.00     0.026 A 
ATOM     10  N   UNL A   1      44.652  18.756  25.657  1.00  0.00    -0.311 N 
ATOM     11  C   UNL A   1      43.339  18.691  26.032  1.00  0.00     0.328 A 
ATOM     12  H   UNL A   1      45.205  17.954  25.806  1.00  0.00     0.171 HD
ATOM     13  C   UNL A   1      43.150  21.020  25.387  1.00  0.00     0.259 A 
ATOM     14  O   UNL A   1      42.899  17.646  26.507  1.00  0.00    -0.248 OA
ATOM     15  N   UNL A   1      42.602  19.841  25.848  1.00  0.00    -0.263 N 
ATOM     16  O   UNL A   1      42.560  22.097  25.382  1.00  0.00    -0.269 OA
ATOM     17  C   UNL A   1      41.211  19.823  26.256  1.00  0.00     0.158 C 
ENDBRANCH   6   7
ENDBRANCH   4   6
ENDBRANCH   3   4
ENDBRANCH   2   3
ENDBRANCH   1   2
BRANCH   1  18
ATOM     18  O   UNL A   1      43.064  25.382  26.127  1.00  0.00    -0.458 OA
BRANCH  18  19
ATOM     19  C   UNL A   1      41.794  25.832  25.981  1.00  0.00     0.338 C 
ATOM     20  O   UNL A   1      41.050  25.639  25.036  1.00  0.00    -0.246 OA
BRANCH  19  21
ATOM     21  C   UNL A   1      41.455  26.681  27.138  1.00  0.00     0.060 A 
ATOM     22  C   UNL A   1      41.951  27.984  27.237  1.00  0.00     0.016 A 
ATOM     23  C   UNL A   1      40.691  26.143  28.172  1.00  0.00     0.016 A 
ATOM     24  C   UNL A   1      41.741  28.728  28.395  1.00  0.00     0.010 A 
ATOM     25  C   UNL A   1      40.413  26.919  29.300  1.00  0.00     0.010 A 
ATOM     26  C   UNL A   1      40.960  28.207  29.435  1.00  0.00    -0.014 A 
BRANCH  26  27
ATOM     27  C   UNL A   1      40.742  28.993  30.677  1.00  0.00     0.031 A 
ATOM     28  C   UNL A   1      39.639  30.015  30.733  1.00  0.00     0.074 A 
ATOM     29  C   UNL A   1      41.530  28.787  31.750  1.00  0.00     0.049 A 
ATOM     30  N   UNL A   1      39.375  30.893  31.667  1.00  0.00    -0.248 NA
ATOM     31  C   UNL A   1      38.718  30.067  29.585  1.00  0.00     0.031 C 
ATOM     32  C   UNL A   1      42.608  27.800  31.832  1.00  0.00     0.029 A 
ATOM     33  N   UNL A   1      41.548  29.399  32.979  1.00  0.00    -0.354 N 
ATOM     34  C   UNL A   1      38.283  31.619  31.208  1.00  0.00     0.074 A 
ATOM     35  C   UNL A   1      37.942  31.093  29.904  1.00  0.00     0.031 C 
ATOM     36  C   UNL A   1      43.169  27.860  33.050  1.00  0.00     0.029 A 
ATOM     37  C   UNL A   1      42.538  28.932  33.812  1.00  0.00     0.049 A 
ATOM     38  H   UNL A   1      40.913  30.105  33.239  1.00  0.00     0.167 HD
ATOM     39  C   UNL A   1      37.622  32.627  31.824  1.00  0.00     0.037 A 
ATOM     40  C   UNL A   1      42.918  29.342  35.038  1.00  0.00     0.037 A 
ATOM     41  C   UNL A   1      37.941  33.115  33.140  1.00  0.00     0.049 A 
ATOM     42  C   UNL A   1      42.196  30.495  35.682  1.00  0.00     0.074 A 
ATOM     43  C   UNL A   1      37.310  34.114  33.861  1.00  0.00     0.029 A 
ATOM     44  N   UNL A   1      38.970  32.636  33.937  1.00  0.00    -0.354 N 
ATOM     45  N   UNL A   1      41.178  31.184  35.226  1.00  0.00    -0.248 NA
ATOM     46  C   UNL A   1      42.684  30.937  36.996  1.00  0.00     0.031 C 
ATOM     47  C   UNL A   1      37.980  34.265  35.079  1.00  0.00     0.029 A 
ATOM     48  C   UNL A   1      39.004  33.332  35.134  1.00  0.00     0.049 A 
ATOM     49  H   UNL A   1      39.585  31.908  33.689  1.00  0.00     0.167 HD
ATOM     50  C   UNL A   1      40.898  32.135  36.199  1.00  0.00     0.074 A 
ATOM     51  C   UNL A   1      41.841  31.922  37.278  1.00  0.00     0.031 C 
ATOM     52  C   UNL A   1      39.950  33.105  36.197  1.00  0.00     0.037 A 
BRANCH  39  53
ATOM     53  C   UNL A   1      36.491  33.286  31.086  1.00  0.00     0.058 A 
ATOM     54  C   UNL A   1      35.160  33.153  31.507  1.00  0.00     0.135 A 
ATOM     55  C   UNL A   1      36.752  34.122  29.989  1.00  0.00     0.135 A 
ATOM     56  F   UNL A   1      34.853  32.351  32.540  1.00  0.00    -0.206 F 
ATOM     57  C   UNL A   1      34.124  33.822  30.862  1.00  0.00     0.059 A 
ATOM     58  C   UNL A   1      35.735  34.818  29.342  1.00  0.00     0.059 A 
ATOM     59  F   UNL A   1      38.009  34.282  29.544  1.00  0.00    -0.206 F 
ATOM     60  C   UNL A   1      34.423  34.659  29.784  1.00  0.00     0.060 A 
BRANCH  60  61
ATOM     61  S   UNL A   1      33.072  35.549  28.984  1.00  0.00     0.124 S 
ATOM     62  O   UNL A   1      32.252  35.929  30.131  1.00  0.00    -0.237 OA
ATOM     63  O   UNL A   1      33.771  36.643  28.316  1.00  0.00    -0.237 OA
ATOM     64  O   UNL A   1      32.483  34.552  28.096  1.00  0.00    -0.744 OA
ENDBRANCH  60  61
ENDBRANCH  39  53
BRANCH  40  65
ATOM     65  C   UNL A   1      44.058  28.677  35.722  1.00  0.00     0.058 A 
ATOM     66  C   UNL A   1      43.848  27.603  36.598  1.00  0.00     0.135 A 
ATOM     67  C   UNL A   1      45.381  29.093  35.501  1.00  0.00     0.135 A 
ATOM     68  F   UNL A   1      42.601  27.176  36.849  1.00  0.00    -0.206 F 
ATOM     69  C   UNL A   1      44.907  26.967  37.237  1.00  0.00     0.059 A 
ATOM     70  C   UNL A   1      46.458  28.458  36.110  1.00  0.00     0.059 A 
ATOM     71  F   UNL A   1      45.635  30.111  34.665  1.00  0.00    -0.206 F 
ATOM     72  C   UNL A   1      46.211  27.400  36.983  1.00  0.00     0.060 A 
BRANCH  72  73
ATOM     73  S   UNL A   1      47.582  26.536  37.780  1.00  0.00     0.124 S 
ATOM     74  O   UNL A   1      48.727  27.304  37.306  1.00  0.00    -0.237 OA
ATOM     75  O   UNL A   1      47.256  26.680  39.194  1.00  0.00    -0.237 OA
ATOM     76  O   UNL A   1      47.473  25.177  37.255  1.00  0.00    -0.744 OA
ENDBRANCH  72  73
ENDBRANCH  40  65
BRANCH  52  77
ATOM     77  C   UNL A   1      39.874  34.006  37.396  1.00  0.00     0.058 A 
ATOM     78  C   UNL A   1      40.581  35.216  37.444  1.00  0.00     0.135 A 
ATOM     79  C   UNL A   1      39.023  33.696  38.469  1.00  0.00     0.135 A 
ATOM     80  F   UNL A   1      41.413  35.552  36.445  1.00  0.00    -0.206 F 
ATOM     81  C   UNL A   1      40.452  36.089  38.518  1.00  0.00     0.059 A 
ATOM     82  C   UNL A   1      38.862  34.564  39.544  1.00  0.00     0.059 A 
ATOM     83  F   UNL A   1      38.319  32.553  38.466  1.00  0.00    -0.206 F 
ATOM     84  C   UNL A   1      39.584  35.758  39.561  1.00  0.00     0.060 A 
BRANCH  84  85
ATOM     85  S   UNL A   1      39.382  36.928  40.921  1.00  0.00     0.124 S 
ATOM     86  O   UNL A   1      38.684  36.114  41.910  1.00  0.00    -0.237 OA
ATOM     87  O   UNL A   1      40.764  37.271  41.243  1.00  0.00    -0.237 OA
ATOM     88  O   UNL A   1      38.597  38.007  40.328  1.00  0.00    -0.744 OA
ENDBRANCH  84  85
ENDBRANCH  52  77
ENDBRANCH  26  27
ENDBRANCH  19  21
ENDBRANCH  18  19
ENDBRANCH   1  18
TORSDOF 15
ENDMDL
