MODEL 1
REMARK VINA RESULT:     -11.9      0.000      0.000
REMARK SMILES O=C(OCCOC(=O)c1cccn1C[C@@H]1C[N@H+]2CCC[C@@H]2CO1)c1ccc(-c2c3nc(c(-c4c(F)cc(S(=O)(=O)[O-])cc4F)c4ccc([nH]4)c(-c4c(F)cc(S(=O)(=O)[O-])cc4F)c4nc(c(-c5c(F)cc(S(=O)(=O)[O-])cc5F)c5ccc2[nH]5)C=C4)C=C3)cc1
REMARK SMILES IDX 4 1 3 2 2 3 1 4 24 5 25 6 89 7 26 8 88 9 27 10 28 11 29 12
REMARK SMILES IDX 82 13 30 14 87 15 81 16 83 17 31 18 86 19 80 20 79 21 32 23
REMARK SMILES IDX 66 24 45 25 65 26 46 27 49 28 64 29 84 30 47 31 48 32 63 34
REMARK SMILES IDX 85 35 50 36 33 37 34 38 43 39 35 40 36 41 42 42 44 43 37 44
REMARK SMILES IDX 38 45 39 46 40 47 41 48 67 49 68 50 77 51 69 52 70 53 76 54
REMARK SMILES IDX 78 55 71 56 72 57 73 58 74 59 75 60 51 61 52 62 61 63 53 64
REMARK SMILES IDX 54 65 60 66 62 67 55 68 56 69 57 70 58 71 59 72 5 73 6 74
REMARK SMILES IDX 7 75 8 76 9 77 10 78 13 79 11 80 12 81 14 82 15 83 16 84
REMARK SMILES IDX 23 85 17 86 22 87 18 88 21 89 19 91 20 92
REMARK H PARENT 83 22 49 33 17 90
REMARK Flexibility Score: inf
ROOT
ATOM      1  C   UNL A   1      33.993  34.967  29.508  1.00  0.00     0.275 C 
ENDROOT
BRANCH   1   2
ATOM      2  O   UNL A   1      33.880  34.102  30.634  1.00  0.00    -0.458 OA
BRANCH   2   3
ATOM      3  C   UNL A   1      34.767  33.097  30.863  1.00  0.00     0.338 C 
ATOM      4  O   UNL A   1      34.406  31.957  30.625  1.00  0.00    -0.246 OA
BRANCH   3   5
ATOM      5  C   UNL A   1      36.210  33.505  31.253  1.00  0.00     0.060 A 
ATOM      6  C   UNL A   1      36.978  33.080  29.792  1.00  0.00     0.016 A 
ATOM      7  C   UNL A   1      36.936  32.810  32.758  1.00  0.00     0.016 A 
ATOM      8  C   UNL A   1      38.132  31.918  29.604  1.00  0.00     0.010 A 
ATOM      9  C   UNL A   1      38.267  31.353  32.466  1.00  0.00     0.010 A 
ATOM     10  C   UNL A   1      38.793  31.032  30.841  1.00  0.00    -0.014 A 
BRANCH  10  11
ATOM     11  C   UNL A   1      40.176  30.508  30.517  1.00  0.00     0.031 A 
ATOM     12  C   UNL A   1      41.318  31.599  30.718  1.00  0.00     0.074 A 
ATOM     13  C   UNL A   1      40.248  29.206  30.058  1.00  0.00     0.049 A 
ATOM     14  N   UNL A   1      42.349  31.456  31.493  1.00  0.00    -0.248 NA
ATOM     15  C   UNL A   1      41.252  33.040  30.288  1.00  0.00     0.031 C 
ATOM     16  C   UNL A   1      39.133  28.242  29.896  1.00  0.00     0.029 A 
ATOM     17  N   UNL A   1      41.295  28.405  29.643  1.00  0.00    -0.354 N 
ATOM     18  C   UNL A   1      42.890  32.718  31.809  1.00  0.00     0.074 A 
ATOM     19  C   UNL A   1      42.114  33.683  31.100  1.00  0.00     0.031 C 
ATOM     20  C   UNL A   1      39.529  27.089  29.287  1.00  0.00     0.029 A 
ATOM     21  C   UNL A   1      40.963  27.108  29.078  1.00  0.00     0.049 A 
ATOM     22  H   UNL A   1      42.230  28.701  29.726  1.00  0.00     0.167 HD
ATOM     23  C   UNL A   1      44.023  32.851  32.558  1.00  0.00     0.037 A 
ATOM     24  C   UNL A   1      41.833  26.190  28.500  1.00  0.00     0.037 A 
ATOM     25  C   UNL A   1      44.897  31.790  32.204  1.00  0.00     0.049 A 
ATOM     26  C   UNL A   1      43.103  26.643  29.049  1.00  0.00     0.074 A 
ATOM     27  C   UNL A   1      45.701  31.762  31.098  1.00  0.00     0.029 A 
ATOM     28  N   UNL A   1      44.666  30.520  32.650  1.00  0.00    -0.354 N 
ATOM     29  N   UNL A   1      43.438  26.572  30.299  1.00  0.00    -0.248 NA
ATOM     30  C   UNL A   1      43.860  27.511  28.173  1.00  0.00     0.031 C 
ATOM     31  C   UNL A   1      45.390  30.517  30.572  1.00  0.00     0.029 A 
ATOM     32  C   UNL A   1      44.826  29.700  31.550  1.00  0.00     0.049 A 
ATOM     33  H   UNL A   1      44.434  30.245  33.567  1.00  0.00     0.167 HD
ATOM     34  C   UNL A   1      44.241  27.673  30.449  1.00  0.00     0.074 A 
ATOM     35  C   UNL A   1      44.577  28.115  29.101  1.00  0.00     0.031 C 
ATOM     36  C   UNL A   1      44.257  28.386  31.603  1.00  0.00     0.037 A 
BRANCH  23  37
ATOM     37  C   UNL A   1      44.666  33.884  33.433  1.00  0.00     0.058 A 
ATOM     38  C   UNL A   1      44.139  34.106  34.730  1.00  0.00     0.135 A 
ATOM     39  C   UNL A   1      45.158  35.010  32.757  1.00  0.00     0.135 A 
ATOM     40  F   UNL A   1      43.710  33.079  35.481  1.00  0.00    -0.206 F 
ATOM     41  C   UNL A   1      43.910  35.385  35.226  1.00  0.00     0.059 A 
ATOM     42  C   UNL A   1      44.994  36.302  33.267  1.00  0.00     0.059 A 
ATOM     43  F   UNL A   1      45.667  34.875  31.523  1.00  0.00    -0.206 F 
ATOM     44  C   UNL A   1      44.316  36.480  34.474  1.00  0.00     0.060 A 
BRANCH  44  45
ATOM     45  S   UNL A   1      43.950  38.127  35.116  1.00  0.00     0.124 S 
ATOM     46  O   UNL A   1      45.178  38.854  34.823  1.00  0.00    -0.237 OA
ATOM     47  O   UNL A   1      42.786  38.507  34.316  1.00  0.00    -0.237 OA
ATOM     48  O   UNL A   1      43.674  37.883  36.528  1.00  0.00    -0.744 OA
ENDBRANCH  44  45
ENDBRANCH  23  37
BRANCH  24  49
ATOM     49  C   UNL A   1      41.987  25.039  27.492  1.00  0.00     0.058 A 
ATOM     50  C   UNL A   1      42.132  25.138  26.109  1.00  0.00     0.135 A 
ATOM     51  C   UNL A   1      42.225  23.703  27.985  1.00  0.00     0.135 A 
ATOM     52  F   UNL A   1      41.773  26.264  25.477  1.00  0.00    -0.206 F 
ATOM     53  C   UNL A   1      42.663  24.075  25.326  1.00  0.00     0.059 A 
ATOM     54  C   UNL A   1      42.832  22.677  27.260  1.00  0.00     0.059 A 
ATOM     55  F   UNL A   1      41.906  23.335  29.234  1.00  0.00    -0.206 F 
ATOM     56  C   UNL A   1      43.094  22.886  25.927  1.00  0.00     0.060 A 
BRANCH  56  57
ATOM     57  S   UNL A   1      44.107  21.676  25.033  1.00  0.00     0.124 S 
ATOM     58  O   UNL A   1      43.361  20.438  25.229  1.00  0.00    -0.237 OA
ATOM     59  O   UNL A   1      44.105  22.216  23.678  1.00  0.00    -0.237 OA
ATOM     60  O   UNL A   1      45.400  21.741  25.713  1.00  0.00    -0.744 OA
ENDBRANCH  56  57
ENDBRANCH  24  49
BRANCH  36  61
ATOM     61  C   UNL A   1      43.545  27.795  32.819  1.00  0.00     0.058 A 
ATOM     62  C   UNL A   1      44.188  26.800  33.565  1.00  0.00     0.135 A 
ATOM     63  C   UNL A   1      42.275  28.194  33.299  1.00  0.00     0.135 A 
ATOM     64  F   UNL A   1      45.392  26.353  33.178  1.00  0.00    -0.206 F 
ATOM     65  C   UNL A   1      43.641  26.270  34.738  1.00  0.00     0.059 A 
ATOM     66  C   UNL A   1      41.705  27.682  34.477  1.00  0.00     0.059 A 
ATOM     67  F   UNL A   1      41.559  29.125  32.657  1.00  0.00    -0.206 F 
ATOM     68  C   UNL A   1      42.408  26.729  35.202  1.00  0.00     0.060 A 
BRANCH  68  69
ATOM     69  S   UNL A   1      41.796  26.108  36.789  1.00  0.00     0.124 S 
ATOM     70  O   UNL A   1      40.861  27.154  37.195  1.00  0.00    -0.237 OA
ATOM     71  O   UNL A   1      41.190  24.837  36.405  1.00  0.00    -0.237 OA
ATOM     72  O   UNL A   1      42.999  25.999  37.611  1.00  0.00    -0.744 OA
ENDBRANCH  68  69
ENDBRANCH  36  61
ENDBRANCH  10  11
ENDBRANCH   3   5
ENDBRANCH   2   3
ENDBRANCH   1   2
BRANCH   1  73
ATOM     73  C   UNL A   1      33.134  34.512  28.331  1.00  0.00     0.275 C 
BRANCH  73  74
ATOM     74  O   UNL A   1      33.658  33.352  27.660  1.00  0.00    -0.457 OA
BRANCH  74  75
ATOM     75  C   UNL A   1      32.771  32.358  27.312  1.00  0.00     0.355 C 
ATOM     76  O   UNL A   1      31.594  32.533  27.037  1.00  0.00    -0.244 OA
BRANCH  75  77
ATOM     77  C   UNL A   1      33.467  31.092  27.333  1.00  0.00     0.127 A 
ATOM     78  C   UNL A   1      34.803  30.954  27.710  1.00  0.00     0.035 A 
ATOM     79  N   UNL A   1      33.032  29.827  26.881  1.00  0.00    -0.339 N 
ATOM     80  C   UNL A   1      35.112  29.587  27.750  1.00  0.00     0.020 A 
ATOM     81  C   UNL A   1      33.974  28.909  27.359  1.00  0.00     0.086 A 
BRANCH  79  82
ATOM     82  C   UNL A   1      31.960  29.488  25.859  1.00  0.00     0.160 C 
BRANCH  82  83
ATOM     83  C   UNL A   1      32.047  28.141  24.642  1.00  0.00     0.193 C 
ATOM     84  C   UNL A   1      31.472  29.176  23.201  1.00  0.00     0.296 C 
ATOM     85  O   UNL A   1      31.066  26.498  24.880  1.00  0.00    -0.364 OA
ATOM     86  N   UNL A   1      29.917  29.360  22.956  1.00  0.00    -0.328 N 
ATOM     87  C   UNL A   1      29.080  26.584  24.219  1.00  0.00     0.225 C 
ATOM     88  C   UNL A   1      29.459  30.175  21.857  1.00  0.00     0.262 C 
ATOM     89  C   UNL A   1      28.844  28.103  23.006  1.00  0.00     0.210 C 
ATOM     90  H   UNL A   1      29.894  29.845  23.854  1.00  0.00     0.348 HD
ATOM     91  C   UNL A   1      27.922  30.012  21.952  1.00  0.00     0.068 C 
ATOM     92  C   UNL A   1      27.596  28.943  23.035  1.00  0.00     0.073 C 
ENDBRANCH  82  83
ENDBRANCH  79  82
ENDBRANCH  75  77
ENDBRANCH  74  75
ENDBRANCH  73  74
ENDBRANCH   1  73
TORSDOF 16
ENDMDL
MODEL 2
REMARK VINA RESULT:     -11.8      4.684      8.383
REMARK SMILES O=C(OCCOC(=O)c1cccn1C[C@@H]1C[N@H+]2CCC[C@@H]2CO1)c1ccc(-c2c3nc(c(-c4c(F)cc(S(=O)(=O)[O-])cc4F)c4ccc([nH]4)c(-c4c(F)cc(S(=O)(=O)[O-])cc4F)c4nc(c(-c5c(F)cc(S(=O)(=O)[O-])cc5F)c5ccc2[nH]5)C=C4)C=C3)cc1
REMARK SMILES IDX 4 1 3 2 2 3 1 4 24 5 25 6 89 7 26 8 88 9 27 10 28 11 29 12
REMARK SMILES IDX 82 13 30 14 87 15 81 16 83 17 31 18 86 19 80 20 79 21 32 23
REMARK SMILES IDX 66 24 45 25 65 26 46 27 49 28 64 29 84 30 47 31 48 32 63 34
REMARK SMILES IDX 85 35 50 36 33 37 34 38 43 39 35 40 36 41 42 42 44 43 37 44
REMARK SMILES IDX 38 45 39 46 40 47 41 48 67 49 68 50 77 51 69 52 70 53 76 54
REMARK SMILES IDX 78 55 71 56 72 57 73 58 74 59 75 60 51 61 52 62 61 63 53 64
REMARK SMILES IDX 54 65 60 66 62 67 55 68 56 69 57 70 58 71 59 72 5 73 6 74
REMARK SMILES IDX 7 75 8 76 9 77 10 78 13 79 11 80 12 81 14 82 15 83 16 84
REMARK SMILES IDX 23 85 17 86 22 87 18 88 21 89 19 91 20 92
REMARK H PARENT 83 22 49 33 17 90
REMARK Flexibility Score: inf
ROOT
ATOM      1  C   UNL A   1      37.706  20.908  25.483  1.00  0.00     0.275 C 
ENDROOT
BRANCH   1   2
ATOM      2  O   UNL A   1      39.108  21.022  25.705  1.00  0.00    -0.458 OA
BRANCH   2   3
ATOM      3  C   UNL A   1      39.874  19.948  26.035  1.00  0.00     0.338 C 
ATOM      4  O   UNL A   1      39.477  18.844  25.704  1.00  0.00    -0.246 OA
BRANCH   3   5
ATOM      5  C   UNL A   1      41.262  20.239  26.661  1.00  0.00     0.060 A 
ATOM      6  C   UNL A   1      40.807  21.560  27.637  1.00  0.00     0.016 A 
ATOM      7  C   UNL A   1      42.673  20.517  25.562  1.00  0.00     0.016 A 
ATOM      8  C   UNL A   1      41.354  23.109  27.491  1.00  0.00     0.010 A 
ATOM      9  C   UNL A   1      43.235  22.421  25.367  1.00  0.00     0.010 A 
ATOM     10  C   UNL A   1      42.511  23.605  26.411  1.00  0.00    -0.014 A 
BRANCH  10  11
ATOM     11  C   UNL A   1      43.239  24.854  26.861  1.00  0.00     0.031 A 
ATOM     12  C   UNL A   1      42.272  26.104  27.056  1.00  0.00     0.074 A 
ATOM     13  C   UNL A   1      44.612  24.753  26.990  1.00  0.00     0.049 A 
ATOM     14  N   UNL A   1      42.149  26.780  28.157  1.00  0.00    -0.248 NA
ATOM     15  C   UNL A   1      41.164  26.519  26.125  1.00  0.00     0.031 C 
ATOM     16  C   UNL A   1      45.452  23.546  26.791  1.00  0.00     0.029 A 
ATOM     17  N   UNL A   1      45.600  25.654  27.339  1.00  0.00    -0.354 N 
ATOM     18  C   UNL A   1      40.927  27.481  28.155  1.00  0.00     0.074 A 
ATOM     19  C   UNL A   1      40.306  27.215  26.899  1.00  0.00     0.031 C 
ATOM     20  C   UNL A   1      46.784  23.824  26.860  1.00  0.00     0.029 A 
ATOM     21  C   UNL A   1      46.980  25.213  27.222  1.00  0.00     0.049 A 
ATOM     22  H   UNL A   1      45.378  26.559  27.654  1.00  0.00     0.167 HD
ATOM     23  C   UNL A   1      40.578  28.324  29.170  1.00  0.00     0.037 A 
ATOM     24  C   UNL A   1      48.128  25.974  27.410  1.00  0.00     0.037 A 
ATOM     25  C   UNL A   1      41.757  28.985  29.602  1.00  0.00     0.049 A 
ATOM     26  C   UNL A   1      47.592  27.082  28.187  1.00  0.00     0.074 A 
ATOM     27  C   UNL A   1      42.333  30.060  28.984  1.00  0.00     0.029 A 
ATOM     28  N   UNL A   1      42.680  28.332  30.369  1.00  0.00    -0.354 N 
ATOM     29  N   UNL A   1      47.138  26.988  29.397  1.00  0.00    -0.248 NA
ATOM     30  C   UNL A   1      47.261  28.256  27.409  1.00  0.00     0.031 C 
ATOM     31  C   UNL A   1      43.652  29.641  28.889  1.00  0.00     0.029 A 
ATOM     32  C   UNL A   1      43.908  28.625  29.808  1.00  0.00     0.049 A 
ATOM     33  H   UNL A   1      42.507  27.770  31.158  1.00  0.00     0.167 HD
ATOM     34  C   UNL A   1      46.155  27.943  29.417  1.00  0.00     0.074 A 
ATOM     35  C   UNL A   1      46.376  28.774  28.239  1.00  0.00     0.031 C 
ATOM     36  C   UNL A   1      45.014  27.771  30.129  1.00  0.00     0.037 A 
BRANCH  23  37
ATOM     37  C   UNL A   1      39.325  28.892  29.766  1.00  0.00     0.058 A 
ATOM     38  C   UNL A   1      38.706  29.997  29.130  1.00  0.00     0.135 A 
ATOM     39  C   UNL A   1      39.270  28.865  31.167  1.00  0.00     0.135 A 
ATOM     40  F   UNL A   1      38.646  30.073  27.791  1.00  0.00    -0.206 F 
ATOM     41  C   UNL A   1      38.264  31.107  29.842  1.00  0.00     0.059 A 
ATOM     42  C   UNL A   1      38.772  29.944  31.903  1.00  0.00     0.059 A 
ATOM     43  F   UNL A   1      39.840  27.851  31.835  1.00  0.00    -0.206 F 
ATOM     44  C   UNL A   1      38.326  31.083  31.230  1.00  0.00     0.060 A 
BRANCH  44  45
ATOM     45  S   UNL A   1      37.803  32.562  32.124  1.00  0.00     0.124 S 
ATOM     46  O   UNL A   1      38.663  33.590  31.552  1.00  0.00    -0.237 OA
ATOM     47  O   UNL A   1      36.390  32.647  31.758  1.00  0.00    -0.237 OA
ATOM     48  O   UNL A   1      38.059  32.219  33.519  1.00  0.00    -0.744 OA
ENDBRANCH  44  45
ENDBRANCH  23  37
BRANCH  24  49
ATOM     49  C   UNL A   1      49.613  26.153  27.049  1.00  0.00     0.058 A 
ATOM     50  C   UNL A   1      50.719  25.877  27.852  1.00  0.00     0.135 A 
ATOM     51  C   UNL A   1      49.972  26.432  25.679  1.00  0.00     0.135 A 
ATOM     52  F   UNL A   1      50.573  25.774  29.180  1.00  0.00    -0.206 F 
ATOM     53  C   UNL A   1      52.020  25.690  27.308  1.00  0.00     0.059 A 
ATOM     54  C   UNL A   1      51.215  26.165  25.106  1.00  0.00     0.059 A 
ATOM     55  F   UNL A   1      49.100  26.953  24.804  1.00  0.00    -0.206 F 
ATOM     56  C   UNL A   1      52.236  25.746  25.925  1.00  0.00     0.060 A 
BRANCH  56  57
ATOM     57  S   UNL A   1      53.775  25.151  25.174  1.00  0.00     0.124 S 
ATOM     58  O   UNL A   1      54.793  25.766  26.016  1.00  0.00    -0.237 OA
ATOM     59  O   UNL A   1      53.635  23.703  25.294  1.00  0.00    -0.237 OA
ATOM     60  O   UNL A   1      53.707  25.657  23.803  1.00  0.00    -0.744 OA
ENDBRANCH  56  57
ENDBRANCH  24  49
BRANCH  36  61
ATOM     61  C   UNL A   1      44.951  26.598  31.108  1.00  0.00     0.058 A 
ATOM     62  C   UNL A   1      45.515  26.746  32.381  1.00  0.00     0.135 A 
ATOM     63  C   UNL A   1      44.328  25.353  30.856  1.00  0.00     0.135 A 
ATOM     64  F   UNL A   1      46.136  27.891  32.704  1.00  0.00    -0.206 F 
ATOM     65  C   UNL A   1      45.425  25.753  33.362  1.00  0.00     0.059 A 
ATOM     66  C   UNL A   1      44.218  24.341  31.824  1.00  0.00     0.059 A 
ATOM     67  F   UNL A   1      43.769  25.092  29.668  1.00  0.00    -0.206 F 
ATOM     68  C   UNL A   1      44.757  24.560  33.086  1.00  0.00     0.060 A 
BRANCH  68  69
ATOM     69  S   UNL A   1      44.554  23.354  34.422  1.00  0.00     0.124 S 
ATOM     70  O   UNL A   1      45.261  22.187  33.900  1.00  0.00    -0.237 OA
ATOM     71  O   UNL A   1      45.198  24.030  35.543  1.00  0.00    -0.237 OA
ATOM     72  O   UNL A   1      43.106  23.200  34.539  1.00  0.00    -0.744 OA
ENDBRANCH  68  69
ENDBRANCH  36  61
ENDBRANCH  10  11
ENDBRANCH   3   5
ENDBRANCH   2   3
ENDBRANCH   1   2
BRANCH   1  73
ATOM     73  C   UNL A   1      37.223  21.773  24.321  1.00  0.00     0.275 C 
BRANCH  73  74
ATOM     74  O   UNL A   1      35.983  22.449  24.592  1.00  0.00    -0.457 OA
BRANCH  74  75
ATOM     75  C   UNL A   1      35.448  23.232  23.593  1.00  0.00     0.355 C 
ATOM     76  O   UNL A   1      35.600  23.042  22.397  1.00  0.00    -0.244 OA
BRANCH  75  77
ATOM     77  C   UNL A   1      34.690  24.300  24.202  1.00  0.00     0.127 A 
ATOM     78  C   UNL A   1      34.954  24.804  25.476  1.00  0.00     0.035 A 
ATOM     79  N   UNL A   1      33.515  24.934  23.743  1.00  0.00    -0.339 N 
ATOM     80  C   UNL A   1      34.128  25.915  25.693  1.00  0.00     0.020 A 
ATOM     81  C   UNL A   1      33.341  26.053  24.566  1.00  0.00     0.086 A 
BRANCH  79  82
ATOM     82  C   UNL A   1      32.461  24.422  22.774  1.00  0.00     0.160 C 
BRANCH  82  83
ATOM     83  C   UNL A   1      31.453  22.927  23.000  1.00  0.00     0.193 C 
ATOM     84  C   UNL A   1      31.072  23.250  24.797  1.00  0.00     0.296 C 
ATOM     85  O   UNL A   1      32.158  21.168  22.642  1.00  0.00    -0.364 OA
ATOM     86  N   UNL A   1      32.106  22.777  25.901  1.00  0.00    -0.328 N 
ATOM     87  C   UNL A   1      33.235  20.338  24.235  1.00  0.00     0.225 C 
ATOM     88  C   UNL A   1      31.832  23.038  27.294  1.00  0.00     0.262 C 
ATOM     89  C   UNL A   1      32.803  21.278  25.898  1.00  0.00     0.210 C 
ATOM     90  H   UNL A   1      32.760  23.442  25.487  1.00  0.00     0.348 HD
ATOM     91  C   UNL A   1      33.033  22.355  27.993  1.00  0.00     0.068 C 
ATOM     92  C   UNL A   1      33.857  21.575  26.928  1.00  0.00     0.073 C 
ENDBRANCH  82  83
ENDBRANCH  79  82
ENDBRANCH  75  77
ENDBRANCH  74  75
ENDBRANCH  73  74
ENDBRANCH   1  73
TORSDOF 16
ENDMDL
MODEL 3
REMARK VINA RESULT:     -11.8      4.248      8.882
REMARK SMILES O=C(OCCOC(=O)c1cccn1C[C@@H]1C[N@H+]2CCC[C@@H]2CO1)c1ccc(-c2c3nc(c(-c4c(F)cc(S(=O)(=O)[O-])cc4F)c4ccc([nH]4)c(-c4c(F)cc(S(=O)(=O)[O-])cc4F)c4nc(c(-c5c(F)cc(S(=O)(=O)[O-])cc5F)c5ccc2[nH]5)C=C4)C=C3)cc1
REMARK SMILES IDX 4 1 3 2 2 3 1 4 24 5 25 6 89 7 26 8 88 9 27 10 28 11 29 12
REMARK SMILES IDX 82 13 30 14 87 15 81 16 83 17 31 18 86 19 80 20 79 21 32 23
REMARK SMILES IDX 66 24 45 25 65 26 46 27 49 28 64 29 84 30 47 31 48 32 63 34
REMARK SMILES IDX 85 35 50 36 33 37 34 38 43 39 35 40 36 41 42 42 44 43 37 44
REMARK SMILES IDX 38 45 39 46 40 47 41 48 67 49 68 50 77 51 69 52 70 53 76 54
REMARK SMILES IDX 78 55 71 56 72 57 73 58 74 59 75 60 51 61 52 62 61 63 53 64
REMARK SMILES IDX 54 65 60 66 62 67 55 68 56 69 57 70 58 71 59 72 5 73 6 74
REMARK SMILES IDX 7 75 8 76 9 77 10 78 13 79 11 80 12 81 14 82 15 83 16 84
REMARK SMILES IDX 23 85 17 86 22 87 18 88 21 89 19 91 20 92
REMARK H PARENT 83 22 49 33 17 90
REMARK Flexibility Score: inf
ROOT
ATOM      1  C   UNL A   1      39.561  21.657  26.533  1.00  0.00     0.275 C 
ENDROOT
BRANCH   1   2
ATOM      2  O   UNL A   1      40.216  22.919  26.452  1.00  0.00    -0.458 OA
BRANCH   2   3
ATOM      3  C   UNL A   1      40.315  23.749  27.524  1.00  0.00     0.338 C 
ATOM      4  O   UNL A   1      41.214  23.542  28.321  1.00  0.00    -0.246 OA
BRANCH   3   5
ATOM      5  C   UNL A   1      39.374  24.980  27.551  1.00  0.00     0.060 A 
ATOM      6  C   UNL A   1      40.379  26.063  26.701  1.00  0.00     0.016 A 
ATOM      7  C   UNL A   1      38.752  25.567  29.146  1.00  0.00     0.016 A 
ATOM      8  C   UNL A   1      41.030  27.456  27.297  1.00  0.00     0.010 A 
ATOM      9  C   UNL A   1      39.635  27.211  29.850  1.00  0.00     0.010 A 
ATOM     10  C   UNL A   1      40.732  28.067  28.810  1.00  0.00    -0.014 A 
BRANCH  10  11
ATOM     11  C   UNL A   1      40.935  29.566  28.890  1.00  0.00     0.031 A 
ATOM     12  C   UNL A   1      39.578  30.387  28.749  1.00  0.00     0.074 A 
ATOM     13  C   UNL A   1      42.240  30.003  29.021  1.00  0.00     0.049 A 
ATOM     14  N   UNL A   1      39.132  31.234  29.626  1.00  0.00    -0.248 NA
ATOM     15  C   UNL A   1      38.478  30.116  27.758  1.00  0.00     0.031 C 
ATOM     16  C   UNL A   1      43.463  29.173  29.148  1.00  0.00     0.029 A 
ATOM     17  N   UNL A   1      42.815  31.257  29.096  1.00  0.00    -0.354 N 
ATOM     18  C   UNL A   1      37.747  31.421  29.450  1.00  0.00     0.074 A 
ATOM     19  C   UNL A   1      37.368  30.632  28.324  1.00  0.00     0.031 C 
ATOM     20  C   UNL A   1      44.602  29.921  29.119  1.00  0.00     0.029 A 
ATOM     21  C   UNL A   1      44.266  31.330  29.083  1.00  0.00     0.049 A 
ATOM     22  H   UNL A   1      42.264  32.070  29.154  1.00  0.00     0.167 HD
ATOM     23  C   UNL A   1      37.039  32.314  30.201  1.00  0.00     0.037 A 
ATOM     24  C   UNL A   1      45.054  32.475  29.040  1.00  0.00     0.037 A 
ATOM     25  C   UNL A   1      37.870  33.444  30.418  1.00  0.00     0.049 A 
ATOM     26  C   UNL A   1      44.099  33.476  29.491  1.00  0.00     0.074 A 
ATOM     27  C   UNL A   1      38.083  34.454  29.521  1.00  0.00     0.029 A 
ATOM     28  N   UNL A   1      38.894  33.392  31.320  1.00  0.00    -0.354 N 
ATOM     29  N   UNL A   1      43.605  33.543  30.688  1.00  0.00    -0.248 NA
ATOM     30  C   UNL A   1      43.445  34.206  28.427  1.00  0.00     0.031 C 
ATOM     31  C   UNL A   1      39.468  34.529  29.525  1.00  0.00     0.029 A 
ATOM     32  C   UNL A   1      39.985  33.951  30.682  1.00  0.00     0.049 A 
ATOM     33  H   UNL A   1      38.862  33.031  32.236  1.00  0.00     0.167 HD
ATOM     34  C   UNL A   1      42.352  34.049  30.460  1.00  0.00     0.074 A 
ATOM     35  C   UNL A   1      42.368  34.566  29.097  1.00  0.00     0.031 C 
ATOM     36  C   UNL A   1      41.288  33.668  31.209  1.00  0.00     0.037 A 
BRANCH  23  37
ATOM     37  C   UNL A   1      35.620  32.526  30.637  1.00  0.00     0.058 A 
ATOM     38  C   UNL A   1      34.725  33.183  29.756  1.00  0.00     0.135 A 
ATOM     39  C   UNL A   1      35.453  32.784  32.005  1.00  0.00     0.135 A 
ATOM     40  F   UNL A   1      34.763  32.943  28.435  1.00  0.00    -0.206 F 
ATOM     41  C   UNL A   1      33.875  34.196  30.186  1.00  0.00     0.059 A 
ATOM     42  C   UNL A   1      34.559  33.755  32.465  1.00  0.00     0.059 A 
ATOM     43  F   UNL A   1      36.269  32.200  32.896  1.00  0.00    -0.206 F 
ATOM     44  C   UNL A   1      33.818  34.495  31.541  1.00  0.00     0.060 A 
BRANCH  44  45
ATOM     45  S   UNL A   1      32.751  35.856  32.061  1.00  0.00     0.124 S 
ATOM     46  O   UNL A   1      31.572  35.155  32.551  1.00  0.00    -0.237 OA
ATOM     47  O   UNL A   1      33.571  36.503  33.085  1.00  0.00    -0.237 OA
ATOM     48  O   UNL A   1      32.572  36.629  30.836  1.00  0.00    -0.744 OA
ENDBRANCH  44  45
ENDBRANCH  23  37
BRANCH  24  49
ATOM     49  C   UNL A   1      46.407  33.077  28.622  1.00  0.00     0.058 A 
ATOM     50  C   UNL A   1      46.896  33.242  27.327  1.00  0.00     0.135 A 
ATOM     51  C   UNL A   1      47.210  33.751  29.613  1.00  0.00     0.135 A 
ATOM     52  F   UNL A   1      46.370  32.536  26.317  1.00  0.00    -0.206 F 
ATOM     53  C   UNL A   1      47.947  34.153  27.026  1.00  0.00     0.059 A 
ATOM     54  C   UNL A   1      48.178  34.718  29.340  1.00  0.00     0.059 A 
ATOM     55  F   UNL A   1      47.061  33.526  30.927  1.00  0.00    -0.206 F 
ATOM     56  C   UNL A   1      48.515  34.951  28.028  1.00  0.00     0.060 A 
BRANCH  56  57
ATOM     57  S   UNL A   1      49.574  36.370  27.634  1.00  0.00     0.124 S 
ATOM     58  O   UNL A   1      50.522  36.370  28.741  1.00  0.00    -0.237 OA
ATOM     59  O   UNL A   1      50.113  35.997  26.330  1.00  0.00    -0.237 OA
ATOM     60  O   UNL A   1      48.642  37.497  27.608  1.00  0.00    -0.744 OA
ENDBRANCH  56  57
ENDBRANCH  24  49
BRANCH  36  61
ATOM     61  C   UNL A   1      41.557  32.850  32.472  1.00  0.00     0.058 A 
ATOM     62  C   UNL A   1      42.054  33.501  33.608  1.00  0.00     0.135 A 
ATOM     63  C   UNL A   1      41.311  31.465  32.618  1.00  0.00     0.135 A 
ATOM     64  F   UNL A   1      42.326  34.813  33.557  1.00  0.00    -0.206 F 
ATOM     65  C   UNL A   1      42.246  32.840  34.826  1.00  0.00     0.059 A 
ATOM     66  C   UNL A   1      41.489  30.779  33.831  1.00  0.00     0.059 A 
ATOM     67  F   UNL A   1      40.851  30.737  31.594  1.00  0.00    -0.206 F 
ATOM     68  C   UNL A   1      41.942  31.484  34.940  1.00  0.00     0.060 A 
BRANCH  68  69
ATOM     69  S   UNL A   1      42.086  30.698  36.565  1.00  0.00     0.124 S 
ATOM     70  O   UNL A   1      41.453  29.401  36.343  1.00  0.00    -0.237 OA
ATOM     71  O   UNL A   1      43.531  30.668  36.761  1.00  0.00    -0.237 OA
ATOM     72  O   UNL A   1      41.357  31.599  37.456  1.00  0.00    -0.744 OA
ENDBRANCH  68  69
ENDBRANCH  36  61
ENDBRANCH  10  11
ENDBRANCH   3   5
ENDBRANCH   2   3
ENDBRANCH   1   2
BRANCH   1  73
ATOM     73  C   UNL A   1      38.485  21.484  25.463  1.00  0.00     0.275 C 
BRANCH  73  74
ATOM     74  O   UNL A   1      37.277  22.212  25.750  1.00  0.00    -0.457 OA
BRANCH  74  75
ATOM     75  C   UNL A   1      36.350  22.337  24.740  1.00  0.00     0.355 C 
ATOM     76  O   UNL A   1      36.520  22.962  23.705  1.00  0.00    -0.244 OA
BRANCH  75  77
ATOM     77  C   UNL A   1      35.158  21.613  25.117  1.00  0.00     0.127 A 
ATOM     78  C   UNL A   1      34.905  20.295  24.734  1.00  0.00     0.035 A 
ATOM     79  N   UNL A   1      34.006  22.077  25.786  1.00  0.00    -0.339 N 
ATOM     80  C   UNL A   1      33.740  19.862  25.383  1.00  0.00     0.020 A 
ATOM     81  C   UNL A   1      33.274  20.932  26.122  1.00  0.00     0.086 A 
BRANCH  79  82
ATOM     82  C   UNL A   1      33.464  23.493  25.897  1.00  0.00     0.160 C 
BRANCH  82  83
ATOM     83  C   UNL A   1      32.855  24.505  24.515  1.00  0.00     0.193 C 
ATOM     84  C   UNL A   1      33.833  26.024  24.975  1.00  0.00     0.296 C 
ATOM     85  O   UNL A   1      30.972  24.823  24.247  1.00  0.00    -0.364 OA
ATOM     86  N   UNL A   1      33.233  27.034  26.040  1.00  0.00    -0.328 N 
ATOM     87  C   UNL A   1      30.204  26.411  25.375  1.00  0.00     0.225 C 
ATOM     88  C   UNL A   1      33.988  28.204  26.418  1.00  0.00     0.262 C 
ATOM     89  C   UNL A   1      31.665  27.557  25.999  1.00  0.00     0.210 C 
ATOM     90  H   UNL A   1      33.305  26.272  26.714  1.00  0.00     0.348 HD
ATOM     91  C   UNL A   1      33.015  28.916  27.389  1.00  0.00     0.068 C 
ATOM     92  C   UNL A   1      31.651  28.167  27.374  1.00  0.00     0.073 C 
ENDBRANCH  82  83
ENDBRANCH  79  82
ENDBRANCH  75  77
ENDBRANCH  74  75
ENDBRANCH  73  74
ENDBRANCH   1  73
TORSDOF 16
ENDMDL
