MODEL 1
REMARK VINA RESULT:     -10.1      0.000      0.000
REMARK SMILES CCCCN(C)c1ccc([N+](=O)[O-])c(C(=O)OCCOC(=O)c2ccc(-c3c4nc(c(-c5c(F)cc(S(=O)(=O)[O-])cc5F)c5ccc([nH]5)c(-c5c(F)cc(S(=O)(=O)[O-])cc5F)c5nc(c(-c6c(F)cc(S(=O)(=O)[O-])cc6F)c6ccc3[nH]6)C=C5)C=C4)cc2)c1
REMARK SMILES IDX 18 1 17 2 15 3 16 4 14 5 7 6 8 7 89 8 9 9 10 10 5 11 6 12
REMARK SMILES IDX 4 13 3 14 2 15 1 16 11 17 12 18 13 19 19 20 20 21 21 22
REMARK SMILES IDX 22 23 23 24 24 25 88 26 25 27 87 28 26 29 27 30 28 31 81 32
REMARK SMILES IDX 29 33 86 34 80 35 82 36 30 37 85 38 79 39 78 40 31 42 65 43
REMARK SMILES IDX 44 44 64 45 45 46 48 47 63 48 83 49 46 50 47 51 62 53 84 54
REMARK SMILES IDX 49 55 32 56 33 57 42 58 34 59 35 60 41 61 43 62 36 63 37 64
REMARK SMILES IDX 38 65 39 66 40 67 66 68 67 69 76 70 68 71 69 72 75 73 77 74
REMARK SMILES IDX 70 75 71 76 72 77 73 78 74 79 50 80 51 81 60 82 52 83 53 84
REMARK SMILES IDX 59 85 61 86 54 87 55 88 56 89 57 90 58 91
REMARK H PARENT 82 41 48 52
REMARK Flexibility Score: inf
ROOT
ATOM      1  C   UNL A   1      46.036  23.743  25.888  1.00  0.00     0.275 C 
ENDROOT
BRANCH   1   2
ATOM      2  O   UNL A   1      45.869  22.323  25.718  1.00  0.00    -0.458 OA
BRANCH   2   3
ATOM      3  C   UNL A   1      44.934  21.909  24.824  1.00  0.00     0.345 C 
ATOM      4  O   UNL A   1      44.740  22.410  23.730  1.00  0.00    -0.246 OA
BRANCH   3   5
ATOM      5  C   UNL A   1      44.210  20.711  25.339  1.00  0.00     0.139 A 
ATOM      6  C   UNL A   1      42.195  19.786  26.395  1.00  0.00     0.038 A 
ATOM      7  C   UNL A   1      42.773  18.513  26.368  1.00  0.00     0.033 A 
ATOM      8  C   UNL A   1      42.982  20.872  25.997  1.00  0.00     0.048 A 
ATOM      9  C   UNL A   1      44.034  18.320  25.801  1.00  0.00     0.089 A 
ATOM     10  C   UNL A   1      44.707  19.411  25.226  1.00  0.00     0.284 A 
BRANCH   6  11
ATOM     11  N   UNL A   1      40.846  20.010  26.687  1.00  0.00    -0.375 N 
ATOM     12  C   UNL A   1      39.864  19.475  25.745  1.00  0.00     0.143 C 
BRANCH  11  13
ATOM     13  C   UNL A   1      40.556  21.352  27.244  1.00  0.00     0.116 C 
BRANCH  13  14
ATOM     14  C   UNL A   1      39.642  22.234  26.374  1.00  0.00     0.021 C 
BRANCH  14  15
ATOM     15  C   UNL A   1      39.302  23.663  26.828  1.00  0.00    -0.002 C 
ATOM     16  C   UNL A   1      37.980  24.240  26.350  1.00  0.00     0.004 C 
ENDBRANCH  14  15
ENDBRANCH  13  14
ENDBRANCH  11  13
ENDBRANCH   6  11
BRANCH  10  17
ATOM     17  N   UNL A   1      45.888  19.103  24.445  1.00  0.00     0.063 N 
ATOM     18  O   UNL A   1      46.969  19.108  25.046  1.00  0.00    -0.258 OA
ATOM     19  O   UNL A   1      45.704  18.724  23.281  1.00  0.00    -0.258 OA
ENDBRANCH  10  17
ENDBRANCH   3   5
ENDBRANCH   2   3
ENDBRANCH   1   2
BRANCH   1  20
ATOM     20  C   UNL A   1      44.841  24.387  26.600  1.00  0.00     0.275 C 
BRANCH  20  21
ATOM     21  O   UNL A   1      44.414  25.595  25.943  1.00  0.00    -0.458 OA
BRANCH  21  22
ATOM     22  C   UNL A   1      43.093  25.874  26.066  1.00  0.00     0.338 C 
ATOM     23  O   UNL A   1      42.182  25.382  25.419  1.00  0.00    -0.246 OA
BRANCH  22  24
ATOM     24  C   UNL A   1      42.870  26.698  27.269  1.00  0.00     0.060 A 
ATOM     25  C   UNL A   1      42.009  26.178  28.240  1.00  0.00     0.016 A 
ATOM     26  C   UNL A   1      43.474  27.942  27.462  1.00  0.00     0.016 A 
ATOM     27  C   UNL A   1      41.801  26.856  29.435  1.00  0.00     0.010 A 
ATOM     28  C   UNL A   1      43.222  28.651  28.644  1.00  0.00     0.010 A 
ATOM     29  C   UNL A   1      42.395  28.102  29.642  1.00  0.00    -0.014 A 
BRANCH  29  30
ATOM     30  C   UNL A   1      42.020  28.872  30.850  1.00  0.00     0.031 A 
ATOM     31  C   UNL A   1      40.816  29.767  30.783  1.00  0.00     0.074 A 
ATOM     32  C   UNL A   1      42.680  28.704  32.010  1.00  0.00     0.049 A 
ATOM     33  N   UNL A   1      40.327  30.568  31.692  1.00  0.00    -0.248 NA
ATOM     34  C   UNL A   1      40.051  29.740  29.525  1.00  0.00     0.031 C 
ATOM     35  C   UNL A   1      43.781  27.767  32.229  1.00  0.00     0.029 A 
ATOM     36  N   UNL A   1      42.511  29.314  33.228  1.00  0.00    -0.354 N 
ATOM     37  C   UNL A   1      39.196  31.136  31.122  1.00  0.00     0.074 A 
ATOM     38  C   UNL A   1      39.084  30.608  29.780  1.00  0.00     0.031 C 
ATOM     39  C   UNL A   1      44.201  27.877  33.502  1.00  0.00     0.029 A 
ATOM     40  C   UNL A   1      43.427  28.919  34.175  1.00  0.00     0.049 A 
ATOM     41  H   UNL A   1      41.800  29.972  33.408  1.00  0.00     0.167 HD
ATOM     42  C   UNL A   1      38.327  32.015  31.673  1.00  0.00     0.037 A 
ATOM     43  C   UNL A   1      43.631  29.373  35.428  1.00  0.00     0.037 A 
ATOM     44  C   UNL A   1      38.459  32.551  33.003  1.00  0.00     0.049 A 
ATOM     45  C   UNL A   1      42.739  30.468  35.964  1.00  0.00     0.074 A 
ATOM     46  C   UNL A   1      37.665  33.492  33.634  1.00  0.00     0.029 A 
ATOM     47  N   UNL A   1      39.452  32.195  33.905  1.00  0.00    -0.354 N 
ATOM     48  N   UNL A   1      41.696  31.035  35.405  1.00  0.00    -0.248 NA
ATOM     49  C   UNL A   1      43.056  30.990  37.302  1.00  0.00     0.031 C 
ATOM     50  C   UNL A   1      38.207  33.742  34.899  1.00  0.00     0.029 A 
ATOM     51  C   UNL A   1      39.302  32.912  35.080  1.00  0.00     0.049 A 
ATOM     52  H   UNL A   1      40.158  31.531  33.735  1.00  0.00     0.167 HD
ATOM     53  C   UNL A   1      41.211  31.948  36.337  1.00  0.00     0.074 A 
ATOM     54  C   UNL A   1      42.069  31.853  37.499  1.00  0.00     0.031 C 
ATOM     55  C   UNL A   1      40.150  32.789  36.240  1.00  0.00     0.037 A 
BRANCH  42  56
ATOM     56  C   UNL A   1      37.183  32.485  30.820  1.00  0.00     0.058 A 
ATOM     57  C   UNL A   1      37.322  33.554  29.921  1.00  0.00     0.135 A 
ATOM     58  C   UNL A   1      35.938  31.840  30.884  1.00  0.00     0.135 A 
ATOM     59  F   UNL A   1      38.484  34.222  29.837  1.00  0.00    -0.206 F 
ATOM     60  C   UNL A   1      36.261  33.979  29.129  1.00  0.00     0.059 A 
ATOM     61  C   UNL A   1      34.870  32.231  30.081  1.00  0.00     0.059 A 
ATOM     62  F   UNL A   1      35.748  30.817  31.733  1.00  0.00    -0.206 F 
ATOM     63  C   UNL A   1      35.038  33.309  29.215  1.00  0.00     0.060 A 
BRANCH  63  64
ATOM     64  S   UNL A   1      33.674  33.869  28.174  1.00  0.00     0.124 S 
ATOM     65  O   UNL A   1      32.812  34.528  29.152  1.00  0.00    -0.237 OA
ATOM     66  O   UNL A   1      34.348  34.753  27.229  1.00  0.00    -0.237 OA
ATOM     67  O   UNL A   1      33.147  32.633  27.607  1.00  0.00    -0.744 OA
ENDBRANCH  63  64
ENDBRANCH  42  56
BRANCH  43  68
ATOM     68  C   UNL A   1      44.748  28.838  36.260  1.00  0.00     0.058 A 
ATOM     69  C   UNL A   1      44.552  27.765  37.142  1.00  0.00     0.135 A 
ATOM     70  C   UNL A   1      46.019  29.435  36.236  1.00  0.00     0.135 A 
ATOM     71  F   UNL A   1      43.352  27.169  37.217  1.00  0.00    -0.206 F 
ATOM     72  C   UNL A   1      45.561  27.325  37.994  1.00  0.00     0.059 A 
ATOM     73  C   UNL A   1      47.054  28.991  37.055  1.00  0.00     0.059 A 
ATOM     74  F   UNL A   1      46.266  30.465  35.413  1.00  0.00    -0.206 F 
ATOM     75  C   UNL A   1      46.809  27.949  37.946  1.00  0.00     0.060 A 
BRANCH  75  76
ATOM     76  S   UNL A   1      48.110  27.375  39.062  1.00  0.00     0.124 S 
ATOM     77  O   UNL A   1      48.758  26.350  38.252  1.00  0.00    -0.237 OA
ATOM     78  O   UNL A   1      48.881  28.593  39.288  1.00  0.00    -0.237 OA
ATOM     79  O   UNL A   1      47.368  26.886  40.220  1.00  0.00    -0.744 OA
ENDBRANCH  75  76
ENDBRANCH  43  68
BRANCH  55  80
ATOM     80  C   UNL A   1      39.815  33.634  37.441  1.00  0.00     0.058 A 
ATOM     81  C   UNL A   1      38.863  33.234  38.391  1.00  0.00     0.135 A 
ATOM     82  C   UNL A   1      40.507  34.835  37.676  1.00  0.00     0.135 A 
ATOM     83  F   UNL A   1      38.168  32.099  38.215  1.00  0.00    -0.206 F 
ATOM     84  C   UNL A   1      38.591  34.005  39.518  1.00  0.00     0.059 A 
ATOM     85  C   UNL A   1      40.275  35.605  38.812  1.00  0.00     0.059 A 
ATOM     86  F   UNL A   1      41.438  35.260  36.807  1.00  0.00    -0.206 F 
ATOM     87  C   UNL A   1      39.305  35.186  39.722  1.00  0.00     0.060 A 
BRANCH  87  88
ATOM     88  S   UNL A   1      38.973  36.155  41.209  1.00  0.00     0.124 S 
ATOM     89  O   UNL A   1      37.766  35.512  41.717  1.00  0.00    -0.237 OA
ATOM     90  O   UNL A   1      40.184  35.941  41.996  1.00  0.00    -0.237 OA
ATOM     91  O   UNL A   1      38.795  37.511  40.701  1.00  0.00    -0.744 OA
ENDBRANCH  87  88
ENDBRANCH  55  80
ENDBRANCH  29  30
ENDBRANCH  22  24
ENDBRANCH  21  22
ENDBRANCH  20  21
ENDBRANCH   1  20
TORSDOF 19
ENDMDL
MODEL 2
REMARK VINA RESULT:      -9.6      4.622     10.621
REMARK SMILES CCCCN(C)c1ccc([N+](=O)[O-])c(C(=O)OCCOC(=O)c2ccc(-c3c4nc(c(-c5c(F)cc(S(=O)(=O)[O-])cc5F)c5ccc([nH]5)c(-c5c(F)cc(S(=O)(=O)[O-])cc5F)c5nc(c(-c6c(F)cc(S(=O)(=O)[O-])cc6F)c6ccc3[nH]6)C=C5)C=C4)cc2)c1
REMARK SMILES IDX 18 1 17 2 15 3 16 4 14 5 7 6 8 7 89 8 9 9 10 10 5 11 6 12
REMARK SMILES IDX 4 13 3 14 2 15 1 16 11 17 12 18 13 19 19 20 20 21 21 22
REMARK SMILES IDX 22 23 23 24 24 25 88 26 25 27 87 28 26 29 27 30 28 31 81 32
REMARK SMILES IDX 29 33 86 34 80 35 82 36 30 37 85 38 79 39 78 40 31 42 65 43
REMARK SMILES IDX 44 44 64 45 45 46 48 47 63 48 83 49 46 50 47 51 62 53 84 54
REMARK SMILES IDX 49 55 32 56 33 57 42 58 34 59 35 60 41 61 43 62 36 63 37 64
REMARK SMILES IDX 38 65 39 66 40 67 66 68 67 69 76 70 68 71 69 72 75 73 77 74
REMARK SMILES IDX 70 75 71 76 72 77 73 78 74 79 50 80 51 81 60 82 52 83 53 84
REMARK SMILES IDX 59 85 61 86 54 87 55 88 56 89 57 90 58 91
REMARK H PARENT 82 41 48 52
REMARK Flexibility Score: inf
ROOT
ATOM      1  C   UNL A   1      35.558  21.950  24.720  1.00  0.00     0.275 C 
ENDROOT
BRANCH   1   2
ATOM      2  O   UNL A   1      34.747  23.008  25.264  1.00  0.00    -0.458 OA
BRANCH   2   3
ATOM      3  C   UNL A   1      33.725  23.466  24.496  1.00  0.00     0.345 C 
ATOM      4  O   UNL A   1      33.341  22.950  23.461  1.00  0.00    -0.246 OA
BRANCH   3   5
ATOM      5  C   UNL A   1      33.091  24.660  25.124  1.00  0.00     0.139 A 
ATOM      6  C   UNL A   1      32.889  27.106  25.222  1.00  0.00     0.038 A 
ATOM      7  C   UNL A   1      31.972  26.982  26.270  1.00  0.00     0.033 A 
ATOM      8  C   UNL A   1      33.522  25.946  24.764  1.00  0.00     0.048 A 
ATOM      9  C   UNL A   1      31.581  25.721  26.723  1.00  0.00     0.089 A 
ATOM     10  C   UNL A   1      32.090  24.573  26.094  1.00  0.00     0.284 A 
BRANCH   6  11
ATOM     11  N   UNL A   1      33.115  28.305  24.539  1.00  0.00    -0.375 N 
ATOM     12  C   UNL A   1      33.261  29.515  25.347  1.00  0.00     0.143 C 
BRANCH  11  13
ATOM     13  C   UNL A   1      32.342  28.446  23.282  1.00  0.00     0.116 C 
BRANCH  13  14
ATOM     14  C   UNL A   1      30.882  28.900  23.464  1.00  0.00     0.021 C 
BRANCH  14  15
ATOM     15  C   UNL A   1      29.737  28.014  22.946  1.00  0.00    -0.002 C 
ATOM     16  C   UNL A   1      28.339  28.606  22.983  1.00  0.00     0.004 C 
ENDBRANCH  14  15
ENDBRANCH  13  14
ENDBRANCH  11  13
ENDBRANCH   6  11
BRANCH  10  17
ATOM     17  N   UNL A   1      31.465  23.313  26.444  1.00  0.00     0.063 N 
ATOM     18  O   UNL A   1      30.686  22.829  25.613  1.00  0.00    -0.258 OA
ATOM     19  O   UNL A   1      31.867  22.759  27.475  1.00  0.00    -0.258 OA
ENDBRANCH  10  17
ENDBRANCH   3   5
ENDBRANCH   2   3
ENDBRANCH   1   2
BRANCH   1  20
ATOM     20  C   UNL A   1      36.942  22.444  24.286  1.00  0.00     0.275 C 
BRANCH  20  21
ATOM     21  O   UNL A   1      37.460  23.445  25.181  1.00  0.00    -0.458 OA
BRANCH  21  22
ATOM     22  C   UNL A   1      38.602  23.099  25.824  1.00  0.00     0.338 C 
ATOM     23  O   UNL A   1      39.244  22.072  25.667  1.00  0.00    -0.246 OA
BRANCH  22  24
ATOM     24  C   UNL A   1      39.109  24.254  26.590  1.00  0.00     0.060 A 
ATOM     25  C   UNL A   1      38.659  24.383  27.907  1.00  0.00     0.016 A 
ATOM     26  C   UNL A   1      39.996  25.189  26.056  1.00  0.00     0.016 A 
ATOM     27  C   UNL A   1      39.142  25.401  28.721  1.00  0.00     0.010 A 
ATOM     28  C   UNL A   1      40.442  26.248  26.860  1.00  0.00     0.010 A 
ATOM     29  C   UNL A   1      40.027  26.347  28.201  1.00  0.00    -0.014 A 
BRANCH  29  30
ATOM     30  C   UNL A   1      40.390  27.511  29.042  1.00  0.00     0.031 A 
ATOM     31  C   UNL A   1      41.723  27.508  29.732  1.00  0.00     0.074 A 
ATOM     32  C   UNL A   1      39.590  28.591  29.112  1.00  0.00     0.049 A 
ATOM     33  N   UNL A   1      42.235  28.388  30.551  1.00  0.00    -0.248 NA
ATOM     34  C   UNL A   1      42.605  26.365  29.444  1.00  0.00     0.031 C 
ATOM     35  C   UNL A   1      38.334  28.761  28.383  1.00  0.00     0.029 A 
ATOM     36  N   UNL A   1      39.724  29.755  29.827  1.00  0.00    -0.354 N 
ATOM     37  C   UNL A   1      43.499  27.911  30.872  1.00  0.00     0.074 A 
ATOM     38  C   UNL A   1      43.668  26.652  30.180  1.00  0.00     0.031 C 
ATOM     39  C   UNL A   1      37.803  29.955  28.703  1.00  0.00     0.029 A 
ATOM     40  C   UNL A   1      38.658  30.614  29.688  1.00  0.00     0.049 A 
ATOM     41  H   UNL A   1      40.508  29.956  30.387  1.00  0.00     0.167 HD
ATOM     42  C   UNL A   1      44.435  28.478  31.669  1.00  0.00     0.037 A 
ATOM     43  C   UNL A   1      38.396  31.781  30.310  1.00  0.00     0.037 A 
ATOM     44  C   UNL A   1      44.249  29.721  32.370  1.00  0.00     0.049 A 
ATOM     45  C   UNL A   1      39.392  32.314  31.314  1.00  0.00     0.074 A 
ATOM     46  C   UNL A   1      45.113  30.351  33.248  1.00  0.00     0.029 A 
ATOM     47  N   UNL A   1      43.120  30.522  32.275  1.00  0.00    -0.354 N 
ATOM     48  N   UNL A   1      40.568  31.837  31.649  1.00  0.00    -0.248 NA
ATOM     49  C   UNL A   1      39.022  33.543  32.031  1.00  0.00     0.031 C 
ATOM     50  C   UNL A   1      44.486  31.508  33.723  1.00  0.00     0.029 A 
ATOM     51  C   UNL A   1      43.257  31.631  33.094  1.00  0.00     0.049 A 
ATOM     52  H   UNL A   1      42.338  30.332  31.709  1.00  0.00     0.167 HD
ATOM     53  C   UNL A   1      41.092  32.727  32.581  1.00  0.00     0.074 A 
ATOM     54  C   UNL A   1      40.109  33.777  32.752  1.00  0.00     0.031 C 
ATOM     55  C   UNL A   1      42.280  32.682  33.236  1.00  0.00     0.037 A 
BRANCH  42  56
ATOM     56  C   UNL A   1      45.726  27.732  31.858  1.00  0.00     0.058 A 
ATOM     57  C   UNL A   1      45.868  26.737  32.838  1.00  0.00     0.135 A 
ATOM     58  C   UNL A   1      46.828  27.999  31.031  1.00  0.00     0.135 A 
ATOM     59  F   UNL A   1      44.853  26.459  33.673  1.00  0.00    -0.206 F 
ATOM     60  C   UNL A   1      47.063  26.046  33.004  1.00  0.00     0.059 A 
ATOM     61  C   UNL A   1      48.025  27.301  31.161  1.00  0.00     0.059 A 
ATOM     62  F   UNL A   1      46.749  28.947  30.084  1.00  0.00    -0.206 F 
ATOM     63  C   UNL A   1      48.137  26.335  32.158  1.00  0.00     0.060 A 
BRANCH  63  64
ATOM     64  S   UNL A   1      49.678  25.423  32.381  1.00  0.00     0.124 S 
ATOM     65  O   UNL A   1      50.565  26.468  32.884  1.00  0.00    -0.237 OA
ATOM     66  O   UNL A   1      49.296  24.399  33.348  1.00  0.00    -0.237 OA
ATOM     67  O   UNL A   1      49.983  24.934  31.041  1.00  0.00    -0.744 OA
ENDBRANCH  63  64
ENDBRANCH  42  56
BRANCH  43  68
ATOM     68  C   UNL A   1      37.125  32.515  30.051  1.00  0.00     0.058 A 
ATOM     69  C   UNL A   1      37.069  33.578  29.137  1.00  0.00     0.135 A 
ATOM     70  C   UNL A   1      35.953  32.209  30.762  1.00  0.00     0.135 A 
ATOM     71  F   UNL A   1      38.164  33.923  28.443  1.00  0.00    -0.206 F 
ATOM     72  C   UNL A   1      35.912  34.332  28.961  1.00  0.00     0.059 A 
ATOM     73  C   UNL A   1      34.774  32.927  30.580  1.00  0.00     0.059 A 
ATOM     74  F   UNL A   1      35.945  31.202  31.650  1.00  0.00    -0.206 F 
ATOM     75  C   UNL A   1      34.770  34.001  29.693  1.00  0.00     0.060 A 
BRANCH  75  76
ATOM     76  S   UNL A   1      33.276  34.991  29.464  1.00  0.00     0.124 S 
ATOM     77  O   UNL A   1      32.603  34.264  28.394  1.00  0.00    -0.237 OA
ATOM     78  O   UNL A   1      32.650  34.913  30.780  1.00  0.00    -0.237 OA
ATOM     79  O   UNL A   1      33.795  36.306  29.101  1.00  0.00    -0.744 OA
ENDBRANCH  75  76
ENDBRANCH  43  68
BRANCH  55  80
ATOM     80  C   UNL A   1      42.616  33.827  34.155  1.00  0.00     0.058 A 
ATOM     81  C   UNL A   1      42.463  33.734  35.547  1.00  0.00     0.135 A 
ATOM     82  C   UNL A   1      43.159  35.015  33.635  1.00  0.00     0.135 A 
ATOM     83  F   UNL A   1      41.944  32.625  36.098  1.00  0.00    -0.206 F 
ATOM     84  C   UNL A   1      42.814  34.785  36.389  1.00  0.00     0.059 A 
ATOM     85  C   UNL A   1      43.547  36.066  34.462  1.00  0.00     0.059 A 
ATOM     86  F   UNL A   1      43.339  35.154  32.313  1.00  0.00    -0.206 F 
ATOM     87  C   UNL A   1      43.360  35.945  35.838  1.00  0.00     0.060 A 
BRANCH  87  88
ATOM     88  S   UNL A   1      43.852  37.284  36.945  1.00  0.00     0.124 S 
ATOM     89  O   UNL A   1      44.042  38.387  36.010  1.00  0.00    -0.237 OA
ATOM     90  O   UNL A   1      42.695  37.395  37.830  1.00  0.00    -0.237 OA
ATOM     91  O   UNL A   1      45.067  36.778  37.575  1.00  0.00    -0.744 OA
ENDBRANCH  87  88
ENDBRANCH  55  80
ENDBRANCH  29  30
ENDBRANCH  22  24
ENDBRANCH  21  22
ENDBRANCH  20  21
ENDBRANCH   1  20
TORSDOF 19
ENDMDL
MODEL 3
REMARK VINA RESULT:      -9.6      4.051     10.053
REMARK SMILES CCCCN(C)c1ccc([N+](=O)[O-])c(C(=O)OCCOC(=O)c2ccc(-c3c4nc(c(-c5c(F)cc(S(=O)(=O)[O-])cc5F)c5ccc([nH]5)c(-c5c(F)cc(S(=O)(=O)[O-])cc5F)c5nc(c(-c6c(F)cc(S(=O)(=O)[O-])cc6F)c6ccc3[nH]6)C=C5)C=C4)cc2)c1
REMARK SMILES IDX 18 1 17 2 15 3 16 4 14 5 7 6 8 7 89 8 9 9 10 10 5 11 6 12
REMARK SMILES IDX 4 13 3 14 2 15 1 16 11 17 12 18 13 19 19 20 20 21 21 22
REMARK SMILES IDX 22 23 23 24 24 25 88 26 25 27 87 28 26 29 27 30 28 31 81 32
REMARK SMILES IDX 29 33 86 34 80 35 82 36 30 37 85 38 79 39 78 40 31 42 65 43
REMARK SMILES IDX 44 44 64 45 45 46 48 47 63 48 83 49 46 50 47 51 62 53 84 54
REMARK SMILES IDX 49 55 32 56 33 57 42 58 34 59 35 60 41 61 43 62 36 63 37 64
REMARK SMILES IDX 38 65 39 66 40 67 66 68 67 69 76 70 68 71 69 72 75 73 77 74
REMARK SMILES IDX 70 75 71 76 72 77 73 78 74 79 50 80 51 81 60 82 52 83 53 84
REMARK SMILES IDX 59 85 61 86 54 87 55 88 56 89 57 90 58 91
REMARK H PARENT 82 41 48 52
REMARK Flexibility Score: inf
ROOT
ATOM      1  C   UNL A   1      32.767  28.681  24.535  1.00  0.00     0.275 C 
ENDROOT
BRANCH   1   2
ATOM      2  O   UNL A   1      33.602  27.517  24.681  1.00  0.00    -0.458 OA
BRANCH   2   3
ATOM      3  C   UNL A   1      32.996  26.359  25.048  1.00  0.00     0.345 C 
ATOM      4  O   UNL A   1      32.042  26.275  25.802  1.00  0.00    -0.246 OA
BRANCH   3   5
ATOM      5  C   UNL A   1      33.621  25.197  24.353  1.00  0.00     0.139 A 
ATOM      6  C   UNL A   1      35.402  23.507  24.306  1.00  0.00     0.038 A 
ATOM      7  C   UNL A   1      34.895  23.015  23.099  1.00  0.00     0.033 A 
ATOM      8  C   UNL A   1      34.827  24.667  24.834  1.00  0.00     0.048 A 
ATOM      9  C   UNL A   1      33.744  23.570  22.537  1.00  0.00     0.089 A 
ATOM     10  C   UNL A   1      33.078  24.608  23.209  1.00  0.00     0.284 A 
BRANCH   6  11
ATOM     11  N   UNL A   1      36.369  22.836  25.061  1.00  0.00    -0.375 N 
ATOM     12  C   UNL A   1      36.194  21.395  25.237  1.00  0.00     0.143 C 
BRANCH  11  13
ATOM     13  C   UNL A   1      36.847  23.587  26.246  1.00  0.00     0.116 C 
BRANCH  13  14
ATOM     14  C   UNL A   1      38.289  24.117  26.141  1.00  0.00     0.021 C 
BRANCH  14  15
ATOM     15  C   UNL A   1      39.421  23.404  26.900  1.00  0.00    -0.002 C 
ATOM     16  C   UNL A   1      39.722  21.971  26.499  1.00  0.00     0.004 C 
ENDBRANCH  14  15
ENDBRANCH  13  14
ENDBRANCH  11  13
ENDBRANCH   6  11
BRANCH  10  17
ATOM     17  N   UNL A   1      31.769  24.971  22.703  1.00  0.00     0.063 N 
ATOM     18  O   UNL A   1      30.806  24.334  23.147  1.00  0.00    -0.258 OA
ATOM     19  O   UNL A   1      31.710  25.975  21.982  1.00  0.00    -0.258 OA
ENDBRANCH  10  17
ENDBRANCH   3   5
ENDBRANCH   2   3
ENDBRANCH   1   2
BRANCH   1  20
ATOM     20  C   UNL A   1      32.807  29.584  25.773  1.00  0.00     0.275 C 
BRANCH  20  21
ATOM     21  O   UNL A   1      33.996  29.369  26.554  1.00  0.00    -0.458 OA
BRANCH  21  22
ATOM     22  C   UNL A   1      34.396  30.436  27.290  1.00  0.00     0.338 C 
ATOM     23  O   UNL A   1      33.724  31.413  27.580  1.00  0.00    -0.246 OA
BRANCH  22  24
ATOM     24  C   UNL A   1      35.706  30.151  27.905  1.00  0.00     0.060 A 
ATOM     25  C   UNL A   1      35.695  29.663  29.215  1.00  0.00     0.016 A 
ATOM     26  C   UNL A   1      36.917  30.347  27.240  1.00  0.00     0.016 A 
ATOM     27  C   UNL A   1      36.881  29.301  29.843  1.00  0.00     0.010 A 
ATOM     28  C   UNL A   1      38.117  30.033  27.893  1.00  0.00     0.010 A 
ATOM     29  C   UNL A   1      38.101  29.494  29.193  1.00  0.00    -0.014 A 
BRANCH  29  30
ATOM     30  C   UNL A   1      39.351  29.257  29.951  1.00  0.00     0.031 A 
ATOM     31  C   UNL A   1      40.270  28.163  29.491  1.00  0.00     0.074 A 
ATOM     32  C   UNL A   1      39.705  30.061  30.970  1.00  0.00     0.049 A 
ATOM     33  N   UNL A   1      41.389  27.743  30.020  1.00  0.00    -0.248 NA
ATOM     34  C   UNL A   1      39.884  27.461  28.256  1.00  0.00     0.031 C 
ATOM     35  C   UNL A   1      38.957  31.233  31.423  1.00  0.00     0.029 A 
ATOM     36  N   UNL A   1      40.796  30.017  31.803  1.00  0.00    -0.354 N 
ATOM     37  C   UNL A   1      41.844  26.733  29.182  1.00  0.00     0.074 A 
ATOM     38  C   UNL A   1      40.869  26.587  28.123  1.00  0.00     0.031 C 
ATOM     39  C   UNL A   1      39.602  31.787  32.464  1.00  0.00     0.029 A 
ATOM     40  C   UNL A   1      40.786  30.987  32.778  1.00  0.00     0.049 A 
ATOM     41  H   UNL A   1      41.517  29.353  31.711  1.00  0.00     0.167 HD
ATOM     42  C   UNL A   1      42.977  26.000  29.287  1.00  0.00     0.037 A 
ATOM     43  C   UNL A   1      41.621  31.183  33.817  1.00  0.00     0.037 A 
ATOM     44  C   UNL A   1      43.930  26.140  30.357  1.00  0.00     0.049 A 
ATOM     45  C   UNL A   1      42.795  30.250  33.997  1.00  0.00     0.074 A 
ATOM     46  C   UNL A   1      45.079  25.405  30.586  1.00  0.00     0.029 A 
ATOM     47  N   UNL A   1      43.842  27.075  31.378  1.00  0.00    -0.354 N 
ATOM     48  N   UNL A   1      43.198  29.266  33.227  1.00  0.00    -0.248 NA
ATOM     49  C   UNL A   1      43.627  30.448  35.194  1.00  0.00     0.031 C 
ATOM     50  C   UNL A   1      45.661  25.863  31.773  1.00  0.00     0.029 A 
ATOM     51  C   UNL A   1      44.907  26.923  32.251  1.00  0.00     0.049 A 
ATOM     52  H   UNL A   1      43.130  27.747  31.469  1.00  0.00     0.167 HD
ATOM     53  C   UNL A   1      44.349  28.759  33.823  1.00  0.00     0.074 A 
ATOM     54  C   UNL A   1      44.584  29.548  35.014  1.00  0.00     0.031 C 
ATOM     55  C   UNL A   1      45.142  27.733  33.421  1.00  0.00     0.037 A 
BRANCH  42  56
ATOM     56  C   UNL A   1      43.221  24.951  28.240  1.00  0.00     0.058 A 
ATOM     57  C   UNL A   1      43.838  25.257  27.017  1.00  0.00     0.135 A 
ATOM     58  C   UNL A   1      42.854  23.616  28.472  1.00  0.00     0.135 A 
ATOM     59  F   UNL A   1      44.186  26.523  26.732  1.00  0.00    -0.206 F 
ATOM     60  C   UNL A   1      44.067  24.281  26.053  1.00  0.00     0.059 A 
ATOM     61  C   UNL A   1      43.099  22.617  27.534  1.00  0.00     0.059 A 
ATOM     62  F   UNL A   1      42.253  23.270  29.622  1.00  0.00    -0.206 F 
ATOM     63  C   UNL A   1      43.695  22.962  26.323  1.00  0.00     0.060 A 
BRANCH  63  64
ATOM     64  S   UNL A   1      44.007  21.705  25.065  1.00  0.00     0.124 S 
ATOM     65  O   UNL A   1      45.393  21.346  25.350  1.00  0.00    -0.237 OA
ATOM     66  O   UNL A   1      43.011  20.688  25.389  1.00  0.00    -0.237 OA
ATOM     67  O   UNL A   1      43.788  22.416  23.810  1.00  0.00    -0.744 OA
ENDBRANCH  63  64
ENDBRANCH  42  56
BRANCH  43  68
ATOM     68  C   UNL A   1      41.369  32.273  34.803  1.00  0.00     0.058 A 
ATOM     69  C   UNL A   1      41.998  33.521  34.688  1.00  0.00     0.135 A 
ATOM     70  C   UNL A   1      40.543  32.063  35.920  1.00  0.00     0.135 A 
ATOM     71  F   UNL A   1      42.811  33.769  33.649  1.00  0.00    -0.206 F 
ATOM     72  C   UNL A   1      41.847  34.509  35.657  1.00  0.00     0.059 A 
ATOM     73  C   UNL A   1      40.349  33.047  36.885  1.00  0.00     0.059 A 
ATOM     74  F   UNL A   1      39.915  30.888  36.084  1.00  0.00    -0.206 F 
ATOM     75  C   UNL A   1      41.023  34.260  36.756  1.00  0.00     0.060 A 
BRANCH  75  76
ATOM     76  S   UNL A   1      40.839  35.545  38.013  1.00  0.00     0.124 S 
ATOM     77  O   UNL A   1      40.126  36.579  37.272  1.00  0.00    -0.237 OA
ATOM     78  O   UNL A   1      40.074  34.858  39.047  1.00  0.00    -0.237 OA
ATOM     79  O   UNL A   1      42.218  35.866  38.371  1.00  0.00    -0.744 OA
ENDBRANCH  75  76
ENDBRANCH  43  68
BRANCH  55  80
ATOM     80  C   UNL A   1      46.372  27.438  34.238  1.00  0.00     0.058 A 
ATOM     81  C   UNL A   1      46.363  26.507  35.287  1.00  0.00     0.135 A 
ATOM     82  C   UNL A   1      47.596  28.054  33.922  1.00  0.00     0.135 A 
ATOM     83  F   UNL A   1      45.222  25.892  35.636  1.00  0.00    -0.206 F 
ATOM     84  C   UNL A   1      47.516  26.213  36.010  1.00  0.00     0.059 A 
ATOM     85  C   UNL A   1      48.767  27.751  34.609  1.00  0.00     0.059 A 
ATOM     86  F   UNL A   1      47.665  28.944  32.919  1.00  0.00    -0.206 F 
ATOM     87  C   UNL A   1      48.715  26.837  35.660  1.00  0.00     0.060 A 
BRANCH  87  88
ATOM     88  S   UNL A   1      50.211  26.415  36.577  1.00  0.00     0.124 S 
ATOM     89  O   UNL A   1      50.564  25.126  35.992  1.00  0.00    -0.237 OA
ATOM     90  O   UNL A   1      51.101  27.525  36.248  1.00  0.00    -0.237 OA
ATOM     91  O   UNL A   1      49.761  26.372  37.965  1.00  0.00    -0.744 OA
ENDBRANCH  87  88
ENDBRANCH  55  80
ENDBRANCH  29  30
ENDBRANCH  22  24
ENDBRANCH  21  22
ENDBRANCH  20  21
ENDBRANCH   1  20
TORSDOF 19
ENDMDL
