MODEL 1
REMARK VINA RESULT:     -10.3      0.000      0.000
REMARK SMILES CC[C@@H](Oc1ccccc1)C(=O)OCCOC(=O)c1ccc(-c2c3nc(c(-c4c(F)cc(S(=O)(=O)[O-])cc4F)c4ccc([nH]4)c(-c4c(F)cc(S(=O)(=O)[O-])cc4F)c4nc(c(-c5c(F)cc(S(=O)(=O)[O-])cc5F)c5ccc2[nH]5)C=C4)C=C3)cc1
REMARK SMILES IDX 15 1 14 2 13 3 11 4 12 5 3 6 2 7 1 8 4 9 5 10 6 11 10 12
REMARK SMILES IDX 7 13 9 14 8 15 16 16 17 17 18 18 19 19 20 20 84 21 21 22
REMARK SMILES IDX 83 23 22 24 23 25 24 26 77 27 25 28 82 29 76 30 78 31 26 32
REMARK SMILES IDX 81 33 75 34 74 35 27 37 61 38 40 39 60 40 41 41 44 42 59 43
REMARK SMILES IDX 79 44 42 45 43 46 58 48 80 49 45 50 28 51 29 52 38 53 30 54
REMARK SMILES IDX 31 55 37 56 39 57 32 58 33 59 34 60 35 61 36 62 62 63 63 64
REMARK SMILES IDX 72 65 64 66 65 67 71 68 73 69 66 70 67 71 68 72 69 73 70 74
REMARK SMILES IDX 46 75 47 76 56 77 48 78 49 79 55 80 57 81 50 82 51 83 52 84
REMARK SMILES IDX 53 85 54 86
REMARK H PARENT 78 36 44 47
REMARK Flexibility Score: inf
ROOT
ATOM      1  C   UNL A   1      35.740  32.895  28.702  1.00  0.00     0.275 C 
ENDROOT
BRANCH   1   2
ATOM      2  C   UNL A   1      34.397  33.361  28.135  1.00  0.00     0.274 C 
BRANCH   2   3
ATOM      3  O   UNL A   1      33.450  33.608  29.190  1.00  0.00    -0.459 OA
BRANCH   3   4
ATOM      4  C   UNL A   1      33.240  34.916  29.514  1.00  0.00     0.347 C 
ATOM      5  O   UNL A   1      32.726  35.742  28.768  1.00  0.00    -0.248 OA
BRANCH   4   6
ATOM      6  C   UNL A   1      33.715  35.254  30.927  1.00  0.00     0.282 C 
BRANCH   6   7
ATOM      7  C   UNL A   1      32.719  36.157  31.679  1.00  0.00     0.054 C 
ATOM      8  C   UNL A   1      33.399  37.359  32.326  1.00  0.00     0.008 C 
ENDBRANCH   6   7
BRANCH   6   9
ATOM      9  O   UNL A   1      33.905  34.013  31.628  1.00  0.00    -0.479 OA
BRANCH   9  10
ATOM     10  C   UNL A   1      34.958  34.093  32.498  1.00  0.00     0.120 A 
ATOM     11  C   UNL A   1      34.765  33.954  33.871  1.00  0.00     0.046 A 
ATOM     12  C   UNL A   1      36.227  34.345  31.981  1.00  0.00     0.046 A 
ATOM     13  C   UNL A   1      35.865  34.008  34.728  1.00  0.00     0.004 A 
ATOM     14  C   UNL A   1      37.326  34.386  32.838  1.00  0.00     0.004 A 
ATOM     15  C   UNL A   1      37.145  34.212  34.210  1.00  0.00     0.000 A 
ENDBRANCH   9  10
ENDBRANCH   6   9
ENDBRANCH   4   6
ENDBRANCH   3   4
ENDBRANCH   2   3
ENDBRANCH   1   2
BRANCH   1  16
ATOM     16  O   UNL A   1      35.766  31.462  28.838  1.00  0.00    -0.458 OA
BRANCH  16  17
ATOM     17  C   UNL A   1      36.389  30.984  29.936  1.00  0.00     0.338 C 
ATOM     18  O   UNL A   1      35.904  30.773  31.037  1.00  0.00    -0.246 OA
BRANCH  17  19
ATOM     19  C   UNL A   1      37.783  30.665  29.602  1.00  0.00     0.060 A 
ATOM     20  C   UNL A   1      38.069  30.119  28.350  1.00  0.00     0.016 A 
ATOM     21  C   UNL A   1      38.785  30.818  30.560  1.00  0.00     0.016 A 
ATOM     22  C   UNL A   1      39.366  29.705  28.052  1.00  0.00     0.010 A 
ATOM     23  C   UNL A   1      40.090  30.420  30.253  1.00  0.00     0.010 A 
ATOM     24  C   UNL A   1      40.385  29.845  29.004  1.00  0.00    -0.014 A 
BRANCH  24  25
ATOM     25  C   UNL A   1      41.754  29.358  28.710  1.00  0.00     0.031 A 
ATOM     26  C   UNL A   1      42.910  30.318  28.720  1.00  0.00     0.074 A 
ATOM     27  C   UNL A   1      41.957  28.057  28.430  1.00  0.00     0.049 A 
ATOM     28  N   UNL A   1      44.160  30.112  28.395  1.00  0.00    -0.248 NA
ATOM     29  C   UNL A   1      42.618  31.695  29.151  1.00  0.00     0.031 C 
ATOM     30  C   UNL A   1      40.919  27.025  28.415  1.00  0.00     0.029 A 
ATOM     31  N   UNL A   1      43.104  27.384  28.092  1.00  0.00    -0.354 N 
ATOM     32  C   UNL A   1      44.802  31.332  28.565  1.00  0.00     0.074 A 
ATOM     33  C   UNL A   1      43.800  32.279  29.006  1.00  0.00     0.031 C 
ATOM     34  C   UNL A   1      41.476  25.850  28.077  1.00  0.00     0.029 A 
ATOM     35  C   UNL A   1      42.898  26.054  27.813  1.00  0.00     0.049 A 
ATOM     36  H   UNL A   1      43.989  27.813  28.051  1.00  0.00     0.167 HD
ATOM     37  C   UNL A   1      46.109  31.633  28.372  1.00  0.00     0.037 A 
ATOM     38  C   UNL A   1      43.753  25.113  27.369  1.00  0.00     0.037 A 
ATOM     39  C   UNL A   1      47.103  30.685  27.942  1.00  0.00     0.049 A 
ATOM     40  C   UNL A   1      45.191  25.479  27.128  1.00  0.00     0.074 A 
ATOM     41  C   UNL A   1      48.455  30.893  27.721  1.00  0.00     0.029 A 
ATOM     42  N   UNL A   1      46.856  29.348  27.667  1.00  0.00    -0.354 N 
ATOM     43  N   UNL A   1      45.784  26.639  27.284  1.00  0.00    -0.248 NA
ATOM     44  C   UNL A   1      46.078  24.410  26.647  1.00  0.00     0.031 C 
ATOM     45  C   UNL A   1      49.018  29.687  27.287  1.00  0.00     0.029 A 
ATOM     46  C   UNL A   1      48.025  28.721  27.269  1.00  0.00     0.049 A 
ATOM     47  H   UNL A   1      45.977  28.910  27.744  1.00  0.00     0.167 HD
ATOM     48  C   UNL A   1      47.113  26.437  26.934  1.00  0.00     0.074 A 
ATOM     49  C   UNL A   1      47.243  25.041  26.570  1.00  0.00     0.031 C 
ATOM     50  C   UNL A   1      48.135  27.329  26.913  1.00  0.00     0.037 A 
BRANCH  37  51
ATOM     51  C   UNL A   1      46.532  33.056  28.608  1.00  0.00     0.058 A 
ATOM     52  C   UNL A   1      46.987  33.489  29.861  1.00  0.00     0.135 A 
ATOM     53  C   UNL A   1      46.502  33.990  27.561  1.00  0.00     0.135 A 
ATOM     54  F   UNL A   1      47.019  32.639  30.901  1.00  0.00    -0.206 F 
ATOM     55  C   UNL A   1      47.374  34.808  30.077  1.00  0.00     0.059 A 
ATOM     56  C   UNL A   1      46.903  35.309  27.748  1.00  0.00     0.059 A 
ATOM     57  F   UNL A   1      46.073  33.626  26.342  1.00  0.00    -0.206 F 
ATOM     58  C   UNL A   1      47.323  35.713  29.016  1.00  0.00     0.060 A 
BRANCH  58  59
ATOM     59  S   UNL A   1      47.821  37.424  29.308  1.00  0.00     0.124 S 
ATOM     60  O   UNL A   1      49.260  37.277  29.504  1.00  0.00    -0.237 OA
ATOM     61  O   UNL A   1      47.415  38.086  28.073  1.00  0.00    -0.237 OA
ATOM     62  O   UNL A   1      47.061  37.800  30.497  1.00  0.00    -0.744 OA
ENDBRANCH  58  59
ENDBRANCH  37  51
BRANCH  38  63
ATOM     63  C   UNL A   1      43.262  23.737  27.105  1.00  0.00     0.058 A 
ATOM     64  C   UNL A   1      43.006  23.297  25.799  1.00  0.00     0.135 A 
ATOM     65  C   UNL A   1      43.059  22.828  28.155  1.00  0.00     0.135 A 
ATOM     66  F   UNL A   1      43.177  24.134  24.764  1.00  0.00    -0.206 F 
ATOM     67  C   UNL A   1      42.559  22.005  25.541  1.00  0.00     0.059 A 
ATOM     68  C   UNL A   1      42.633  21.525  27.921  1.00  0.00     0.059 A 
ATOM     69  F   UNL A   1      43.301  23.199  29.421  1.00  0.00    -0.206 F 
ATOM     70  C   UNL A   1      42.378  21.125  26.610  1.00  0.00     0.060 A 
BRANCH  70  71
ATOM     71  S   UNL A   1      41.857  19.430  26.264  1.00  0.00     0.124 S 
ATOM     72  O   UNL A   1      42.265  18.745  27.485  1.00  0.00    -0.237 OA
ATOM     73  O   UNL A   1      40.418  19.581  26.068  1.00  0.00    -0.237 OA
ATOM     74  O   UNL A   1      42.611  19.088  25.063  1.00  0.00    -0.744 OA
ENDBRANCH  70  71
ENDBRANCH  38  63
BRANCH  50  75
ATOM     75  C   UNL A   1      49.486  26.816  26.506  1.00  0.00     0.058 A 
ATOM     76  C   UNL A   1      50.344  26.194  27.426  1.00  0.00     0.135 A 
ATOM     77  C   UNL A   1      49.908  26.908  25.170  1.00  0.00     0.135 A 
ATOM     78  F   UNL A   1      49.987  26.088  28.716  1.00  0.00    -0.206 F 
ATOM     79  C   UNL A   1      51.583  25.695  27.039  1.00  0.00     0.059 A 
ATOM     80  C   UNL A   1      51.135  26.398  24.757  1.00  0.00     0.059 A 
ATOM     81  F   UNL A   1      49.121  27.488  24.250  1.00  0.00    -0.206 F 
ATOM     82  C   UNL A   1      51.971  25.803  25.702  1.00  0.00     0.060 A 
BRANCH  82  83
ATOM     83  S   UNL A   1      53.568  25.124  25.201  1.00  0.00     0.124 S 
ATOM     84  O   UNL A   1      54.459  25.701  26.201  1.00  0.00    -0.237 OA
ATOM     85  O   UNL A   1      53.345  23.684  25.306  1.00  0.00    -0.237 OA
ATOM     86  O   UNL A   1      53.736  25.627  23.841  1.00  0.00    -0.744 OA
ENDBRANCH  82  83
ENDBRANCH  50  75
ENDBRANCH  24  25
ENDBRANCH  17  19
ENDBRANCH  16  17
ENDBRANCH   1  16
TORSDOF 17
ENDMDL
MODEL 2
REMARK VINA RESULT:     -10.1      2.865      3.861
REMARK SMILES CC[C@@H](Oc1ccccc1)C(=O)OCCOC(=O)c1ccc(-c2c3nc(c(-c4c(F)cc(S(=O)(=O)[O-])cc4F)c4ccc([nH]4)c(-c4c(F)cc(S(=O)(=O)[O-])cc4F)c4nc(c(-c5c(F)cc(S(=O)(=O)[O-])cc5F)c5ccc2[nH]5)C=C4)C=C3)cc1
REMARK SMILES IDX 15 1 14 2 13 3 11 4 12 5 3 6 2 7 1 8 4 9 5 10 6 11 10 12
REMARK SMILES IDX 7 13 9 14 8 15 16 16 17 17 18 18 19 19 20 20 84 21 21 22
REMARK SMILES IDX 83 23 22 24 23 25 24 26 77 27 25 28 82 29 76 30 78 31 26 32
REMARK SMILES IDX 81 33 75 34 74 35 27 37 61 38 40 39 60 40 41 41 44 42 59 43
REMARK SMILES IDX 79 44 42 45 43 46 58 48 80 49 45 50 28 51 29 52 38 53 30 54
REMARK SMILES IDX 31 55 37 56 39 57 32 58 33 59 34 60 35 61 36 62 62 63 63 64
REMARK SMILES IDX 72 65 64 66 65 67 71 68 73 69 66 70 67 71 68 72 69 73 70 74
REMARK SMILES IDX 46 75 47 76 56 77 48 78 49 79 55 80 57 81 50 82 51 83 52 84
REMARK SMILES IDX 53 85 54 86
REMARK H PARENT 78 36 44 47
REMARK Flexibility Score: inf
ROOT
ATOM      1  C   UNL A   1      33.503  32.614  27.869  1.00  0.00     0.275 C 
ENDROOT
BRANCH   1   2
ATOM      2  C   UNL A   1      33.546  33.985  28.547  1.00  0.00     0.274 C 
BRANCH   2   3
ATOM      3  O   UNL A   1      34.891  34.327  28.930  1.00  0.00    -0.459 OA
BRANCH   3   4
ATOM      4  C   UNL A   1      35.217  34.107  30.236  1.00  0.00     0.347 C 
ATOM      5  O   UNL A   1      34.530  34.448  31.191  1.00  0.00    -0.248 OA
BRANCH   4   6
ATOM      6  C   UNL A   1      36.551  33.374  30.391  1.00  0.00     0.282 C 
BRANCH   6   7
ATOM      7  C   UNL A   1      37.416  33.457  29.120  1.00  0.00     0.054 C 
ATOM      8  C   UNL A   1      38.619  34.377  29.296  1.00  0.00     0.008 C 
ENDBRANCH   6   7
BRANCH   6   9
ATOM      9  O   UNL A   1      37.236  33.957  31.513  1.00  0.00    -0.479 OA
BRANCH   9  10
ATOM     10  C   UNL A   1      37.781  32.991  32.315  1.00  0.00     0.120 A 
ATOM     11  C   UNL A   1      37.179  31.740  32.438  1.00  0.00     0.046 A 
ATOM     12  C   UNL A   1      38.937  33.298  33.028  1.00  0.00     0.046 A 
ATOM     13  C   UNL A   1      37.779  30.766  33.238  1.00  0.00     0.004 A 
ATOM     14  C   UNL A   1      39.541  32.320  33.817  1.00  0.00     0.004 A 
ATOM     15  C   UNL A   1      38.965  31.053  33.917  1.00  0.00     0.000 A 
ENDBRANCH   9  10
ENDBRANCH   6   9
ENDBRANCH   4   6
ENDBRANCH   3   4
ENDBRANCH   2   3
ENDBRANCH   1   2
BRANCH   1  16
ATOM     16  O   UNL A   1      34.381  31.688  28.535  1.00  0.00    -0.458 OA
BRANCH  16  17
ATOM     17  C   UNL A   1      34.526  30.482  27.944  1.00  0.00     0.338 C 
ATOM     18  O   UNL A   1      33.713  29.886  27.255  1.00  0.00    -0.246 OA
BRANCH  17  19
ATOM     19  C   UNL A   1      35.884  29.984  28.189  1.00  0.00     0.060 A 
ATOM     20  C   UNL A   1      36.208  29.495  29.456  1.00  0.00     0.016 A 
ATOM     21  C   UNL A   1      36.858  30.088  27.195  1.00  0.00     0.016 A 
ATOM     22  C   UNL A   1      37.519  29.120  29.743  1.00  0.00     0.010 A 
ATOM     23  C   UNL A   1      38.169  29.695  27.478  1.00  0.00     0.010 A 
ATOM     24  C   UNL A   1      38.512  29.224  28.758  1.00  0.00    -0.014 A 
BRANCH  24  25
ATOM     25  C   UNL A   1      39.917  28.877  29.077  1.00  0.00     0.031 A 
ATOM     26  C   UNL A   1      40.816  29.901  29.712  1.00  0.00     0.074 A 
ATOM     27  C   UNL A   1      40.386  27.649  28.792  1.00  0.00     0.049 A 
ATOM     28  N   UNL A   1      42.095  29.829  29.976  1.00  0.00    -0.248 NA
ATOM     29  C   UNL A   1      40.192  31.178  30.096  1.00  0.00     0.031 C 
ATOM     30  C   UNL A   1      39.603  26.563  28.200  1.00  0.00     0.029 A 
ATOM     31  N   UNL A   1      41.638  27.111  28.951  1.00  0.00    -0.354 N 
ATOM     32  C   UNL A   1      42.435  31.051  30.542  1.00  0.00     0.074 A 
ATOM     33  C   UNL A   1      41.230  31.855  30.568  1.00  0.00     0.031 C 
ATOM     34  C   UNL A   1      40.396  25.490  28.039  1.00  0.00     0.029 A 
ATOM     35  C   UNL A   1      41.748  25.825  28.478  1.00  0.00     0.049 A 
ATOM     36  H   UNL A   1      42.387  27.599  29.364  1.00  0.00     0.167 HD
ATOM     37  C   UNL A   1      43.641  31.464  31.001  1.00  0.00     0.037 A 
ATOM     38  C   UNL A   1      42.822  25.019  28.383  1.00  0.00     0.037 A 
ATOM     39  C   UNL A   1      44.834  30.658  30.981  1.00  0.00     0.049 A 
ATOM     40  C   UNL A   1      44.158  25.511  28.866  1.00  0.00     0.074 A 
ATOM     41  C   UNL A   1      46.104  30.986  31.426  1.00  0.00     0.029 A 
ATOM     42  N   UNL A   1      44.905  29.362  30.492  1.00  0.00    -0.354 N 
ATOM     43  N   UNL A   1      44.468  26.673  29.391  1.00  0.00    -0.248 NA
ATOM     44  C   UNL A   1      45.293  24.586  28.740  1.00  0.00     0.031 C 
ATOM     45  C   UNL A   1      46.949  29.897  31.180  1.00  0.00     0.029 A 
ATOM     46  C   UNL A   1      46.198  28.879  30.613  1.00  0.00     0.049 A 
ATOM     47  H   UNL A   1      44.148  28.859  30.113  1.00  0.00     0.167 HD
ATOM     48  C   UNL A   1      45.828  26.614  29.671  1.00  0.00     0.074 A 
ATOM     49  C   UNL A   1      46.281  25.298  29.268  1.00  0.00     0.031 C 
ATOM     50  C   UNL A   1      46.630  27.565  30.210  1.00  0.00     0.037 A 
BRANCH  37  51
ATOM     51  C   UNL A   1      43.731  32.862  31.545  1.00  0.00     0.058 A 
ATOM     52  C   UNL A   1      44.176  33.931  30.755  1.00  0.00     0.135 A 
ATOM     53  C   UNL A   1      43.347  33.137  32.867  1.00  0.00     0.135 A 
ATOM     54  F   UNL A   1      44.571  33.719  29.489  1.00  0.00    -0.206 F 
ATOM     55  C   UNL A   1      44.261  35.224  31.264  1.00  0.00     0.059 A 
ATOM     56  C   UNL A   1      43.405  34.424  33.391  1.00  0.00     0.059 A 
ATOM     57  F   UNL A   1      42.915  32.147  33.665  1.00  0.00    -0.206 F 
ATOM     58  C   UNL A   1      43.879  35.460  32.585  1.00  0.00     0.060 A 
BRANCH  58  59
ATOM     59  S   UNL A   1      44.001  37.139  33.237  1.00  0.00     0.124 S 
ATOM     60  O   UNL A   1      43.809  37.935  32.028  1.00  0.00    -0.237 OA
ATOM     61  O   UNL A   1      42.908  37.182  34.203  1.00  0.00    -0.237 OA
ATOM     62  O   UNL A   1      45.342  37.184  33.811  1.00  0.00    -0.744 OA
ENDBRANCH  58  59
ENDBRANCH  37  51
BRANCH  38  63
ATOM     63  C   UNL A   1      42.678  23.666  27.787  1.00  0.00     0.058 A 
ATOM     64  C   UNL A   1      42.767  23.472  26.402  1.00  0.00     0.135 A 
ATOM     65  C   UNL A   1      42.469  22.538  28.596  1.00  0.00     0.135 A 
ATOM     66  F   UNL A   1      42.956  24.522  25.588  1.00  0.00    -0.206 F 
ATOM     67  C   UNL A   1      42.647  22.207  25.836  1.00  0.00     0.059 A 
ATOM     68  C   UNL A   1      42.368  21.261  28.055  1.00  0.00     0.059 A 
ATOM     69  F   UNL A   1      42.389  22.672  29.928  1.00  0.00    -0.206 F 
ATOM     70  C   UNL A   1      42.450  21.106  26.672  1.00  0.00     0.060 A 
BRANCH  70  71
ATOM     71  S   UNL A   1      42.357  19.458  25.938  1.00  0.00     0.124 S 
ATOM     72  O   UNL A   1      43.236  19.603  24.783  1.00  0.00    -0.237 OA
ATOM     73  O   UNL A   1      42.854  18.609  27.016  1.00  0.00    -0.237 OA
ATOM     74  O   UNL A   1      40.937  19.307  25.638  1.00  0.00    -0.744 OA
ENDBRANCH  70  71
ENDBRANCH  38  63
BRANCH  50  75
ATOM     75  C   UNL A   1      48.074  27.209  30.417  1.00  0.00     0.058 A 
ATOM     76  C   UNL A   1      49.035  27.429  29.419  1.00  0.00     0.135 A 
ATOM     77  C   UNL A   1      48.508  26.684  31.645  1.00  0.00     0.135 A 
ATOM     78  F   UNL A   1      48.667  27.924  28.226  1.00  0.00    -0.206 F 
ATOM     79  C   UNL A   1      50.376  27.125  29.623  1.00  0.00     0.059 A 
ATOM     80  C   UNL A   1      49.847  26.390  31.878  1.00  0.00     0.059 A 
ATOM     81  F   UNL A   1      47.628  26.462  32.635  1.00  0.00    -0.206 F 
ATOM     82  C   UNL A   1      50.773  26.604  30.857  1.00  0.00     0.060 A 
BRANCH  82  83
ATOM     83  S   UNL A   1      52.522  26.241  31.126  1.00  0.00     0.124 S 
ATOM     84  O   UNL A   1      52.912  27.325  32.020  1.00  0.00    -0.237 OA
ATOM     85  O   UNL A   1      52.479  24.909  31.724  1.00  0.00    -0.237 OA
ATOM     86  O   UNL A   1      53.088  26.298  29.782  1.00  0.00    -0.744 OA
ENDBRANCH  82  83
ENDBRANCH  50  75
ENDBRANCH  24  25
ENDBRANCH  17  19
ENDBRANCH  16  17
ENDBRANCH   1  16
TORSDOF 17
ENDMDL
MODEL 3
REMARK VINA RESULT:     -10.0      3.116     11.764
REMARK SMILES CC[C@@H](Oc1ccccc1)C(=O)OCCOC(=O)c1ccc(-c2c3nc(c(-c4c(F)cc(S(=O)(=O)[O-])cc4F)c4ccc([nH]4)c(-c4c(F)cc(S(=O)(=O)[O-])cc4F)c4nc(c(-c5c(F)cc(S(=O)(=O)[O-])cc5F)c5ccc2[nH]5)C=C4)C=C3)cc1
REMARK SMILES IDX 15 1 14 2 13 3 11 4 12 5 3 6 2 7 1 8 4 9 5 10 6 11 10 12
REMARK SMILES IDX 7 13 9 14 8 15 16 16 17 17 18 18 19 19 20 20 84 21 21 22
REMARK SMILES IDX 83 23 22 24 23 25 24 26 77 27 25 28 82 29 76 30 78 31 26 32
REMARK SMILES IDX 81 33 75 34 74 35 27 37 61 38 40 39 60 40 41 41 44 42 59 43
REMARK SMILES IDX 79 44 42 45 43 46 58 48 80 49 45 50 28 51 29 52 38 53 30 54
REMARK SMILES IDX 31 55 37 56 39 57 32 58 33 59 34 60 35 61 36 62 62 63 63 64
REMARK SMILES IDX 72 65 64 66 65 67 71 68 73 69 66 70 67 71 68 72 69 73 70 74
REMARK SMILES IDX 46 75 47 76 56 77 48 78 49 79 55 80 57 81 50 82 51 83 52 84
REMARK SMILES IDX 53 85 54 86
REMARK H PARENT 78 36 44 47
REMARK Flexibility Score: inf
ROOT
ATOM      1  C   UNL A   1      39.633  20.445  26.104  1.00  0.00     0.275 C 
ENDROOT
BRANCH   1   2
ATOM      2  C   UNL A   1      40.960  19.704  26.288  1.00  0.00     0.274 C 
BRANCH   2   3
ATOM      3  O   UNL A   1      41.956  20.199  25.375  1.00  0.00    -0.459 OA
BRANCH   3   4
ATOM      4  C   UNL A   1      43.220  19.718  25.548  1.00  0.00     0.347 C 
ATOM      5  O   UNL A   1      43.507  18.529  25.623  1.00  0.00    -0.248 OA
BRANCH   4   6
ATOM      6  C   UNL A   1      44.265  20.832  25.638  1.00  0.00     0.282 C 
BRANCH   6   7
ATOM      7  C   UNL A   1      45.211  20.846  24.423  1.00  0.00     0.054 C 
ATOM      8  C   UNL A   1      46.434  19.959  24.629  1.00  0.00     0.008 C 
ENDBRANCH   6   7
BRANCH   6   9
ATOM      9  O   UNL A   1      43.558  22.079  25.748  1.00  0.00    -0.479 OA
BRANCH   9  10
ATOM     10  C   UNL A   1      43.757  22.653  26.974  1.00  0.00     0.120 A 
ATOM     11  C   UNL A   1      45.022  23.093  27.361  1.00  0.00     0.046 A 
ATOM     12  C   UNL A   1      42.670  22.763  27.838  1.00  0.00     0.046 A 
ATOM     13  C   UNL A   1      45.184  23.705  28.605  1.00  0.00     0.004 A 
ATOM     14  C   UNL A   1      42.832  23.386  29.075  1.00  0.00     0.004 A 
ATOM     15  C   UNL A   1      44.088  23.861  29.455  1.00  0.00     0.000 A 
ENDBRANCH   9  10
ENDBRANCH   6   9
ENDBRANCH   4   6
ENDBRANCH   3   4
ENDBRANCH   2   3
ENDBRANCH   1   2
BRANCH   1  16
ATOM     16  O   UNL A   1      39.645  21.696  26.815  1.00  0.00    -0.458 OA
BRANCH  16  17
ATOM     17  C   UNL A   1      38.794  22.641  26.363  1.00  0.00     0.338 C 
ATOM     18  O   UNL A   1      37.750  22.474  25.752  1.00  0.00    -0.246 OA
BRANCH  17  19
ATOM     19  C   UNL A   1      39.271  23.964  26.784  1.00  0.00     0.060 A 
ATOM     20  C   UNL A   1      39.909  24.782  25.849  1.00  0.00     0.016 A 
ATOM     21  C   UNL A   1      39.171  24.352  28.120  1.00  0.00     0.016 A 
ATOM     22  C   UNL A   1      40.468  25.993  26.252  1.00  0.00     0.010 A 
ATOM     23  C   UNL A   1      39.716  25.575  28.519  1.00  0.00     0.010 A 
ATOM     24  C   UNL A   1      40.382  26.396  27.592  1.00  0.00    -0.014 A 
BRANCH  24  25
ATOM     25  C   UNL A   1      41.022  27.658  28.034  1.00  0.00     0.031 A 
ATOM     26  C   UNL A   1      42.516  27.806  27.960  1.00  0.00     0.074 A 
ATOM     27  C   UNL A   1      40.264  28.666  28.504  1.00  0.00     0.049 A 
ATOM     28  N   UNL A   1      43.272  28.785  28.386  1.00  0.00    -0.248 NA
ATOM     29  C   UNL A   1      43.256  26.704  27.325  1.00  0.00     0.031 C 
ATOM     30  C   UNL A   1      38.804  28.650  28.600  1.00  0.00     0.029 A 
ATOM     31  N   UNL A   1      40.620  29.894  29.002  1.00  0.00    -0.354 N 
ATOM     32  C   UNL A   1      44.577  28.412  28.088  1.00  0.00     0.074 A 
ATOM     33  C   UNL A   1      44.512  27.110  27.458  1.00  0.00     0.031 C 
ATOM     34  C   UNL A   1      38.389  29.812  29.131  1.00  0.00     0.029 A 
ATOM     35  C   UNL A   1      39.552  30.635  29.450  1.00  0.00     0.049 A 
ATOM     36  H   UNL A   1      41.550  30.214  29.036  1.00  0.00     0.167 HD
ATOM     37  C   UNL A   1      45.724  29.097  28.315  1.00  0.00     0.037 A 
ATOM     38  C   UNL A   1      39.518  31.829  30.072  1.00  0.00     0.037 A 
ATOM     39  C   UNL A   1      45.783  30.396  28.933  1.00  0.00     0.049 A 
ATOM     40  C   UNL A   1      40.806  32.554  30.347  1.00  0.00     0.074 A 
ATOM     41  C   UNL A   1      46.897  31.173  29.204  1.00  0.00     0.029 A 
ATOM     42  N   UNL A   1      44.681  31.112  29.375  1.00  0.00    -0.354 N 
ATOM     43  N   UNL A   1      42.034  32.187  30.067  1.00  0.00    -0.248 NA
ATOM     44  C   UNL A   1      40.706  33.854  31.025  1.00  0.00     0.031 C 
ATOM     45  C   UNL A   1      46.470  32.347  29.836  1.00  0.00     0.029 A 
ATOM     46  C   UNL A   1      45.087  32.317  29.927  1.00  0.00     0.049 A 
ATOM     47  H   UNL A   1      43.746  30.809  29.308  1.00  0.00     0.167 HD
ATOM     48  C   UNL A   1      42.851  33.214  30.522  1.00  0.00     0.074 A 
ATOM     49  C   UNL A   1      41.979  34.225  31.084  1.00  0.00     0.031 C 
ATOM     50  C   UNL A   1      44.203  33.312  30.480  1.00  0.00     0.037 A 
BRANCH  37  51
ATOM     51  C   UNL A   1      47.013  28.439  27.909  1.00  0.00     0.058 A 
ATOM     52  C   UNL A   1      47.579  28.649  26.644  1.00  0.00     0.135 A 
ATOM     53  C   UNL A   1      47.700  27.607  28.807  1.00  0.00     0.135 A 
ATOM     54  F   UNL A   1      46.953  29.423  25.743  1.00  0.00    -0.206 F 
ATOM     55  C   UNL A   1      48.770  28.035  26.270  1.00  0.00     0.059 A 
ATOM     56  C   UNL A   1      48.903  26.999  28.462  1.00  0.00     0.059 A 
ATOM     57  F   UNL A   1      47.200  27.373  30.030  1.00  0.00    -0.206 F 
ATOM     58  C   UNL A   1      49.423  27.207  27.184  1.00  0.00     0.060 A 
BRANCH  58  59
ATOM     59  S   UNL A   1      50.964  26.409  26.687  1.00  0.00     0.124 S 
ATOM     60  O   UNL A   1      50.852  26.443  25.232  1.00  0.00    -0.237 OA
ATOM     61  O   UNL A   1      51.975  27.289  27.264  1.00  0.00    -0.237 OA
ATOM     62  O   UNL A   1      50.872  25.084  27.292  1.00  0.00    -0.744 OA
ENDBRANCH  58  59
ENDBRANCH  37  51
BRANCH  38  63
ATOM     63  C   UNL A   1      38.215  32.402  30.495  1.00  0.00     0.058 A 
ATOM     64  C   UNL A   1      37.708  32.176  31.781  1.00  0.00     0.135 A 
ATOM     65  C   UNL A   1      37.462  33.206  29.624  1.00  0.00     0.135 A 
ATOM     66  F   UNL A   1      38.388  31.405  32.645  1.00  0.00    -0.206 F 
ATOM     67  C   UNL A   1      36.495  32.721  32.191  1.00  0.00     0.059 A 
ATOM     68  C   UNL A   1      36.258  33.780  30.018  1.00  0.00     0.059 A 
ATOM     69  F   UNL A   1      37.913  33.461  28.387  1.00  0.00    -0.206 F 
ATOM     70  C   UNL A   1      35.778  33.524  31.302  1.00  0.00     0.060 A 
BRANCH  70  71
ATOM     71  S   UNL A   1      34.234  34.279  31.859  1.00  0.00     0.124 S 
ATOM     72  O   UNL A   1      33.672  33.218  32.686  1.00  0.00    -0.237 OA
ATOM     73  O   UNL A   1      34.707  35.461  32.574  1.00  0.00    -0.237 OA
ATOM     74  O   UNL A   1      33.529  34.553  30.612  1.00  0.00    -0.744 OA
ENDBRANCH  70  71
ENDBRANCH  38  63
BRANCH  50  75
ATOM     75  C   UNL A   1      44.820  34.563  31.036  1.00  0.00     0.058 A 
ATOM     76  C   UNL A   1      45.008  35.704  30.242  1.00  0.00     0.135 A 
ATOM     77  C   UNL A   1      45.184  34.634  32.390  1.00  0.00     0.135 A 
ATOM     78  F   UNL A   1      44.680  35.683  28.940  1.00  0.00    -0.206 F 
ATOM     79  C   UNL A   1      45.553  36.871  30.768  1.00  0.00     0.059 A 
ATOM     80  C   UNL A   1      45.713  35.797  32.941  1.00  0.00     0.059 A 
ATOM     81  F   UNL A   1      45.017  33.571  33.193  1.00  0.00    -0.206 F 
ATOM     82  C   UNL A   1      45.904  36.907  32.119  1.00  0.00     0.060 A 
BRANCH  82  83
ATOM     83  S   UNL A   1      46.582  38.436  32.801  1.00  0.00     0.124 S 
ATOM     84  O   UNL A   1      47.517  37.925  33.796  1.00  0.00    -0.237 OA
ATOM     85  O   UNL A   1      47.185  39.065  31.629  1.00  0.00    -0.237 OA
ATOM     86  O   UNL A   1      45.406  39.118  33.333  1.00  0.00    -0.744 OA
ENDBRANCH  82  83
ENDBRANCH  50  75
ENDBRANCH  24  25
ENDBRANCH  17  19
ENDBRANCH  16  17
ENDBRANCH   1  16
TORSDOF 17
ENDMDL
