MODEL 1
REMARK VINA RESULT:     -12.6      0.000      0.000
REMARK SMILES Cc1ccc(Nc2c(F)cccc2I)c(CC(=O)OCCOC(=O)c2ccc(-c3c4nc(c(-c5c(F)cc(S(=O)(=O)[O-])cc5F)c5ccc([nH]5)c(-c5c(F)cc(S(=O)(=O)[O-])cc5F)c5nc(c(-c6c(F)cc(S(=O)(=O)[O-])cc6F)c6ccc3[nH]6)C=C5)C=C4)cc2)c1
REMARK SMILES IDX 20 1 19 2 17 3 18 4 16 5 15 6 1 7 2 8 3 9 91 10 4 11 5 12
REMARK SMILES IDX 6 13 7 15 8 16 13 17 9 18 10 19 12 20 14 21 11 22 21 23
REMARK SMILES IDX 22 24 23 25 24 26 25 27 26 28 90 29 27 30 89 31 28 32 29 33
REMARK SMILES IDX 30 34 83 35 31 36 88 37 82 38 84 39 32 40 87 41 81 42 80 43
REMARK SMILES IDX 33 45 67 46 46 47 66 48 47 49 50 50 65 51 85 52 48 53 49 54
REMARK SMILES IDX 64 56 86 57 51 58 34 59 35 60 44 61 36 62 37 63 43 64 45 65
REMARK SMILES IDX 38 66 39 67 40 68 41 69 42 70 68 71 69 72 78 73 70 74 71 75
REMARK SMILES IDX 77 76 79 77 72 78 73 79 74 80 75 81 76 82 52 83 53 84 62 85
REMARK SMILES IDX 54 86 55 87 61 88 63 89 56 90 57 91 58 92 59 93 60 94
REMARK H PARENT 6 14 84 44 50 55
REMARK Flexibility Score: inf
ROOT
ATOM      1  C   UNL A   1      33.875  28.706  26.162  1.00  0.00     0.274 C 
ENDROOT
BRANCH   1   2
ATOM      2  O   UNL A   1      32.583  28.873  25.578  1.00  0.00    -0.462 OA
BRANCH   2   3
ATOM      3  C   UNL A   1      32.369  28.190  24.424  1.00  0.00     0.310 C 
ATOM      4  O   UNL A   1      31.279  27.971  23.946  1.00  0.00    -0.252 OA
BRANCH   3   5
ATOM      5  C   UNL A   1      33.717  27.761  23.873  1.00  0.00     0.160 C 
BRANCH   5   6
ATOM      6  C   UNL A   1      33.615  26.441  23.154  1.00  0.00    -0.013 A 
ATOM      7  C   UNL A   1      32.352  25.431  19.730  1.00  0.00     0.044 C 
ATOM      8  C   UNL A   1      32.908  25.328  21.116  1.00  0.00    -0.051 A 
ATOM      9  C   UNL A   1      33.002  24.104  21.780  1.00  0.00     0.005 A 
ATOM     10  C   UNL A   1      33.225  26.492  21.808  1.00  0.00     0.009 A 
ATOM     11  C   UNL A   1      33.441  24.041  23.110  1.00  0.00     0.026 A 
ATOM     12  C   UNL A   1      33.775  25.198  23.817  1.00  0.00     0.042 A 
BRANCH  12  13
ATOM     13  N   UNL A   1      34.083  25.145  25.188  1.00  0.00    -0.352 N 
ATOM     14  H   UNL A   1      34.386  26.004  25.563  1.00  0.00     0.167 HD
BRANCH  13  15
ATOM     15  C   UNL A   1      34.043  24.087  26.136  1.00  0.00     0.088 A 
ATOM     16  C   UNL A   1      32.850  23.796  26.816  1.00  0.00     0.147 A 
ATOM     17  C   UNL A   1      35.046  23.097  26.152  1.00  0.00     0.040 A 
ATOM     18  F   UNL A   1      31.854  24.696  26.848  1.00  0.00    -0.205 F 
ATOM     19  C   UNL A   1      32.643  22.568  27.449  1.00  0.00     0.041 A 
ATOM     20  C   UNL A   1      34.823  21.841  26.736  1.00  0.00     0.017 A 
ATOM     21  I   UNL A   1      36.993  23.492  25.461  1.00  0.00    -0.042 I 
ATOM     22  C   UNL A   1      33.615  21.575  27.376  1.00  0.00     0.004 A 
ENDBRANCH  13  15
ENDBRANCH  12  13
ENDBRANCH   5   6
ENDBRANCH   3   5
ENDBRANCH   2   3
ENDBRANCH   1   2
BRANCH   1  23
ATOM     23  C   UNL A   1      34.158  29.808  27.207  1.00  0.00     0.275 C 
BRANCH  23  24
ATOM     24  O   UNL A   1      35.161  29.506  28.230  1.00  0.00    -0.458 OA
BRANCH  24  25
ATOM     25  C   UNL A   1      36.084  30.280  28.897  1.00  0.00     0.338 C 
ATOM     26  O   UNL A   1      35.705  31.221  29.563  1.00  0.00    -0.246 OA
BRANCH  25  27
ATOM     27  C   UNL A   1      37.438  29.720  29.147  1.00  0.00     0.060 A 
ATOM     28  C   UNL A   1      37.673  28.833  30.216  1.00  0.00     0.016 A 
ATOM     29  C   UNL A   1      38.389  29.844  28.171  1.00  0.00     0.016 A 
ATOM     30  C   UNL A   1      38.791  27.985  30.179  1.00  0.00     0.010 A 
ATOM     31  C   UNL A   1      39.215  28.782  27.946  1.00  0.00     0.010 A 
ATOM     32  C   UNL A   1      39.537  27.931  28.998  1.00  0.00    -0.014 A 
BRANCH  32  33
ATOM     33  C   UNL A   1      40.833  27.289  28.793  1.00  0.00     0.031 A 
ATOM     34  C   UNL A   1      40.995  25.896  28.357  1.00  0.00     0.074 A 
ATOM     35  C   UNL A   1      41.920  28.075  29.010  1.00  0.00     0.049 A 
ATOM     36  N   UNL A   1      41.738  25.034  28.965  1.00  0.00    -0.248 NA
ATOM     37  C   UNL A   1      40.387  25.388  27.126  1.00  0.00     0.031 C 
ATOM     38  C   UNL A   1      43.325  27.752  28.879  1.00  0.00     0.029 A 
ATOM     39  N   UNL A   1      41.946  29.375  29.542  1.00  0.00    -0.354 N 
ATOM     40  C   UNL A   1      41.970  24.020  28.059  1.00  0.00     0.074 A 
ATOM     41  C   UNL A   1      41.000  24.203  27.000  1.00  0.00     0.031 C 
ATOM     42  C   UNL A   1      44.023  28.629  29.630  1.00  0.00     0.029 A 
ATOM     43  C   UNL A   1      43.076  29.495  30.330  1.00  0.00     0.049 A 
ATOM     44  H   UNL A   1      41.277  30.079  29.381  1.00  0.00     0.167 HD
ATOM     45  C   UNL A   1      43.115  23.277  28.113  1.00  0.00     0.037 A 
ATOM     46  C   UNL A   1      42.944  29.698  31.675  1.00  0.00     0.037 A 
ATOM     47  C   UNL A   1      44.062  23.856  29.066  1.00  0.00     0.049 A 
ATOM     48  C   UNL A   1      43.397  28.483  32.444  1.00  0.00     0.074 A 
ATOM     49  C   UNL A   1      45.143  24.701  28.862  1.00  0.00     0.029 A 
ATOM     50  N   UNL A   1      43.764  23.932  30.425  1.00  0.00    -0.354 N 
ATOM     51  N   UNL A   1      43.626  27.330  31.880  1.00  0.00    -0.248 NA
ATOM     52  C   UNL A   1      43.634  28.450  33.883  1.00  0.00     0.031 C 
ATOM     53  C   UNL A   1      45.438  25.351  30.081  1.00  0.00     0.029 A 
ATOM     54  C   UNL A   1      44.556  24.890  31.039  1.00  0.00     0.049 A 
ATOM     55  H   UNL A   1      43.088  23.383  30.883  1.00  0.00     0.167 HD
ATOM     56  C   UNL A   1      44.074  26.436  32.808  1.00  0.00     0.074 A 
ATOM     57  C   UNL A   1      44.061  27.184  34.053  1.00  0.00     0.031 C 
ATOM     58  C   UNL A   1      44.443  25.168  32.463  1.00  0.00     0.037 A 
BRANCH  45  59
ATOM     59  C   UNL A   1      43.481  22.291  27.025  1.00  0.00     0.058 A 
ATOM     60  C   UNL A   1      42.842  21.043  26.884  1.00  0.00     0.135 A 
ATOM     61  C   UNL A   1      44.491  22.555  26.075  1.00  0.00     0.135 A 
ATOM     62  F   UNL A   1      41.836  20.671  27.685  1.00  0.00    -0.206 F 
ATOM     63  C   UNL A   1      43.220  20.098  25.928  1.00  0.00     0.059 A 
ATOM     64  C   UNL A   1      44.902  21.616  25.118  1.00  0.00     0.059 A 
ATOM     65  F   UNL A   1      45.120  23.743  26.064  1.00  0.00    -0.206 F 
ATOM     66  C   UNL A   1      44.262  20.384  25.058  1.00  0.00     0.060 A 
BRANCH  66  67
ATOM     67  S   UNL A   1      44.773  19.109  23.886  1.00  0.00     0.124 S 
ATOM     68  O   UNL A   1      46.198  18.976  24.174  1.00  0.00    -0.237 OA
ATOM     69  O   UNL A   1      43.939  17.979  24.283  1.00  0.00    -0.237 OA
ATOM     70  O   UNL A   1      44.458  19.697  22.587  1.00  0.00    -0.744 OA
ENDBRANCH  66  67
ENDBRANCH  45  59
BRANCH  46  71
ATOM     71  C   UNL A   1      41.851  30.649  32.066  1.00  0.00     0.058 A 
ATOM     72  C   UNL A   1      42.013  31.999  31.694  1.00  0.00     0.135 A 
ATOM     73  C   UNL A   1      40.552  30.241  32.416  1.00  0.00     0.135 A 
ATOM     74  F   UNL A   1      43.231  32.460  31.369  1.00  0.00    -0.206 F 
ATOM     75  C   UNL A   1      40.932  32.861  31.528  1.00  0.00     0.059 A 
ATOM     76  C   UNL A   1      39.448  31.094  32.262  1.00  0.00     0.059 A 
ATOM     77  F   UNL A   1      40.317  28.971  32.774  1.00  0.00    -0.206 F 
ATOM     78  C   UNL A   1      39.646  32.381  31.755  1.00  0.00     0.060 A 
BRANCH  78  79
ATOM     79  S   UNL A   1      38.261  33.385  31.155  1.00  0.00     0.124 S 
ATOM     80  O   UNL A   1      38.645  34.727  31.575  1.00  0.00    -0.237 OA
ATOM     81  O   UNL A   1      38.315  33.121  29.718  1.00  0.00    -0.237 OA
ATOM     82  O   UNL A   1      37.112  32.806  31.834  1.00  0.00    -0.744 OA
ENDBRANCH  78  79
ENDBRANCH  46  71
BRANCH  58  83
ATOM     83  C   UNL A   1      44.882  24.103  33.422  1.00  0.00     0.058 A 
ATOM     84  C   UNL A   1      44.084  23.012  33.791  1.00  0.00     0.135 A 
ATOM     85  C   UNL A   1      46.214  24.098  33.900  1.00  0.00     0.135 A 
ATOM     86  F   UNL A   1      42.836  22.874  33.320  1.00  0.00    -0.206 F 
ATOM     87  C   UNL A   1      44.560  22.003  34.627  1.00  0.00     0.059 A 
ATOM     88  C   UNL A   1      46.724  23.076  34.686  1.00  0.00     0.059 A 
ATOM     89  F   UNL A   1      47.069  25.091  33.612  1.00  0.00    -0.206 F 
ATOM     90  C   UNL A   1      45.881  22.043  35.066  1.00  0.00     0.060 A 
BRANCH  90  91
ATOM     91  S   UNL A   1      46.537  20.723  36.099  1.00  0.00     0.124 S 
ATOM     92  O   UNL A   1      46.523  21.352  37.416  1.00  0.00    -0.237 OA
ATOM     93  O   UNL A   1      45.572  19.645  35.905  1.00  0.00    -0.237 OA
ATOM     94  O   UNL A   1      47.857  20.485  35.523  1.00  0.00    -0.744 OA
ENDBRANCH  90  91
ENDBRANCH  58  83
ENDBRANCH  32  33
ENDBRANCH  25  27
ENDBRANCH  24  25
ENDBRANCH  23  24
ENDBRANCH   1  23
TORSDOF 17
ENDMDL
MODEL 2
REMARK VINA RESULT:     -12.3      1.466      2.151
REMARK SMILES Cc1ccc(Nc2c(F)cccc2I)c(CC(=O)OCCOC(=O)c2ccc(-c3c4nc(c(-c5c(F)cc(S(=O)(=O)[O-])cc5F)c5ccc([nH]5)c(-c5c(F)cc(S(=O)(=O)[O-])cc5F)c5nc(c(-c6c(F)cc(S(=O)(=O)[O-])cc6F)c6ccc3[nH]6)C=C5)C=C4)cc2)c1
REMARK SMILES IDX 20 1 19 2 17 3 18 4 16 5 15 6 1 7 2 8 3 9 91 10 4 11 5 12
REMARK SMILES IDX 6 13 7 15 8 16 13 17 9 18 10 19 12 20 14 21 11 22 21 23
REMARK SMILES IDX 22 24 23 25 24 26 25 27 26 28 90 29 27 30 89 31 28 32 29 33
REMARK SMILES IDX 30 34 83 35 31 36 88 37 82 38 84 39 32 40 87 41 81 42 80 43
REMARK SMILES IDX 33 45 67 46 46 47 66 48 47 49 50 50 65 51 85 52 48 53 49 54
REMARK SMILES IDX 64 56 86 57 51 58 34 59 35 60 44 61 36 62 37 63 43 64 45 65
REMARK SMILES IDX 38 66 39 67 40 68 41 69 42 70 68 71 69 72 78 73 70 74 71 75
REMARK SMILES IDX 77 76 79 77 72 78 73 79 74 80 75 81 76 82 52 83 53 84 62 85
REMARK SMILES IDX 54 86 55 87 61 88 63 89 56 90 57 91 58 92 59 93 60 94
REMARK H PARENT 6 14 84 44 50 55
REMARK Flexibility Score: inf
ROOT
ATOM      1  C   UNL A   1      33.261  30.384  27.390  1.00  0.00     0.274 C 
ENDROOT
BRANCH   1   2
ATOM      2  O   UNL A   1      33.284  28.993  27.706  1.00  0.00    -0.462 OA
BRANCH   2   3
ATOM      3  C   UNL A   1      32.500  28.202  26.928  1.00  0.00     0.310 C 
ATOM      4  O   UNL A   1      31.619  27.483  27.344  1.00  0.00    -0.252 OA
BRANCH   3   5
ATOM      5  C   UNL A   1      32.933  28.383  25.485  1.00  0.00     0.160 C 
BRANCH   5   6
ATOM      6  C   UNL A   1      31.769  28.214  24.543  1.00  0.00    -0.013 A 
ATOM      7  C   UNL A   1      28.991  30.518  23.397  1.00  0.00     0.044 C 
ATOM      8  C   UNL A   1      29.826  29.287  23.560  1.00  0.00    -0.051 A 
ATOM      9  C   UNL A   1      29.374  28.033  23.145  1.00  0.00     0.005 A 
ATOM     10  C   UNL A   1      31.029  29.370  24.251  1.00  0.00     0.009 A 
ATOM     11  C   UNL A   1      30.132  26.880  23.387  1.00  0.00     0.026 A 
ATOM     12  C   UNL A   1      31.349  26.946  24.069  1.00  0.00     0.042 A 
BRANCH  12  13
ATOM     13  N   UNL A   1      32.040  25.775  24.430  1.00  0.00    -0.352 N 
ATOM     14  H   UNL A   1      32.634  25.886  25.208  1.00  0.00     0.167 HD
BRANCH  13  15
ATOM     15  C   UNL A   1      32.046  24.462  23.885  1.00  0.00     0.088 A 
ATOM     16  C   UNL A   1      32.645  24.220  22.639  1.00  0.00     0.147 A 
ATOM     17  C   UNL A   1      31.800  23.343  24.705  1.00  0.00     0.040 A 
ATOM     18  F   UNL A   1      32.902  25.240  21.804  1.00  0.00    -0.205 F 
ATOM     19  C   UNL A   1      33.017  22.935  22.237  1.00  0.00     0.041 A 
ATOM     20  C   UNL A   1      32.223  22.059  24.333  1.00  0.00     0.017 A 
ATOM     21  I   UNL A   1      30.633  23.491  26.448  1.00  0.00    -0.042 I 
ATOM     22  C   UNL A   1      32.842  21.858  23.101  1.00  0.00     0.004 A 
ENDBRANCH  13  15
ENDBRANCH  12  13
ENDBRANCH   5   6
ENDBRANCH   3   5
ENDBRANCH   2   3
ENDBRANCH   1   2
BRANCH   1  23
ATOM     23  C   UNL A   1      34.687  30.976  27.385  1.00  0.00     0.275 C 
BRANCH  23  24
ATOM     24  O   UNL A   1      35.715  30.229  28.114  1.00  0.00    -0.458 OA
BRANCH  24  25
ATOM     25  C   UNL A   1      36.349  30.435  29.318  1.00  0.00     0.338 C 
ATOM     26  O   UNL A   1      35.711  30.839  30.268  1.00  0.00    -0.246 OA
BRANCH  25  27
ATOM     27  C   UNL A   1      37.657  29.771  29.558  1.00  0.00     0.060 A 
ATOM     28  C   UNL A   1      37.772  28.695  30.460  1.00  0.00     0.016 A 
ATOM     29  C   UNL A   1      38.688  30.022  28.695  1.00  0.00     0.016 A 
ATOM     30  C   UNL A   1      38.858  27.811  30.349  1.00  0.00     0.010 A 
ATOM     31  C   UNL A   1      39.490  28.978  28.339  1.00  0.00     0.010 A 
ATOM     32  C   UNL A   1      39.695  27.936  29.236  1.00  0.00    -0.014 A 
BRANCH  32  33
ATOM     33  C   UNL A   1      40.979  27.276  29.012  1.00  0.00     0.031 A 
ATOM     34  C   UNL A   1      41.116  25.893  28.539  1.00  0.00     0.074 A 
ATOM     35  C   UNL A   1      42.080  28.038  29.247  1.00  0.00     0.049 A 
ATOM     36  N   UNL A   1      41.845  25.003  29.122  1.00  0.00    -0.248 NA
ATOM     37  C   UNL A   1      40.498  25.429  27.297  1.00  0.00     0.031 C 
ATOM     38  C   UNL A   1      43.479  27.694  29.105  1.00  0.00     0.029 A 
ATOM     39  N   UNL A   1      42.130  29.323  29.814  1.00  0.00    -0.354 N 
ATOM     40  C   UNL A   1      42.058  24.009  28.190  1.00  0.00     0.074 A 
ATOM     41  C   UNL A   1      41.089  24.237  27.138  1.00  0.00     0.031 C 
ATOM     42  C   UNL A   1      44.193  28.539  29.878  1.00  0.00     0.029 A 
ATOM     43  C   UNL A   1      43.263  29.402  30.602  1.00  0.00     0.049 A 
ATOM     44  H   UNL A   1      41.473  30.042  29.673  1.00  0.00     0.167 HD
ATOM     45  C   UNL A   1      43.190  23.246  28.222  1.00  0.00     0.037 A 
ATOM     46  C   UNL A   1      43.136  29.572  31.952  1.00  0.00     0.037 A 
ATOM     47  C   UNL A   1      44.149  23.783  29.187  1.00  0.00     0.049 A 
ATOM     48  C   UNL A   1      43.569  28.329  32.688  1.00  0.00     0.074 A 
ATOM     49  C   UNL A   1      45.243  24.614  29.003  1.00  0.00     0.029 A 
ATOM     50  N   UNL A   1      43.854  23.827  30.548  1.00  0.00    -0.354 N 
ATOM     51  N   UNL A   1      43.777  27.187  32.093  1.00  0.00    -0.248 NA
ATOM     52  C   UNL A   1      43.808  28.253  34.125  1.00  0.00     0.031 C 
ATOM     53  C   UNL A   1      45.552  25.226  30.238  1.00  0.00     0.029 A 
ATOM     54  C   UNL A   1      44.663  24.755  31.186  1.00  0.00     0.049 A 
ATOM     55  H   UNL A   1      43.169  23.278  30.993  1.00  0.00     0.167 HD
ATOM     56  C   UNL A   1      44.211  26.262  32.997  1.00  0.00     0.074 A 
ATOM     57  C   UNL A   1      44.213  26.976  34.261  1.00  0.00     0.031 C 
ATOM     58  C   UNL A   1      44.558  24.997  32.618  1.00  0.00     0.037 A 
BRANCH  45  59
ATOM     59  C   UNL A   1      43.537  22.282  27.107  1.00  0.00     0.058 A 
ATOM     60  C   UNL A   1      42.872  21.052  26.930  1.00  0.00     0.135 A 
ATOM     61  C   UNL A   1      44.555  22.551  26.167  1.00  0.00     0.135 A 
ATOM     62  F   UNL A   1      41.856  20.681  27.718  1.00  0.00    -0.206 F 
ATOM     63  C   UNL A   1      43.231  20.127  25.949  1.00  0.00     0.059 A 
ATOM     64  C   UNL A   1      44.948  21.630  25.185  1.00  0.00     0.059 A 
ATOM     65  F   UNL A   1      45.209  23.724  26.190  1.00  0.00    -0.206 F 
ATOM     66  C   UNL A   1      44.281  20.414  25.089  1.00  0.00     0.060 A 
BRANCH  66  67
ATOM     67  S   UNL A   1      44.767  19.161  23.882  1.00  0.00     0.124 S 
ATOM     68  O   UNL A   1      46.203  19.044  24.119  1.00  0.00    -0.237 OA
ATOM     69  O   UNL A   1      43.963  18.015  24.294  1.00  0.00    -0.237 OA
ATOM     70  O   UNL A   1      44.398  19.761  22.604  1.00  0.00    -0.744 OA
ENDBRANCH  66  67
ENDBRANCH  45  59
BRANCH  46  71
ATOM     71  C   UNL A   1      42.061  30.531  32.371  1.00  0.00     0.058 A 
ATOM     72  C   UNL A   1      42.262  31.893  32.066  1.00  0.00     0.135 A 
ATOM     73  C   UNL A   1      40.746  30.140  32.680  1.00  0.00     0.135 A 
ATOM     74  F   UNL A   1      43.497  32.337  31.782  1.00  0.00    -0.206 F 
ATOM     75  C   UNL A   1      41.206  32.789  31.923  1.00  0.00     0.059 A 
ATOM     76  C   UNL A   1      39.666  31.027  32.549  1.00  0.00     0.059 A 
ATOM     77  F   UNL A   1      40.474  28.861  32.973  1.00  0.00    -0.206 F 
ATOM     78  C   UNL A   1      39.905  32.331  32.107  1.00  0.00     0.060 A 
BRANCH  78  79
ATOM     79  S   UNL A   1      38.556  33.398  31.533  1.00  0.00     0.124 S 
ATOM     80  O   UNL A   1      37.398  32.826  32.209  1.00  0.00    -0.237 OA
ATOM     81  O   UNL A   1      39.000  34.707  32.011  1.00  0.00    -0.237 OA
ATOM     82  O   UNL A   1      38.597  33.236  30.087  1.00  0.00    -0.744 OA
ENDBRANCH  78  79
ENDBRANCH  46  71
BRANCH  58  83
ATOM     83  C   UNL A   1      44.979  23.900  33.547  1.00  0.00     0.058 A 
ATOM     84  C   UNL A   1      44.147  22.838  33.925  1.00  0.00     0.135 A 
ATOM     85  C   UNL A   1      46.324  23.830  33.983  1.00  0.00     0.135 A 
ATOM     86  F   UNL A   1      42.880  22.761  33.491  1.00  0.00    -0.206 F 
ATOM     87  C   UNL A   1      44.604  21.797  34.732  1.00  0.00     0.059 A 
ATOM     88  C   UNL A   1      46.813  22.775  34.738  1.00  0.00     0.059 A 
ATOM     89  F   UNL A   1      47.211  24.791  33.682  1.00  0.00    -0.206 F 
ATOM     90  C   UNL A   1      45.939  21.774  35.130  1.00  0.00     0.060 A 
BRANCH  90  91
ATOM     91  S   UNL A   1      46.569  20.411  36.122  1.00  0.00     0.124 S 
ATOM     92  O   UNL A   1      45.874  19.275  35.527  1.00  0.00    -0.237 OA
ATOM     93  O   UNL A   1      48.007  20.467  35.882  1.00  0.00    -0.237 OA
ATOM     94  O   UNL A   1      46.152  20.773  37.473  1.00  0.00    -0.744 OA
ENDBRANCH  90  91
ENDBRANCH  58  83
ENDBRANCH  32  33
ENDBRANCH  25  27
ENDBRANCH  24  25
ENDBRANCH  23  24
ENDBRANCH   1  23
TORSDOF 17
ENDMDL
MODEL 3
REMARK VINA RESULT:     -11.8      1.673      2.341
REMARK SMILES Cc1ccc(Nc2c(F)cccc2I)c(CC(=O)OCCOC(=O)c2ccc(-c3c4nc(c(-c5c(F)cc(S(=O)(=O)[O-])cc5F)c5ccc([nH]5)c(-c5c(F)cc(S(=O)(=O)[O-])cc5F)c5nc(c(-c6c(F)cc(S(=O)(=O)[O-])cc6F)c6ccc3[nH]6)C=C5)C=C4)cc2)c1
REMARK SMILES IDX 20 1 19 2 17 3 18 4 16 5 15 6 1 7 2 8 3 9 91 10 4 11 5 12
REMARK SMILES IDX 6 13 7 15 8 16 13 17 9 18 10 19 12 20 14 21 11 22 21 23
REMARK SMILES IDX 22 24 23 25 24 26 25 27 26 28 90 29 27 30 89 31 28 32 29 33
REMARK SMILES IDX 30 34 83 35 31 36 88 37 82 38 84 39 32 40 87 41 81 42 80 43
REMARK SMILES IDX 33 45 67 46 46 47 66 48 47 49 50 50 65 51 85 52 48 53 49 54
REMARK SMILES IDX 64 56 86 57 51 58 34 59 35 60 44 61 36 62 37 63 43 64 45 65
REMARK SMILES IDX 38 66 39 67 40 68 41 69 42 70 68 71 69 72 78 73 70 74 71 75
REMARK SMILES IDX 77 76 79 77 72 78 73 79 74 80 75 81 76 82 52 83 53 84 62 85
REMARK SMILES IDX 54 86 55 87 61 88 63 89 56 90 57 91 58 92 59 93 60 94
REMARK H PARENT 6 14 84 44 50 55
REMARK Flexibility Score: inf
ROOT
ATOM      1  C   UNL A   1      33.067  31.091  27.345  1.00  0.00     0.274 C 
ENDROOT
BRANCH   1   2
ATOM      2  O   UNL A   1      33.106  30.266  26.181  1.00  0.00    -0.462 OA
BRANCH   2   3
ATOM      3  C   UNL A   1      32.307  29.167  26.215  1.00  0.00     0.310 C 
ATOM      4  O   UNL A   1      31.573  28.878  27.133  1.00  0.00    -0.252 OA
BRANCH   3   5
ATOM      5  C   UNL A   1      32.514  28.395  24.925  1.00  0.00     0.160 C 
BRANCH   5   6
ATOM      6  C   UNL A   1      31.209  27.851  24.402  1.00  0.00    -0.013 A 
ATOM      7  C   UNL A   1      28.436  29.323  22.286  1.00  0.00     0.044 C 
ATOM      8  C   UNL A   1      29.208  28.352  23.124  1.00  0.00    -0.051 A 
ATOM      9  C   UNL A   1      28.619  27.195  23.637  1.00  0.00     0.005 A 
ATOM     10  C   UNL A   1      30.507  28.669  23.505  1.00  0.00     0.009 A 
ATOM     11  C   UNL A   1      29.333  26.346  24.493  1.00  0.00     0.026 A 
ATOM     12  C   UNL A   1      30.642  26.641  24.878  1.00  0.00     0.042 A 
BRANCH  12  13
ATOM     13  N   UNL A   1      31.307  25.862  25.842  1.00  0.00    -0.352 N 
ATOM     14  H   UNL A   1      31.678  26.383  26.591  1.00  0.00     0.167 HD
BRANCH  13  15
ATOM     15  C   UNL A   1      31.548  24.465  25.940  1.00  0.00     0.088 A 
ATOM     16  C   UNL A   1      30.523  23.601  26.359  1.00  0.00     0.147 A 
ATOM     17  C   UNL A   1      32.653  23.879  25.293  1.00  0.00     0.040 A 
ATOM     18  F   UNL A   1      29.443  24.091  26.989  1.00  0.00    -0.205 F 
ATOM     19  C   UNL A   1      30.572  22.227  26.114  1.00  0.00     0.041 A 
ATOM     20  C   UNL A   1      32.682  22.509  24.992  1.00  0.00     0.017 A 
ATOM     21  I   UNL A   1      34.402  24.976  24.890  1.00  0.00    -0.042 I 
ATOM     22  C   UNL A   1      31.633  21.685  25.395  1.00  0.00     0.004 A 
ENDBRANCH  13  15
ENDBRANCH  12  13
ENDBRANCH   5   6
ENDBRANCH   3   5
ENDBRANCH   2   3
ENDBRANCH   1   2
BRANCH   1  23
ATOM     23  C   UNL A   1      34.491  31.370  27.874  1.00  0.00     0.275 C 
BRANCH  23  24
ATOM     24  O   UNL A   1      35.086  30.351  28.741  1.00  0.00    -0.458 OA
BRANCH  24  25
ATOM     25  C   UNL A   1      36.269  30.288  29.443  1.00  0.00     0.338 C 
ATOM     26  O   UNL A   1      36.282  30.587  30.620  1.00  0.00    -0.246 OA
BRANCH  25  27
ATOM     27  C   UNL A   1      37.381  29.469  28.895  1.00  0.00     0.060 A 
ATOM     28  C   UNL A   1      37.993  29.801  27.670  1.00  0.00     0.016 A 
ATOM     29  C   UNL A   1      37.994  28.562  29.716  1.00  0.00     0.016 A 
ATOM     30  C   UNL A   1      39.284  29.323  27.390  1.00  0.00     0.010 A 
ATOM     31  C   UNL A   1      39.349  28.438  29.629  1.00  0.00     0.010 A 
ATOM     32  C   UNL A   1      39.982  28.677  28.414  1.00  0.00    -0.014 A 
BRANCH  32  33
ATOM     33  C   UNL A   1      41.234  27.931  28.303  1.00  0.00     0.031 A 
ATOM     34  C   UNL A   1      41.307  26.495  28.007  1.00  0.00     0.074 A 
ATOM     35  C   UNL A   1      42.369  28.660  28.472  1.00  0.00     0.049 A 
ATOM     36  N   UNL A   1      41.978  25.649  28.712  1.00  0.00    -0.248 NA
ATOM     37  C   UNL A   1      40.688  25.913  26.815  1.00  0.00     0.031 C 
ATOM     38  C   UNL A   1      43.750  28.232  28.407  1.00  0.00     0.029 A 
ATOM     39  N   UNL A   1      42.475  30.001  28.878  1.00  0.00    -0.354 N 
ATOM     40  C   UNL A   1      42.155  24.538  27.914  1.00  0.00     0.074 A 
ATOM     41  C   UNL A   1      41.219  24.682  26.818  1.00  0.00     0.031 C 
ATOM     42  C   UNL A   1      44.493  29.130  29.088  1.00  0.00     0.029 A 
ATOM     43  C   UNL A   1      43.596  30.121  29.678  1.00  0.00     0.049 A 
ATOM     44  H   UNL A   1      41.860  30.730  28.634  1.00  0.00     0.167 HD
ATOM     45  C   UNL A   1      43.244  23.729  28.067  1.00  0.00     0.037 A 
ATOM     46  C   UNL A   1      43.454  30.461  30.994  1.00  0.00     0.037 A 
ATOM     47  C   UNL A   1      44.212  24.332  28.983  1.00  0.00     0.049 A 
ATOM     48  C   UNL A   1      43.807  29.299  31.887  1.00  0.00     0.074 A 
ATOM     49  C   UNL A   1      45.352  25.079  28.726  1.00  0.00     0.029 A 
ATOM     50  N   UNL A   1      43.895  24.559  30.321  1.00  0.00    -0.354 N 
ATOM     51  N   UNL A   1      43.966  28.084  31.441  1.00  0.00    -0.248 NA
ATOM     52  C   UNL A   1      44.015  29.389  33.328  1.00  0.00     0.031 C 
ATOM     53  C   UNL A   1      45.670  25.823  29.884  1.00  0.00     0.029 A 
ATOM     54  C   UNL A   1      44.740  25.517  30.860  1.00  0.00     0.049 A 
ATOM     55  H   UNL A   1      43.174  24.104  30.812  1.00  0.00     0.167 HD
ATOM     56  C   UNL A   1      44.334  27.256  32.461  1.00  0.00     0.074 A 
ATOM     57  C   UNL A   1      44.350  28.120  33.629  1.00  0.00     0.031 C 
ATOM     58  C   UNL A   1      44.621  25.938  32.248  1.00  0.00     0.037 A 
BRANCH  45  59
ATOM     59  C   UNL A   1      43.561  22.619  27.087  1.00  0.00     0.058 A 
ATOM     60  C   UNL A   1      42.815  21.426  27.023  1.00  0.00     0.135 A 
ATOM     61  C   UNL A   1      44.630  22.705  26.169  1.00  0.00     0.135 A 
ATOM     62  F   UNL A   1      41.746  21.220  27.802  1.00  0.00    -0.206 F 
ATOM     63  C   UNL A   1      43.141  20.368  26.172  1.00  0.00     0.059 A 
ATOM     64  C   UNL A   1      44.990  21.651  25.318  1.00  0.00     0.059 A 
ATOM     65  F   UNL A   1      45.366  23.826  26.087  1.00  0.00    -0.206 F 
ATOM     66  C   UNL A   1      44.241  20.480  25.333  1.00  0.00     0.060 A 
BRANCH  66  67
ATOM     67  S   UNL A   1      44.678  19.064  24.301  1.00  0.00     0.124 S 
ATOM     68  O   UNL A   1      43.735  18.046  24.757  1.00  0.00    -0.237 OA
ATOM     69  O   UNL A   1      44.448  19.584  22.958  1.00  0.00    -0.237 OA
ATOM     70  O   UNL A   1      46.074  18.811  24.647  1.00  0.00    -0.744 OA
ENDBRANCH  66  67
ENDBRANCH  45  59
BRANCH  46  71
ATOM     71  C   UNL A   1      42.422  31.517  31.265  1.00  0.00     0.058 A 
ATOM     72  C   UNL A   1      41.224  31.100  31.880  1.00  0.00     0.135 A 
ATOM     73  C   UNL A   1      42.710  32.893  31.309  1.00  0.00     0.135 A 
ATOM     74  F   UNL A   1      40.879  29.803  31.856  1.00  0.00    -0.206 F 
ATOM     75  C   UNL A   1      40.430  31.965  32.628  1.00  0.00     0.059 A 
ATOM     76  C   UNL A   1      41.920  33.785  32.052  1.00  0.00     0.059 A 
ATOM     77  F   UNL A   1      43.834  33.365  30.753  1.00  0.00    -0.206 F 
ATOM     78  C   UNL A   1      40.819  33.295  32.759  1.00  0.00     0.060 A 
BRANCH  78  79
ATOM     79  S   UNL A   1      40.002  34.281  34.041  1.00  0.00     0.124 S 
ATOM     80  O   UNL A   1      41.015  35.280  34.358  1.00  0.00    -0.237 OA
ATOM     81  O   UNL A   1      38.823  34.765  33.325  1.00  0.00    -0.237 OA
ATOM     82  O   UNL A   1      39.719  33.304  35.082  1.00  0.00    -0.744 OA
ENDBRANCH  78  79
ENDBRANCH  46  71
BRANCH  58  83
ATOM     83  C   UNL A   1      44.967  24.945  33.315  1.00  0.00     0.058 A 
ATOM     84  C   UNL A   1      44.013  24.273  34.091  1.00  0.00     0.135 A 
ATOM     85  C   UNL A   1      46.313  24.542  33.486  1.00  0.00     0.135 A 
ATOM     86  F   UNL A   1      42.702  24.515  33.943  1.00  0.00    -0.206 F 
ATOM     87  C   UNL A   1      44.376  23.299  35.021  1.00  0.00     0.059 A 
ATOM     88  C   UNL A   1      46.688  23.536  34.363  1.00  0.00     0.059 A 
ATOM     89  F   UNL A   1      47.311  25.115  32.796  1.00  0.00    -0.206 F 
ATOM     90  C   UNL A   1      45.715  22.937  35.146  1.00  0.00     0.060 A 
BRANCH  90  91
ATOM     91  S   UNL A   1      46.202  21.641  36.297  1.00  0.00     0.124 S 
ATOM     92  O   UNL A   1      45.484  20.491  35.758  1.00  0.00    -0.237 OA
ATOM     93  O   UNL A   1      47.654  21.603  36.152  1.00  0.00    -0.237 OA
ATOM     94  O   UNL A   1      45.720  22.146  37.579  1.00  0.00    -0.744 OA
ENDBRANCH  90  91
ENDBRANCH  58  83
ENDBRANCH  32  33
ENDBRANCH  25  27
ENDBRANCH  24  25
ENDBRANCH  23  24
ENDBRANCH   1  23
TORSDOF 17
ENDMDL
