MODEL 1
REMARK VINA RESULT:     -10.4      0.000      0.000
REMARK SMILES CC(C)[C@@H](NC(N)=O)C(=O)N[C@H](C(=O)OCCOC(=O)c1ccc(-c2c3nc(c(-c4c(F)cc(S(=O)(=O)[O-])cc4F)c4ccc([nH]4)c(-c4c(F)cc(S(=O)(=O)[O-])cc4F)c4nc(c(-c5c(F)cc(S(=O)(=O)[O-])cc5F)c5ccc2[nH]5)C=C4)C=C3)cc1)[C@@H](C)O
REMARK SMILES IDX 16 1 15 2 13 3 14 4 12 5 11 6 9 7 10 8 4 10 2 11 1 12 3 13
REMARK SMILES IDX 5 14 6 15 7 17 8 18 87 21 88 22 89 23 17 25 18 26 19 27
REMARK SMILES IDX 20 28 21 29 22 30 86 31 23 32 85 33 24 34 25 35 26 36 79 37
REMARK SMILES IDX 27 38 84 39 78 40 80 41 28 42 83 43 77 44 76 45 29 47 63 48
REMARK SMILES IDX 42 49 62 50 43 51 46 52 61 53 81 54 44 55 45 56 60 58 82 59
REMARK SMILES IDX 47 60 30 61 31 62 40 63 32 64 33 65 39 66 41 67 34 68 35 69
REMARK SMILES IDX 36 70 37 71 38 72 64 73 65 74 74 75 66 76 67 77 73 78 75 79
REMARK SMILES IDX 68 80 69 81 70 82 71 83 72 84 48 85 49 86 58 87 50 88 51 89
REMARK SMILES IDX 57 90 59 91 52 92 53 93 54 94 55 95 56 96
REMARK H PARENT 11 9 5 16 7 19 7 20 89 24 80 46 46 57
REMARK Flexibility Score: inf
ROOT
ATOM      1  C   UNL A   1      35.589  22.842  25.762  1.00  0.00     0.274 C 
ENDROOT
BRANCH   1   2
ATOM      2  O   UNL A   1      34.972  21.546  25.590  1.00  0.00    -0.460 OA
BRANCH   2   3
ATOM      3  C   UNL A   1      33.902  21.256  26.395  1.00  0.00     0.331 C 
ATOM      4  O   UNL A   1      33.945  21.314  27.616  1.00  0.00    -0.250 OA
BRANCH   3   5
ATOM      5  C   UNL A   1      32.687  20.806  25.553  1.00  0.00     0.221 C 
BRANCH   5   6
ATOM      6  N   UNL A   1      32.636  21.399  24.206  1.00  0.00    -0.339 N 
ATOM      7  C   UNL A   1      32.095  22.568  23.761  1.00  0.00     0.243 C 
ATOM      8  O   UNL A   1      31.601  22.578  22.629  1.00  0.00    -0.273 OA
ATOM      9  H   UNL A   1      33.067  20.857  23.505  1.00  0.00     0.164 HD
BRANCH   7  10
ATOM     10  C   UNL A   1      31.983  23.820  24.670  1.00  0.00     0.175 C 
BRANCH  10  11
ATOM     11  C   UNL A   1      32.283  25.123  23.879  1.00  0.00     0.015 C 
ATOM     12  C   UNL A   1      31.088  26.081  23.812  1.00  0.00     0.010 C 
ATOM     13  C   UNL A   1      33.488  25.871  24.459  1.00  0.00     0.010 C 
ENDBRANCH  10  11
BRANCH  10  14
ATOM     14  N   UNL A   1      30.666  23.834  25.308  1.00  0.00    -0.326 N 
ATOM     15  C   UNL A   1      30.516  23.748  26.662  1.00  0.00     0.312 C 
ATOM     16  H   UNL A   1      29.862  23.908  24.743  1.00  0.00     0.166 HD
ATOM     17  N   UNL A   1      29.215  23.666  27.032  1.00  0.00    -0.352 N 
ATOM     18  O   UNL A   1      31.419  23.722  27.481  1.00  0.00    -0.249 OA
ATOM     19  H   UNL A   1      28.507  23.690  26.348  1.00  0.00     0.161 HD
ATOM     20  H   UNL A   1      28.977  23.583  27.983  1.00  0.00     0.161 HD
ENDBRANCH  10  14
ENDBRANCH   7  10
ENDBRANCH   5   6
BRANCH   5  21
ATOM     21  C   UNL A   1      32.709  19.250  25.417  1.00  0.00     0.145 C 
ATOM     22  C   UNL A   1      33.822  18.760  24.496  1.00  0.00     0.041 C 
BRANCH  21  23
ATOM     23  O   UNL A   1      32.935  18.645  26.706  1.00  0.00    -0.391 OA
ATOM     24  H   UNL A   1      32.260  18.952  27.330  1.00  0.00     0.211 HD
ENDBRANCH  21  23
ENDBRANCH   5  21
ENDBRANCH   3   5
ENDBRANCH   2   3
ENDBRANCH   1   2
BRANCH   1  25
ATOM     25  C   UNL A   1      36.636  23.081  24.671  1.00  0.00     0.275 C 
BRANCH  25  26
ATOM     26  O   UNL A   1      37.636  23.968  25.188  1.00  0.00    -0.458 OA
BRANCH  26  27
ATOM     27  C   UNL A   1      38.589  23.351  25.912  1.00  0.00     0.338 C 
ATOM     28  O   UNL A   1      39.053  22.229  25.747  1.00  0.00    -0.246 OA
BRANCH  27  29
ATOM     29  C   UNL A   1      39.233  24.374  26.731  1.00  0.00     0.060 A 
ATOM     30  C   UNL A   1      38.900  24.392  28.086  1.00  0.00     0.016 A 
ATOM     31  C   UNL A   1      40.082  25.328  26.184  1.00  0.00     0.016 A 
ATOM     32  C   UNL A   1      39.309  25.444  28.886  1.00  0.00     0.010 A 
ATOM     33  C   UNL A   1      40.558  26.344  27.012  1.00  0.00     0.010 A 
ATOM     34  C   UNL A   1      40.138  26.435  28.354  1.00  0.00    -0.014 A 
BRANCH  34  35
ATOM     35  C   UNL A   1      40.488  27.623  29.168  1.00  0.00     0.031 A 
ATOM     36  C   UNL A   1      41.769  27.608  29.949  1.00  0.00     0.074 A 
ATOM     37  C   UNL A   1      39.683  28.701  29.193  1.00  0.00     0.049 A 
ATOM     38  N   UNL A   1      42.147  28.378  30.933  1.00  0.00    -0.248 NA
ATOM     39  C   UNL A   1      42.746  26.566  29.590  1.00  0.00     0.031 C 
ATOM     40  C   UNL A   1      38.457  28.865  28.409  1.00  0.00     0.029 A 
ATOM     41  N   UNL A   1      39.775  29.864  29.913  1.00  0.00    -0.354 N 
ATOM     42  C   UNL A   1      43.359  27.858  31.372  1.00  0.00     0.074 A 
ATOM     43  C   UNL A   1      43.668  26.726  30.529  1.00  0.00     0.031 C 
ATOM     44  C   UNL A   1      37.920  30.065  28.678  1.00  0.00     0.029 A 
ATOM     45  C   UNL A   1      38.708  30.709  29.722  1.00  0.00     0.049 A 
ATOM     46  H   UNL A   1      40.531  30.072  30.508  1.00  0.00     0.167 HD
ATOM     47  C   UNL A   1      44.123  28.285  32.404  1.00  0.00     0.037 A 
ATOM     48  C   UNL A   1      38.370  31.843  30.364  1.00  0.00     0.037 A 
ATOM     49  C   UNL A   1      43.820  29.459  33.179  1.00  0.00     0.049 A 
ATOM     50  C   UNL A   1      39.241  32.313  31.493  1.00  0.00     0.074 A 
ATOM     51  C   UNL A   1      44.515  29.996  34.246  1.00  0.00     0.029 A 
ATOM     52  N   UNL A   1      42.736  30.295  32.944  1.00  0.00    -0.354 N 
ATOM     53  N   UNL A   1      40.329  31.760  31.976  1.00  0.00    -0.248 NA
ATOM     54  C   UNL A   1      38.829  33.542  32.182  1.00  0.00     0.031 C 
ATOM     55  C   UNL A   1      43.840  31.147  34.670  1.00  0.00     0.029 A 
ATOM     56  C   UNL A   1      42.743  31.345  33.845  1.00  0.00     0.049 A 
ATOM     57  H   UNL A   1      42.062  30.161  32.239  1.00  0.00     0.167 HD
ATOM     58  C   UNL A   1      40.729  32.568  33.032  1.00  0.00     0.074 A 
ATOM     59  C   UNL A   1      39.782  33.664  33.099  1.00  0.00     0.031 C 
ATOM     60  C   UNL A   1      41.777  32.415  33.879  1.00  0.00     0.037 A 
BRANCH  47  61
ATOM     61  C   UNL A   1      45.309  27.445  32.785  1.00  0.00     0.058 A 
ATOM     62  C   UNL A   1      46.610  27.737  32.349  1.00  0.00     0.135 A 
ATOM     63  C   UNL A   1      45.131  26.316  33.604  1.00  0.00     0.135 A 
ATOM     64  F   UNL A   1      46.833  28.788  31.545  1.00  0.00    -0.206 F 
ATOM     65  C   UNL A   1      47.689  26.923  32.685  1.00  0.00     0.059 A 
ATOM     66  C   UNL A   1      46.199  25.501  33.971  1.00  0.00     0.059 A 
ATOM     67  F   UNL A   1      43.906  25.986  34.043  1.00  0.00    -0.206 F 
ATOM     68  C   UNL A   1      47.471  25.804  33.491  1.00  0.00     0.060 A 
BRANCH  68  69
ATOM     69  S   UNL A   1      48.873  24.744  33.907  1.00  0.00     0.124 S 
ATOM     70  O   UNL A   1      49.542  24.627  32.615  1.00  0.00    -0.237 OA
ATOM     71  O   UNL A   1      49.576  25.532  34.915  1.00  0.00    -0.237 OA
ATOM     72  O   UNL A   1      48.241  23.524  34.400  1.00  0.00    -0.744 OA
ENDBRANCH  68  69
ENDBRANCH  47  61
BRANCH  48  73
ATOM     73  C   UNL A   1      37.121  32.555  29.987  1.00  0.00     0.058 A 
ATOM     74  C   UNL A   1      35.879  32.161  30.501  1.00  0.00     0.135 A 
ATOM     75  C   UNL A   1      37.157  33.688  29.157  1.00  0.00     0.135 A 
ATOM     76  F   UNL A   1      35.792  31.079  31.290  1.00  0.00    -0.206 F 
ATOM     77  C   UNL A   1      34.716  32.870  30.217  1.00  0.00     0.059 A 
ATOM     78  C   UNL A   1      36.013  34.428  28.879  1.00  0.00     0.059 A 
ATOM     79  F   UNL A   1      38.325  34.115  28.652  1.00  0.00    -0.206 F 
ATOM     80  C   UNL A   1      34.795  34.010  29.412  1.00  0.00     0.060 A 
BRANCH  80  81
ATOM     81  S   UNL A   1      33.302  34.986  29.129  1.00  0.00     0.124 S 
ATOM     82  O   UNL A   1      33.854  36.202  28.542  1.00  0.00    -0.237 OA
ATOM     83  O   UNL A   1      32.537  34.130  28.228  1.00  0.00    -0.237 OA
ATOM     84  O   UNL A   1      32.739  35.127  30.469  1.00  0.00    -0.744 OA
ENDBRANCH  80  81
ENDBRANCH  48  73
BRANCH  60  85
ATOM     85  C   UNL A   1      41.952  33.466  34.934  1.00  0.00     0.058 A 
ATOM     86  C   UNL A   1      41.498  33.265  36.246  1.00  0.00     0.135 A 
ATOM     87  C   UNL A   1      42.617  34.666  34.639  1.00  0.00     0.135 A 
ATOM     88  F   UNL A   1      40.851  32.134  36.572  1.00  0.00    -0.206 F 
ATOM     89  C   UNL A   1      41.682  34.230  37.229  1.00  0.00     0.059 A 
ATOM     90  C   UNL A   1      42.828  35.636  35.611  1.00  0.00     0.059 A 
ATOM     91  F   UNL A   1      43.075  34.897  33.398  1.00  0.00    -0.206 F 
ATOM     92  C   UNL A   1      42.346  35.413  36.900  1.00  0.00     0.060 A 
BRANCH  92  93
ATOM     93  S   UNL A   1      42.604  36.650  38.190  1.00  0.00     0.124 S 
ATOM     94  O   UNL A   1      43.100  35.827  39.287  1.00  0.00    -0.237 OA
ATOM     95  O   UNL A   1      43.579  37.546  37.577  1.00  0.00    -0.237 OA
ATOM     96  O   UNL A   1      41.274  37.219  38.381  1.00  0.00    -0.744 OA
ENDBRANCH  92  93
ENDBRANCH  60  85
ENDBRANCH  34  35
ENDBRANCH  27  29
ENDBRANCH  26  27
ENDBRANCH  25  26
ENDBRANCH   1  25
TORSDOF 20
ENDMDL
MODEL 2
REMARK VINA RESULT:     -10.0      2.431      3.495
REMARK SMILES CC(C)[C@@H](NC(N)=O)C(=O)N[C@H](C(=O)OCCOC(=O)c1ccc(-c2c3nc(c(-c4c(F)cc(S(=O)(=O)[O-])cc4F)c4ccc([nH]4)c(-c4c(F)cc(S(=O)(=O)[O-])cc4F)c4nc(c(-c5c(F)cc(S(=O)(=O)[O-])cc5F)c5ccc2[nH]5)C=C4)C=C3)cc1)[C@@H](C)O
REMARK SMILES IDX 16 1 15 2 13 3 14 4 12 5 11 6 9 7 10 8 4 10 2 11 1 12 3 13
REMARK SMILES IDX 5 14 6 15 7 17 8 18 87 21 88 22 89 23 17 25 18 26 19 27
REMARK SMILES IDX 20 28 21 29 22 30 86 31 23 32 85 33 24 34 25 35 26 36 79 37
REMARK SMILES IDX 27 38 84 39 78 40 80 41 28 42 83 43 77 44 76 45 29 47 63 48
REMARK SMILES IDX 42 49 62 50 43 51 46 52 61 53 81 54 44 55 45 56 60 58 82 59
REMARK SMILES IDX 47 60 30 61 31 62 40 63 32 64 33 65 39 66 41 67 34 68 35 69
REMARK SMILES IDX 36 70 37 71 38 72 64 73 65 74 74 75 66 76 67 77 73 78 75 79
REMARK SMILES IDX 68 80 69 81 70 82 71 83 72 84 48 85 49 86 58 87 50 88 51 89
REMARK SMILES IDX 57 90 59 91 52 92 53 93 54 94 55 95 56 96
REMARK H PARENT 11 9 5 16 7 19 7 20 89 24 80 46 46 57
REMARK Flexibility Score: inf
ROOT
ATOM      1  C   UNL A   1      36.613  23.747  25.013  1.00  0.00     0.274 C 
ENDROOT
BRANCH   1   2
ATOM      2  O   UNL A   1      35.222  23.924  25.366  1.00  0.00    -0.460 OA
BRANCH   2   3
ATOM      3  C   UNL A   1      34.295  23.324  24.557  1.00  0.00     0.331 C 
ATOM      4  O   UNL A   1      34.306  22.129  24.293  1.00  0.00    -0.250 OA
BRANCH   3   5
ATOM      5  C   UNL A   1      33.295  24.363  24.002  1.00  0.00     0.221 C 
BRANCH   5   6
ATOM      6  N   UNL A   1      33.899  25.355  23.097  1.00  0.00    -0.339 N 
ATOM      7  C   UNL A   1      33.484  26.597  22.723  1.00  0.00     0.243 C 
ATOM      8  O   UNL A   1      33.731  26.963  21.569  1.00  0.00    -0.273 OA
ATOM      9  H   UNL A   1      34.751  25.072  22.693  1.00  0.00     0.164 HD
BRANCH   7  10
ATOM     10  C   UNL A   1      32.623  27.491  23.654  1.00  0.00     0.175 C 
BRANCH  10  11
ATOM     11  C   UNL A   1      33.392  27.867  24.950  1.00  0.00     0.015 C 
ATOM     12  C   UNL A   1      33.430  29.376  25.218  1.00  0.00     0.010 C 
ATOM     13  C   UNL A   1      32.810  27.158  26.178  1.00  0.00     0.010 C 
ENDBRANCH  10  11
BRANCH  10  14
ATOM     14  N   UNL A   1      32.165  28.663  22.907  1.00  0.00    -0.326 N 
ATOM     15  C   UNL A   1      30.869  28.802  22.499  1.00  0.00     0.312 C 
ATOM     16  H   UNL A   1      32.811  29.374  22.690  1.00  0.00     0.166 HD
ATOM     17  N   UNL A   1      30.687  29.902  21.730  1.00  0.00    -0.352 N 
ATOM     18  O   UNL A   1      29.954  28.038  22.756  1.00  0.00    -0.249 OA
ATOM     19  H   UNL A   1      31.445  30.501  21.539  1.00  0.00     0.161 HD
ATOM     20  H   UNL A   1      29.797  30.102  21.360  1.00  0.00     0.161 HD
ENDBRANCH  10  14
ENDBRANCH   7  10
ENDBRANCH   5   6
BRANCH   5  21
ATOM     21  C   UNL A   1      32.153  23.617  23.241  1.00  0.00     0.145 C 
ATOM     22  C   UNL A   1      30.835  24.386  23.268  1.00  0.00     0.041 C 
BRANCH  21  23
ATOM     23  O   UNL A   1      32.512  23.450  21.855  1.00  0.00    -0.391 OA
ATOM     24  H   UNL A   1      32.419  24.298  21.392  1.00  0.00     0.211 HD
ENDBRANCH  21  23
ENDBRANCH   5  21
ENDBRANCH   3   5
ENDBRANCH   2   3
ENDBRANCH   1   2
BRANCH   1  25
ATOM     25  C   UNL A   1      37.478  23.684  26.276  1.00  0.00     0.275 C 
BRANCH  25  26
ATOM     26  O   UNL A   1      38.404  24.777  26.245  1.00  0.00    -0.458 OA
BRANCH  26  27
ATOM     27  C   UNL A   1      39.627  24.467  26.716  1.00  0.00     0.338 C 
ATOM     28  O   UNL A   1      40.458  23.716  26.218  1.00  0.00    -0.246 OA
BRANCH  27  29
ATOM     29  C   UNL A   1      39.946  25.442  27.754  1.00  0.00     0.060 A 
ATOM     30  C   UNL A   1      39.122  25.450  28.880  1.00  0.00     0.016 A 
ATOM     31  C   UNL A   1      40.973  26.366  27.606  1.00  0.00     0.016 A 
ATOM     32  C   UNL A   1      39.232  26.466  29.813  1.00  0.00     0.010 A 
ATOM     33  C   UNL A   1      41.134  27.343  28.588  1.00  0.00     0.010 A 
ATOM     34  C   UNL A   1      40.237  27.427  29.672  1.00  0.00    -0.014 A 
BRANCH  34  35
ATOM     35  C   UNL A   1      40.292  28.581  30.600  1.00  0.00     0.031 A 
ATOM     36  C   UNL A   1      41.331  28.584  31.684  1.00  0.00     0.074 A 
ATOM     37  C   UNL A   1      39.442  29.615  30.464  1.00  0.00     0.049 A 
ATOM     38  N   UNL A   1      41.396  29.313  32.764  1.00  0.00    -0.248 NA
ATOM     39  C   UNL A   1      42.431  27.614  31.544  1.00  0.00     0.031 C 
ATOM     40  C   UNL A   1      38.448  29.764  29.398  1.00  0.00     0.029 A 
ATOM     41  N   UNL A   1      39.274  30.736  31.233  1.00  0.00    -0.354 N 
ATOM     42  C   UNL A   1      42.486  28.829  33.478  1.00  0.00     0.074 A 
ATOM     43  C   UNL A   1      43.071  27.764  32.694  1.00  0.00     0.031 C 
ATOM     44  C   UNL A   1      37.786  30.918  29.572  1.00  0.00     0.029 A 
ATOM     45  C   UNL A   1      38.240  31.538  30.811  1.00  0.00     0.049 A 
ATOM     46  H   UNL A   1      39.839  30.947  32.012  1.00  0.00     0.167 HD
ATOM     47  C   UNL A   1      42.933  29.232  34.690  1.00  0.00     0.037 A 
ATOM     48  C   UNL A   1      37.679  32.614  31.394  1.00  0.00     0.037 A 
ATOM     49  C   UNL A   1      42.370  30.343  35.411  1.00  0.00     0.049 A 
ATOM     50  C   UNL A   1      38.202  33.060  32.729  1.00  0.00     0.074 A 
ATOM     51  C   UNL A   1      42.735  30.850  36.644  1.00  0.00     0.029 A 
ATOM     52  N   UNL A   1      41.331  31.136  34.942  1.00  0.00    -0.354 N 
ATOM     53  N   UNL A   1      39.164  32.534  33.451  1.00  0.00    -0.248 NA
ATOM     54  C   UNL A   1      37.552  34.224  33.341  1.00  0.00     0.031 C 
ATOM     55  C   UNL A   1      41.903  31.939  36.929  1.00  0.00     0.029 A 
ATOM     56  C   UNL A   1      41.042  32.130  35.859  1.00  0.00     0.049 A 
ATOM     57  H   UNL A   1      40.869  31.010  34.082  1.00  0.00     0.167 HD
ATOM     58  C   UNL A   1      39.230  33.297  34.609  1.00  0.00     0.074 A 
ATOM     59  C   UNL A   1      38.230  34.339  34.477  1.00  0.00     0.031 C 
ATOM     60  C   UNL A   1      40.035  33.147  35.690  1.00  0.00     0.037 A 
BRANCH  47  61
ATOM     61  C   UNL A   1      44.033  28.431  35.327  1.00  0.00     0.058 A 
ATOM     62  C   UNL A   1      43.778  27.352  36.187  1.00  0.00     0.135 A 
ATOM     63  C   UNL A   1      45.376  28.760  35.072  1.00  0.00     0.135 A 
ATOM     64  F   UNL A   1      42.515  27.010  36.486  1.00  0.00    -0.206 F 
ATOM     65  C   UNL A   1      44.814  26.646  36.795  1.00  0.00     0.059 A 
ATOM     66  C   UNL A   1      46.427  28.054  35.650  1.00  0.00     0.059 A 
ATOM     67  F   UNL A   1      45.676  29.788  34.263  1.00  0.00    -0.206 F 
ATOM     68  C   UNL A   1      46.135  27.010  36.525  1.00  0.00     0.060 A 
BRANCH  68  69
ATOM     69  S   UNL A   1      47.471  26.102  37.332  1.00  0.00     0.124 S 
ATOM     70  O   UNL A   1      46.794  25.582  38.516  1.00  0.00    -0.237 OA
ATOM     71  O   UNL A   1      47.832  25.111  36.323  1.00  0.00    -0.237 OA
ATOM     72  O   UNL A   1      48.476  27.130  37.583  1.00  0.00    -0.744 OA
ENDBRANCH  68  69
ENDBRANCH  47  61
BRANCH  48  73
ATOM     73  C   UNL A   1      36.525  33.284  30.739  1.00  0.00     0.058 A 
ATOM     74  C   UNL A   1      35.233  33.184  31.270  1.00  0.00     0.135 A 
ATOM     75  C   UNL A   1      36.707  34.094  29.606  1.00  0.00     0.135 A 
ATOM     76  F   UNL A   1      35.007  32.414  32.345  1.00  0.00    -0.206 F 
ATOM     77  C   UNL A   1      34.161  33.874  30.710  1.00  0.00     0.059 A 
ATOM     78  C   UNL A   1      35.657  34.813  29.043  1.00  0.00     0.059 A 
ATOM     79  F   UNL A   1      37.929  34.234  29.068  1.00  0.00    -0.206 F 
ATOM     80  C   UNL A   1      34.386  34.694  29.602  1.00  0.00     0.060 A 
BRANCH  80  81
ATOM     81  S   UNL A   1      33.015  35.665  28.940  1.00  0.00     0.124 S 
ATOM     82  O   UNL A   1      33.721  36.747  28.264  1.00  0.00    -0.237 OA
ATOM     83  O   UNL A   1      32.340  34.703  28.074  1.00  0.00    -0.237 OA
ATOM     84  O   UNL A   1      32.269  36.045  30.137  1.00  0.00    -0.744 OA
ENDBRANCH  80  81
ENDBRANCH  48  73
BRANCH  60  85
ATOM     85  C   UNL A   1      39.868  34.143  36.799  1.00  0.00     0.058 A 
ATOM     86  C   UNL A   1      40.468  35.409  36.738  1.00  0.00     0.135 A 
ATOM     87  C   UNL A   1      39.066  33.841  37.910  1.00  0.00     0.135 A 
ATOM     88  F   UNL A   1      41.250  35.738  35.697  1.00  0.00    -0.206 F 
ATOM     89  C   UNL A   1      40.294  36.340  37.755  1.00  0.00     0.059 A 
ATOM     90  C   UNL A   1      38.862  34.763  38.929  1.00  0.00     0.059 A 
ATOM     91  F   UNL A   1      38.466  32.644  38.004  1.00  0.00    -0.206 F 
ATOM     92  C   UNL A   1      39.491  36.006  38.848  1.00  0.00     0.060 A 
BRANCH  92  93
ATOM     93  S   UNL A   1      39.248  37.231  40.151  1.00  0.00     0.124 S 
ATOM     94  O   UNL A   1      38.457  38.242  39.458  1.00  0.00    -0.237 OA
ATOM     95  O   UNL A   1      38.542  36.466  41.175  1.00  0.00    -0.237 OA
ATOM     96  O   UNL A   1      40.608  37.626  40.501  1.00  0.00    -0.744 OA
ENDBRANCH  92  93
ENDBRANCH  60  85
ENDBRANCH  34  35
ENDBRANCH  27  29
ENDBRANCH  26  27
ENDBRANCH  25  26
ENDBRANCH   1  25
TORSDOF 20
ENDMDL
MODEL 3
REMARK VINA RESULT:     -10.0      3.338      4.013
REMARK SMILES CC(C)[C@@H](NC(N)=O)C(=O)N[C@H](C(=O)OCCOC(=O)c1ccc(-c2c3nc(c(-c4c(F)cc(S(=O)(=O)[O-])cc4F)c4ccc([nH]4)c(-c4c(F)cc(S(=O)(=O)[O-])cc4F)c4nc(c(-c5c(F)cc(S(=O)(=O)[O-])cc5F)c5ccc2[nH]5)C=C4)C=C3)cc1)[C@@H](C)O
REMARK SMILES IDX 16 1 15 2 13 3 14 4 12 5 11 6 9 7 10 8 4 10 2 11 1 12 3 13
REMARK SMILES IDX 5 14 6 15 7 17 8 18 87 21 88 22 89 23 17 25 18 26 19 27
REMARK SMILES IDX 20 28 21 29 22 30 86 31 23 32 85 33 24 34 25 35 26 36 79 37
REMARK SMILES IDX 27 38 84 39 78 40 80 41 28 42 83 43 77 44 76 45 29 47 63 48
REMARK SMILES IDX 42 49 62 50 43 51 46 52 61 53 81 54 44 55 45 56 60 58 82 59
REMARK SMILES IDX 47 60 30 61 31 62 40 63 32 64 33 65 39 66 41 67 34 68 35 69
REMARK SMILES IDX 36 70 37 71 38 72 64 73 65 74 74 75 66 76 67 77 73 78 75 79
REMARK SMILES IDX 68 80 69 81 70 82 71 83 72 84 48 85 49 86 58 87 50 88 51 89
REMARK SMILES IDX 57 90 59 91 52 92 53 93 54 94 55 95 56 96
REMARK H PARENT 11 9 5 16 7 19 7 20 89 24 80 46 46 57
REMARK Flexibility Score: inf
ROOT
ATOM      1  C   UNL A   1      36.315  20.679  25.288  1.00  0.00     0.274 C 
ENDROOT
BRANCH   1   2
ATOM      2  O   UNL A   1      35.129  21.501  25.200  1.00  0.00    -0.460 OA
BRANCH   2   3
ATOM      3  C   UNL A   1      34.155  21.288  26.140  1.00  0.00     0.331 C 
ATOM      4  O   UNL A   1      34.367  21.317  27.345  1.00  0.00    -0.250 OA
BRANCH   3   5
ATOM      5  C   UNL A   1      32.803  20.965  25.467  1.00  0.00     0.221 C 
BRANCH   5   6
ATOM      6  N   UNL A   1      32.661  21.512  24.107  1.00  0.00    -0.339 N 
ATOM      7  C   UNL A   1      32.047  22.640  23.653  1.00  0.00     0.243 C 
ATOM      8  O   UNL A   1      31.501  22.591  22.546  1.00  0.00    -0.273 OA
ATOM      9  H   UNL A   1      33.085  20.968  23.403  1.00  0.00     0.164 HD
BRANCH   7  10
ATOM     10  C   UNL A   1      31.917  23.914  24.529  1.00  0.00     0.175 C 
BRANCH  10  11
ATOM     11  C   UNL A   1      32.118  25.203  23.685  1.00  0.00     0.015 C 
ATOM     12  C   UNL A   1      30.819  25.984  23.452  1.00  0.00     0.010 C 
ATOM     13  C   UNL A   1      33.153  26.139  24.320  1.00  0.00     0.010 C 
ENDBRANCH  10  11
BRANCH  10  14
ATOM     14  N   UNL A   1      30.633  23.888  25.229  1.00  0.00    -0.326 N 
ATOM     15  C   UNL A   1      30.550  23.764  26.586  1.00  0.00     0.312 C 
ATOM     16  H   UNL A   1      29.802  23.962  24.705  1.00  0.00     0.166 HD
ATOM     17  N   UNL A   1      29.270  23.649  27.014  1.00  0.00    -0.352 N 
ATOM     18  O   UNL A   1      31.492  23.733  27.359  1.00  0.00    -0.249 OA
ATOM     19  H   UNL A   1      28.529  23.678  26.366  1.00  0.00     0.161 HD
ATOM     20  H   UNL A   1      29.079  23.536  27.973  1.00  0.00     0.161 HD
ENDBRANCH  10  14
ENDBRANCH   7  10
ENDBRANCH   5   6
BRANCH   5  21
ATOM     21  C   UNL A   1      32.620  19.415  25.407  1.00  0.00     0.145 C 
ATOM     22  C   UNL A   1      33.455  18.771  24.303  1.00  0.00     0.041 C 
BRANCH  21  23
ATOM     23  O   UNL A   1      33.042  18.820  26.651  1.00  0.00    -0.391 OA
ATOM     24  H   UNL A   1      33.803  18.241  26.492  1.00  0.00     0.211 HD
ENDBRANCH  21  23
ENDBRANCH   5  21
ENDBRANCH   3   5
ENDBRANCH   2   3
ENDBRANCH   1   2
BRANCH   1  25
ATOM     25  C   UNL A   1      37.558  21.502  24.936  1.00  0.00     0.275 C 
BRANCH  25  26
ATOM     26  O   UNL A   1      37.960  22.235  26.099  1.00  0.00    -0.458 OA
BRANCH  26  27
ATOM     27  C   UNL A   1      39.275  22.139  26.375  1.00  0.00     0.338 C 
ATOM     28  O   UNL A   1      40.070  21.299  25.971  1.00  0.00    -0.246 OA
BRANCH  27  29
ATOM     29  C   UNL A   1      39.681  23.408  26.972  1.00  0.00     0.060 A 
ATOM     30  C   UNL A   1      39.051  24.556  26.490  1.00  0.00     0.016 A 
ATOM     31  C   UNL A   1      40.692  23.485  27.922  1.00  0.00     0.016 A 
ATOM     32  C   UNL A   1      39.514  25.807  26.857  1.00  0.00     0.010 A 
ATOM     33  C   UNL A   1      41.105  24.746  28.351  1.00  0.00     0.010 A 
ATOM     34  C   UNL A   1      40.551  25.914  27.788  1.00  0.00    -0.014 A 
BRANCH  34  35
ATOM     35  C   UNL A   1      41.132  27.240  28.101  1.00  0.00     0.031 A 
ATOM     36  C   UNL A   1      42.599  27.457  27.872  1.00  0.00     0.074 A 
ATOM     37  C   UNL A   1      40.357  28.238  28.566  1.00  0.00     0.049 A 
ATOM     38  N   UNL A   1      43.377  28.401  28.327  1.00  0.00    -0.248 NA
ATOM     39  C   UNL A   1      43.290  26.456  27.040  1.00  0.00     0.031 C 
ATOM     40  C   UNL A   1      38.905  28.173  28.747  1.00  0.00     0.029 A 
ATOM     41  N   UNL A   1      40.686  29.503  28.976  1.00  0.00    -0.354 N 
ATOM     42  C   UNL A   1      44.660  28.061  27.916  1.00  0.00     0.074 A 
ATOM     43  C   UNL A   1      44.554  26.839  27.151  1.00  0.00     0.031 C 
ATOM     44  C   UNL A   1      38.467  29.351  29.216  1.00  0.00     0.029 A 
ATOM     45  C   UNL A   1      39.615  30.216  29.460  1.00  0.00     0.049 A 
ATOM     46  H   UNL A   1      41.600  29.866  28.928  1.00  0.00     0.167 HD
ATOM     47  C   UNL A   1      45.818  28.708  28.181  1.00  0.00     0.037 A 
ATOM     48  C   UNL A   1      39.574  31.405  30.091  1.00  0.00     0.037 A 
ATOM     49  C   UNL A   1      45.880  29.961  28.887  1.00  0.00     0.049 A 
ATOM     50  C   UNL A   1      40.867  32.119  30.358  1.00  0.00     0.074 A 
ATOM     51  C   UNL A   1      46.991  30.716  29.216  1.00  0.00     0.029 A 
ATOM     52  N   UNL A   1      44.770  30.656  29.349  1.00  0.00    -0.354 N 
ATOM     53  N   UNL A   1      42.089  31.742  30.063  1.00  0.00    -0.248 NA
ATOM     54  C   UNL A   1      40.783  33.402  31.064  1.00  0.00     0.031 C 
ATOM     55  C   UNL A   1      46.552  31.859  29.896  1.00  0.00     0.029 A 
ATOM     56  C   UNL A   1      45.167  31.831  29.960  1.00  0.00     0.049 A 
ATOM     57  H   UNL A   1      43.837  30.356  29.256  1.00  0.00     0.167 HD
ATOM     58  C   UNL A   1      42.923  32.737  30.555  1.00  0.00     0.074 A 
ATOM     59  C   UNL A   1      42.063  33.747  31.142  1.00  0.00     0.031 C 
ATOM     60  C   UNL A   1      44.277  32.809  30.535  1.00  0.00     0.037 A 
BRANCH  47  61
ATOM     61  C   UNL A   1      47.099  28.041  27.765  1.00  0.00     0.058 A 
ATOM     62  C   UNL A   1      47.823  27.199  28.623  1.00  0.00     0.135 A 
ATOM     63  C   UNL A   1      47.614  28.260  26.476  1.00  0.00     0.135 A 
ATOM     64  F   UNL A   1      47.391  26.975  29.874  1.00  0.00    -0.206 F 
ATOM     65  C   UNL A   1      49.027  26.620  28.228  1.00  0.00     0.059 A 
ATOM     66  C   UNL A   1      48.803  27.674  26.052  1.00  0.00     0.059 A 
ATOM     67  F   UNL A   1      46.966  29.064  25.617  1.00  0.00    -0.206 F 
ATOM     68  C   UNL A   1      49.511  26.870  26.942  1.00  0.00     0.060 A 
BRANCH  68  69
ATOM     69  S   UNL A   1      51.082  26.130  26.444  1.00  0.00     0.124 S 
ATOM     70  O   UNL A   1      51.003  26.235  24.990  1.00  0.00    -0.237 OA
ATOM     71  O   UNL A   1      52.058  27.001  27.090  1.00  0.00    -0.237 OA
ATOM     72  O   UNL A   1      51.003  24.775  26.982  1.00  0.00    -0.744 OA
ENDBRANCH  68  69
ENDBRANCH  47  61
BRANCH  48  73
ATOM     73  C   UNL A   1      38.270  31.941  30.559  1.00  0.00     0.058 A 
ATOM     74  C   UNL A   1      37.798  31.673  31.851  1.00  0.00     0.135 A 
ATOM     75  C   UNL A   1      37.502  32.790  29.744  1.00  0.00     0.135 A 
ATOM     76  F   UNL A   1      38.491  30.860  32.663  1.00  0.00    -0.206 F 
ATOM     77  C   UNL A   1      36.617  32.237  32.326  1.00  0.00     0.059 A 
ATOM     78  C   UNL A   1      36.332  33.385  30.205  1.00  0.00     0.059 A 
ATOM     79  F   UNL A   1      37.918  33.089  28.504  1.00  0.00    -0.206 F 
ATOM     80  C   UNL A   1      35.896  33.100  31.497  1.00  0.00     0.060 A 
BRANCH  80  81
ATOM     81  S   UNL A   1      34.419  33.909  32.151  1.00  0.00     0.124 S 
ATOM     82  O   UNL A   1      35.000  34.885  33.066  1.00  0.00    -0.237 OA
ATOM     83  O   UNL A   1      33.801  34.452  30.945  1.00  0.00    -0.237 OA
ATOM     84  O   UNL A   1      33.688  32.810  32.777  1.00  0.00    -0.744 OA
ENDBRANCH  80  81
ENDBRANCH  48  73
BRANCH  60  85
ATOM     85  C   UNL A   1      44.898  34.025  31.156  1.00  0.00     0.058 A 
ATOM     86  C   UNL A   1      45.281  34.040  32.505  1.00  0.00     0.135 A 
ATOM     87  C   UNL A   1      45.151  35.167  30.381  1.00  0.00     0.135 A 
ATOM     88  F   UNL A   1      45.052  32.971  33.285  1.00  0.00    -0.206 F 
ATOM     89  C   UNL A   1      45.878  35.159  33.073  1.00  0.00     0.059 A 
ATOM     90  C   UNL A   1      45.765  36.289  30.924  1.00  0.00     0.059 A 
ATOM     91  F   UNL A   1      44.809  35.192  29.083  1.00  0.00    -0.206 F 
ATOM     92  C   UNL A   1      46.113  36.279  32.274  1.00  0.00     0.060 A 
BRANCH  92  93
ATOM     93  S   UNL A   1      46.914  37.719  33.013  1.00  0.00     0.124 S 
ATOM     94  O   UNL A   1      47.467  38.380  31.836  1.00  0.00    -0.237 OA
ATOM     95  O   UNL A   1      45.799  38.403  33.660  1.00  0.00    -0.237 OA
ATOM     96  O   UNL A   1      47.892  37.130  33.922  1.00  0.00    -0.744 OA
ENDBRANCH  92  93
ENDBRANCH  60  85
ENDBRANCH  34  35
ENDBRANCH  27  29
ENDBRANCH  26  27
ENDBRANCH  25  26
ENDBRANCH   1  25
TORSDOF 20
ENDMDL
