MODEL 1
REMARK VINA RESULT:     -10.9      0.000      0.000
REMARK SMILES CCc1ccc([C@H](O)[C@@H]2CC=CC[C@@H]2C(=O)OCCOC(=O)c2ccc(-c3c4nc(c(-c5c(F)cc(S(=O)(=O)[O-])cc5F)c5ccc([nH]5)c(-c5c(F)cc(S(=O)(=O)[O-])cc5F)c5nc(c(-c6c(F)cc(S(=O)(=O)[O-])cc6F)c6ccc3[nH]6)C=C5)C=C4)cc2)s1
REMARK SMILES IDX 18 1 17 2 15 3 16 4 14 5 9 6 10 7 11 8 13 9 12 10 7 11 6 12
REMARK SMILES IDX 3 13 4 14 89 15 5 16 2 17 1 18 8 19 19 21 20 22 21 23 22 24
REMARK SMILES IDX 23 25 24 26 88 27 25 28 87 29 26 30 27 31 28 32 81 33 29 34
REMARK SMILES IDX 86 35 80 36 82 37 30 38 85 39 79 40 78 41 31 43 65 44 44 45
REMARK SMILES IDX 64 46 45 47 48 48 63 49 83 50 46 51 47 52 62 54 84 55 49 56
REMARK SMILES IDX 32 57 33 58 42 59 34 60 35 61 41 62 43 63 36 64 37 65 38 66
REMARK SMILES IDX 39 67 40 68 66 69 67 70 76 71 68 72 69 73 75 74 77 75 70 76
REMARK SMILES IDX 71 77 72 78 73 79 74 80 50 81 51 82 60 83 52 84 53 85 59 86
REMARK SMILES IDX 61 87 54 88 55 89 56 90 57 91 58 92
REMARK H PARENT 8 20 82 42 48 53
REMARK Flexibility Score: inf
ROOT
ATOM      1  C   UNL A   1      32.562  30.206  25.696  1.00  0.00     0.274 C 
ENDROOT
BRANCH   1   2
ATOM      2  O   UNL A   1      33.543  29.179  25.400  1.00  0.00    -0.462 OA
BRANCH   2   3
ATOM      3  C   UNL A   1      33.510  28.654  24.146  1.00  0.00     0.309 C 
ATOM      4  O   UNL A   1      33.662  29.314  23.123  1.00  0.00    -0.252 OA
BRANCH   3   5
ATOM      5  C   UNL A   1      33.217  27.156  24.105  1.00  0.00     0.109 C 
ATOM      6  C   UNL A   1      31.750  26.658  23.985  1.00  0.00     0.041 C 
ATOM      7  C   UNL A   1      30.932  27.015  25.240  1.00  0.00     0.034 C 
ATOM      8  C   UNL A   1      31.673  26.630  26.490  1.00  0.00    -0.031 C 
ATOM      9  C   UNL A   1      33.876  26.444  25.304  1.00  0.00     0.042 C 
ATOM     10  C   UNL A   1      32.979  26.332  26.505  1.00  0.00    -0.030 C 
BRANCH   6  11
ATOM     11  C   UNL A   1      31.019  26.961  22.656  1.00  0.00     0.159 C 
BRANCH  11  12
ATOM     12  C   UNL A   1      29.832  27.888  22.863  1.00  0.00     0.034 A 
ATOM     13  C   UNL A   1      28.264  29.814  22.946  1.00  0.00     0.005 A 
ATOM     14  C   UNL A   1      27.625  28.612  23.159  1.00  0.00     0.016 A 
ATOM     15  S   UNL A   1      29.955  29.596  22.771  1.00  0.00    -0.143 S 
ATOM     16  C   UNL A   1      28.528  27.517  23.162  1.00  0.00     0.018 A 
BRANCH  13  17
ATOM     17  C   UNL A   1      27.639  31.177  22.906  1.00  0.00     0.043 C 
ATOM     18  C   UNL A   1      28.649  32.312  22.855  1.00  0.00     0.010 C 
ENDBRANCH  13  17
ENDBRANCH  11  12
BRANCH  11  19
ATOM     19  O   UNL A   1      30.617  25.798  21.947  1.00  0.00    -0.387 OA
ATOM     20  H   UNL A   1      30.574  25.995  20.998  1.00  0.00     0.211 HD
ENDBRANCH  11  19
ENDBRANCH   6  11
ENDBRANCH   3   5
ENDBRANCH   2   3
ENDBRANCH   1   2
BRANCH   1  21
ATOM     21  C   UNL A   1      32.745  30.736  27.116  1.00  0.00     0.275 C 
BRANCH  21  22
ATOM     22  O   UNL A   1      33.864  30.062  27.706  1.00  0.00    -0.458 OA
BRANCH  22  23
ATOM     23  C   UNL A   1      34.693  30.812  28.465  1.00  0.00     0.338 C 
ATOM     24  O   UNL A   1      34.397  31.834  29.074  1.00  0.00    -0.246 OA
BRANCH  23  25
ATOM     25  C   UNL A   1      36.034  30.183  28.503  1.00  0.00     0.060 A 
ATOM     26  C   UNL A   1      36.528  29.645  29.690  1.00  0.00     0.016 A 
ATOM     27  C   UNL A   1      36.857  30.214  27.377  1.00  0.00     0.016 A 
ATOM     28  C   UNL A   1      37.861  29.251  29.788  1.00  0.00     0.010 A 
ATOM     29  C   UNL A   1      38.164  29.712  27.451  1.00  0.00     0.010 A 
ATOM     30  C   UNL A   1      38.703  29.262  28.671  1.00  0.00    -0.014 A 
BRANCH  30  31
ATOM     31  C   UNL A   1      40.142  28.872  28.786  1.00  0.00     0.031 A 
ATOM     32  C   UNL A   1      41.146  29.852  29.343  1.00  0.00     0.074 A 
ATOM     33  C   UNL A   1      40.575  27.643  28.431  1.00  0.00     0.049 A 
ATOM     34  N   UNL A   1      42.452  29.840  29.258  1.00  0.00    -0.248 NA
ATOM     35  C   UNL A   1      40.608  31.010  30.075  1.00  0.00     0.031 C 
ATOM     36  C   UNL A   1      39.735  26.542  27.955  1.00  0.00     0.029 A 
ATOM     37  N   UNL A   1      41.840  27.106  28.434  1.00  0.00    -0.354 N 
ATOM     38  C   UNL A   1      42.884  31.031  29.832  1.00  0.00     0.074 A 
ATOM     39  C   UNL A   1      41.701  31.728  30.289  1.00  0.00     0.031 C 
ATOM     40  C   UNL A   1      40.490  25.447  27.790  1.00  0.00     0.029 A 
ATOM     41  C   UNL A   1      41.887  25.796  28.018  1.00  0.00     0.049 A 
ATOM     42  H   UNL A   1      42.639  27.611  28.709  1.00  0.00     0.167 HD
ATOM     43  C   UNL A   1      44.148  31.504  29.949  1.00  0.00     0.037 A 
ATOM     44  C   UNL A   1      42.932  24.978  27.784  1.00  0.00     0.037 A 
ATOM     45  C   UNL A   1      45.326  30.762  29.577  1.00  0.00     0.049 A 
ATOM     46  C   UNL A   1      44.328  25.516  27.911  1.00  0.00     0.074 A 
ATOM     47  C   UNL A   1      46.652  31.157  29.636  1.00  0.00     0.029 A 
ATOM     48  N   UNL A   1      45.321  29.455  29.114  1.00  0.00    -0.354 N 
ATOM     49  N   UNL A   1      44.718  26.708  28.294  1.00  0.00    -0.248 NA
ATOM     50  C   UNL A   1      45.422  24.615  27.526  1.00  0.00     0.031 C 
ATOM     51  C   UNL A   1      47.448  30.090  29.196  1.00  0.00     0.029 A 
ATOM     52  C   UNL A   1      46.618  29.024  28.891  1.00  0.00     0.049 A 
ATOM     53  H   UNL A   1      44.513  28.913  28.965  1.00  0.00     0.167 HD
ATOM     54  C   UNL A   1      46.103  26.703  28.187  1.00  0.00     0.074 A 
ATOM     55  C   UNL A   1      46.485  25.381  27.729  1.00  0.00     0.031 C 
ATOM     56  C   UNL A   1      46.979  27.708  28.433  1.00  0.00     0.037 A 
BRANCH  43  57
ATOM     57  C   UNL A   1      44.318  32.912  30.449  1.00  0.00     0.058 A 
ATOM     58  C   UNL A   1      44.563  33.208  31.798  1.00  0.00     0.135 A 
ATOM     59  C   UNL A   1      44.235  33.987  29.547  1.00  0.00     0.135 A 
ATOM     60  F   UNL A   1      44.633  32.219  32.703  1.00  0.00    -0.206 F 
ATOM     61  C   UNL A   1      44.685  34.521  32.242  1.00  0.00     0.059 A 
ATOM     62  C   UNL A   1      44.378  35.307  29.965  1.00  0.00     0.059 A 
ATOM     63  F   UNL A   1      44.004  33.762  28.244  1.00  0.00    -0.206 F 
ATOM     64  C   UNL A   1      44.581  35.564  31.320  1.00  0.00     0.060 A 
BRANCH  64  65
ATOM     65  S   UNL A   1      44.715  37.267  31.907  1.00  0.00     0.124 S 
ATOM     66  O   UNL A   1      46.001  37.234  32.598  1.00  0.00    -0.237 OA
ATOM     67  O   UNL A   1      44.683  38.035  30.667  1.00  0.00    -0.237 OA
ATOM     68  O   UNL A   1      43.545  37.422  32.765  1.00  0.00    -0.744 OA
ENDBRANCH  64  65
ENDBRANCH  43  57
BRANCH  44  69
ATOM     69  C   UNL A   1      42.690  23.578  27.347  1.00  0.00     0.058 A 
ATOM     70  C   UNL A   1      42.713  23.239  25.986  1.00  0.00     0.135 A 
ATOM     71  C   UNL A   1      42.477  22.547  28.276  1.00  0.00     0.135 A 
ATOM     72  F   UNL A   1      42.896  24.193  25.060  1.00  0.00    -0.206 F 
ATOM     73  C   UNL A   1      42.547  21.925  25.561  1.00  0.00     0.059 A 
ATOM     74  C   UNL A   1      42.335  21.223  27.877  1.00  0.00     0.059 A 
ATOM     75  F   UNL A   1      42.452  22.820  29.589  1.00  0.00    -0.206 F 
ATOM     76  C   UNL A   1      42.368  20.922  26.515  1.00  0.00     0.060 A 
BRANCH  76  77
ATOM     77  S   UNL A   1      42.253  19.204  25.969  1.00  0.00     0.124 S 
ATOM     78  O   UNL A   1      40.818  19.060  25.755  1.00  0.00    -0.237 OA
ATOM     79  O   UNL A   1      43.081  19.203  24.766  1.00  0.00    -0.237 OA
ATOM     80  O   UNL A   1      42.804  18.460  27.097  1.00  0.00    -0.744 OA
ENDBRANCH  76  77
ENDBRANCH  44  69
BRANCH  56  81
ATOM     81  C   UNL A   1      48.435  27.407  28.227  1.00  0.00     0.058 A 
ATOM     82  C   UNL A   1      49.054  27.613  26.984  1.00  0.00     0.135 A 
ATOM     83  C   UNL A   1      49.223  26.932  29.286  1.00  0.00     0.135 A 
ATOM     84  F   UNL A   1      48.340  28.057  25.938  1.00  0.00    -0.206 F 
ATOM     85  C   UNL A   1      50.404  27.336  26.794  1.00  0.00     0.059 A 
ATOM     86  C   UNL A   1      50.578  26.665  29.122  1.00  0.00     0.059 A 
ATOM     87  F   UNL A   1      48.675  26.726  30.495  1.00  0.00    -0.206 F 
ATOM     88  C   UNL A   1      51.157  26.858  27.868  1.00  0.00     0.060 A 
BRANCH  88  89
ATOM     89  S   UNL A   1      52.913  26.519  27.618  1.00  0.00     0.124 S 
ATOM     90  O   UNL A   1      52.863  25.333  26.770  1.00  0.00    -0.237 OA
ATOM     91  O   UNL A   1      53.383  27.740  26.974  1.00  0.00    -0.237 OA
ATOM     92  O   UNL A   1      53.411  26.302  28.973  1.00  0.00    -0.744 OA
ENDBRANCH  88  89
ENDBRANCH  56  81
ENDBRANCH  30  31
ENDBRANCH  23  25
ENDBRANCH  22  23
ENDBRANCH  21  22
ENDBRANCH   1  21
TORSDOF 18
ENDMDL
MODEL 2
REMARK VINA RESULT:     -10.6      6.192     12.944
REMARK SMILES CCc1ccc([C@H](O)[C@@H]2CC=CC[C@@H]2C(=O)OCCOC(=O)c2ccc(-c3c4nc(c(-c5c(F)cc(S(=O)(=O)[O-])cc5F)c5ccc([nH]5)c(-c5c(F)cc(S(=O)(=O)[O-])cc5F)c5nc(c(-c6c(F)cc(S(=O)(=O)[O-])cc6F)c6ccc3[nH]6)C=C5)C=C4)cc2)s1
REMARK SMILES IDX 18 1 17 2 15 3 16 4 14 5 9 6 10 7 11 8 13 9 12 10 7 11 6 12
REMARK SMILES IDX 3 13 4 14 89 15 5 16 2 17 1 18 8 19 19 21 20 22 21 23 22 24
REMARK SMILES IDX 23 25 24 26 88 27 25 28 87 29 26 30 27 31 28 32 81 33 29 34
REMARK SMILES IDX 86 35 80 36 82 37 30 38 85 39 79 40 78 41 31 43 65 44 44 45
REMARK SMILES IDX 64 46 45 47 48 48 63 49 83 50 46 51 47 52 62 54 84 55 49 56
REMARK SMILES IDX 32 57 33 58 42 59 34 60 35 61 41 62 43 63 36 64 37 65 38 66
REMARK SMILES IDX 39 67 40 68 66 69 67 70 76 71 68 72 69 73 75 74 77 75 70 76
REMARK SMILES IDX 71 77 72 78 73 79 74 80 50 81 51 82 60 83 52 84 53 85 59 86
REMARK SMILES IDX 61 87 54 88 55 89 56 90 57 91 58 92
REMARK H PARENT 8 20 82 42 48 53
REMARK Flexibility Score: inf
ROOT
ATOM      1  C   UNL A   1      40.791  20.910  26.283  1.00  0.00     0.274 C 
ENDROOT
BRANCH   1   2
ATOM      2  O   UNL A   1      41.929  21.634  25.749  1.00  0.00    -0.462 OA
BRANCH   2   3
ATOM      3  C   UNL A   1      43.086  20.933  25.620  1.00  0.00     0.309 C 
ATOM      4  O   UNL A   1      43.156  19.814  25.121  1.00  0.00    -0.252 OA
BRANCH   3   5
ATOM      5  C   UNL A   1      44.312  21.639  26.196  1.00  0.00     0.109 C 
ATOM      6  C   UNL A   1      44.159  23.037  26.856  1.00  0.00     0.041 C 
ATOM      7  C   UNL A   1      43.747  24.103  25.824  1.00  0.00     0.034 C 
ATOM      8  C   UNL A   1      44.617  24.029  24.601  1.00  0.00    -0.031 C 
ATOM      9  C   UNL A   1      45.434  21.718  25.141  1.00  0.00     0.042 C 
ATOM     10  C   UNL A   1      45.403  22.979  24.323  1.00  0.00    -0.030 C 
BRANCH   6  11
ATOM     11  C   UNL A   1      43.352  23.098  28.175  1.00  0.00     0.159 C 
BRANCH  11  12
ATOM     12  C   UNL A   1      44.005  24.020  29.193  1.00  0.00     0.034 A 
ATOM     13  C   UNL A   1      45.063  25.022  31.205  1.00  0.00     0.005 A 
ATOM     14  C   UNL A   1      45.217  25.813  30.087  1.00  0.00     0.016 A 
ATOM     15  S   UNL A   1      44.119  23.635  30.860  1.00  0.00    -0.143 S 
ATOM     16  C   UNL A   1      44.568  25.265  28.949  1.00  0.00     0.018 A 
BRANCH  13  17
ATOM     17  C   UNL A   1      45.584  25.297  32.585  1.00  0.00     0.043 C 
ATOM     18  C   UNL A   1      46.677  26.353  32.627  1.00  0.00     0.010 C 
ENDBRANCH  13  17
ENDBRANCH  11  12
BRANCH  11  19
ATOM     19  O   UNL A   1      43.103  21.824  28.753  1.00  0.00    -0.387 OA
ATOM     20  H   UNL A   1      42.583  21.285  28.138  1.00  0.00     0.211 HD
ENDBRANCH  11  19
ENDBRANCH   6  11
ENDBRANCH   3   5
ENDBRANCH   2   3
ENDBRANCH   1   2
BRANCH   1  21
ATOM     21  C   UNL A   1      39.751  21.876  26.847  1.00  0.00     0.275 C 
BRANCH  21  22
ATOM     22  O   UNL A   1      40.321  23.191  26.863  1.00  0.00    -0.458 OA
BRANCH  22  23
ATOM     23  C   UNL A   1      39.465  24.225  26.712  1.00  0.00     0.338 C 
ATOM     24  O   UNL A   1      38.583  24.321  25.867  1.00  0.00    -0.246 OA
BRANCH  23  25
ATOM     25  C   UNL A   1      39.712  25.231  27.772  1.00  0.00     0.060 A 
ATOM     26  C   UNL A   1      38.929  25.249  28.925  1.00  0.00     0.016 A 
ATOM     27  C   UNL A   1      40.664  26.233  27.581  1.00  0.00     0.016 A 
ATOM     28  C   UNL A   1      39.009  26.316  29.818  1.00  0.00     0.010 A 
ATOM     29  C   UNL A   1      40.818  27.244  28.541  1.00  0.00     0.010 A 
ATOM     30  C   UNL A   1      39.962  27.326  29.655  1.00  0.00    -0.014 A 
BRANCH  30  31
ATOM     31  C   UNL A   1      40.023  28.487  30.595  1.00  0.00     0.031 A 
ATOM     32  C   UNL A   1      41.113  28.557  31.638  1.00  0.00     0.074 A 
ATOM     33  C   UNL A   1      39.140  29.506  30.523  1.00  0.00     0.049 A 
ATOM     34  N   UNL A   1      41.182  29.292  32.718  1.00  0.00    -0.248 NA
ATOM     35  C   UNL A   1      42.269  27.665  31.449  1.00  0.00     0.031 C 
ATOM     36  C   UNL A   1      38.075  29.650  29.528  1.00  0.00     0.029 A 
ATOM     37  N   UNL A   1      39.010  30.633  31.299  1.00  0.00    -0.354 N 
ATOM     38  C   UNL A   1      42.330  28.881  33.388  1.00  0.00     0.074 A 
ATOM     39  C   UNL A   1      42.943  27.852  32.575  1.00  0.00     0.031 C 
ATOM     40  C   UNL A   1      37.459  30.827  29.704  1.00  0.00     0.029 A 
ATOM     41  C   UNL A   1      37.989  31.465  30.903  1.00  0.00     0.049 A 
ATOM     42  H   UNL A   1      39.593  30.828  32.068  1.00  0.00     0.167 HD
ATOM     43  C   UNL A   1      42.815  29.312  34.577  1.00  0.00     0.037 A 
ATOM     44  C   UNL A   1      37.489  32.583  31.464  1.00  0.00     0.037 A 
ATOM     45  C   UNL A   1      42.251  30.402  35.333  1.00  0.00     0.049 A 
ATOM     46  C   UNL A   1      38.031  33.046  32.785  1.00  0.00     0.074 A 
ATOM     47  C   UNL A   1      42.653  30.904  36.559  1.00  0.00     0.029 A 
ATOM     48  N   UNL A   1      41.187  31.185  34.913  1.00  0.00    -0.354 N 
ATOM     49  N   UNL A   1      39.012  32.542  33.494  1.00  0.00    -0.248 NA
ATOM     50  C   UNL A   1      37.366  34.198  33.406  1.00  0.00     0.031 C 
ATOM     51  C   UNL A   1      41.823  31.984  36.885  1.00  0.00     0.029 A 
ATOM     52  C   UNL A   1      40.923  32.171  35.849  1.00  0.00     0.049 A 
ATOM     53  H   UNL A   1      40.690  31.057  34.072  1.00  0.00     0.167 HD
ATOM     54  C   UNL A   1      39.075  33.310  34.650  1.00  0.00     0.074 A 
ATOM     55  C   UNL A   1      38.051  34.330  34.533  1.00  0.00     0.031 C 
ATOM     56  C   UNL A   1      39.899  33.174  35.719  1.00  0.00     0.037 A 
BRANCH  43  57
ATOM     57  C   UNL A   1      43.981  28.564  35.162  1.00  0.00     0.058 A 
ATOM     58  C   UNL A   1      45.308  28.986  34.990  1.00  0.00     0.135 A 
ATOM     59  C   UNL A   1      43.756  27.399  35.915  1.00  0.00     0.135 A 
ATOM     60  F   UNL A   1      45.579  30.082  34.264  1.00  0.00    -0.206 F 
ATOM     61  C   UNL A   1      46.374  28.259  35.514  1.00  0.00     0.059 A 
ATOM     62  C   UNL A   1      44.805  26.670  36.468  1.00  0.00     0.059 A 
ATOM     63  F   UNL A   1      42.506  26.951  36.112  1.00  0.00    -0.206 F 
ATOM     64  C   UNL A   1      46.112  27.098  36.243  1.00  0.00     0.060 A 
BRANCH  64  65
ATOM     65  S   UNL A   1      47.501  26.147  36.899  1.00  0.00     0.124 S 
ATOM     66  O   UNL A   1      48.406  27.211  37.322  1.00  0.00    -0.237 OA
ATOM     67  O   UNL A   1      46.881  25.378  37.974  1.00  0.00    -0.237 OA
ATOM     68  O   UNL A   1      47.945  25.362  35.751  1.00  0.00    -0.744 OA
ENDBRANCH  64  65
ENDBRANCH  43  57
BRANCH  44  69
ATOM     69  C   UNL A   1      36.372  33.306  30.800  1.00  0.00     0.058 A 
ATOM     70  C   UNL A   1      35.069  33.236  31.315  1.00  0.00     0.135 A 
ATOM     71  C   UNL A   1      36.589  34.113  29.673  1.00  0.00     0.135 A 
ATOM     72  F   UNL A   1      34.810  32.463  32.382  1.00  0.00    -0.206 F 
ATOM     73  C   UNL A   1      34.022  33.951  30.744  1.00  0.00     0.059 A 
ATOM     74  C   UNL A   1      35.565  34.858  29.100  1.00  0.00     0.059 A 
ATOM     75  F   UNL A   1      37.819  34.217  29.147  1.00  0.00    -0.206 F 
ATOM     76  C   UNL A   1      34.282  34.768  29.642  1.00  0.00     0.060 A 
BRANCH  76  77
ATOM     77  S   UNL A   1      32.944  35.773  28.962  1.00  0.00     0.124 S 
ATOM     78  O   UNL A   1      32.161  36.065  30.157  1.00  0.00    -0.237 OA
ATOM     79  O   UNL A   1      33.666  36.901  28.380  1.00  0.00    -0.237 OA
ATOM     80  O   UNL A   1      32.316  34.878  27.995  1.00  0.00    -0.744 OA
ENDBRANCH  76  77
ENDBRANCH  44  69
BRANCH  56  81
ATOM     81  C   UNL A   1      39.734  34.163  36.835  1.00  0.00     0.058 A 
ATOM     82  C   UNL A   1      40.400  35.399  36.819  1.00  0.00     0.135 A 
ATOM     83  C   UNL A   1      38.885  33.884  37.916  1.00  0.00     0.135 A 
ATOM     84  F   UNL A   1      41.230  35.707  35.811  1.00  0.00    -0.206 F 
ATOM     85  C   UNL A   1      40.246  36.317  37.853  1.00  0.00     0.059 A 
ATOM     86  C   UNL A   1      38.703  34.795  38.951  1.00  0.00     0.059 A 
ATOM     87  F   UNL A   1      38.222  32.718  37.971  1.00  0.00    -0.206 F 
ATOM     88  C   UNL A   1      39.397  36.004  38.917  1.00  0.00     0.060 A 
BRANCH  88  89
ATOM     89  S   UNL A   1      39.188  37.209  40.246  1.00  0.00     0.124 S 
ATOM     90  O   UNL A   1      40.565  37.637  40.472  1.00  0.00    -0.237 OA
ATOM     91  O   UNL A   1      38.307  38.200  39.639  1.00  0.00    -0.237 OA
ATOM     92  O   UNL A   1      38.590  36.424  41.322  1.00  0.00    -0.744 OA
ENDBRANCH  88  89
ENDBRANCH  56  81
ENDBRANCH  30  31
ENDBRANCH  23  25
ENDBRANCH  22  23
ENDBRANCH  21  22
ENDBRANCH   1  21
TORSDOF 18
ENDMDL
MODEL 3
REMARK VINA RESULT:     -10.6      2.077      3.450
REMARK SMILES CCc1ccc([C@H](O)[C@@H]2CC=CC[C@@H]2C(=O)OCCOC(=O)c2ccc(-c3c4nc(c(-c5c(F)cc(S(=O)(=O)[O-])cc5F)c5ccc([nH]5)c(-c5c(F)cc(S(=O)(=O)[O-])cc5F)c5nc(c(-c6c(F)cc(S(=O)(=O)[O-])cc6F)c6ccc3[nH]6)C=C5)C=C4)cc2)s1
REMARK SMILES IDX 18 1 17 2 15 3 16 4 14 5 9 6 10 7 11 8 13 9 12 10 7 11 6 12
REMARK SMILES IDX 3 13 4 14 89 15 5 16 2 17 1 18 8 19 19 21 20 22 21 23 22 24
REMARK SMILES IDX 23 25 24 26 88 27 25 28 87 29 26 30 27 31 28 32 81 33 29 34
REMARK SMILES IDX 86 35 80 36 82 37 30 38 85 39 79 40 78 41 31 43 65 44 44 45
REMARK SMILES IDX 64 46 45 47 48 48 63 49 83 50 46 51 47 52 62 54 84 55 49 56
REMARK SMILES IDX 32 57 33 58 42 59 34 60 35 61 41 62 43 63 36 64 37 65 38 66
REMARK SMILES IDX 39 67 40 68 66 69 67 70 76 71 68 72 69 73 75 74 77 75 70 76
REMARK SMILES IDX 71 77 72 78 73 79 74 80 50 81 51 82 60 83 52 84 53 85 59 86
REMARK SMILES IDX 61 87 54 88 55 89 56 90 57 91 58 92
REMARK H PARENT 8 20 82 42 48 53
REMARK Flexibility Score: inf
ROOT
ATOM      1  C   UNL A   1      33.524  28.515  26.546  1.00  0.00     0.274 C 
ENDROOT
BRANCH   1   2
ATOM      2  O   UNL A   1      32.165  28.737  26.089  1.00  0.00    -0.462 OA
BRANCH   2   3
ATOM      3  C   UNL A   1      31.407  27.628  25.882  1.00  0.00     0.309 C 
ATOM      4  O   UNL A   1      31.099  26.834  26.765  1.00  0.00    -0.252 OA
BRANCH   3   5
ATOM      5  C   UNL A   1      30.996  27.417  24.426  1.00  0.00     0.109 C 
ATOM      6  C   UNL A   1      31.616  26.248  23.611  1.00  0.00     0.041 C 
ATOM      7  C   UNL A   1      33.126  26.455  23.393  1.00  0.00     0.034 C 
ATOM      8  C   UNL A   1      33.411  27.845  22.898  1.00  0.00    -0.031 C 
ATOM      9  C   UNL A   1      31.172  28.720  23.621  1.00  0.00     0.042 C 
ATOM     10  C   UNL A   1      32.518  28.843  22.962  1.00  0.00    -0.030 C 
BRANCH   6  11
ATOM     11  C   UNL A   1      31.238  24.815  24.053  1.00  0.00     0.159 C 
BRANCH  11  12
ATOM     12  C   UNL A   1      32.453  24.029  24.520  1.00  0.00     0.034 A 
ATOM     13  C   UNL A   1      34.517  22.657  24.684  1.00  0.00     0.005 A 
ATOM     14  C   UNL A   1      34.233  23.312  25.862  1.00  0.00     0.016 A 
ATOM     15  S   UNL A   1      33.305  22.940  23.507  1.00  0.00    -0.143 S 
ATOM     16  C   UNL A   1      33.026  24.055  25.785  1.00  0.00     0.018 A 
BRANCH  13  17
ATOM     17  C   UNL A   1      35.688  21.759  24.409  1.00  0.00     0.043 C 
ATOM     18  C   UNL A   1      36.982  22.509  24.134  1.00  0.00     0.010 C 
ENDBRANCH  13  17
ENDBRANCH  11  12
BRANCH  11  19
ATOM     19  O   UNL A   1      30.528  24.080  23.066  1.00  0.00    -0.387 OA
ATOM     20  H   UNL A   1      29.592  24.028  23.312  1.00  0.00     0.211 HD
ENDBRANCH  11  19
ENDBRANCH   6  11
ENDBRANCH   3   5
ENDBRANCH   2   3
ENDBRANCH   1   2
BRANCH   1  21
ATOM     21  C   UNL A   1      34.044  29.730  27.310  1.00  0.00     0.275 C 
BRANCH  21  22
ATOM     22  O   UNL A   1      35.205  29.331  28.051  1.00  0.00    -0.458 OA
BRANCH  22  23
ATOM     23  C   UNL A   1      35.871  30.307  28.706  1.00  0.00     0.338 C 
ATOM     24  O   UNL A   1      35.373  31.238  29.327  1.00  0.00    -0.246 OA
BRANCH  23  25
ATOM     25  C   UNL A   1      37.329  30.060  28.610  1.00  0.00     0.060 A 
ATOM     26  C   UNL A   1      37.941  29.911  27.366  1.00  0.00     0.016 A 
ATOM     27  C   UNL A   1      38.087  29.871  29.767  1.00  0.00     0.016 A 
ATOM     28  C   UNL A   1      39.258  29.466  27.273  1.00  0.00     0.010 A 
ATOM     29  C   UNL A   1      39.444  29.532  29.667  1.00  0.00     0.010 A 
ATOM     30  C   UNL A   1      40.041  29.281  28.417  1.00  0.00    -0.014 A 
BRANCH  30  31
ATOM     31  C   UNL A   1      41.443  28.769  28.317  1.00  0.00     0.031 A 
ATOM     32  C   UNL A   1      42.604  29.693  28.596  1.00  0.00     0.074 A 
ATOM     33  C   UNL A   1      41.708  27.481  28.009  1.00  0.00     0.049 A 
ATOM     34  N   UNL A   1      43.868  29.553  28.286  1.00  0.00    -0.248 NA
ATOM     35  C   UNL A   1      42.298  30.950  29.298  1.00  0.00     0.031 C 
ATOM     36  C   UNL A   1      40.713  26.429  27.792  1.00  0.00     0.029 A 
ATOM     37  N   UNL A   1      42.907  26.831  27.842  1.00  0.00    -0.354 N 
ATOM     38  C   UNL A   1      44.488  30.741  28.662  1.00  0.00     0.074 A 
ATOM     39  C   UNL A   1      43.464  31.578  29.250  1.00  0.00     0.031 C 
ATOM     40  C   UNL A   1      41.339  25.259  27.602  1.00  0.00     0.029 A 
ATOM     41  C   UNL A   1      42.777  25.494  27.549  1.00  0.00     0.049 A 
ATOM     42  H   UNL A   1      43.780  27.280  27.925  1.00  0.00     0.167 HD
ATOM     43  C   UNL A   1      45.785  31.102  28.512  1.00  0.00     0.037 A 
ATOM     44  C   UNL A   1      43.696  24.567  27.215  1.00  0.00     0.037 A 
ATOM     45  C   UNL A   1      46.815  30.227  28.012  1.00  0.00     0.049 A 
ATOM     46  C   UNL A   1      45.129  24.982  27.046  1.00  0.00     0.074 A 
ATOM     47  C   UNL A   1      48.156  30.501  27.802  1.00  0.00     0.029 A 
ATOM     48  N   UNL A   1      46.625  28.894  27.683  1.00  0.00    -0.354 N 
ATOM     49  N   UNL A   1      45.673  26.159  27.242  1.00  0.00    -0.248 NA
ATOM     50  C   UNL A   1      46.062  23.956  26.564  1.00  0.00     0.031 C 
ATOM     51  C   UNL A   1      48.774  29.334  27.334  1.00  0.00     0.029 A 
ATOM     52  C   UNL A   1      47.823  28.328  27.279  1.00  0.00     0.049 A 
ATOM     53  H   UNL A   1      45.764  28.419  27.727  1.00  0.00     0.167 HD
ATOM     54  C   UNL A   1      47.011  26.017  26.897  1.00  0.00     0.074 A 
ATOM     55  C   UNL A   1      47.200  24.633  26.505  1.00  0.00     0.031 C 
ATOM     56  C   UNL A   1      47.992  26.952  26.890  1.00  0.00     0.037 A 
BRANCH  43  57
ATOM     57  C   UNL A   1      46.150  32.524  28.840  1.00  0.00     0.058 A 
ATOM     58  C   UNL A   1      46.614  32.908  30.107  1.00  0.00     0.135 A 
ATOM     59  C   UNL A   1      46.034  33.519  27.854  1.00  0.00     0.135 A 
ATOM     60  F   UNL A   1      46.725  32.000  31.089  1.00  0.00    -0.206 F 
ATOM     61  C   UNL A   1      46.916  34.236  30.396  1.00  0.00     0.059 A 
ATOM     62  C   UNL A   1      46.353  34.848  28.115  1.00  0.00     0.059 A 
ATOM     63  F   UNL A   1      45.598  33.206  26.624  1.00  0.00    -0.206 F 
ATOM     64  C   UNL A   1      46.773  35.200  29.396  1.00  0.00     0.060 A 
BRANCH  64  65
ATOM     65  S   UNL A   1      47.143  36.924  29.786  1.00  0.00     0.124 S 
ATOM     66  O   UNL A   1      47.545  36.825  31.185  1.00  0.00    -0.237 OA
ATOM     67  O   UNL A   1      48.210  37.242  28.842  1.00  0.00    -0.237 OA
ATOM     68  O   UNL A   1      45.875  37.605  29.543  1.00  0.00    -0.744 OA
ENDBRANCH  64  65
ENDBRANCH  43  57
BRANCH  44  69
ATOM     69  C   UNL A   1      43.271  23.165  26.961  1.00  0.00     0.058 A 
ATOM     70  C   UNL A   1      43.009  22.722  25.656  1.00  0.00     0.135 A 
ATOM     71  C   UNL A   1      43.163  22.231  28.004  1.00  0.00     0.135 A 
ATOM     72  F   UNL A   1      43.084  23.583  24.628  1.00  0.00    -0.206 F 
ATOM     73  C   UNL A   1      42.668  21.400  25.391  1.00  0.00     0.059 A 
ATOM     74  C   UNL A   1      42.849  20.899  27.761  1.00  0.00     0.059 A 
ATOM     75  F   UNL A   1      43.408  22.605  29.268  1.00  0.00    -0.206 F 
ATOM     76  C   UNL A   1      42.600  20.493  26.450  1.00  0.00     0.060 A 
BRANCH  76  77
ATOM     77  S   UNL A   1      42.255  18.756  26.094  1.00  0.00     0.124 S 
ATOM     78  O   UNL A   1      42.528  18.133  27.384  1.00  0.00    -0.237 OA
ATOM     79  O   UNL A   1      40.853  18.794  25.687  1.00  0.00    -0.237 OA
ATOM     80  O   UNL A   1      43.199  18.443  25.025  1.00  0.00    -0.744 OA
ENDBRANCH  76  77
ENDBRANCH  44  69
BRANCH  56  81
ATOM     81  C   UNL A   1      49.359  26.503  26.464  1.00  0.00     0.058 A 
ATOM     82  C   UNL A   1      49.820  26.710  25.154  1.00  0.00     0.135 A 
ATOM     83  C   UNL A   1      50.223  25.881  27.377  1.00  0.00     0.135 A 
ATOM     84  F   UNL A   1      49.026  27.292  24.242  1.00  0.00    -0.206 F 
ATOM     85  C   UNL A   1      51.087  26.295  24.759  1.00  0.00     0.059 A 
ATOM     86  C   UNL A   1      51.501  25.474  27.008  1.00  0.00     0.059 A 
ATOM     87  F   UNL A   1      49.828  25.666  28.642  1.00  0.00    -0.206 F 
ATOM     88  C   UNL A   1      51.920  25.674  25.693  1.00  0.00     0.060 A 
BRANCH  88  89
ATOM     89  S   UNL A   1      53.570  25.155  25.177  1.00  0.00     0.124 S 
ATOM     90  O   UNL A   1      53.602  25.613  23.792  1.00  0.00    -0.237 OA
ATOM     91  O   UNL A   1      54.434  25.877  26.104  1.00  0.00    -0.237 OA
ATOM     92  O   UNL A   1      53.540  23.706  25.358  1.00  0.00    -0.744 OA
ENDBRANCH  88  89
ENDBRANCH  56  81
ENDBRANCH  30  31
ENDBRANCH  23  25
ENDBRANCH  22  23
ENDBRANCH  21  22
ENDBRANCH   1  21
TORSDOF 18
ENDMDL
