MODEL 1
REMARK VINA RESULT:     -11.4      0.000      0.000
REMARK SMILES O=C(C[C@H]1C[C@H]2CC[C@@H](C1)[N@H+]2[C@@H]1CCCSC1)OCCOC(=O)c1ccc(-c2c3nc(c(-c4c(F)cc(S(=O)(=O)[O-])cc4F)c4ccc([nH]4)c(-c4c(F)cc(S(=O)(=O)[O-])cc4F)c4nc(c(-c5c(F)cc(S(=O)(=O)[O-])cc5F)c5ccc2[nH]5)C=C4)C=C3)cc1
REMARK SMILES IDX 20 1 19 2 18 3 2 4 1 5 3 6 4 7 5 8 10 9 6 10 9 11 7 12 11 13
REMARK SMILES IDX 8 14 12 16 13 17 17 18 14 19 16 20 15 21 21 22 22 23 23 24
REMARK SMILES IDX 24 25 25 26 89 27 26 28 88 29 27 30 28 31 29 32 82 33 30 34
REMARK SMILES IDX 87 35 81 36 83 37 31 38 86 39 80 40 79 41 32 43 66 44 45 45
REMARK SMILES IDX 65 46 46 47 49 48 64 49 84 50 47 51 48 52 63 54 85 55 50 56
REMARK SMILES IDX 33 57 34 58 43 59 35 60 36 61 42 62 44 63 37 64 38 65 39 66
REMARK SMILES IDX 40 67 41 68 67 69 68 70 77 71 69 72 70 73 76 74 78 75 71 76
REMARK SMILES IDX 72 77 73 78 74 79 75 80 51 81 52 82 61 83 53 84 54 85 60 86
REMARK SMILES IDX 62 87 55 88 56 89 57 90 58 91 59 92
REMARK H PARENT 11 15 83 42 49 53
REMARK Flexibility Score: inf
ROOT
ATOM      1  C   UNL A   1      40.654  22.927  26.754  1.00  0.00     0.275 C 
ENDROOT
BRANCH   1   2
ATOM      2  C   UNL A   1      39.668  21.820  26.383  1.00  0.00     0.274 C 
BRANCH   2   3
ATOM      3  O   UNL A   1      38.394  22.340  25.951  1.00  0.00    -0.462 OA
BRANCH   3   4
ATOM      4  C   UNL A   1      37.409  21.544  25.463  1.00  0.00     0.306 C 
ATOM      5  O   UNL A   1      37.654  20.674  24.634  1.00  0.00    -0.252 OA
BRANCH   4   6
ATOM      6  C   UNL A   1      35.992  21.852  25.893  1.00  0.00     0.126 C 
BRANCH   6   7
ATOM      7  C   UNL A   1      35.543  23.293  25.597  1.00  0.00     0.012 C 
ATOM      8  C   UNL A   1      35.647  23.607  24.077  1.00  0.00     0.069 C 
ATOM      9  C   UNL A   1      34.183  23.631  26.259  1.00  0.00     0.069 C 
ATOM     10  C   UNL A   1      34.334  23.956  23.376  1.00  0.00     0.185 C 
ATOM     11  C   UNL A   1      33.048  23.986  25.292  1.00  0.00     0.185 C 
ATOM     12  C   UNL A   1      33.459  22.704  23.282  1.00  0.00     0.071 C 
ATOM     13  N   UNL A   1      33.480  24.813  24.176  1.00  0.00    -0.327 N 
ATOM     14  C   UNL A   1      32.590  22.739  24.535  1.00  0.00     0.071 C 
ATOM     15  H   UNL A   1      32.659  25.122  23.656  1.00  0.00     0.348 HD
BRANCH  13  16
ATOM     16  C   UNL A   1      33.753  26.244  24.302  1.00  0.00     0.194 C 
ATOM     17  C   UNL A   1      33.249  26.928  25.587  1.00  0.00     0.067 C 
ATOM     18  C   UNL A   1      33.273  26.967  23.021  1.00  0.00     0.134 C 
ATOM     19  C   UNL A   1      33.554  28.420  25.678  1.00  0.00     0.017 C 
ATOM     20  S   UNL A   1      33.681  28.743  22.974  1.00  0.00    -0.156 SA
ATOM     21  C   UNL A   1      32.930  29.216  24.547  1.00  0.00     0.070 C 
ENDBRANCH  13  16
ENDBRANCH   6   7
ENDBRANCH   4   6
ENDBRANCH   3   4
ENDBRANCH   2   3
ENDBRANCH   1   2
BRANCH   1  22
ATOM     22  O   UNL A   1      40.165  24.212  26.326  1.00  0.00    -0.458 OA
BRANCH  22  23
ATOM     23  C   UNL A   1      41.097  25.192  26.209  1.00  0.00     0.338 C 
ATOM     24  O   UNL A   1      41.805  25.403  25.239  1.00  0.00    -0.246 OA
BRANCH  23  25
ATOM     25  C   UNL A   1      40.998  26.111  27.372  1.00  0.00     0.060 A 
ATOM     26  C   UNL A   1      39.886  25.980  28.214  1.00  0.00     0.016 A 
ATOM     27  C   UNL A   1      41.995  27.046  27.675  1.00  0.00     0.016 A 
ATOM     28  C   UNL A   1      39.758  26.788  29.347  1.00  0.00     0.010 A 
ATOM     29  C   UNL A   1      41.865  27.854  28.814  1.00  0.00     0.010 A 
ATOM     30  C   UNL A   1      40.736  27.744  29.649  1.00  0.00    -0.014 A 
BRANCH  30  31
ATOM     31  C   UNL A   1      40.513  28.726  30.744  1.00  0.00     0.031 A 
ATOM     32  C   UNL A   1      41.292  28.567  32.017  1.00  0.00     0.074 A 
ATOM     33  C   UNL A   1      39.651  29.754  30.622  1.00  0.00     0.049 A 
ATOM     34  N   UNL A   1      41.294  29.325  33.082  1.00  0.00    -0.248 NA
ATOM     35  C   UNL A   1      42.200  27.411  32.094  1.00  0.00     0.031 C 
ATOM     36  C   UNL A   1      38.861  30.054  29.434  1.00  0.00     0.029 A 
ATOM     37  N   UNL A   1      39.275  30.726  31.517  1.00  0.00    -0.354 N 
ATOM     38  C   UNL A   1      42.242  28.773  33.930  1.00  0.00     0.074 A 
ATOM     39  C   UNL A   1      42.726  27.563  33.299  1.00  0.00     0.031 C 
ATOM     40  C   UNL A   1      38.038  31.085  29.691  1.00  0.00     0.029 A 
ATOM     41  C   UNL A   1      38.270  31.546  31.057  1.00  0.00     0.049 A 
ATOM     42  H   UNL A   1      39.686  30.826  32.405  1.00  0.00     0.167 HD
ATOM     43  C   UNL A   1      42.711  29.254  35.105  1.00  0.00     0.037 A 
ATOM     44  C   UNL A   1      37.619  32.559  31.663  1.00  0.00     0.037 A 
ATOM     45  C   UNL A   1      42.216  30.438  35.753  1.00  0.00     0.049 A 
ATOM     46  C   UNL A   1      38.066  33.004  33.031  1.00  0.00     0.074 A 
ATOM     47  C   UNL A   1      42.629  31.004  36.946  1.00  0.00     0.029 A 
ATOM     48  N   UNL A   1      41.187  31.231  35.269  1.00  0.00    -0.354 N 
ATOM     49  N   UNL A   1      39.024  32.520  33.784  1.00  0.00    -0.248 NA
ATOM     50  C   UNL A   1      37.374  34.163  33.615  1.00  0.00     0.031 C 
ATOM     51  C   UNL A   1      41.825  32.120  37.202  1.00  0.00     0.029 A 
ATOM     52  C   UNL A   1      40.937  32.271  36.148  1.00  0.00     0.049 A 
ATOM     53  H   UNL A   1      40.705  31.078  34.425  1.00  0.00     0.167 HD
ATOM     54  C   UNL A   1      39.089  33.348  34.899  1.00  0.00     0.074 A 
ATOM     55  C   UNL A   1      38.065  34.358  34.729  1.00  0.00     0.031 C 
ATOM     56  C   UNL A   1      39.932  33.286  35.960  1.00  0.00     0.037 A 
BRANCH  43  57
ATOM     57  C   UNL A   1      43.839  28.497  35.737  1.00  0.00     0.058 A 
ATOM     58  C   UNL A   1      45.175  28.795  35.422  1.00  0.00     0.135 A 
ATOM     59  C   UNL A   1      43.593  27.458  36.648  1.00  0.00     0.135 A 
ATOM     60  F   UNL A   1      45.459  29.766  34.537  1.00  0.00    -0.206 F 
ATOM     61  C   UNL A   1      46.228  28.068  35.960  1.00  0.00     0.059 A 
ATOM     62  C   UNL A   1      44.633  26.732  37.217  1.00  0.00     0.059 A 
ATOM     63  F   UNL A   1      42.333  27.130  36.974  1.00  0.00    -0.206 F 
ATOM     64  C   UNL A   1      45.946  27.033  36.853  1.00  0.00     0.060 A 
BRANCH  64  65
ATOM     65  S   UNL A   1      47.324  26.081  37.525  1.00  0.00     0.124 S 
ATOM     66  O   UNL A   1      46.708  24.769  37.704  1.00  0.00    -0.237 OA
ATOM     67  O   UNL A   1      48.317  26.175  36.461  1.00  0.00    -0.237 OA
ATOM     68  O   UNL A   1      47.656  26.790  38.756  1.00  0.00    -0.744 OA
ENDBRANCH  64  65
ENDBRANCH  43  57
BRANCH  44  69
ATOM     69  C   UNL A   1      36.494  33.254  30.981  1.00  0.00     0.058 A 
ATOM     70  C   UNL A   1      36.719  34.113  29.895  1.00  0.00     0.135 A 
ATOM     71  C   UNL A   1      35.174  33.112  31.439  1.00  0.00     0.135 A 
ATOM     72  F   UNL A   1      37.964  34.287  29.426  1.00  0.00    -0.206 F 
ATOM     73  C   UNL A   1      35.684  34.838  29.312  1.00  0.00     0.059 A 
ATOM     74  C   UNL A   1      34.119  33.811  30.859  1.00  0.00     0.059 A 
ATOM     75  F   UNL A   1      34.905  32.294  32.468  1.00  0.00    -0.206 F 
ATOM     76  C   UNL A   1      34.387  34.686  29.808  1.00  0.00     0.060 A 
BRANCH  76  77
ATOM     77  S   UNL A   1      33.053  35.636  29.045  1.00  0.00     0.124 S 
ATOM     78  O   UNL A   1      33.790  36.723  28.413  1.00  0.00    -0.237 OA
ATOM     79  O   UNL A   1      32.458  34.657  28.140  1.00  0.00    -0.237 OA
ATOM     80  O   UNL A   1      32.219  36.015  30.181  1.00  0.00    -0.744 OA
ENDBRANCH  76  77
ENDBRANCH  44  69
BRANCH  56  81
ATOM     81  C   UNL A   1      39.828  34.371  36.994  1.00  0.00     0.058 A 
ATOM     82  C   UNL A   1      40.528  35.582  36.872  1.00  0.00     0.135 A 
ATOM     83  C   UNL A   1      38.979  34.214  38.101  1.00  0.00     0.135 A 
ATOM     84  F   UNL A   1      41.358  35.779  35.836  1.00  0.00    -0.206 F 
ATOM     85  C   UNL A   1      40.404  36.590  37.822  1.00  0.00     0.059 A 
ATOM     86  C   UNL A   1      38.820  35.219  39.050  1.00  0.00     0.059 A 
ATOM     87  F   UNL A   1      38.279  33.078  38.261  1.00  0.00    -0.206 F 
ATOM     88  C   UNL A   1      39.547  36.400  38.908  1.00  0.00     0.060 A 
BRANCH  88  89
ATOM     89  S   UNL A   1      39.364  37.730  40.114  1.00  0.00     0.124 S 
ATOM     90  O   UNL A   1      38.201  38.441  39.593  1.00  0.00    -0.237 OA
ATOM     91  O   UNL A   1      39.155  36.999  41.360  1.00  0.00    -0.237 OA
ATOM     92  O   UNL A   1      40.632  38.448  40.023  1.00  0.00    -0.744 OA
ENDBRANCH  88  89
ENDBRANCH  56  81
ENDBRANCH  30  31
ENDBRANCH  23  25
ENDBRANCH  22  23
ENDBRANCH   1  22
TORSDOF 16
ENDMDL
MODEL 2
REMARK VINA RESULT:     -11.2      6.587     12.247
REMARK SMILES O=C(C[C@H]1C[C@H]2CC[C@@H](C1)[N@H+]2[C@@H]1CCCSC1)OCCOC(=O)c1ccc(-c2c3nc(c(-c4c(F)cc(S(=O)(=O)[O-])cc4F)c4ccc([nH]4)c(-c4c(F)cc(S(=O)(=O)[O-])cc4F)c4nc(c(-c5c(F)cc(S(=O)(=O)[O-])cc5F)c5ccc2[nH]5)C=C4)C=C3)cc1
REMARK SMILES IDX 20 1 19 2 18 3 2 4 1 5 3 6 4 7 5 8 10 9 6 10 9 11 7 12 11 13
REMARK SMILES IDX 8 14 12 16 13 17 17 18 14 19 16 20 15 21 21 22 22 23 23 24
REMARK SMILES IDX 24 25 25 26 89 27 26 28 88 29 27 30 28 31 29 32 82 33 30 34
REMARK SMILES IDX 87 35 81 36 83 37 31 38 86 39 80 40 79 41 32 43 66 44 45 45
REMARK SMILES IDX 65 46 46 47 49 48 64 49 84 50 47 51 48 52 63 54 85 55 50 56
REMARK SMILES IDX 33 57 34 58 43 59 35 60 36 61 42 62 44 63 37 64 38 65 39 66
REMARK SMILES IDX 40 67 41 68 67 69 68 70 77 71 69 72 70 73 76 74 78 75 71 76
REMARK SMILES IDX 72 77 73 78 74 79 75 80 51 81 52 82 61 83 53 84 54 85 60 86
REMARK SMILES IDX 62 87 55 88 56 89 57 90 58 91 59 92
REMARK H PARENT 11 15 83 42 49 53
REMARK Flexibility Score: inf
ROOT
ATOM      1  C   UNL A   1      34.870  32.164  29.831  1.00  0.00     0.275 C 
ENDROOT
BRANCH   1   2
ATOM      2  C   UNL A   1      34.915  32.098  28.305  1.00  0.00     0.274 C 
BRANCH   2   3
ATOM      3  O   UNL A   1      34.076  31.052  27.775  1.00  0.00    -0.462 OA
BRANCH   3   4
ATOM      4  C   UNL A   1      34.560  29.832  27.433  1.00  0.00     0.306 C 
ATOM      5  O   UNL A   1      35.739  29.685  27.123  1.00  0.00    -0.252 OA
BRANCH   4   6
ATOM      6  C   UNL A   1      33.568  28.694  27.335  1.00  0.00     0.126 C 
BRANCH   6   7
ATOM      7  C   UNL A   1      32.399  28.959  26.371  1.00  0.00     0.012 C 
ATOM      8  C   UNL A   1      32.900  29.628  25.059  1.00  0.00     0.069 C 
ATOM      9  C   UNL A   1      31.499  27.712  26.185  1.00  0.00     0.069 C 
ATOM     10  C   UNL A   1      32.668  28.834  23.774  1.00  0.00     0.185 C 
ATOM     11  C   UNL A   1      31.430  27.153  24.759  1.00  0.00     0.185 C 
ATOM     12  C   UNL A   1      33.585  27.610  23.759  1.00  0.00     0.071 C 
ATOM     13  N   UNL A   1      31.370  28.189  23.738  1.00  0.00    -0.327 N 
ATOM     14  C   UNL A   1      32.757  26.492  24.386  1.00  0.00     0.071 C 
ATOM     15  H   UNL A   1      31.187  27.752  22.835  1.00  0.00     0.348 HD
BRANCH  13  16
ATOM     16  C   UNL A   1      30.156  28.951  23.446  1.00  0.00     0.194 C 
ATOM     17  C   UNL A   1      28.845  28.145  23.356  1.00  0.00     0.067 C 
ATOM     18  C   UNL A   1      30.396  29.827  22.193  1.00  0.00     0.134 C 
ATOM     19  C   UNL A   1      27.604  28.978  23.050  1.00  0.00     0.017 C 
ATOM     20  S   UNL A   1      29.014  30.946  21.794  1.00  0.00    -0.156 SA
ATOM     21  C   UNL A   1      27.701  29.707  21.722  1.00  0.00     0.070 C 
ENDBRANCH  13  16
ENDBRANCH   6   7
ENDBRANCH   4   6
ENDBRANCH   3   4
ENDBRANCH   2   3
ENDBRANCH   1   2
BRANCH   1  22
ATOM     22  O   UNL A   1      35.821  31.251  30.410  1.00  0.00    -0.458 OA
BRANCH  22  23
ATOM     23  C   UNL A   1      36.918  31.817  30.976  1.00  0.00     0.338 C 
ATOM     24  O   UNL A   1      36.925  32.606  31.905  1.00  0.00    -0.246 OA
BRANCH  23  25
ATOM     25  C   UNL A   1      38.142  31.182  30.425  1.00  0.00     0.060 A 
ATOM     26  C   UNL A   1      39.207  30.946  31.304  1.00  0.00     0.016 A 
ATOM     27  C   UNL A   1      38.237  30.769  29.090  1.00  0.00     0.016 A 
ATOM     28  C   UNL A   1      40.370  30.314  30.854  1.00  0.00     0.010 A 
ATOM     29  C   UNL A   1      39.404  30.134  28.642  1.00  0.00     0.010 A 
ATOM     30  C   UNL A   1      40.486  29.917  29.516  1.00  0.00    -0.014 A 
BRANCH  30  31
ATOM     31  C   UNL A   1      41.786  29.416  28.994  1.00  0.00     0.031 A 
ATOM     32  C   UNL A   1      42.907  30.396  28.802  1.00  0.00     0.074 A 
ATOM     33  C   UNL A   1      41.990  28.116  28.704  1.00  0.00     0.049 A 
ATOM     34  N   UNL A   1      44.132  30.179  28.404  1.00  0.00    -0.248 NA
ATOM     35  C   UNL A   1      42.611  31.804  29.116  1.00  0.00     0.031 C 
ATOM     36  C   UNL A   1      41.011  27.050  28.879  1.00  0.00     0.029 A 
ATOM     37  N   UNL A   1      43.083  27.471  28.179  1.00  0.00    -0.354 N 
ATOM     38  C   UNL A   1      44.770  31.409  28.474  1.00  0.00     0.074 A 
ATOM     39  C   UNL A   1      43.773  32.385  28.860  1.00  0.00     0.031 C 
ATOM     40  C   UNL A   1      41.511  25.898  28.400  1.00  0.00     0.029 A 
ATOM     41  C   UNL A   1      42.868  26.136  27.917  1.00  0.00     0.049 A 
ATOM     42  H   UNL A   1      43.941  27.921  28.005  1.00  0.00     0.167 HD
ATOM     43  C   UNL A   1      46.079  31.696  28.288  1.00  0.00     0.037 A 
ATOM     44  C   UNL A   1      43.676  25.211  27.361  1.00  0.00     0.037 A 
ATOM     45  C   UNL A   1      47.070  30.740  27.876  1.00  0.00     0.049 A 
ATOM     46  C   UNL A   1      45.100  25.580  27.035  1.00  0.00     0.074 A 
ATOM     47  C   UNL A   1      48.422  30.939  27.661  1.00  0.00     0.029 A 
ATOM     48  N   UNL A   1      46.813  29.406  27.602  1.00  0.00    -0.354 N 
ATOM     49  N   UNL A   1      45.708  26.731  27.189  1.00  0.00    -0.248 NA
ATOM     50  C   UNL A   1      45.961  24.513  26.504  1.00  0.00     0.031 C 
ATOM     51  C   UNL A   1      48.977  29.731  27.223  1.00  0.00     0.029 A 
ATOM     52  C   UNL A   1      47.977  28.772  27.202  1.00  0.00     0.049 A 
ATOM     53  H   UNL A   1      45.933  28.972  27.681  1.00  0.00     0.167 HD
ATOM     54  C   UNL A   1      47.034  26.511  26.829  1.00  0.00     0.074 A 
ATOM     55  C   UNL A   1      47.136  25.120  26.440  1.00  0.00     0.031 C 
ATOM     56  C   UNL A   1      48.075  27.381  26.838  1.00  0.00     0.037 A 
BRANCH  43  57
ATOM     57  C   UNL A   1      46.500  33.108  28.561  1.00  0.00     0.058 A 
ATOM     58  C   UNL A   1      46.904  33.504  29.848  1.00  0.00     0.135 A 
ATOM     59  C   UNL A   1      46.488  34.077  27.547  1.00  0.00     0.135 A 
ATOM     60  F   UNL A   1      46.909  32.618  30.857  1.00  0.00    -0.206 F 
ATOM     61  C   UNL A   1      47.248  34.821  30.127  1.00  0.00     0.059 A 
ATOM     62  C   UNL A   1      46.850  35.396  27.800  1.00  0.00     0.059 A 
ATOM     63  F   UNL A   1      46.102  33.749  26.304  1.00  0.00    -0.206 F 
ATOM     64  C   UNL A   1      47.211  35.761  29.097  1.00  0.00     0.060 A 
BRANCH  64  65
ATOM     65  S   UNL A   1      47.636  37.472  29.481  1.00  0.00     0.124 S 
ATOM     66  O   UNL A   1      46.472  38.183  28.960  1.00  0.00    -0.237 OA
ATOM     67  O   UNL A   1      47.763  37.444  30.934  1.00  0.00    -0.237 OA
ATOM     68  O   UNL A   1      48.880  37.684  28.749  1.00  0.00    -0.744 OA
ENDBRANCH  64  65
ENDBRANCH  43  57
BRANCH  44  69
ATOM     69  C   UNL A   1      43.182  23.832  27.101  1.00  0.00     0.058 A 
ATOM     70  C   UNL A   1      43.087  22.885  28.131  1.00  0.00     0.135 A 
ATOM     71  C   UNL A   1      42.847  23.419  25.801  1.00  0.00     0.135 A 
ATOM     72  F   UNL A   1      43.403  23.230  29.389  1.00  0.00    -0.206 F 
ATOM     73  C   UNL A   1      42.715  21.568  27.879  1.00  0.00     0.059 A 
ATOM     74  C   UNL A   1      42.453  22.112  25.528  1.00  0.00     0.059 A 
ATOM     75  F   UNL A   1      42.911  24.289  24.783  1.00  0.00    -0.206 F 
ATOM     76  C   UNL A   1      42.409  21.189  26.571  1.00  0.00     0.060 A 
BRANCH  76  77
ATOM     77  S   UNL A   1      41.932  19.474  26.256  1.00  0.00     0.124 S 
ATOM     78  O   UNL A   1      42.372  18.818  27.481  1.00  0.00    -0.237 OA
ATOM     79  O   UNL A   1      40.488  19.586  26.076  1.00  0.00    -0.237 OA
ATOM     80  O   UNL A   1      42.682  19.134  25.051  1.00  0.00    -0.744 OA
ENDBRANCH  76  77
ENDBRANCH  44  69
BRANCH  56  81
ATOM     81  C   UNL A   1      49.431  26.846  26.471  1.00  0.00     0.058 A 
ATOM     82  C   UNL A   1      50.274  26.249  27.421  1.00  0.00     0.135 A 
ATOM     83  C   UNL A   1      49.871  26.889  25.139  1.00  0.00     0.135 A 
ATOM     84  F   UNL A   1      49.903  26.189  28.710  1.00  0.00    -0.206 F 
ATOM     85  C   UNL A   1      51.516  25.733  27.066  1.00  0.00     0.059 A 
ATOM     86  C   UNL A   1      51.098  26.357  24.756  1.00  0.00     0.059 A 
ATOM     87  F   UNL A   1      49.098  27.441  24.189  1.00  0.00    -0.206 F 
ATOM     88  C   UNL A   1      51.919  25.791  25.730  1.00  0.00     0.060 A 
BRANCH  88  89
ATOM     89  S   UNL A   1      53.516  25.083  25.273  1.00  0.00     0.124 S 
ATOM     90  O   UNL A   1      53.231  23.654  25.332  1.00  0.00    -0.237 OA
ATOM     91  O   UNL A   1      53.733  25.632  23.938  1.00  0.00    -0.237 OA
ATOM     92  O   UNL A   1      54.418  25.588  26.304  1.00  0.00    -0.744 OA
ENDBRANCH  88  89
ENDBRANCH  56  81
ENDBRANCH  30  31
ENDBRANCH  23  25
ENDBRANCH  22  23
ENDBRANCH   1  22
TORSDOF 16
ENDMDL
MODEL 3
REMARK VINA RESULT:     -11.2      3.483      9.814
REMARK SMILES O=C(C[C@H]1C[C@H]2CC[C@@H](C1)[N@H+]2[C@@H]1CCCSC1)OCCOC(=O)c1ccc(-c2c3nc(c(-c4c(F)cc(S(=O)(=O)[O-])cc4F)c4ccc([nH]4)c(-c4c(F)cc(S(=O)(=O)[O-])cc4F)c4nc(c(-c5c(F)cc(S(=O)(=O)[O-])cc5F)c5ccc2[nH]5)C=C4)C=C3)cc1
REMARK SMILES IDX 20 1 19 2 18 3 2 4 1 5 3 6 4 7 5 8 10 9 6 10 9 11 7 12 11 13
REMARK SMILES IDX 8 14 12 16 13 17 17 18 14 19 16 20 15 21 21 22 22 23 23 24
REMARK SMILES IDX 24 25 25 26 89 27 26 28 88 29 27 30 28 31 29 32 82 33 30 34
REMARK SMILES IDX 87 35 81 36 83 37 31 38 86 39 80 40 79 41 32 43 66 44 45 45
REMARK SMILES IDX 65 46 46 47 49 48 64 49 84 50 47 51 48 52 63 54 85 55 50 56
REMARK SMILES IDX 33 57 34 58 43 59 35 60 36 61 42 62 44 63 37 64 38 65 39 66
REMARK SMILES IDX 40 67 41 68 67 69 68 70 77 71 69 72 70 73 76 74 78 75 71 76
REMARK SMILES IDX 72 77 73 78 74 79 75 80 51 81 52 82 61 83 53 84 54 85 60 86
REMARK SMILES IDX 62 87 55 88 56 89 57 90 58 91 59 92
REMARK H PARENT 11 15 83 42 49 53
REMARK Flexibility Score: inf
ROOT
ATOM      1  C   UNL A   1      32.270  29.738  26.934  1.00  0.00     0.275 C 
ENDROOT
BRANCH   1   2
ATOM      2  C   UNL A   1      31.569  30.255  25.679  1.00  0.00     0.274 C 
BRANCH   2   3
ATOM      3  O   UNL A   1      31.859  29.453  24.516  1.00  0.00    -0.462 OA
BRANCH   3   4
ATOM      4  C   UNL A   1      30.938  28.636  23.945  1.00  0.00     0.306 C 
ATOM      5  O   UNL A   1      30.182  29.051  23.073  1.00  0.00    -0.252 OA
BRANCH   4   6
ATOM      6  C   UNL A   1      30.805  27.239  24.510  1.00  0.00     0.126 C 
BRANCH   6   7
ATOM      7  C   UNL A   1      32.100  26.412  24.454  1.00  0.00     0.012 C 
ATOM      8  C   UNL A   1      32.629  26.107  25.885  1.00  0.00     0.069 C 
ATOM      9  C   UNL A   1      31.972  25.187  23.513  1.00  0.00     0.069 C 
ATOM     10  C   UNL A   1      32.704  24.629  26.269  1.00  0.00     0.185 C 
ATOM     11  C   UNL A   1      32.136  23.818  24.184  1.00  0.00     0.185 C 
ATOM     12  C   UNL A   1      31.288  24.074  26.436  1.00  0.00     0.071 C 
ATOM     13  N   UNL A   1      33.188  23.792  25.188  1.00  0.00    -0.327 N 
ATOM     14  C   UNL A   1      30.924  23.513  25.064  1.00  0.00     0.071 C 
ATOM     15  H   UNL A   1      33.333  22.829  25.490  1.00  0.00     0.348 HD
BRANCH  13  16
ATOM     16  C   UNL A   1      34.611  23.742  24.852  1.00  0.00     0.194 C 
ATOM     17  C   UNL A   1      34.993  22.913  23.610  1.00  0.00     0.067 C 
ATOM     18  C   UNL A   1      35.415  23.328  26.108  1.00  0.00     0.134 C 
ATOM     19  C   UNL A   1      36.486  22.888  23.295  1.00  0.00     0.017 C 
ATOM     20  S   UNL A   1      37.223  23.366  25.877  1.00  0.00    -0.156 SA
ATOM     21  C   UNL A   1      37.312  22.297  24.423  1.00  0.00     0.070 C 
ENDBRANCH  13  16
ENDBRANCH   6   7
ENDBRANCH   4   6
ENDBRANCH   3   4
ENDBRANCH   2   3
ENDBRANCH   1   2
BRANCH   1  22
ATOM     22  O   UNL A   1      33.700  29.831  26.796  1.00  0.00    -0.458 OA
BRANCH  22  23
ATOM     23  C   UNL A   1      34.301  30.824  27.501  1.00  0.00     0.338 C 
ATOM     24  O   UNL A   1      33.803  31.891  27.813  1.00  0.00    -0.246 OA
BRANCH  23  25
ATOM     25  C   UNL A   1      35.609  30.343  28.016  1.00  0.00     0.060 A 
ATOM     26  C   UNL A   1      35.630  29.742  29.282  1.00  0.00     0.016 A 
ATOM     27  C   UNL A   1      36.787  30.420  27.263  1.00  0.00     0.016 A 
ATOM     28  C   UNL A   1      36.822  29.232  29.804  1.00  0.00     0.010 A 
ATOM     29  C   UNL A   1      37.981  29.906  27.788  1.00  0.00     0.010 A 
ATOM     30  C   UNL A   1      38.011  29.325  29.070  1.00  0.00    -0.014 A 
BRANCH  30  31
ATOM     31  C   UNL A   1      39.309  28.953  29.696  1.00  0.00     0.031 A 
ATOM     32  C   UNL A   1      39.805  29.769  30.854  1.00  0.00     0.074 A 
ATOM     33  C   UNL A   1      40.039  27.905  29.267  1.00  0.00     0.049 A 
ATOM     34  N   UNL A   1      40.879  29.604  31.580  1.00  0.00    -0.248 NA
ATOM     35  C   UNL A   1      38.971  30.914  31.258  1.00  0.00     0.031 C 
ATOM     36  C   UNL A   1      39.664  27.003  28.186  1.00  0.00     0.029 A 
ATOM     37  N   UNL A   1      41.264  27.433  29.675  1.00  0.00    -0.354 N 
ATOM     38  C   UNL A   1      40.822  30.584  32.559  1.00  0.00     0.074 A 
ATOM     39  C   UNL A   1      39.659  31.400  32.279  1.00  0.00     0.031 C 
ATOM     40  C   UNL A   1      40.664  26.135  27.958  1.00  0.00     0.029 A 
ATOM     41  C   UNL A   1      41.742  26.394  28.909  1.00  0.00     0.049 A 
ATOM     42  H   UNL A   1      41.754  27.804  30.444  1.00  0.00     0.167 HD
ATOM     43  C   UNL A   1      41.631  30.761  33.629  1.00  0.00     0.037 A 
ATOM     44  C   UNL A   1      42.908  25.722  28.973  1.00  0.00     0.037 A 
ATOM     45  C   UNL A   1      42.805  29.975  33.899  1.00  0.00     0.049 A 
ATOM     46  C   UNL A   1      43.865  26.019  30.098  1.00  0.00     0.074 A 
ATOM     47  C   UNL A   1      43.687  30.080  34.958  1.00  0.00     0.029 A 
ATOM     48  N   UNL A   1      43.267  28.946  33.093  1.00  0.00    -0.354 N 
ATOM     49  N   UNL A   1      43.752  26.896  31.067  1.00  0.00    -0.248 NA
ATOM     50  C   UNL A   1      45.088  25.205  30.167  1.00  0.00     0.031 C 
ATOM     51  C   UNL A   1      44.705  29.138  34.775  1.00  0.00     0.029 A 
ATOM     52  C   UNL A   1      44.434  28.420  33.621  1.00  0.00     0.049 A 
ATOM     53  H   UNL A   1      42.831  28.635  32.268  1.00  0.00     0.167 HD
ATOM     54  C   UNL A   1      44.856  26.698  31.890  1.00  0.00     0.074 A 
ATOM     55  C   UNL A   1      45.631  25.627  31.300  1.00  0.00     0.031 C 
ATOM     56  C   UNL A   1      45.187  27.338  33.040  1.00  0.00     0.037 A 
BRANCH  43  57
ATOM     57  C   UNL A   1      41.241  31.838  34.595  1.00  0.00     0.058 A 
ATOM     58  C   UNL A   1      40.379  31.565  35.670  1.00  0.00     0.135 A 
ATOM     59  C   UNL A   1      41.708  33.152  34.442  1.00  0.00     0.135 A 
ATOM     60  F   UNL A   1      39.886  30.327  35.844  1.00  0.00    -0.206 F 
ATOM     61  C   UNL A   1      39.967  32.564  36.543  1.00  0.00     0.059 A 
ATOM     62  C   UNL A   1      41.327  34.163  35.317  1.00  0.00     0.059 A 
ATOM     63  F   UNL A   1      42.526  33.464  33.425  1.00  0.00    -0.206 F 
ATOM     64  C   UNL A   1      40.442  33.863  36.353  1.00  0.00     0.060 A 
BRANCH  64  65
ATOM     65  S   UNL A   1      39.878  35.155  37.479  1.00  0.00     0.124 S 
ATOM     66  O   UNL A   1      40.983  35.210  38.432  1.00  0.00    -0.237 OA
ATOM     67  O   UNL A   1      39.747  36.306  36.594  1.00  0.00    -0.237 OA
ATOM     68  O   UNL A   1      38.625  34.623  38.004  1.00  0.00    -0.744 OA
ENDBRANCH  64  65
ENDBRANCH  43  57
BRANCH  44  69
ATOM     69  C   UNL A   1      43.238  24.677  27.967  1.00  0.00     0.058 A 
ATOM     70  C   UNL A   1      42.919  23.329  28.185  1.00  0.00     0.135 A 
ATOM     71  C   UNL A   1      43.930  25.002  26.789  1.00  0.00     0.135 A 
ATOM     72  F   UNL A   1      42.264  22.968  29.300  1.00  0.00    -0.206 F 
ATOM     73  C   UNL A   1      43.306  22.334  27.293  1.00  0.00     0.059 A 
ATOM     74  C   UNL A   1      44.310  24.027  25.871  1.00  0.00     0.059 A 
ATOM     75  F   UNL A   1      44.249  26.279  26.529  1.00  0.00    -0.206 F 
ATOM     76  C   UNL A   1      44.010  22.693  26.142  1.00  0.00     0.060 A 
BRANCH  76  77
ATOM     77  S   UNL A   1      44.512  21.391  24.993  1.00  0.00     0.124 S 
ATOM     78  O   UNL A   1      43.498  20.374  25.242  1.00  0.00    -0.237 OA
ATOM     79  O   UNL A   1      44.431  22.072  23.705  1.00  0.00    -0.237 OA
ATOM     80  O   UNL A   1      45.863  21.058  25.433  1.00  0.00    -0.744 OA
ENDBRANCH  76  77
ENDBRANCH  44  69
BRANCH  56  81
ATOM     81  C   UNL A   1      46.408  26.860  33.773  1.00  0.00     0.058 A 
ATOM     82  C   UNL A   1      47.672  27.432  33.562  1.00  0.00     0.135 A 
ATOM     83  C   UNL A   1      46.302  25.844  34.737  1.00  0.00     0.135 A 
ATOM     84  F   UNL A   1      47.829  28.402  32.646  1.00  0.00    -0.206 F 
ATOM     85  C   UNL A   1      48.791  27.000  34.265  1.00  0.00     0.059 A 
ATOM     86  C   UNL A   1      47.403  25.414  35.471  1.00  0.00     0.059 A 
ATOM     87  F   UNL A   1      45.114  25.269  34.985  1.00  0.00    -0.206 F 
ATOM     88  C   UNL A   1      48.647  25.991  35.219  1.00  0.00     0.060 A 
BRANCH  88  89
ATOM     89  S   UNL A   1      50.098  25.465  36.155  1.00  0.00     0.124 S 
ATOM     90  O   UNL A   1      50.729  26.743  36.463  1.00  0.00    -0.237 OA
ATOM     91  O   UNL A   1      49.505  24.761  37.288  1.00  0.00    -0.237 OA
ATOM     92  O   UNL A   1      50.822  24.618  35.211  1.00  0.00    -0.744 OA
ENDBRANCH  88  89
ENDBRANCH  56  81
ENDBRANCH  30  31
ENDBRANCH  23  25
ENDBRANCH  22  23
ENDBRANCH   1  22
TORSDOF 16
ENDMDL
