MODEL 1
REMARK VINA RESULT:     -10.5      0.000      0.000
REMARK SMILES CC[NH2+][C@]1(C(=O)OCCOC(=O)c2ccc(-c3c4nc(c(-c5c(F)cc(S(=O)(=O)[O-])cc5F)c5ccc([nH]5)c(-c5c(F)cc(S(=O)(=O)[O-])cc5F)c5nc(c(-c6c(F)cc(S(=O)(=O)[O-])cc6F)c6ccc3[nH]6)C=C5)C=C4)cc2)CCC[C@H]1CCSc1n[nH]c(=O)n1C
REMARK SMILES IDX 8 1 7 2 5 3 6 4 4 5 79 6 82 7 80 8 81 9 3 10 2 13 1 14 83 15
REMARK SMILES IDX 84 16 85 17 86 18 87 19 91 20 88 21 89 22 92 23 90 25 9 26
REMARK SMILES IDX 10 27 11 28 12 29 13 30 14 31 78 32 15 33 77 34 16 35 17 36
REMARK SMILES IDX 18 37 71 38 19 39 76 40 70 41 72 42 20 43 75 44 69 45 68 46
REMARK SMILES IDX 21 48 55 49 34 50 54 51 35 52 38 53 53 54 73 55 36 56 37 57
REMARK SMILES IDX 52 59 74 60 39 61 22 62 23 63 32 64 24 65 25 66 31 67 33 68
REMARK SMILES IDX 26 69 27 70 28 71 29 72 30 73 56 74 57 75 66 76 58 77 59 78
REMARK SMILES IDX 65 79 67 80 60 81 61 82 62 83 63 84 64 85 40 86 41 87 50 88
REMARK SMILES IDX 42 89 43 90 49 91 51 92 44 93 45 94 46 95 47 96 48 97
REMARK H PARENT 3 11 3 12 88 24 72 47 38 58
REMARK Flexibility Score: inf
ROOT
ATOM      1  C   UNL A   1      31.998  27.845  27.266  1.00  0.00     0.274 C 
ENDROOT
BRANCH   1   2
ATOM      2  O   UNL A   1      32.216  26.747  26.352  1.00  0.00    -0.457 OA
BRANCH   2   3
ATOM      3  C   UNL A   1      31.214  26.492  25.473  1.00  0.00     0.368 C 
ATOM      4  O   UNL A   1      30.176  25.918  25.795  1.00  0.00    -0.245 OA
BRANCH   3   5
ATOM      5  C   UNL A   1      31.586  26.815  23.996  1.00  0.00     0.197 C 
ATOM      6  C   UNL A   1      33.125  26.979  23.938  1.00  0.00     0.081 C 
ATOM      7  C   UNL A   1      31.368  25.802  22.806  1.00  0.00     0.063 C 
ATOM      8  C   UNL A   1      33.471  27.120  22.472  1.00  0.00     0.008 C 
ATOM      9  C   UNL A   1      32.482  26.197  21.772  1.00  0.00     0.011 C 
BRANCH   5  10
ATOM     10  N   UNL A   1      31.019  28.173  23.675  1.00  0.00    -0.332 N 
ATOM     11  H   UNL A   1      30.965  28.713  24.539  1.00  0.00     0.347 HD
ATOM     12  H   UNL A   1      31.638  28.605  22.990  1.00  0.00     0.347 HD
BRANCH  10  13
ATOM     13  C   UNL A   1      29.689  28.115  23.081  1.00  0.00     0.257 C 
ATOM     14  C   UNL A   1      29.134  29.507  22.839  1.00  0.00     0.071 C 
ENDBRANCH  10  13
ENDBRANCH   5  10
BRANCH   7  15
ATOM     15  C   UNL A   1      31.495  24.271  23.059  1.00  0.00     0.022 C 
BRANCH  15  16
ATOM     16  C   UNL A   1      32.786  23.529  22.674  1.00  0.00     0.079 C 
BRANCH  16  17
ATOM     17  S   UNL A   1      33.384  22.258  23.828  1.00  0.00    -0.086 SA
BRANCH  17  18
ATOM     18  C   UNL A   1      35.077  22.552  23.899  1.00  0.00     0.191 A 
ATOM     19  N   UNL A   1      35.799  23.056  22.944  1.00  0.00    -0.146 NA
ATOM     20  N   UNL A   1      35.756  22.288  25.038  1.00  0.00    -0.273 N 
ATOM     21  N   UNL A   1      37.031  23.219  23.517  1.00  0.00    -0.226 N 
ATOM     22  C   UNL A   1      37.014  22.779  24.830  1.00  0.00     0.343 A 
ATOM     23  C   UNL A   1      35.343  21.626  26.250  1.00  0.00     0.157 C 
ATOM     24  H   UNL A   1      37.817  23.597  23.061  1.00  0.00     0.195 HD
ATOM     25  O   UNL A   1      37.942  22.847  25.621  1.00  0.00    -0.246 OA
ENDBRANCH  17  18
ENDBRANCH  16  17
ENDBRANCH  15  16
ENDBRANCH   7  15
ENDBRANCH   3   5
ENDBRANCH   2   3
ENDBRANCH   1   2
BRANCH   1  26
ATOM     26  C   UNL A   1      32.792  29.084  26.859  1.00  0.00     0.275 C 
BRANCH  26  27
ATOM     27  O   UNL A   1      34.136  28.994  27.360  1.00  0.00    -0.458 OA
BRANCH  27  28
ATOM     28  C   UNL A   1      34.603  30.124  27.932  1.00  0.00     0.338 C 
ATOM     29  O   UNL A   1      33.962  31.126  28.210  1.00  0.00    -0.246 OA
BRANCH  28  30
ATOM     30  C   UNL A   1      36.025  30.013  28.277  1.00  0.00     0.060 A 
ATOM     31  C   UNL A   1      36.988  30.156  27.286  1.00  0.00     0.016 A 
ATOM     32  C   UNL A   1      36.381  29.532  29.534  1.00  0.00     0.016 A 
ATOM     33  C   UNL A   1      38.276  29.684  27.493  1.00  0.00     0.010 A 
ATOM     34  C   UNL A   1      37.712  29.204  29.791  1.00  0.00     0.010 A 
ATOM     35  C   UNL A   1      38.669  29.252  28.764  1.00  0.00    -0.014 A 
BRANCH  35  36
ATOM     36  C   UNL A   1      40.088  28.926  29.043  1.00  0.00     0.031 A 
ATOM     37  C   UNL A   1      41.034  29.994  29.514  1.00  0.00     0.074 A 
ATOM     38  C   UNL A   1      40.525  27.673  28.799  1.00  0.00     0.049 A 
ATOM     39  N   UNL A   1      42.341  29.991  29.521  1.00  0.00    -0.248 NA
ATOM     40  C   UNL A   1      40.434  31.237  30.025  1.00  0.00     0.031 C 
ATOM     41  C   UNL A   1      39.683  26.546  28.381  1.00  0.00     0.029 A 
ATOM     42  N   UNL A   1      41.785  27.137  28.842  1.00  0.00    -0.354 N 
ATOM     43  C   UNL A   1      42.723  31.246  29.981  1.00  0.00     0.074 A 
ATOM     44  C   UNL A   1      41.507  31.985  30.248  1.00  0.00     0.031 C 
ATOM     45  C   UNL A   1      40.441  25.454  28.229  1.00  0.00     0.029 A 
ATOM     46  C   UNL A   1      41.832  25.831  28.410  1.00  0.00     0.049 A 
ATOM     47  H   UNL A   1      42.577  27.635  29.151  1.00  0.00     0.167 HD
ATOM     48  C   UNL A   1      43.978  31.727  30.149  1.00  0.00     0.037 A 
ATOM     49  C   UNL A   1      42.879  25.044  28.107  1.00  0.00     0.037 A 
ATOM     50  C   UNL A   1      45.164  30.947  29.894  1.00  0.00     0.049 A 
ATOM     51  C   UNL A   1      44.256  25.617  28.240  1.00  0.00     0.074 A 
ATOM     52  C   UNL A   1      46.489  31.319  30.029  1.00  0.00     0.029 A 
ATOM     53  N   UNL A   1      45.164  29.628  29.454  1.00  0.00    -0.354 N 
ATOM     54  N   UNL A   1      44.609  26.821  28.624  1.00  0.00    -0.248 NA
ATOM     55  C   UNL A   1      45.374  24.739  27.884  1.00  0.00     0.031 C 
ATOM     56  C   UNL A   1      47.288  30.241  29.630  1.00  0.00     0.029 A 
ATOM     57  C   UNL A   1      46.464  29.178  29.298  1.00  0.00     0.049 A 
ATOM     58  H   UNL A   1      44.357  29.093  29.277  1.00  0.00     0.167 HD
ATOM     59  C   UNL A   1      45.995  26.840  28.578  1.00  0.00     0.074 A 
ATOM     60  C   UNL A   1      46.413  25.521  28.139  1.00  0.00     0.031 C 
ATOM     61  C   UNL A   1      46.845  27.853  28.871  1.00  0.00     0.037 A 
BRANCH  48  62
ATOM     62  C   UNL A   1      44.140  33.159  30.589  1.00  0.00     0.058 A 
ATOM     63  C   UNL A   1      44.249  34.216  29.671  1.00  0.00     0.135 A 
ATOM     64  C   UNL A   1      44.145  33.486  31.956  1.00  0.00     0.135 A 
ATOM     65  F   UNL A   1      44.265  33.966  28.351  1.00  0.00    -0.206 F 
ATOM     66  C   UNL A   1      44.383  35.538  30.091  1.00  0.00     0.059 A 
ATOM     67  C   UNL A   1      44.249  34.802  32.399  1.00  0.00     0.059 A 
ATOM     68  F   UNL A   1      44.044  32.519  32.882  1.00  0.00    -0.206 F 
ATOM     69  C   UNL A   1      44.382  35.821  31.458  1.00  0.00     0.060 A 
BRANCH  69  70
ATOM     70  S   UNL A   1      44.554  37.540  31.985  1.00  0.00     0.124 S 
ATOM     71  O   UNL A   1      43.777  38.237  30.964  1.00  0.00    -0.237 OA
ATOM     72  O   UNL A   1      43.967  37.518  33.321  1.00  0.00    -0.237 OA
ATOM     73  O   UNL A   1      45.994  37.769  31.939  1.00  0.00    -0.744 OA
ENDBRANCH  69  70
ENDBRANCH  48  62
BRANCH  49  74
ATOM     74  C   UNL A   1      42.643  23.667  27.600  1.00  0.00     0.058 A 
ATOM     75  C   UNL A   1      42.624  23.401  26.224  1.00  0.00     0.135 A 
ATOM     76  C   UNL A   1      42.488  22.580  28.478  1.00  0.00     0.135 A 
ATOM     77  F   UNL A   1      42.768  24.405  25.346  1.00  0.00    -0.206 F 
ATOM     78  C   UNL A   1      42.446  22.112  25.735  1.00  0.00     0.059 A 
ATOM     79  C   UNL A   1      42.343  21.278  28.014  1.00  0.00     0.059 A 
ATOM     80  F   UNL A   1      42.524  22.776  29.805  1.00  0.00    -0.206 F 
ATOM     81  C   UNL A   1      42.310  21.055  26.639  1.00  0.00     0.060 A 
BRANCH  81  82
ATOM     82  S   UNL A   1      42.121  19.381  25.991  1.00  0.00     0.124 S 
ATOM     83  O   UNL A   1      40.680  19.309  25.783  1.00  0.00    -0.237 OA
ATOM     84  O   UNL A   1      42.940  19.424  24.783  1.00  0.00    -0.237 OA
ATOM     85  O   UNL A   1      42.646  18.543  27.065  1.00  0.00    -0.744 OA
ENDBRANCH  81  82
ENDBRANCH  49  74
BRANCH  61  86
ATOM     86  C   UNL A   1      48.312  27.553  28.772  1.00  0.00     0.058 A 
ATOM     87  C   UNL A   1      49.025  27.733  27.578  1.00  0.00     0.135 A 
ATOM     88  C   UNL A   1      49.019  27.121  29.906  1.00  0.00     0.135 A 
ATOM     89  F   UNL A   1      48.388  28.128  26.464  1.00  0.00    -0.206 F 
ATOM     90  C   UNL A   1      50.389  27.480  27.507  1.00  0.00     0.059 A 
ATOM     91  C   UNL A   1      50.388  26.891  29.865  1.00  0.00     0.059 A 
ATOM     92  F   UNL A   1      48.380  26.938  31.073  1.00  0.00    -0.206 F 
ATOM     93  C   UNL A   1      51.063  27.065  28.657  1.00  0.00     0.060 A 
BRANCH  93  94
ATOM     94  S   UNL A   1      52.844  26.791  28.563  1.00  0.00     0.124 S 
ATOM     95  O   UNL A   1      52.937  25.842  27.458  1.00  0.00    -0.237 OA
ATOM     96  O   UNL A   1      53.351  28.132  28.292  1.00  0.00    -0.237 OA
ATOM     97  O   UNL A   1      53.175  26.256  29.880  1.00  0.00    -0.744 OA
ENDBRANCH  93  94
ENDBRANCH  61  86
ENDBRANCH  35  36
ENDBRANCH  28  30
ENDBRANCH  27  28
ENDBRANCH  26  27
ENDBRANCH   1  26
TORSDOF 20
ENDMDL
MODEL 2
REMARK VINA RESULT:     -10.1      4.798     10.188
REMARK SMILES CC[NH2+][C@]1(C(=O)OCCOC(=O)c2ccc(-c3c4nc(c(-c5c(F)cc(S(=O)(=O)[O-])cc5F)c5ccc([nH]5)c(-c5c(F)cc(S(=O)(=O)[O-])cc5F)c5nc(c(-c6c(F)cc(S(=O)(=O)[O-])cc6F)c6ccc3[nH]6)C=C5)C=C4)cc2)CCC[C@H]1CCSc1n[nH]c(=O)n1C
REMARK SMILES IDX 8 1 7 2 5 3 6 4 4 5 79 6 82 7 80 8 81 9 3 10 2 13 1 14 83 15
REMARK SMILES IDX 84 16 85 17 86 18 87 19 91 20 88 21 89 22 92 23 90 25 9 26
REMARK SMILES IDX 10 27 11 28 12 29 13 30 14 31 78 32 15 33 77 34 16 35 17 36
REMARK SMILES IDX 18 37 71 38 19 39 76 40 70 41 72 42 20 43 75 44 69 45 68 46
REMARK SMILES IDX 21 48 55 49 34 50 54 51 35 52 38 53 53 54 73 55 36 56 37 57
REMARK SMILES IDX 52 59 74 60 39 61 22 62 23 63 32 64 24 65 25 66 31 67 33 68
REMARK SMILES IDX 26 69 27 70 28 71 29 72 30 73 56 74 57 75 66 76 58 77 59 78
REMARK SMILES IDX 65 79 67 80 60 81 61 82 62 83 63 84 64 85 40 86 41 87 50 88
REMARK SMILES IDX 42 89 43 90 49 91 51 92 44 93 45 94 46 95 47 96 48 97
REMARK H PARENT 3 11 3 12 88 24 72 47 38 58
REMARK Flexibility Score: inf
ROOT
ATOM      1  C   UNL A   1      36.734  22.092  25.729  1.00  0.00     0.274 C 
ENDROOT
BRANCH   1   2
ATOM      2  O   UNL A   1      36.083  23.375  25.604  1.00  0.00    -0.457 OA
BRANCH   2   3
ATOM      3  C   UNL A   1      34.843  23.473  26.147  1.00  0.00     0.368 C 
ATOM      4  O   UNL A   1      34.546  22.965  27.225  1.00  0.00    -0.245 OA
BRANCH   3   5
ATOM      5  C   UNL A   1      33.795  24.116  25.190  1.00  0.00     0.197 C 
ATOM      6  C   UNL A   1      34.582  24.803  24.047  1.00  0.00     0.081 C 
ATOM      7  C   UNL A   1      32.759  23.273  24.349  1.00  0.00     0.063 C 
ATOM      8  C   UNL A   1      33.542  25.265  23.050  1.00  0.00     0.008 C 
ATOM      9  C   UNL A   1      32.483  24.171  23.090  1.00  0.00     0.011 C 
BRANCH   5  10
ATOM     10  N   UNL A   1      33.117  25.228  25.945  1.00  0.00    -0.332 N 
ATOM     11  H   UNL A   1      33.744  25.545  26.686  1.00  0.00     0.347 HD
ATOM     12  H   UNL A   1      32.911  25.968  25.274  1.00  0.00     0.347 HD
BRANCH  10  13
ATOM     13  C   UNL A   1      31.853  24.827  26.549  1.00  0.00     0.257 C 
ATOM     14  C   UNL A   1      30.734  25.778  26.166  1.00  0.00     0.071 C 
ENDBRANCH  10  13
ENDBRANCH   5  10
BRANCH   7  15
ATOM     15  C   UNL A   1      33.151  21.858  23.830  1.00  0.00     0.022 C 
BRANCH  15  16
ATOM     16  C   UNL A   1      32.552  20.602  24.486  1.00  0.00     0.079 C 
BRANCH  16  17
ATOM     17  S   UNL A   1      32.444  19.107  23.458  1.00  0.00    -0.086 SA
BRANCH  17  18
ATOM     18  C   UNL A   1      32.759  17.836  24.574  1.00  0.00     0.191 A 
ATOM     19  N   UNL A   1      32.259  17.736  25.769  1.00  0.00    -0.146 NA
ATOM     20  N   UNL A   1      33.560  16.809  24.211  1.00  0.00    -0.273 N 
ATOM     21  N   UNL A   1      32.690  16.511  26.201  1.00  0.00    -0.226 N 
ATOM     22  C   UNL A   1      33.472  15.905  25.233  1.00  0.00     0.343 A 
ATOM     23  C   UNL A   1      34.381  16.622  23.041  1.00  0.00     0.157 C 
ATOM     24  H   UNL A   1      32.474  16.116  27.076  1.00  0.00     0.195 HD
ATOM     25  O   UNL A   1      33.954  14.785  25.297  1.00  0.00    -0.246 OA
ENDBRANCH  17  18
ENDBRANCH  16  17
ENDBRANCH  15  16
ENDBRANCH   7  15
ENDBRANCH   3   5
ENDBRANCH   2   3
ENDBRANCH   1   2
BRANCH   1  26
ATOM     26  C   UNL A   1      38.252  22.234  25.803  1.00  0.00     0.275 C 
BRANCH  26  27
ATOM     27  O   UNL A   1      38.609  23.175  26.830  1.00  0.00    -0.458 OA
BRANCH  27  28
ATOM     28  C   UNL A   1      39.798  23.786  26.648  1.00  0.00     0.338 C 
ATOM     29  O   UNL A   1      40.707  23.424  25.918  1.00  0.00    -0.246 OA
BRANCH  28  30
ATOM     30  C   UNL A   1      39.885  25.044  27.401  1.00  0.00     0.060 A 
ATOM     31  C   UNL A   1      40.838  25.991  27.053  1.00  0.00     0.016 A 
ATOM     32  C   UNL A   1      39.178  25.168  28.593  1.00  0.00     0.016 A 
ATOM     33  C   UNL A   1      41.197  26.983  27.954  1.00  0.00     0.010 A 
ATOM     34  C   UNL A   1      39.430  26.256  29.429  1.00  0.00     0.010 A 
ATOM     35  C   UNL A   1      40.461  27.161  29.130  1.00  0.00    -0.014 A 
BRANCH  35  36
ATOM     36  C   UNL A   1      40.713  28.330  30.007  1.00  0.00     0.031 A 
ATOM     37  C   UNL A   1      41.841  28.306  30.999  1.00  0.00     0.074 A 
ATOM     38  C   UNL A   1      39.870  29.381  29.943  1.00  0.00     0.049 A 
ATOM     39  N   UNL A   1      42.040  29.072  32.039  1.00  0.00    -0.248 NA
ATOM     40  C   UNL A   1      42.870  27.270  30.812  1.00  0.00     0.031 C 
ATOM     41  C   UNL A   1      38.767  29.529  28.986  1.00  0.00     0.029 A 
ATOM     42  N   UNL A   1      39.788  30.514  30.709  1.00  0.00    -0.354 N 
ATOM     43  C   UNL A   1      43.181  28.581  32.662  1.00  0.00     0.074 A 
ATOM     44  C   UNL A   1      43.635  27.450  31.881  1.00  0.00     0.031 C 
ATOM     45  C   UNL A   1      38.138  30.689  29.206  1.00  0.00     0.029 A 
ATOM     46  C   UNL A   1      38.705  31.302  30.394  1.00  0.00     0.049 A 
ATOM     47  H   UNL A   1      40.439  30.742  31.413  1.00  0.00     0.167 HD
ATOM     48  C   UNL A   1      43.776  29.036  33.792  1.00  0.00     0.037 A 
ATOM     49  C   UNL A   1      38.169  32.354  31.036  1.00  0.00     0.037 A 
ATOM     50  C   UNL A   1      43.303  30.183  34.527  1.00  0.00     0.049 A 
ATOM     51  C   UNL A   1      38.806  32.801  32.315  1.00  0.00     0.074 A 
ATOM     52  C   UNL A   1      43.820  30.743  35.681  1.00  0.00     0.029 A 
ATOM     53  N   UNL A   1      42.198  30.950  34.173  1.00  0.00    -0.354 N 
ATOM     54  N   UNL A   1      39.853  32.300  32.929  1.00  0.00    -0.248 NA
ATOM     55  C   UNL A   1      38.186  33.940  33.000  1.00  0.00     0.031 C 
ATOM     56  C   UNL A   1      43.005  31.821  36.046  1.00  0.00     0.029 A 
ATOM     57  C   UNL A   1      42.011  31.967  35.092  1.00  0.00     0.049 A 
ATOM     58  H   UNL A   1      41.632  30.791  33.383  1.00  0.00     0.167 HD
ATOM     59  C   UNL A   1      40.032  33.076  34.064  1.00  0.00     0.074 A 
ATOM     60  C   UNL A   1      38.991  34.088  34.043  1.00  0.00     0.031 C 
ATOM     61  C   UNL A   1      40.970  32.965  35.035  1.00  0.00     0.037 A 
BRANCH  48  62
ATOM     62  C   UNL A   1      44.968  28.282  34.322  1.00  0.00     0.058 A 
ATOM     63  C   UNL A   1      44.837  27.202  35.209  1.00  0.00     0.135 A 
ATOM     64  C   UNL A   1      46.266  28.622  33.903  1.00  0.00     0.135 A 
ATOM     65  F   UNL A   1      43.623  26.839  35.656  1.00  0.00    -0.206 F 
ATOM     66  C   UNL A   1      45.946  26.504  35.680  1.00  0.00     0.059 A 
ATOM     67  C   UNL A   1      47.388  27.921  34.338  1.00  0.00     0.059 A 
ATOM     68  F   UNL A   1      46.456  29.646  33.056  1.00  0.00    -0.206 F 
ATOM     69  C   UNL A   1      47.219  26.871  35.238  1.00  0.00     0.060 A 
BRANCH  69  70
ATOM     70  S   UNL A   1      48.647  25.954  35.857  1.00  0.00     0.124 S 
ATOM     71  O   UNL A   1      48.897  25.028  34.757  1.00  0.00    -0.237 OA
ATOM     72  O   UNL A   1      49.641  27.007  36.037  1.00  0.00    -0.237 OA
ATOM     73  O   UNL A   1      48.154  25.344  37.088  1.00  0.00    -0.744 OA
ENDBRANCH  69  70
ENDBRANCH  48  62
BRANCH  49  74
ATOM     74  C   UNL A   1      36.942  33.000  30.499  1.00  0.00     0.058 A 
ATOM     75  C   UNL A   1      35.672  32.612  30.945  1.00  0.00     0.135 A 
ATOM     76  C   UNL A   1      37.015  34.054  29.572  1.00  0.00     0.135 A 
ATOM     77  F   UNL A   1      35.550  31.611  31.831  1.00  0.00    -0.206 F 
ATOM     78  C   UNL A   1      34.517  33.234  30.483  1.00  0.00     0.059 A 
ATOM     79  C   UNL A   1      35.878  34.713  29.120  1.00  0.00     0.059 A 
ATOM     80  F   UNL A   1      38.209  34.481  29.130  1.00  0.00    -0.206 F 
ATOM     81  C   UNL A   1      34.631  34.287  29.572  1.00  0.00     0.060 A 
BRANCH  81  82
ATOM     82  S   UNL A   1      33.127  35.113  29.012  1.00  0.00     0.124 S 
ATOM     83  O   UNL A   1      33.669  36.312  28.386  1.00  0.00    -0.237 OA
ATOM     84  O   UNL A   1      32.552  34.122  28.106  1.00  0.00    -0.237 OA
ATOM     85  O   UNL A   1      32.381  35.328  30.248  1.00  0.00    -0.744 OA
ENDBRANCH  81  82
ENDBRANCH  49  74
BRANCH  61  86
ATOM     86  C   UNL A   1      40.938  33.996  36.125  1.00  0.00     0.058 A 
ATOM     87  C   UNL A   1      41.627  35.212  36.013  1.00  0.00     0.135 A 
ATOM     88  C   UNL A   1      40.169  33.774  37.280  1.00  0.00     0.135 A 
ATOM     89  F   UNL A   1      42.388  35.461  34.935  1.00  0.00    -0.206 F 
ATOM     90  C   UNL A   1      41.566  36.171  37.017  1.00  0.00     0.059 A 
ATOM     91  C   UNL A   1      40.071  34.731  38.282  1.00  0.00     0.059 A 
ATOM     92  F   UNL A   1      39.490  32.626  37.430  1.00  0.00    -0.206 F 
ATOM     93  C   UNL A   1      40.781  35.924  38.145  1.00  0.00     0.060 A 
BRANCH  93  94
ATOM     94  S   UNL A   1      40.670  37.200  39.415  1.00  0.00     0.124 S 
ATOM     95  O   UNL A   1      41.851  38.006  39.125  1.00  0.00    -0.237 OA
ATOM     96  O   UNL A   1      39.385  37.825  39.117  1.00  0.00    -0.237 OA
ATOM     97  O   UNL A   1      40.718  36.442  40.662  1.00  0.00    -0.744 OA
ENDBRANCH  93  94
ENDBRANCH  61  86
ENDBRANCH  35  36
ENDBRANCH  28  30
ENDBRANCH  27  28
ENDBRANCH  26  27
ENDBRANCH   1  26
TORSDOF 20
ENDMDL
MODEL 3
REMARK VINA RESULT:      -9.9      5.216     10.036
REMARK SMILES CC[NH2+][C@]1(C(=O)OCCOC(=O)c2ccc(-c3c4nc(c(-c5c(F)cc(S(=O)(=O)[O-])cc5F)c5ccc([nH]5)c(-c5c(F)cc(S(=O)(=O)[O-])cc5F)c5nc(c(-c6c(F)cc(S(=O)(=O)[O-])cc6F)c6ccc3[nH]6)C=C5)C=C4)cc2)CCC[C@H]1CCSc1n[nH]c(=O)n1C
REMARK SMILES IDX 8 1 7 2 5 3 6 4 4 5 79 6 82 7 80 8 81 9 3 10 2 13 1 14 83 15
REMARK SMILES IDX 84 16 85 17 86 18 87 19 91 20 88 21 89 22 92 23 90 25 9 26
REMARK SMILES IDX 10 27 11 28 12 29 13 30 14 31 78 32 15 33 77 34 16 35 17 36
REMARK SMILES IDX 18 37 71 38 19 39 76 40 70 41 72 42 20 43 75 44 69 45 68 46
REMARK SMILES IDX 21 48 55 49 34 50 54 51 35 52 38 53 53 54 73 55 36 56 37 57
REMARK SMILES IDX 52 59 74 60 39 61 22 62 23 63 32 64 24 65 25 66 31 67 33 68
REMARK SMILES IDX 26 69 27 70 28 71 29 72 30 73 56 74 57 75 66 76 58 77 59 78
REMARK SMILES IDX 65 79 67 80 60 81 61 82 62 83 63 84 64 85 40 86 41 87 50 88
REMARK SMILES IDX 42 89 43 90 49 91 51 92 44 93 45 94 46 95 47 96 48 97
REMARK H PARENT 3 11 3 12 88 24 72 47 38 58
REMARK Flexibility Score: inf
ROOT
ATOM      1  C   UNL A   1      31.374  31.927  26.672  1.00  0.00     0.274 C 
ENDROOT
BRANCH   1   2
ATOM      2  O   UNL A   1      32.341  30.860  26.567  1.00  0.00    -0.457 OA
BRANCH   2   3
ATOM      3  C   UNL A   1      32.020  29.841  25.729  1.00  0.00     0.368 C 
ATOM      4  O   UNL A   1      31.189  29.953  24.832  1.00  0.00    -0.245 OA
BRANCH   3   5
ATOM      5  C   UNL A   1      32.655  28.478  26.137  1.00  0.00     0.197 C 
ATOM      6  C   UNL A   1      31.495  27.535  26.537  1.00  0.00     0.081 C 
ATOM      7  C   UNL A   1      33.435  27.550  25.127  1.00  0.00     0.063 C 
ATOM      8  C   UNL A   1      32.124  26.177  26.760  1.00  0.00     0.008 C 
ATOM      9  C   UNL A   1      33.225  26.106  25.710  1.00  0.00     0.011 C 
BRANCH   5  10
ATOM     10  N   UNL A   1      33.446  28.709  27.398  1.00  0.00    -0.332 N 
ATOM     11  H   UNL A   1      33.003  29.463  27.924  1.00  0.00     0.347 HD
ATOM     12  H   UNL A   1      33.452  27.831  27.916  1.00  0.00     0.347 HD
BRANCH  10  13
ATOM     13  C   UNL A   1      34.835  29.073  27.148  1.00  0.00     0.257 C 
ATOM     14  C   UNL A   1      35.370  29.983  28.239  1.00  0.00     0.071 C 
ENDBRANCH  10  13
ENDBRANCH   5  10
BRANCH   7  15
ATOM     15  C   UNL A   1      33.014  27.508  23.629  1.00  0.00     0.022 C 
BRANCH  15  16
ATOM     16  C   UNL A   1      32.175  26.335  23.095  1.00  0.00     0.079 C 
BRANCH  16  17
ATOM     17  S   UNL A   1      32.936  25.290  21.817  1.00  0.00    -0.086 SA
BRANCH  17  18
ATOM     18  C   UNL A   1      33.641  24.007  22.721  1.00  0.00     0.191 A 
ATOM     19  N   UNL A   1      34.914  23.800  22.875  1.00  0.00    -0.146 NA
ATOM     20  N   UNL A   1      32.844  23.135  23.379  1.00  0.00    -0.273 N 
ATOM     21  N   UNL A   1      34.969  22.765  23.770  1.00  0.00    -0.226 N 
ATOM     22  C   UNL A   1      33.692  22.361  24.120  1.00  0.00     0.343 A 
ATOM     23  C   UNL A   1      31.413  22.964  23.356  1.00  0.00     0.157 C 
ATOM     24  H   UNL A   1      35.800  22.365  24.115  1.00  0.00     0.195 HD
ATOM     25  O   UNL A   1      33.412  21.502  24.941  1.00  0.00    -0.246 OA
ENDBRANCH  17  18
ENDBRANCH  16  17
ENDBRANCH  15  16
ENDBRANCH   7  15
ENDBRANCH   3   5
ENDBRANCH   2   3
ENDBRANCH   1   2
BRANCH   1  26
ATOM     26  C   UNL A   1      32.046  33.275  26.920  1.00  0.00     0.275 C 
BRANCH  26  27
ATOM     27  O   UNL A   1      33.207  33.100  27.750  1.00  0.00    -0.458 OA
BRANCH  27  28
ATOM     28  C   UNL A   1      33.387  34.063  28.679  1.00  0.00     0.338 C 
ATOM     29  O   UNL A   1      32.654  35.012  28.907  1.00  0.00    -0.246 OA
BRANCH  28  30
ATOM     30  C   UNL A   1      34.584  33.817  29.492  1.00  0.00     0.060 A 
ATOM     31  C   UNL A   1      35.811  34.326  29.085  1.00  0.00     0.016 A 
ATOM     32  C   UNL A   1      34.522  32.885  30.524  1.00  0.00     0.016 A 
ATOM     33  C   UNL A   1      36.988  33.802  29.600  1.00  0.00     0.010 A 
ATOM     34  C   UNL A   1      35.699  32.474  31.149  1.00  0.00     0.010 A 
ATOM     35  C   UNL A   1      36.947  32.909  30.675  1.00  0.00    -0.014 A 
BRANCH  35  36
ATOM     36  C   UNL A   1      38.197  32.490  31.354  1.00  0.00     0.031 A 
ATOM     37  C   UNL A   1      39.018  31.358  30.803  1.00  0.00     0.074 A 
ATOM     38  C   UNL A   1      38.542  33.098  32.508  1.00  0.00     0.049 A 
ATOM     39  N   UNL A   1      39.948  30.654  31.391  1.00  0.00    -0.248 NA
ATOM     40  C   UNL A   1      38.741  30.948  29.417  1.00  0.00     0.031 C 
ATOM     41  C   UNL A   1      37.842  34.238  33.110  1.00  0.00     0.029 A 
ATOM     42  N   UNL A   1      39.551  32.832  33.396  1.00  0.00    -0.354 N 
ATOM     43  C   UNL A   1      40.330  29.684  30.472  1.00  0.00     0.074 A 
ATOM     44  C   UNL A   1      39.533  29.892  29.283  1.00  0.00     0.031 C 
ATOM     45  C   UNL A   1      38.452  34.586  34.249  1.00  0.00     0.029 A 
ATOM     46  C   UNL A   1      39.500  33.619  34.524  1.00  0.00     0.049 A 
ATOM     47  H   UNL A   1      40.243  32.148  33.242  1.00  0.00     0.167 HD
ATOM     48  C   UNL A   1      41.257  28.707  30.627  1.00  0.00     0.037 A 
ATOM     49  C   UNL A   1      40.161  33.524  35.691  1.00  0.00     0.037 A 
ATOM     50  C   UNL A   1      42.048  28.550  31.823  1.00  0.00     0.049 A 
ATOM     51  C   UNL A   1      41.134  32.399  35.862  1.00  0.00     0.074 A 
ATOM     52  C   UNL A   1      43.018  27.604  32.099  1.00  0.00     0.029 A 
ATOM     53  N   UNL A   1      41.960  29.369  32.943  1.00  0.00    -0.354 N 
ATOM     54  N   UNL A   1      41.453  31.454  35.010  1.00  0.00    -0.248 NA
ATOM     55  C   UNL A   1      41.825  32.314  37.153  1.00  0.00     0.031 C 
ATOM     56  C   UNL A   1      43.486  27.826  33.400  1.00  0.00     0.029 A 
ATOM     57  C   UNL A   1      42.846  28.942  33.916  1.00  0.00     0.049 A 
ATOM     58  H   UNL A   1      41.354  30.140  33.031  1.00  0.00     0.167 HD
ATOM     59  C   UNL A   1      42.399  30.670  35.653  1.00  0.00     0.074 A 
ATOM     60  C   UNL A   1      42.609  31.262  36.961  1.00  0.00     0.031 C 
ATOM     61  C   UNL A   1      43.038  29.562  35.205  1.00  0.00     0.037 A 
BRANCH  48  62
ATOM     62  C   UNL A   1      41.441  27.715  29.507  1.00  0.00     0.058 A 
ATOM     63  C   UNL A   1      40.483  26.731  29.214  1.00  0.00     0.135 A 
ATOM     64  C   UNL A   1      42.579  27.777  28.684  1.00  0.00     0.135 A 
ATOM     65  F   UNL A   1      39.382  26.613  29.973  1.00  0.00    -0.206 F 
ATOM     66  C   UNL A   1      40.659  25.831  28.166  1.00  0.00     0.059 A 
ATOM     67  C   UNL A   1      42.762  26.906  27.613  1.00  0.00     0.059 A 
ATOM     68  F   UNL A   1      43.530  28.696  28.915  1.00  0.00    -0.206 F 
ATOM     69  C   UNL A   1      41.802  25.926  27.371  1.00  0.00     0.060 A 
BRANCH  69  70
ATOM     70  S   UNL A   1      42.013  24.751  26.015  1.00  0.00     0.124 S 
ATOM     71  O   UNL A   1      41.974  25.636  24.855  1.00  0.00    -0.237 OA
ATOM     72  O   UNL A   1      43.312  24.157  26.314  1.00  0.00    -0.237 OA
ATOM     73  O   UNL A   1      40.869  23.856  26.158  1.00  0.00    -0.744 OA
ENDBRANCH  69  70
ENDBRANCH  48  62
BRANCH  49  74
ATOM     74  C   UNL A   1      39.870  34.488  36.783  1.00  0.00     0.058 A 
ATOM     75  C   UNL A   1      39.026  34.138  37.846  1.00  0.00     0.135 A 
ATOM     76  C   UNL A   1      40.471  35.759  36.818  1.00  0.00     0.135 A 
ATOM     77  F   UNL A   1      38.430  32.936  37.858  1.00  0.00    -0.206 F 
ATOM     78  C   UNL A   1      38.777  35.014  38.896  1.00  0.00     0.059 A 
ATOM     79  C   UNL A   1      40.263  36.639  37.873  1.00  0.00     0.059 A 
ATOM     80  F   UNL A   1      41.306  36.136  35.837  1.00  0.00    -0.206 F 
ATOM     81  C   UNL A   1      39.404  36.262  38.903  1.00  0.00     0.060 A 
BRANCH  81  82
ATOM     82  S   UNL A   1      39.104  37.374  40.293  1.00  0.00     0.124 S 
ATOM     83  O   UNL A   1      38.239  38.377  39.684  1.00  0.00    -0.237 OA
ATOM     84  O   UNL A   1      38.469  36.487  41.264  1.00  0.00    -0.237 OA
ATOM     85  O   UNL A   1      40.443  37.830  40.654  1.00  0.00    -0.744 OA
ENDBRANCH  81  82
ENDBRANCH  49  74
BRANCH  61  86
ATOM     86  C   UNL A   1      44.058  28.954  36.122  1.00  0.00     0.058 A 
ATOM     87  C   UNL A   1      45.358  29.469  36.227  1.00  0.00     0.135 A 
ATOM     88  C   UNL A   1      43.709  27.865  36.938  1.00  0.00     0.135 A 
ATOM     89  F   UNL A   1      45.742  30.498  35.454  1.00  0.00    -0.206 F 
ATOM     90  C   UNL A   1      46.286  28.914  37.101  1.00  0.00     0.059 A 
ATOM     91  C   UNL A   1      44.611  27.315  37.839  1.00  0.00     0.059 A 
ATOM     92  F   UNL A   1      42.475  27.340  36.874  1.00  0.00    -0.206 F 
ATOM     93  C   UNL A   1      45.901  27.841  37.907  1.00  0.00     0.060 A 
BRANCH  93  94
ATOM     94  S   UNL A   1      47.098  27.167  39.075  1.00  0.00     0.124 S 
ATOM     95  O   UNL A   1      46.684  27.804  40.321  1.00  0.00    -0.237 OA
ATOM     96  O   UNL A   1      46.850  25.732  38.983  1.00  0.00    -0.237 OA
ATOM     97  O   UNL A   1      48.382  27.612  38.540  1.00  0.00    -0.744 OA
ENDBRANCH  93  94
ENDBRANCH  61  86
ENDBRANCH  35  36
ENDBRANCH  28  30
ENDBRANCH  27  28
ENDBRANCH  26  27
ENDBRANCH   1  26
TORSDOF 20
ENDMDL
