MODEL 1
REMARK VINA RESULT:     -10.4      0.000      0.000
REMARK SMILES Cc1c(Cl)ccc2c1C=C(C(=O)OCCOC(=O)c1ccc(-c3c4nc(c(-c5c(F)cc(S(=O)(=O)[O-])cc5F)c5ccc([nH]5)c(-c5c(F)cc(S(=O)(=O)[O-])cc5F)c5nc(c(-c6c(F)cc(S(=O)(=O)[O-])cc6F)c6ccc3[nH]6)C=C5)C=C4)cc1)[C@@H](C(F)(F)F)O2
REMARK SMILES IDX 15 1 14 2 13 3 11 4 12 5 10 6 1 7 2 8 3 9 8 10 4 11 5 12
REMARK SMILES IDX 7 13 9 14 6 15 90 16 85 17 86 18 87 19 88 20 89 21 16 22
REMARK SMILES IDX 17 23 18 24 19 25 20 26 84 27 21 28 83 29 22 30 23 31 24 32
REMARK SMILES IDX 77 33 25 34 82 35 76 36 78 37 26 38 81 39 75 40 74 41 27 43
REMARK SMILES IDX 61 44 40 45 60 46 41 47 44 48 59 49 79 50 42 51 43 52 58 54
REMARK SMILES IDX 80 55 45 56 28 57 29 58 38 59 30 60 31 61 37 62 39 63 32 64
REMARK SMILES IDX 33 65 34 66 35 67 36 68 62 69 63 70 72 71 64 72 65 73 71 74
REMARK SMILES IDX 73 75 66 76 67 77 68 78 69 79 70 80 46 81 47 82 56 83 48 84
REMARK SMILES IDX 49 85 55 86 57 87 50 88 51 89 52 90 53 91 54 92
REMARK H PARENT 78 42 44 53
REMARK Flexibility Score: inf
ROOT
ATOM      1  C   UNL A   1      33.737  33.752  28.021  1.00  0.00     0.275 C 
ENDROOT
BRANCH   1   2
ATOM      2  C   UNL A   1      34.548  34.863  28.687  1.00  0.00     0.275 C 
BRANCH   2   3
ATOM      3  O   UNL A   1      34.348  34.874  30.117  1.00  0.00    -0.459 OA
BRANCH   3   4
ATOM      4  C   UNL A   1      34.838  33.800  30.780  1.00  0.00     0.338 C 
ATOM      5  O   UNL A   1      34.401  32.661  30.744  1.00  0.00    -0.246 OA
BRANCH   4   6
ATOM      6  C   UNL A   1      36.014  34.184  31.583  1.00  0.00     0.087 C 
ATOM      7  C   UNL A   1      40.038  33.811  29.888  1.00  0.00     0.047 C 
ATOM      8  C   UNL A   1      39.738  34.202  31.316  1.00  0.00    -0.021 A 
ATOM      9  C   UNL A   1      40.817  34.395  32.205  1.00  0.00     0.044 A 
ATOM     10  C   UNL A   1      38.418  34.349  31.817  1.00  0.00     0.022 A 
ATOM     11  Cl  UNL A   1      42.462  34.160  31.718  1.00  0.00    -0.084 Cl
ATOM     12  C   UNL A   1      40.602  34.769  33.532  1.00  0.00     0.024 A 
ATOM     13  C   UNL A   1      38.221  34.737  33.154  1.00  0.00     0.128 A 
ATOM     14  C   UNL A   1      37.223  34.090  31.017  1.00  0.00     0.027 C 
ATOM     15  C   UNL A   1      39.306  34.953  34.001  1.00  0.00     0.048 A 
ATOM     16  O   UNL A   1      36.997  34.953  33.728  1.00  0.00    -0.475 OA
ATOM     17  C   UNL A   1      35.804  34.535  33.023  1.00  0.00     0.316 C 
BRANCH  17  18
ATOM     18  C   UNL A   1      35.149  33.375  33.790  1.00  0.00     0.430 C 
ATOM     19  F   UNL A   1      35.368  33.480  35.124  1.00  0.00    -0.167 F 
ATOM     20  F   UNL A   1      33.802  33.365  33.626  1.00  0.00    -0.167 F 
ATOM     21  F   UNL A   1      35.613  32.168  33.397  1.00  0.00    -0.167 F 
ENDBRANCH  17  18
ENDBRANCH   4   6
ENDBRANCH   3   4
ENDBRANCH   2   3
ENDBRANCH   1   2
BRANCH   1  22
ATOM     22  O   UNL A   1      34.603  32.863  27.295  1.00  0.00    -0.458 OA
BRANCH  22  23
ATOM     23  C   UNL A   1      34.430  31.548  27.564  1.00  0.00     0.338 C 
ATOM     24  O   UNL A   1      33.414  30.892  27.411  1.00  0.00    -0.246 OA
BRANCH  23  25
ATOM     25  C   UNL A   1      35.688  30.961  28.049  1.00  0.00     0.060 A 
ATOM     26  C   UNL A   1      35.672  29.700  28.638  1.00  0.00     0.016 A 
ATOM     27  C   UNL A   1      36.847  31.735  28.078  1.00  0.00     0.016 A 
ATOM     28  C   UNL A   1      36.769  29.271  29.381  1.00  0.00     0.010 A 
ATOM     29  C   UNL A   1      37.987  31.246  28.723  1.00  0.00     0.010 A 
ATOM     30  C   UNL A   1      37.946  30.032  29.432  1.00  0.00    -0.014 A 
BRANCH  30  31
ATOM     31  C   UNL A   1      39.103  29.583  30.259  1.00  0.00     0.031 A 
ATOM     32  C   UNL A   1      40.120  28.621  29.690  1.00  0.00     0.074 A 
ATOM     33  C   UNL A   1      39.268  30.059  31.512  1.00  0.00     0.049 A 
ATOM     34  N   UNL A   1      41.096  27.995  30.296  1.00  0.00    -0.248 NA
ATOM     35  C   UNL A   1      40.020  28.315  28.253  1.00  0.00     0.031 C 
ATOM     36  C   UNL A   1      38.398  31.039  32.167  1.00  0.00     0.029 A 
ATOM     37  N   UNL A   1      40.233  29.798  32.453  1.00  0.00    -0.354 N 
ATOM     38  C   UNL A   1      41.697  27.193  29.330  1.00  0.00     0.074 A 
ATOM     39  C   UNL A   1      40.963  27.395  28.101  1.00  0.00     0.031 C 
ATOM     40  C   UNL A   1      38.899  31.338  33.374  1.00  0.00     0.029 A 
ATOM     41  C   UNL A   1      40.062  30.498  33.626  1.00  0.00     0.049 A 
ATOM     42  H   UNL A   1      40.976  29.171  32.304  1.00  0.00     0.167 HD
ATOM     43  C   UNL A   1      42.767  26.371  29.456  1.00  0.00     0.037 A 
ATOM     44  C   UNL A   1      40.735  30.443  34.793  1.00  0.00     0.037 A 
ATOM     45  C   UNL A   1      43.522  26.213  30.674  1.00  0.00     0.049 A 
ATOM     46  C   UNL A   1      41.870  29.470  34.931  1.00  0.00     0.074 A 
ATOM     47  C   UNL A   1      44.618  25.400  30.909  1.00  0.00     0.029 A 
ATOM     48  N   UNL A   1      43.271  26.894  31.857  1.00  0.00    -0.354 N 
ATOM     49  N   UNL A   1      42.378  28.664  34.030  1.00  0.00    -0.248 NA
ATOM     50  C   UNL A   1      42.508  29.376  36.252  1.00  0.00     0.031 C 
ATOM     51  C   UNL A   1      45.004  25.559  32.242  1.00  0.00     0.029 A 
ATOM     52  C   UNL A   1      44.181  26.508  32.827  1.00  0.00     0.049 A 
ATOM     53  H   UNL A   1      42.553  27.554  31.987  1.00  0.00     0.167 HD
ATOM     54  C   UNL A   1      43.403  27.978  34.669  1.00  0.00     0.074 A 
ATOM     55  C   UNL A   1      43.455  28.474  36.029  1.00  0.00     0.031 C 
ATOM     56  C   UNL A   1      44.223  27.017  34.175  1.00  0.00     0.037 A 
BRANCH  43  57
ATOM     57  C   UNL A   1      43.188  25.562  28.256  1.00  0.00     0.058 A 
ATOM     58  C   UNL A   1      44.100  26.058  27.311  1.00  0.00     0.135 A 
ATOM     59  C   UNL A   1      42.721  24.248  28.085  1.00  0.00     0.135 A 
ATOM     60  F   UNL A   1      44.566  27.312  27.415  1.00  0.00    -0.206 F 
ATOM     61  C   UNL A   1      44.521  25.286  26.232  1.00  0.00     0.059 A 
ATOM     62  C   UNL A   1      43.150  23.449  27.029  1.00  0.00     0.059 A 
ATOM     63  F   UNL A   1      41.847  23.722  28.959  1.00  0.00    -0.206 F 
ATOM     64  C   UNL A   1      44.044  23.980  26.101  1.00  0.00     0.060 A 
BRANCH  64  65
ATOM     65  S   UNL A   1      44.615  22.989  24.703  1.00  0.00     0.124 S 
ATOM     66  O   UNL A   1      45.604  23.878  24.100  1.00  0.00    -0.237 OA
ATOM     67  O   UNL A   1      45.149  21.802  25.363  1.00  0.00    -0.237 OA
ATOM     68  O   UNL A   1      43.404  22.776  23.918  1.00  0.00    -0.744 OA
ENDBRANCH  64  65
ENDBRANCH  43  57
BRANCH  44  69
ATOM     69  C   UNL A   1      40.326  31.316  35.926  1.00  0.00     0.058 A 
ATOM     70  C   UNL A   1      41.124  32.398  36.325  1.00  0.00     0.135 A 
ATOM     71  C   UNL A   1      39.117  31.109  36.611  1.00  0.00     0.135 A 
ATOM     72  F   UNL A   1      42.293  32.630  35.711  1.00  0.00    -0.206 F 
ATOM     73  C   UNL A   1      40.740  33.244  37.361  1.00  0.00     0.059 A 
ATOM     74  C   UNL A   1      38.696  31.959  37.629  1.00  0.00     0.059 A 
ATOM     75  F   UNL A   1      38.311  30.093  36.264  1.00  0.00    -0.206 F 
ATOM     76  C   UNL A   1      39.519  33.021  38.001  1.00  0.00     0.060 A 
BRANCH  76  77
ATOM     77  S   UNL A   1      39.003  34.162  39.301  1.00  0.00     0.124 S 
ATOM     78  O   UNL A   1      37.738  33.574  39.724  1.00  0.00    -0.237 OA
ATOM     79  O   UNL A   1      40.105  34.060  40.252  1.00  0.00    -0.237 OA
ATOM     80  O   UNL A   1      38.903  35.441  38.606  1.00  0.00    -0.744 OA
ENDBRANCH  76  77
ENDBRANCH  44  69
BRANCH  56  81
ATOM     81  C   UNL A   1      45.262  26.450  35.099  1.00  0.00     0.058 A 
ATOM     82  C   UNL A   1      46.514  27.066  35.260  1.00  0.00     0.135 A 
ATOM     83  C   UNL A   1      44.977  25.324  35.888  1.00  0.00     0.135 A 
ATOM     84  F   UNL A   1      46.838  28.139  34.522  1.00  0.00    -0.206 F 
ATOM     85  C   UNL A   1      47.450  26.578  36.165  1.00  0.00     0.059 A 
ATOM     86  C   UNL A   1      45.888  24.834  36.819  1.00  0.00     0.059 A 
ATOM     87  F   UNL A   1      43.792  24.703  35.776  1.00  0.00    -0.206 F 
ATOM     88  C   UNL A   1      47.125  25.466  36.945  1.00  0.00     0.060 A 
BRANCH  88  89
ATOM     89  S   UNL A   1      48.331  24.881  38.154  1.00  0.00     0.124 S 
ATOM     90  O   UNL A   1      49.548  25.550  37.705  1.00  0.00    -0.237 OA
ATOM     91  O   UNL A   1      47.769  25.365  39.411  1.00  0.00    -0.237 OA
ATOM     92  O   UNL A   1      48.313  23.432  37.981  1.00  0.00    -0.744 OA
ENDBRANCH  88  89
ENDBRANCH  56  81
ENDBRANCH  30  31
ENDBRANCH  23  25
ENDBRANCH  22  23
ENDBRANCH   1  22
TORSDOF 15
ENDMDL
MODEL 2
REMARK VINA RESULT:     -10.3      4.360     10.500
REMARK SMILES Cc1c(Cl)ccc2c1C=C(C(=O)OCCOC(=O)c1ccc(-c3c4nc(c(-c5c(F)cc(S(=O)(=O)[O-])cc5F)c5ccc([nH]5)c(-c5c(F)cc(S(=O)(=O)[O-])cc5F)c5nc(c(-c6c(F)cc(S(=O)(=O)[O-])cc6F)c6ccc3[nH]6)C=C5)C=C4)cc1)[C@@H](C(F)(F)F)O2
REMARK SMILES IDX 15 1 14 2 13 3 11 4 12 5 10 6 1 7 2 8 3 9 8 10 4 11 5 12
REMARK SMILES IDX 7 13 9 14 6 15 90 16 85 17 86 18 87 19 88 20 89 21 16 22
REMARK SMILES IDX 17 23 18 24 19 25 20 26 84 27 21 28 83 29 22 30 23 31 24 32
REMARK SMILES IDX 77 33 25 34 82 35 76 36 78 37 26 38 81 39 75 40 74 41 27 43
REMARK SMILES IDX 61 44 40 45 60 46 41 47 44 48 59 49 79 50 42 51 43 52 58 54
REMARK SMILES IDX 80 55 45 56 28 57 29 58 38 59 30 60 31 61 37 62 39 63 32 64
REMARK SMILES IDX 33 65 34 66 35 67 36 68 62 69 63 70 72 71 64 72 65 73 71 74
REMARK SMILES IDX 73 75 66 76 67 77 68 78 69 79 70 80 46 81 47 82 56 83 48 84
REMARK SMILES IDX 49 85 55 86 57 87 50 88 51 89 52 90 53 91 54 92
REMARK H PARENT 78 42 44 53
REMARK Flexibility Score: inf
ROOT
ATOM      1  C   UNL A   1      39.367  22.240  26.172  1.00  0.00     0.275 C 
ENDROOT
BRANCH   1   2
ATOM      2  C   UNL A   1      38.110  21.805  25.418  1.00  0.00     0.275 C 
BRANCH   2   3
ATOM      3  O   UNL A   1      37.219  22.918  25.198  1.00  0.00    -0.459 OA
BRANCH   3   4
ATOM      4  C   UNL A   1      36.465  22.846  24.075  1.00  0.00     0.338 C 
ATOM      5  O   UNL A   1      36.854  22.557  22.956  1.00  0.00    -0.246 OA
BRANCH   4   6
ATOM      6  C   UNL A   1      35.058  23.170  24.379  1.00  0.00     0.087 C 
ATOM      7  C   UNL A   1      34.013  27.129  25.942  1.00  0.00     0.047 C 
ATOM      8  C   UNL A   1      33.044  25.980  25.789  1.00  0.00    -0.021 A 
ATOM      9  C   UNL A   1      31.719  26.149  26.244  1.00  0.00     0.044 A 
ATOM     10  C   UNL A   1      33.414  24.723  25.242  1.00  0.00     0.022 A 
ATOM     11  Cl  UNL A   1      31.187  27.612  27.001  1.00  0.00    -0.084 Cl
ATOM     12  C   UNL A   1      30.777  25.127  26.118  1.00  0.00     0.024 A 
ATOM     13  C   UNL A   1      32.448  23.710  25.114  1.00  0.00     0.128 A 
ATOM     14  C   UNL A   1      34.776  24.402  24.820  1.00  0.00     0.027 C 
ATOM     15  C   UNL A   1      31.138  23.915  25.541  1.00  0.00     0.048 A 
ATOM     16  O   UNL A   1      32.682  22.480  24.561  1.00  0.00    -0.475 OA
ATOM     17  C   UNL A   1      34.046  22.070  24.301  1.00  0.00     0.316 C 
BRANCH  17  18
ATOM     18  C   UNL A   1      34.409  20.910  25.241  1.00  0.00     0.430 C 
ATOM     19  F   UNL A   1      33.329  20.135  25.508  1.00  0.00    -0.167 F 
ATOM     20  F   UNL A   1      35.338  20.091  24.689  1.00  0.00    -0.167 F 
ATOM     21  F   UNL A   1      34.901  21.338  26.425  1.00  0.00    -0.167 F 
ENDBRANCH  17  18
ENDBRANCH   4   6
ENDBRANCH   3   4
ENDBRANCH   2   3
ENDBRANCH   1   2
BRANCH   1  22
ATOM     22  O   UNL A   1      39.312  23.646  26.473  1.00  0.00    -0.458 OA
BRANCH  22  23
ATOM     23  C   UNL A   1      40.489  24.200  26.843  1.00  0.00     0.338 C 
ATOM     24  O   UNL A   1      41.609  23.816  26.552  1.00  0.00    -0.246 OA
BRANCH  23  25
ATOM     25  C   UNL A   1      40.249  25.407  27.648  1.00  0.00     0.060 A 
ATOM     26  C   UNL A   1      41.091  26.505  27.501  1.00  0.00     0.016 A 
ATOM     27  C   UNL A   1      39.301  25.381  28.670  1.00  0.00     0.016 A 
ATOM     28  C   UNL A   1      41.084  27.514  28.460  1.00  0.00     0.010 A 
ATOM     29  C   UNL A   1      39.217  26.456  29.560  1.00  0.00     0.010 A 
ATOM     30  C   UNL A   1      40.145  27.510  29.502  1.00  0.00    -0.014 A 
BRANCH  30  31
ATOM     31  C   UNL A   1      40.168  28.575  30.546  1.00  0.00     0.031 A 
ATOM     32  C   UNL A   1      41.201  28.540  31.649  1.00  0.00     0.074 A 
ATOM     33  C   UNL A   1      39.287  29.597  30.494  1.00  0.00     0.049 A 
ATOM     34  N   UNL A   1      41.286  29.277  32.728  1.00  0.00    -0.248 NA
ATOM     35  C   UNL A   1      42.275  27.539  31.528  1.00  0.00     0.031 C 
ATOM     36  C   UNL A   1      38.276  29.791  29.453  1.00  0.00     0.029 A 
ATOM     37  N   UNL A   1      39.110  30.675  31.326  1.00  0.00    -0.354 N 
ATOM     38  C   UNL A   1      42.389  28.804  33.431  1.00  0.00     0.074 A 
ATOM     39  C   UNL A   1      42.933  27.702  32.669  1.00  0.00     0.031 C 
ATOM     40  C   UNL A   1      37.627  30.943  29.675  1.00  0.00     0.029 A 
ATOM     41  C   UNL A   1      38.098  31.518  30.928  1.00  0.00     0.049 A 
ATOM     42  H   UNL A   1      39.655  30.831  32.131  1.00  0.00     0.167 HD
ATOM     43  C   UNL A   1      42.905  29.253  34.601  1.00  0.00     0.037 A 
ATOM     44  C   UNL A   1      37.573  32.609  31.521  1.00  0.00     0.037 A 
ATOM     45  C   UNL A   1      42.384  30.382  35.330  1.00  0.00     0.049 A 
ATOM     46  C   UNL A   1      38.113  33.043  32.853  1.00  0.00     0.074 A 
ATOM     47  C   UNL A   1      42.830  30.913  36.528  1.00  0.00     0.029 A 
ATOM     48  N   UNL A   1      41.315  31.166  34.921  1.00  0.00    -0.354 N 
ATOM     49  N   UNL A   1      39.108  32.537  33.541  1.00  0.00    -0.248 NA
ATOM     50  C   UNL A   1      37.442  34.176  33.505  1.00  0.00     0.031 C 
ATOM     51  C   UNL A   1      42.007  31.992  36.863  1.00  0.00     0.029 A 
ATOM     52  C   UNL A   1      41.078  32.165  35.849  1.00  0.00     0.049 A 
ATOM     53  H   UNL A   1      40.802  31.032  34.092  1.00  0.00     0.167 HD
ATOM     54  C   UNL A   1      39.194  33.299  34.700  1.00  0.00     0.074 A 
ATOM     55  C   UNL A   1      38.159  34.310  34.613  1.00  0.00     0.031 C 
ATOM     56  C   UNL A   1      40.047  33.168  35.745  1.00  0.00     0.037 A 
BRANCH  43  57
ATOM     57  C   UNL A   1      44.086  28.521  35.185  1.00  0.00     0.058 A 
ATOM     58  C   UNL A   1      43.927  27.439  36.065  1.00  0.00     0.135 A 
ATOM     59  C   UNL A   1      45.394  28.869  34.808  1.00  0.00     0.135 A 
ATOM     60  F   UNL A   1      42.702  27.074  36.472  1.00  0.00    -0.206 F 
ATOM     61  C   UNL A   1      45.023  26.738  36.561  1.00  0.00     0.059 A 
ATOM     62  C   UNL A   1      46.503  28.164  35.272  1.00  0.00     0.059 A 
ATOM     63  F   UNL A   1      45.606  29.896  33.970  1.00  0.00    -0.206 F 
ATOM     64  C   UNL A   1      46.307  27.105  36.156  1.00  0.00     0.060 A 
BRANCH  64  65
ATOM     65  S   UNL A   1      47.714  26.173  36.799  1.00  0.00     0.124 S 
ATOM     66  O   UNL A   1      48.774  27.177  36.754  1.00  0.00    -0.237 OA
ATOM     67  O   UNL A   1      47.254  25.797  38.132  1.00  0.00    -0.237 OA
ATOM     68  O   UNL A   1      47.856  25.072  35.852  1.00  0.00    -0.744 OA
ENDBRANCH  64  65
ENDBRANCH  43  57
BRANCH  44  69
ATOM     69  C   UNL A   1      36.454  33.341  30.868  1.00  0.00     0.058 A 
ATOM     70  C   UNL A   1      35.148  33.261  31.375  1.00  0.00     0.135 A 
ATOM     71  C   UNL A   1      36.669  34.161  29.748  1.00  0.00     0.135 A 
ATOM     72  F   UNL A   1      34.888  32.481  32.435  1.00  0.00    -0.206 F 
ATOM     73  C   UNL A   1      34.097  33.965  30.797  1.00  0.00     0.059 A 
ATOM     74  C   UNL A   1      35.642  34.900  29.171  1.00  0.00     0.059 A 
ATOM     75  F   UNL A   1      37.902  34.281  29.228  1.00  0.00    -0.206 F 
ATOM     76  C   UNL A   1      34.357  34.790  29.699  1.00  0.00     0.060 A 
BRANCH  76  77
ATOM     77  S   UNL A   1      32.997  35.747  28.996  1.00  0.00     0.124 S 
ATOM     78  O   UNL A   1      33.712  36.829  28.331  1.00  0.00    -0.237 OA
ATOM     79  O   UNL A   1      32.356  34.771  28.121  1.00  0.00    -0.237 OA
ATOM     80  O   UNL A   1      32.217  36.133  30.168  1.00  0.00    -0.744 OA
ENDBRANCH  76  77
ENDBRANCH  44  69
BRANCH  56  81
ATOM     81  C   UNL A   1      39.918  34.151  36.873  1.00  0.00     0.058 A 
ATOM     82  C   UNL A   1      40.499  35.427  36.804  1.00  0.00     0.135 A 
ATOM     83  C   UNL A   1      39.144  33.842  38.003  1.00  0.00     0.135 A 
ATOM     84  F   UNL A   1      41.258  35.767  35.750  1.00  0.00    -0.206 F 
ATOM     85  C   UNL A   1      40.324  36.359  37.820  1.00  0.00     0.059 A 
ATOM     86  C   UNL A   1      38.932  34.769  39.019  1.00  0.00     0.059 A 
ATOM     87  F   UNL A   1      38.561  32.637  38.114  1.00  0.00    -0.206 F 
ATOM     88  C   UNL A   1      39.532  36.023  38.920  1.00  0.00     0.060 A 
BRANCH  88  89
ATOM     89  S   UNL A   1      39.269  37.266  40.203  1.00  0.00     0.124 S 
ATOM     90  O   UNL A   1      38.497  38.274  39.484  1.00  0.00    -0.237 OA
ATOM     91  O   UNL A   1      38.539  36.513  41.219  1.00  0.00    -0.237 OA
ATOM     92  O   UNL A   1      40.624  37.663  40.576  1.00  0.00    -0.744 OA
ENDBRANCH  88  89
ENDBRANCH  56  81
ENDBRANCH  30  31
ENDBRANCH  23  25
ENDBRANCH  22  23
ENDBRANCH   1  22
TORSDOF 15
ENDMDL
MODEL 3
REMARK VINA RESULT:     -10.2      6.617     11.197
REMARK SMILES Cc1c(Cl)ccc2c1C=C(C(=O)OCCOC(=O)c1ccc(-c3c4nc(c(-c5c(F)cc(S(=O)(=O)[O-])cc5F)c5ccc([nH]5)c(-c5c(F)cc(S(=O)(=O)[O-])cc5F)c5nc(c(-c6c(F)cc(S(=O)(=O)[O-])cc6F)c6ccc3[nH]6)C=C5)C=C4)cc1)[C@@H](C(F)(F)F)O2
REMARK SMILES IDX 15 1 14 2 13 3 11 4 12 5 10 6 1 7 2 8 3 9 8 10 4 11 5 12
REMARK SMILES IDX 7 13 9 14 6 15 90 16 85 17 86 18 87 19 88 20 89 21 16 22
REMARK SMILES IDX 17 23 18 24 19 25 20 26 84 27 21 28 83 29 22 30 23 31 24 32
REMARK SMILES IDX 77 33 25 34 82 35 76 36 78 37 26 38 81 39 75 40 74 41 27 43
REMARK SMILES IDX 61 44 40 45 60 46 41 47 44 48 59 49 79 50 42 51 43 52 58 54
REMARK SMILES IDX 80 55 45 56 28 57 29 58 38 59 30 60 31 61 37 62 39 63 32 64
REMARK SMILES IDX 33 65 34 66 35 67 36 68 62 69 63 70 72 71 64 72 65 73 71 74
REMARK SMILES IDX 73 75 66 76 67 77 68 78 69 79 70 80 46 81 47 82 56 83 48 84
REMARK SMILES IDX 49 85 55 86 57 87 50 88 51 89 52 90 53 91 54 92
REMARK H PARENT 78 42 44 53
REMARK Flexibility Score: inf
ROOT
ATOM      1  C   UNL A   1      34.244  31.048  27.689  1.00  0.00     0.275 C 
ENDROOT
BRANCH   1   2
ATOM      2  C   UNL A   1      34.036  29.618  27.192  1.00  0.00     0.275 C 
BRANCH   2   3
ATOM      3  O   UNL A   1      33.212  29.590  26.007  1.00  0.00    -0.459 OA
BRANCH   3   4
ATOM      4  C   UNL A   1      33.466  28.575  25.147  1.00  0.00     0.338 C 
ATOM      5  O   UNL A   1      34.136  28.635  24.129  1.00  0.00    -0.246 OA
BRANCH   4   6
ATOM      6  C   UNL A   1      32.811  27.335  25.606  1.00  0.00     0.087 C 
ATOM      7  C   UNL A   1      35.165  23.671  26.095  1.00  0.00     0.047 C 
ATOM      8  C   UNL A   1      33.664  23.758  26.248  1.00  0.00    -0.021 A 
ATOM      9  C   UNL A   1      32.941  22.572  26.493  1.00  0.00     0.044 A 
ATOM     10  C   UNL A   1      32.942  24.973  26.118  1.00  0.00     0.022 A 
ATOM     11  Cl  UNL A   1      33.714  21.025  26.586  1.00  0.00    -0.084 Cl
ATOM     12  C   UNL A   1      31.554  22.592  26.655  1.00  0.00     0.024 A 
ATOM     13  C   UNL A   1      31.547  24.975  26.295  1.00  0.00     0.128 A 
ATOM     14  C   UNL A   1      33.571  26.247  25.778  1.00  0.00     0.027 C 
ATOM     15  C   UNL A   1      30.862  23.794  26.570  1.00  0.00     0.048 A 
ATOM     16  O   UNL A   1      30.759  26.093  26.239  1.00  0.00    -0.475 OA
ATOM     17  C   UNL A   1      31.320  27.327  25.731  1.00  0.00     0.316 C 
BRANCH  17  18
ATOM     18  C   UNL A   1      30.645  27.672  24.394  1.00  0.00     0.430 C 
ATOM     19  F   UNL A   1      29.465  27.020  24.255  1.00  0.00    -0.167 F 
ATOM     20  F   UNL A   1      30.362  28.995  24.304  1.00  0.00    -0.167 F 
ATOM     21  F   UNL A   1      31.413  27.349  23.330  1.00  0.00    -0.167 F 
ENDBRANCH  17  18
ENDBRANCH   4   6
ENDBRANCH   3   4
ENDBRANCH   2   3
ENDBRANCH   1   2
BRANCH   1  22
ATOM     22  O   UNL A   1      35.644  31.317  27.878  1.00  0.00    -0.458 OA
BRANCH  22  23
ATOM     23  C   UNL A   1      36.144  30.941  29.077  1.00  0.00     0.338 C 
ATOM     24  O   UNL A   1      35.655  31.142  30.176  1.00  0.00    -0.246 OA
BRANCH  23  25
ATOM     25  C   UNL A   1      37.392  30.186  28.891  1.00  0.00     0.060 A 
ATOM     26  C   UNL A   1      38.206  29.928  29.990  1.00  0.00     0.016 A 
ATOM     27  C   UNL A   1      37.837  29.891  27.603  1.00  0.00     0.016 A 
ATOM     28  C   UNL A   1      39.520  29.509  29.793  1.00  0.00     0.010 A 
ATOM     29  C   UNL A   1      39.115  29.355  27.420  1.00  0.00     0.010 A 
ATOM     30  C   UNL A   1      39.995  29.211  28.508  1.00  0.00    -0.014 A 
BRANCH  30  31
ATOM     31  C   UNL A   1      41.414  28.798  28.302  1.00  0.00     0.031 A 
ATOM     32  C   UNL A   1      42.531  29.802  28.464  1.00  0.00     0.074 A 
ATOM     33  C   UNL A   1      41.712  27.516  28.002  1.00  0.00     0.049 A 
ATOM     34  N   UNL A   1      43.802  29.680  28.176  1.00  0.00    -0.248 NA
ATOM     35  C   UNL A   1      42.172  31.120  29.014  1.00  0.00     0.031 C 
ATOM     36  C   UNL A   1      40.739  26.428  27.875  1.00  0.00     0.029 A 
ATOM     37  N   UNL A   1      42.918  26.904  27.767  1.00  0.00    -0.354 N 
ATOM     38  C   UNL A   1      44.383  30.910  28.467  1.00  0.00     0.074 A 
ATOM     39  C   UNL A   1      43.323  31.775  28.936  1.00  0.00     0.031 C 
ATOM     40  C   UNL A   1      41.389  25.278  27.643  1.00  0.00     0.029 A 
ATOM     41  C   UNL A   1      42.811  25.559  27.499  1.00  0.00     0.049 A 
ATOM     42  H   UNL A   1      43.778  27.382  27.787  1.00  0.00     0.167 HD
ATOM     43  C   UNL A   1      45.682  31.281  28.361  1.00  0.00     0.037 A 
ATOM     44  C   UNL A   1      43.742  24.654  27.135  1.00  0.00     0.037 A 
ATOM     45  C   UNL A   1      46.740  30.398  27.938  1.00  0.00     0.049 A 
ATOM     46  C   UNL A   1      45.162  25.106  26.952  1.00  0.00     0.074 A 
ATOM     47  C   UNL A   1      48.088  30.677  27.790  1.00  0.00     0.029 A 
ATOM     48  N   UNL A   1      46.573  29.059  27.614  1.00  0.00    -0.354 N 
ATOM     49  N   UNL A   1      45.681  26.293  27.159  1.00  0.00    -0.248 NA
ATOM     50  C   UNL A   1      46.120  24.107  26.458  1.00  0.00     0.031 C 
ATOM     51  C   UNL A   1      48.728  29.520  27.338  1.00  0.00     0.029 A 
ATOM     52  C   UNL A   1      47.789  28.505  27.252  1.00  0.00     0.049 A 
ATOM     53  H   UNL A   1      45.717  28.574  27.638  1.00  0.00     0.167 HD
ATOM     54  C   UNL A   1      47.027  26.180  26.835  1.00  0.00     0.074 A 
ATOM     55  C   UNL A   1      47.247  24.806  26.434  1.00  0.00     0.031 C 
ATOM     56  C   UNL A   1      47.993  27.132  26.861  1.00  0.00     0.037 A 
BRANCH  43  57
ATOM     57  C   UNL A   1      46.045  32.706  28.691  1.00  0.00     0.058 A 
ATOM     58  C   UNL A   1      46.458  33.088  29.977  1.00  0.00     0.135 A 
ATOM     59  C   UNL A   1      46.039  33.692  27.689  1.00  0.00     0.135 A 
ATOM     60  F   UNL A   1      46.467  32.192  30.977  1.00  0.00    -0.206 F 
ATOM     61  C   UNL A   1      46.838  34.396  30.261  1.00  0.00     0.059 A 
ATOM     62  C   UNL A   1      46.440  35.000  27.945  1.00  0.00     0.059 A 
ATOM     63  F   UNL A   1      45.652  33.384  26.441  1.00  0.00    -0.206 F 
ATOM     64  C   UNL A   1      46.829  35.346  29.238  1.00  0.00     0.060 A 
BRANCH  64  65
ATOM     65  S   UNL A   1      47.341  37.034  29.623  1.00  0.00     0.124 S 
ATOM     66  O   UNL A   1      47.067  37.717  28.362  1.00  0.00    -0.237 OA
ATOM     67  O   UNL A   1      46.460  37.379  30.734  1.00  0.00    -0.237 OA
ATOM     68  O   UNL A   1      48.753  36.894  29.965  1.00  0.00    -0.744 OA
ENDBRANCH  64  65
ENDBRANCH  43  57
BRANCH  44  69
ATOM     69  C   UNL A   1      43.346  23.240  26.891  1.00  0.00     0.058 A 
ATOM     70  C   UNL A   1      43.280  22.727  25.587  1.00  0.00     0.135 A 
ATOM     71  C   UNL A   1      43.061  22.366  27.952  1.00  0.00     0.135 A 
ATOM     72  F   UNL A   1      43.531  23.525  24.539  1.00  0.00    -0.206 F 
ATOM     73  C   UNL A   1      42.944  21.399  25.343  1.00  0.00     0.059 A 
ATOM     74  C   UNL A   1      42.753  21.027  27.736  1.00  0.00     0.059 A 
ATOM     75  F   UNL A   1      43.119  22.804  29.220  1.00  0.00    -0.206 F 
ATOM     76  C   UNL A   1      42.691  20.554  26.427  1.00  0.00     0.060 A 
BRANCH  76  77
ATOM     77  S   UNL A   1      42.318  18.818  26.100  1.00  0.00     0.124 S 
ATOM     78  O   UNL A   1      40.905  18.882  25.748  1.00  0.00    -0.237 OA
ATOM     79  O   UNL A   1      43.236  18.509  25.008  1.00  0.00    -0.237 OA
ATOM     80  O   UNL A   1      42.623  18.164  27.369  1.00  0.00    -0.744 OA
ENDBRANCH  76  77
ENDBRANCH  44  69
BRANCH  56  81
ATOM     81  C   UNL A   1      49.382  26.721  26.465  1.00  0.00     0.058 A 
ATOM     82  C   UNL A   1      50.235  26.062  27.364  1.00  0.00     0.135 A 
ATOM     83  C   UNL A   1      49.838  26.921  25.153  1.00  0.00     0.135 A 
ATOM     84  F   UNL A   1      49.850  25.857  28.634  1.00  0.00    -0.206 F 
ATOM     85  C   UNL A   1      51.497  25.624  26.977  1.00  0.00     0.059 A 
ATOM     86  C   UNL A   1      51.085  26.467  24.735  1.00  0.00     0.059 A 
ATOM     87  F   UNL A   1      49.057  27.541  24.253  1.00  0.00    -0.206 F 
ATOM     88  C   UNL A   1      51.910  25.824  25.658  1.00  0.00     0.060 A 
BRANCH  88  89
ATOM     89  S   UNL A   1      53.528  25.199  25.159  1.00  0.00     0.124 S 
ATOM     90  O   UNL A   1      53.574  25.587  23.753  1.00  0.00    -0.237 OA
ATOM     91  O   UNL A   1      54.429  25.927  26.047  1.00  0.00    -0.237 OA
ATOM     92  O   UNL A   1      53.431  23.764  25.409  1.00  0.00    -0.744 OA
ENDBRANCH  88  89
ENDBRANCH  56  81
ENDBRANCH  30  31
ENDBRANCH  23  25
ENDBRANCH  22  23
ENDBRANCH   1  22
TORSDOF 15
ENDMDL
