MODEL 1
REMARK VINA RESULT:      -9.5      0.000      0.000
REMARK SMILES O=C(C[N@@H+]1CCO[C@@H](CCc2ccccc2)C1)OCCOC(=O)c1ccc(-c2c3nc(c(-c4c(F)cc(S(=O)(=O)[O-])cc4F)c4ccc([nH]4)c(-c4c(F)cc(S(=O)(=O)[O-])cc4F)c4nc(c(-c5c(F)cc(S(=O)(=O)[O-])cc5F)c5ccc2[nH]5)C=C4)C=C3)cc1
REMARK SMILES IDX 19 1 18 2 2 3 1 4 3 5 4 6 5 7 17 8 6 10 8 11 7 12 9 13 10 14
REMARK SMILES IDX 11 15 12 16 16 17 13 18 15 19 14 20 20 21 21 22 22 23 23 24
REMARK SMILES IDX 24 25 25 26 89 27 26 28 88 29 27 30 28 31 29 32 82 33 30 34
REMARK SMILES IDX 87 35 81 36 83 37 31 38 86 39 80 40 79 41 32 43 66 44 45 45
REMARK SMILES IDX 65 46 46 47 49 48 64 49 84 50 47 51 48 52 63 54 85 55 50 56
REMARK SMILES IDX 33 57 34 58 43 59 35 60 36 61 42 62 44 63 37 64 38 65 39 66
REMARK SMILES IDX 40 67 41 68 67 69 68 70 77 71 69 72 70 73 76 74 78 75 71 76
REMARK SMILES IDX 72 77 73 78 74 79 75 80 51 81 52 82 61 83 53 84 54 85 60 86
REMARK SMILES IDX 62 87 55 88 56 89 57 90 58 91 59 92
REMARK H PARENT 4 9 83 42 49 53
REMARK Flexibility Score: inf
ROOT
ATOM      1  C   UNL A   1      45.858  22.955  25.748  1.00  0.00     0.274 C 
ENDROOT
BRANCH   1   2
ATOM      2  O   UNL A   1      45.913  21.511  25.749  1.00  0.00    -0.458 OA
BRANCH   2   3
ATOM      3  C   UNL A   1      44.959  20.680  25.234  1.00  0.00     0.361 C 
ATOM      4  O   UNL A   1      45.289  19.757  24.494  1.00  0.00    -0.245 OA
BRANCH   3   5
ATOM      5  C   UNL A   1      43.492  21.010  25.511  1.00  0.00     0.386 C 
BRANCH   5   6
ATOM      6  N   UNL A   1      42.986  20.833  26.898  1.00  0.00    -0.322 N 
ATOM      7  C   UNL A   1      41.925  19.809  26.954  1.00  0.00     0.291 C 
ATOM      8  C   UNL A   1      42.508  22.033  27.614  1.00  0.00     0.295 C 
ATOM      9  H   UNL A   1      43.832  20.547  27.393  1.00  0.00     0.348 HD
ATOM     10  C   UNL A   1      40.568  20.322  26.446  1.00  0.00     0.222 C 
ATOM     11  C   UNL A   1      41.191  22.575  27.036  1.00  0.00     0.173 C 
ATOM     12  O   UNL A   1      40.165  21.556  27.059  1.00  0.00    -0.366 OA
BRANCH  11  13
ATOM     13  C   UNL A   1      40.616  23.815  27.731  1.00  0.00     0.043 C 
BRANCH  13  14
ATOM     14  C   UNL A   1      39.946  24.886  26.860  1.00  0.00     0.038 C 
BRANCH  14  15
ATOM     15  C   UNL A   1      40.679  26.147  26.460  1.00  0.00    -0.048 A 
ATOM     16  C   UNL A   1      40.349  27.434  26.896  1.00  0.00     0.004 A 
ATOM     17  C   UNL A   1      41.774  26.013  25.588  1.00  0.00     0.004 A 
ATOM     18  C   UNL A   1      41.024  28.555  26.397  1.00  0.00     0.000 A 
ATOM     19  C   UNL A   1      42.472  27.128  25.117  1.00  0.00     0.000 A 
ATOM     20  C   UNL A   1      42.080  28.403  25.503  1.00  0.00     0.000 A 
ENDBRANCH  14  15
ENDBRANCH  13  14
ENDBRANCH  11  13
ENDBRANCH   5   6
ENDBRANCH   3   5
ENDBRANCH   2   3
ENDBRANCH   1   2
BRANCH   1  21
ATOM     21  C   UNL A   1      45.911  23.608  27.128  1.00  0.00     0.275 C 
BRANCH  21  22
ATOM     22  O   UNL A   1      44.858  24.558  27.263  1.00  0.00    -0.458 OA
BRANCH  22  23
ATOM     23  C   UNL A   1      45.329  25.833  27.319  1.00  0.00     0.338 C 
ATOM     24  O   UNL A   1      46.234  26.305  26.665  1.00  0.00    -0.246 OA
BRANCH  23  25
ATOM     25  C   UNL A   1      44.396  26.626  28.136  1.00  0.00     0.060 A 
ATOM     26  C   UNL A   1      44.564  28.014  28.126  1.00  0.00     0.016 A 
ATOM     27  C   UNL A   1      43.390  26.021  28.895  1.00  0.00     0.016 A 
ATOM     28  C   UNL A   1      43.787  28.800  28.963  1.00  0.00     0.010 A 
ATOM     29  C   UNL A   1      42.608  26.813  29.734  1.00  0.00     0.010 A 
ATOM     30  C   UNL A   1      42.855  28.194  29.814  1.00  0.00    -0.014 A 
BRANCH  30  31
ATOM     31  C   UNL A   1      42.340  28.974  30.958  1.00  0.00     0.031 A 
ATOM     32  C   UNL A   1      43.109  28.913  32.250  1.00  0.00     0.074 A 
ATOM     33  C   UNL A   1      41.269  29.770  30.820  1.00  0.00     0.049 A 
ATOM     34  N   UNL A   1      42.905  29.558  33.367  1.00  0.00    -0.248 NA
ATOM     35  C   UNL A   1      44.265  27.999  32.287  1.00  0.00     0.031 C 
ATOM     36  C   UNL A   1      40.469  29.912  29.604  1.00  0.00     0.029 A 
ATOM     37  N   UNL A   1      40.677  30.616  31.719  1.00  0.00    -0.354 N 
ATOM     38  C   UNL A   1      43.918  29.150  34.227  1.00  0.00     0.074 A 
ATOM     39  C   UNL A   1      44.699  28.154  33.528  1.00  0.00     0.031 C 
ATOM     40  C   UNL A   1      39.478  30.791  29.839  1.00  0.00     0.029 A 
ATOM     41  C   UNL A   1      39.574  31.264  31.218  1.00  0.00     0.049 A 
ATOM     42  H   UNL A   1      41.008  30.748  32.637  1.00  0.00     0.167 HD
ATOM     43  C   UNL A   1      44.190  29.587  35.477  1.00  0.00     0.037 A 
ATOM     44  C   UNL A   1      38.742  32.138  31.815  1.00  0.00     0.037 A 
ATOM     45  C   UNL A   1      43.397  30.566  36.169  1.00  0.00     0.049 A 
ATOM     46  C   UNL A   1      39.034  32.571  33.230  1.00  0.00     0.074 A 
ATOM     47  C   UNL A   1      43.568  31.070  37.445  1.00  0.00     0.029 A 
ATOM     48  N   UNL A   1      42.277  31.189  35.637  1.00  0.00    -0.354 N 
ATOM     49  N   UNL A   1      40.012  32.198  34.024  1.00  0.00    -0.248 NA
ATOM     50  C   UNL A   1      38.123  33.558  33.822  1.00  0.00     0.031 C 
ATOM     51  C   UNL A   1      42.527  31.971  37.699  1.00  0.00     0.029 A 
ATOM     52  C   UNL A   1      41.737  32.063  36.565  1.00  0.00     0.049 A 
ATOM     53  H   UNL A   1      41.919  31.032  34.733  1.00  0.00     0.167 HD
ATOM     54  C   UNL A   1      39.845  32.922  35.201  1.00  0.00     0.074 A 
ATOM     55  C   UNL A   1      38.685  33.769  35.004  1.00  0.00     0.031 C 
ATOM     56  C   UNL A   1      40.579  32.893  36.341  1.00  0.00     0.037 A 
BRANCH  43  57
ATOM     57  C   UNL A   1      45.389  29.001  36.168  1.00  0.00     0.058 A 
ATOM     58  C   UNL A   1      45.284  27.854  36.973  1.00  0.00     0.135 A 
ATOM     59  C   UNL A   1      46.659  29.579  36.016  1.00  0.00     0.135 A 
ATOM     60  F   UNL A   1      44.088  27.277  37.174  1.00  0.00    -0.206 F 
ATOM     61  C   UNL A   1      46.390  27.314  37.620  1.00  0.00     0.059 A 
ATOM     62  C   UNL A   1      47.784  29.041  36.634  1.00  0.00     0.059 A 
ATOM     63  F   UNL A   1      46.814  30.682  35.267  1.00  0.00    -0.206 F 
ATOM     64  C   UNL A   1      47.637  27.914  37.443  1.00  0.00     0.060 A 
BRANCH  64  65
ATOM     65  S   UNL A   1      49.067  27.196  38.280  1.00  0.00     0.124 S 
ATOM     66  O   UNL A   1      49.013  25.814  37.814  1.00  0.00    -0.237 OA
ATOM     67  O   UNL A   1      50.169  27.998  37.760  1.00  0.00    -0.237 OA
ATOM     68  O   UNL A   1      48.766  27.392  39.695  1.00  0.00    -0.744 OA
ENDBRANCH  64  65
ENDBRANCH  43  57
BRANCH  44  69
ATOM     69  C   UNL A   1      37.559  32.660  31.082  1.00  0.00     0.058 A 
ATOM     70  C   UNL A   1      36.288  32.093  31.245  1.00  0.00     0.135 A 
ATOM     71  C   UNL A   1      37.686  33.736  30.190  1.00  0.00     0.135 A 
ATOM     72  F   UNL A   1      36.116  31.058  32.082  1.00  0.00    -0.206 F 
ATOM     73  C   UNL A   1      35.187  32.555  30.530  1.00  0.00     0.059 A 
ATOM     74  C   UNL A   1      36.596  34.233  29.484  1.00  0.00     0.059 A 
ATOM     75  F   UNL A   1      38.879  34.325  30.010  1.00  0.00    -0.206 F 
ATOM     76  C   UNL A   1      35.352  33.625  29.649  1.00  0.00     0.060 A 
BRANCH  76  77
ATOM     77  S   UNL A   1      33.916  34.234  28.739  1.00  0.00     0.124 S 
ATOM     78  O   UNL A   1      33.534  33.056  27.970  1.00  0.00    -0.237 OA
ATOM     79  O   UNL A   1      33.008  34.617  29.816  1.00  0.00    -0.237 OA
ATOM     80  O   UNL A   1      34.458  35.346  27.963  1.00  0.00    -0.744 OA
ENDBRANCH  76  77
ENDBRANCH  44  69
BRANCH  56  81
ATOM     81  C   UNL A   1      40.160  33.818  37.450  1.00  0.00     0.058 A 
ATOM     82  C   UNL A   1      40.649  35.130  37.537  1.00  0.00     0.135 A 
ATOM     83  C   UNL A   1      39.235  33.395  38.417  1.00  0.00     0.135 A 
ATOM     84  F   UNL A   1      41.535  35.583  36.637  1.00  0.00    -0.206 F 
ATOM     85  C   UNL A   1      40.269  35.978  38.572  1.00  0.00     0.059 A 
ATOM     86  C   UNL A   1      38.818  34.236  39.444  1.00  0.00     0.059 A 
ATOM     87  F   UNL A   1      38.722  32.155  38.368  1.00  0.00    -0.206 F 
ATOM     88  C   UNL A   1      39.356  35.519  39.524  1.00  0.00     0.060 A 
BRANCH  88  89
ATOM     89  S   UNL A   1      38.867  36.629  40.860  1.00  0.00     0.124 S 
ATOM     90  O   UNL A   1      38.438  37.810  40.118  1.00  0.00    -0.237 OA
ATOM     91  O   UNL A   1      37.805  35.878  41.522  1.00  0.00    -0.237 OA
ATOM     92  O   UNL A   1      40.093  36.786  41.637  1.00  0.00    -0.744 OA
ENDBRANCH  88  89
ENDBRANCH  56  81
ENDBRANCH  30  31
ENDBRANCH  23  25
ENDBRANCH  22  23
ENDBRANCH  21  22
ENDBRANCH   1  21
TORSDOF 18
ENDMDL
MODEL 2
REMARK VINA RESULT:      -9.2      4.268     10.433
REMARK SMILES O=C(C[N@@H+]1CCO[C@@H](CCc2ccccc2)C1)OCCOC(=O)c1ccc(-c2c3nc(c(-c4c(F)cc(S(=O)(=O)[O-])cc4F)c4ccc([nH]4)c(-c4c(F)cc(S(=O)(=O)[O-])cc4F)c4nc(c(-c5c(F)cc(S(=O)(=O)[O-])cc5F)c5ccc2[nH]5)C=C4)C=C3)cc1
REMARK SMILES IDX 19 1 18 2 2 3 1 4 3 5 4 6 5 7 17 8 6 10 8 11 7 12 9 13 10 14
REMARK SMILES IDX 11 15 12 16 16 17 13 18 15 19 14 20 20 21 21 22 22 23 23 24
REMARK SMILES IDX 24 25 25 26 89 27 26 28 88 29 27 30 28 31 29 32 82 33 30 34
REMARK SMILES IDX 87 35 81 36 83 37 31 38 86 39 80 40 79 41 32 43 66 44 45 45
REMARK SMILES IDX 65 46 46 47 49 48 64 49 84 50 47 51 48 52 63 54 85 55 50 56
REMARK SMILES IDX 33 57 34 58 43 59 35 60 36 61 42 62 44 63 37 64 38 65 39 66
REMARK SMILES IDX 40 67 41 68 67 69 68 70 77 71 69 72 70 73 76 74 78 75 71 76
REMARK SMILES IDX 72 77 73 78 74 79 75 80 51 81 52 82 61 83 53 84 54 85 60 86
REMARK SMILES IDX 62 87 55 88 56 89 57 90 58 91 59 92
REMARK H PARENT 4 9 83 42 49 53
REMARK Flexibility Score: inf
ROOT
ATOM      1  C   UNL A   1      32.312  30.030  25.551  1.00  0.00     0.274 C 
ENDROOT
BRANCH   1   2
ATOM      2  O   UNL A   1      31.242  29.068  25.689  1.00  0.00    -0.458 OA
BRANCH   2   3
ATOM      3  C   UNL A   1      31.327  27.739  25.389  1.00  0.00     0.361 C 
ATOM      4  O   UNL A   1      31.226  26.903  26.284  1.00  0.00    -0.245 OA
BRANCH   3   5
ATOM      5  C   UNL A   1      31.666  27.346  23.951  1.00  0.00     0.386 C 
BRANCH   5   6
ATOM      6  N   UNL A   1      33.099  27.303  23.558  1.00  0.00    -0.322 N 
ATOM      7  C   UNL A   1      33.260  26.807  22.177  1.00  0.00     0.291 C 
ATOM      8  C   UNL A   1      34.029  26.556  24.428  1.00  0.00     0.295 C 
ATOM      9  H   UNL A   1      33.371  28.281  23.655  1.00  0.00     0.348 HD
ATOM     10  C   UNL A   1      33.108  25.281  22.066  1.00  0.00     0.222 C 
ATOM     11  C   UNL A   1      33.803  25.037  24.361  1.00  0.00     0.173 C 
ATOM     12  O   UNL A   1      33.926  24.561  23.000  1.00  0.00    -0.366 OA
BRANCH  11  13
ATOM     13  C   UNL A   1      34.738  24.184  25.227  1.00  0.00     0.043 C 
BRANCH  13  14
ATOM     14  C   UNL A   1      35.892  23.447  24.535  1.00  0.00     0.038 C 
BRANCH  14  15
ATOM     15  C   UNL A   1      37.151  23.073  25.285  1.00  0.00    -0.048 A 
ATOM     16  C   UNL A   1      37.863  23.932  26.126  1.00  0.00     0.004 A 
ATOM     17  C   UNL A   1      37.635  21.762  25.127  1.00  0.00     0.004 A 
ATOM     18  C   UNL A   1      39.074  23.528  26.705  1.00  0.00     0.000 A 
ATOM     19  C   UNL A   1      38.823  21.345  25.732  1.00  0.00     0.000 A 
ATOM     20  C   UNL A   1      39.556  22.238  26.503  1.00  0.00     0.000 A 
ENDBRANCH  14  15
ENDBRANCH  13  14
ENDBRANCH  11  13
ENDBRANCH   5   6
ENDBRANCH   3   5
ENDBRANCH   2   3
ENDBRANCH   1   2
BRANCH   1  21
ATOM     21  C   UNL A   1      33.597  29.684  26.301  1.00  0.00     0.275 C 
BRANCH  21  22
ATOM     22  O   UNL A   1      33.564  30.236  27.613  1.00  0.00    -0.458 OA
BRANCH  22  23
ATOM     23  C   UNL A   1      34.551  31.153  27.803  1.00  0.00     0.338 C 
ATOM     24  O   UNL A   1      34.422  32.354  27.904  1.00  0.00    -0.246 OA
BRANCH  23  25
ATOM     25  C   UNL A   1      35.793  30.425  28.111  1.00  0.00     0.060 A 
ATOM     26  C   UNL A   1      35.827  29.703  29.308  1.00  0.00     0.016 A 
ATOM     27  C   UNL A   1      36.895  30.458  27.251  1.00  0.00     0.016 A 
ATOM     28  C   UNL A   1      37.008  29.092  29.701  1.00  0.00     0.010 A 
ATOM     29  C   UNL A   1      38.080  29.841  27.647  1.00  0.00     0.010 A 
ATOM     30  C   UNL A   1      38.151  29.216  28.903  1.00  0.00    -0.014 A 
BRANCH  30  31
ATOM     31  C   UNL A   1      39.465  28.921  29.510  1.00  0.00     0.031 A 
ATOM     32  C   UNL A   1      39.887  29.740  30.700  1.00  0.00     0.074 A 
ATOM     33  C   UNL A   1      40.216  27.904  29.062  1.00  0.00     0.049 A 
ATOM     34  N   UNL A   1      40.951  29.627  31.449  1.00  0.00    -0.248 NA
ATOM     35  C   UNL A   1      38.985  30.836  31.100  1.00  0.00     0.031 C 
ATOM     36  C   UNL A   1      39.886  27.040  27.929  1.00  0.00     0.029 A 
ATOM     37  N   UNL A   1      41.415  27.423  29.518  1.00  0.00    -0.354 N 
ATOM     38  C   UNL A   1      40.834  30.616  32.419  1.00  0.00     0.074 A 
ATOM     39  C   UNL A   1      39.630  31.362  32.129  1.00  0.00     0.031 C 
ATOM     40  C   UNL A   1      40.870  26.137  27.772  1.00  0.00     0.029 A 
ATOM     41  C   UNL A   1      41.895  26.364  28.788  1.00  0.00     0.049 A 
ATOM     42  H   UNL A   1      41.887  27.800  30.296  1.00  0.00     0.167 HD
ATOM     43  C   UNL A   1      41.643  30.863  33.474  1.00  0.00     0.037 A 
ATOM     44  C   UNL A   1      43.037  25.666  28.930  1.00  0.00     0.037 A 
ATOM     45  C   UNL A   1      42.847  30.125  33.743  1.00  0.00     0.049 A 
ATOM     46  C   UNL A   1      43.952  25.993  30.083  1.00  0.00     0.074 A 
ATOM     47  C   UNL A   1      43.754  30.300  34.772  1.00  0.00     0.029 A 
ATOM     48  N   UNL A   1      43.313  29.070  32.971  1.00  0.00    -0.354 N 
ATOM     49  N   UNL A   1      43.817  26.914  31.011  1.00  0.00    -0.248 NA
ATOM     50  C   UNL A   1      45.163  25.175  30.221  1.00  0.00     0.031 C 
ATOM     51  C   UNL A   1      44.789  29.374  34.601  1.00  0.00     0.029 A 
ATOM     52  C   UNL A   1      44.502  28.592  33.493  1.00  0.00     0.049 A 
ATOM     53  H   UNL A   1      42.862  28.715  32.171  1.00  0.00     0.167 HD
ATOM     54  C   UNL A   1      44.914  26.769  31.854  1.00  0.00     0.074 A 
ATOM     55  C   UNL A   1      45.690  25.660  31.337  1.00  0.00     0.031 C 
ATOM     56  C   UNL A   1      45.254  27.485  32.955  1.00  0.00     0.037 A 
BRANCH  43  57
ATOM     57  C   UNL A   1      41.247  31.976  34.402  1.00  0.00     0.058 A 
ATOM     58  C   UNL A   1      40.399  31.749  35.499  1.00  0.00     0.135 A 
ATOM     59  C   UNL A   1      41.727  33.280  34.205  1.00  0.00     0.135 A 
ATOM     60  F   UNL A   1      39.889  30.526  35.718  1.00  0.00    -0.206 F 
ATOM     61  C   UNL A   1      40.025  32.779  36.356  1.00  0.00     0.059 A 
ATOM     62  C   UNL A   1      41.386  34.321  35.064  1.00  0.00     0.059 A 
ATOM     63  F   UNL A   1      42.531  33.554  33.166  1.00  0.00    -0.206 F 
ATOM     64  C   UNL A   1      40.524  34.062  36.130  1.00  0.00     0.060 A 
BRANCH  64  65
ATOM     65  S   UNL A   1      40.038  35.387  37.257  1.00  0.00     0.124 S 
ATOM     66  O   UNL A   1      41.276  35.606  37.999  1.00  0.00    -0.237 OA
ATOM     67  O   UNL A   1      39.653  36.453  36.337  1.00  0.00    -0.237 OA
ATOM     68  O   UNL A   1      38.944  34.798  38.022  1.00  0.00    -0.744 OA
ENDBRANCH  64  65
ENDBRANCH  43  57
BRANCH  44  69
ATOM     69  C   UNL A   1      43.379  24.593  27.960  1.00  0.00     0.058 A 
ATOM     70  C   UNL A   1      42.877  23.292  28.098  1.00  0.00     0.135 A 
ATOM     71  C   UNL A   1      44.232  24.853  26.875  1.00  0.00     0.135 A 
ATOM     72  F   UNL A   1      42.063  22.992  29.122  1.00  0.00    -0.206 F 
ATOM     73  C   UNL A   1      43.227  22.277  27.213  1.00  0.00     0.059 A 
ATOM     74  C   UNL A   1      44.576  23.862  25.961  1.00  0.00     0.059 A 
ATOM     75  F   UNL A   1      44.727  26.086  26.689  1.00  0.00    -0.206 F 
ATOM     76  C   UNL A   1      44.081  22.572  26.148  1.00  0.00     0.060 A 
BRANCH  76  77
ATOM     77  S   UNL A   1      44.516  21.257  24.990  1.00  0.00     0.124 S 
ATOM     78  O   UNL A   1      44.381  21.937  23.708  1.00  0.00    -0.237 OA
ATOM     79  O   UNL A   1      45.878  20.926  25.397  1.00  0.00    -0.237 OA
ATOM     80  O   UNL A   1      43.520  20.225  25.265  1.00  0.00    -0.744 OA
ENDBRANCH  76  77
ENDBRANCH  44  69
BRANCH  56  81
ATOM     81  C   UNL A   1      46.505  27.073  33.681  1.00  0.00     0.058 A 
ATOM     82  C   UNL A   1      47.745  27.667  33.405  1.00  0.00     0.135 A 
ATOM     83  C   UNL A   1      46.453  26.093  34.686  1.00  0.00     0.135 A 
ATOM     84  F   UNL A   1      47.848  28.610  32.456  1.00  0.00    -0.206 F 
ATOM     85  C   UNL A   1      48.902  27.273  34.070  1.00  0.00     0.059 A 
ATOM     86  C   UNL A   1      47.592  25.705  35.384  1.00  0.00     0.059 A 
ATOM     87  F   UNL A   1      45.287  25.507  35.001  1.00  0.00    -0.206 F 
ATOM     88  C   UNL A   1      48.815  26.287  35.056  1.00  0.00     0.060 A 
BRANCH  88  89
ATOM     89  S   UNL A   1      50.321  25.786  35.914  1.00  0.00     0.124 S 
ATOM     90  O   UNL A   1      50.201  24.332  35.890  1.00  0.00    -0.237 OA
ATOM     91  O   UNL A   1      51.369  26.350  35.068  1.00  0.00    -0.237 OA
ATOM     92  O   UNL A   1      50.184  26.406  37.229  1.00  0.00    -0.744 OA
ENDBRANCH  88  89
ENDBRANCH  56  81
ENDBRANCH  30  31
ENDBRANCH  23  25
ENDBRANCH  22  23
ENDBRANCH  21  22
ENDBRANCH   1  21
TORSDOF 18
ENDMDL
MODEL 3
REMARK VINA RESULT:      -9.1      3.479      5.242
REMARK SMILES O=C(C[N@@H+]1CCO[C@@H](CCc2ccccc2)C1)OCCOC(=O)c1ccc(-c2c3nc(c(-c4c(F)cc(S(=O)(=O)[O-])cc4F)c4ccc([nH]4)c(-c4c(F)cc(S(=O)(=O)[O-])cc4F)c4nc(c(-c5c(F)cc(S(=O)(=O)[O-])cc5F)c5ccc2[nH]5)C=C4)C=C3)cc1
REMARK SMILES IDX 19 1 18 2 2 3 1 4 3 5 4 6 5 7 17 8 6 10 8 11 7 12 9 13 10 14
REMARK SMILES IDX 11 15 12 16 16 17 13 18 15 19 14 20 20 21 21 22 22 23 23 24
REMARK SMILES IDX 24 25 25 26 89 27 26 28 88 29 27 30 28 31 29 32 82 33 30 34
REMARK SMILES IDX 87 35 81 36 83 37 31 38 86 39 80 40 79 41 32 43 66 44 45 45
REMARK SMILES IDX 65 46 46 47 49 48 64 49 84 50 47 51 48 52 63 54 85 55 50 56
REMARK SMILES IDX 33 57 34 58 43 59 35 60 36 61 42 62 44 63 37 64 38 65 39 66
REMARK SMILES IDX 40 67 41 68 67 69 68 70 77 71 69 72 70 73 76 74 78 75 71 76
REMARK SMILES IDX 72 77 73 78 74 79 75 80 51 81 52 82 61 83 53 84 54 85 60 86
REMARK SMILES IDX 62 87 55 88 56 89 57 90 58 91 59 92
REMARK H PARENT 4 9 83 42 49 53
REMARK Flexibility Score: inf
ROOT
ATOM      1  C   UNL A   1      39.562  21.726  26.164  1.00  0.00     0.274 C 
ENDROOT
BRANCH   1   2
ATOM      2  O   UNL A   1      38.319  22.463  26.199  1.00  0.00    -0.458 OA
BRANCH   2   3
ATOM      3  C   UNL A   1      37.386  22.493  25.202  1.00  0.00     0.361 C 
ATOM      4  O   UNL A   1      37.508  21.752  24.230  1.00  0.00    -0.245 OA
BRANCH   3   5
ATOM      5  C   UNL A   1      36.279  23.544  25.284  1.00  0.00     0.386 C 
BRANCH   5   6
ATOM      6  N   UNL A   1      35.247  23.557  24.214  1.00  0.00    -0.322 N 
ATOM      7  C   UNL A   1      34.397  24.759  24.305  1.00  0.00     0.291 C 
ATOM      8  C   UNL A   1      34.367  22.377  24.093  1.00  0.00     0.295 C 
ATOM      9  H   UNL A   1      35.822  23.548  23.370  1.00  0.00     0.348 HD
ATOM     10  C   UNL A   1      33.343  24.667  25.421  1.00  0.00     0.222 C 
ATOM     11  C   UNL A   1      33.377  22.262  25.262  1.00  0.00     0.173 C 
ATOM     12  O   UNL A   1      32.571  23.458  25.370  1.00  0.00    -0.366 OA
BRANCH  11  13
ATOM     13  C   UNL A   1      32.415  21.068  25.208  1.00  0.00     0.043 C 
BRANCH  13  14
ATOM     14  C   UNL A   1      32.591  20.050  24.074  1.00  0.00     0.038 C 
BRANCH  14  15
ATOM     15  C   UNL A   1      32.890  18.596  24.361  1.00  0.00    -0.048 A 
ATOM     16  C   UNL A   1      32.629  17.952  25.574  1.00  0.00     0.004 A 
ATOM     17  C   UNL A   1      33.469  17.837  23.328  1.00  0.00     0.004 A 
ATOM     18  C   UNL A   1      33.029  16.625  25.782  1.00  0.00     0.000 A 
ATOM     19  C   UNL A   1      33.836  16.502  23.522  1.00  0.00     0.000 A 
ATOM     20  C   UNL A   1      33.638  15.903  24.759  1.00  0.00     0.000 A 
ENDBRANCH  14  15
ENDBRANCH  13  14
ENDBRANCH  11  13
ENDBRANCH   5   6
ENDBRANCH   3   5
ENDBRANCH   2   3
ENDBRANCH   1   2
BRANCH   1  21
ATOM     21  C   UNL A   1      40.731  22.390  26.890  1.00  0.00     0.275 C 
BRANCH  21  22
ATOM     22  O   UNL A   1      40.665  23.805  26.736  1.00  0.00    -0.458 OA
BRANCH  22  23
ATOM     23  C   UNL A   1      41.737  24.426  27.297  1.00  0.00     0.338 C 
ATOM     24  O   UNL A   1      42.908  24.192  27.086  1.00  0.00    -0.246 OA
BRANCH  23  25
ATOM     25  C   UNL A   1      41.247  25.604  28.030  1.00  0.00     0.060 A 
ATOM     26  C   UNL A   1      42.142  26.664  28.202  1.00  0.00     0.016 A 
ATOM     27  C   UNL A   1      39.947  25.662  28.540  1.00  0.00     0.016 A 
ATOM     28  C   UNL A   1      41.771  27.750  28.980  1.00  0.00     0.010 A 
ATOM     29  C   UNL A   1      39.574  26.755  29.319  1.00  0.00     0.010 A 
ATOM     30  C   UNL A   1      40.511  27.765  29.592  1.00  0.00    -0.014 A 
BRANCH  30  31
ATOM     31  C   UNL A   1      40.289  28.701  30.713  1.00  0.00     0.031 A 
ATOM     32  C   UNL A   1      41.153  28.546  31.935  1.00  0.00     0.074 A 
ATOM     33  C   UNL A   1      39.401  29.701  30.608  1.00  0.00     0.049 A 
ATOM     34  N   UNL A   1      41.202  29.282  33.014  1.00  0.00    -0.248 NA
ATOM     35  C   UNL A   1      42.089  27.408  31.942  1.00  0.00     0.031 C 
ATOM     36  C   UNL A   1      38.531  29.945  29.458  1.00  0.00     0.029 A 
ATOM     37  N   UNL A   1      39.092  30.704  31.488  1.00  0.00    -0.354 N 
ATOM     38  C   UNL A   1      42.187  28.712  33.812  1.00  0.00     0.074 A 
ATOM     39  C   UNL A   1      42.667  27.534  33.126  1.00  0.00     0.031 C 
ATOM     40  C   UNL A   1      37.776  31.029  29.710  1.00  0.00     0.029 A 
ATOM     41  C   UNL A   1      38.107  31.546  31.036  1.00  0.00     0.049 A 
ATOM     42  H   UNL A   1      39.534  30.811  32.361  1.00  0.00     0.167 HD
ATOM     43  C   UNL A   1      42.668  29.148  34.998  1.00  0.00     0.037 A 
ATOM     44  C   UNL A   1      37.541  32.611  31.634  1.00  0.00     0.037 A 
ATOM     45  C   UNL A   1      42.172  30.313  35.679  1.00  0.00     0.049 A 
ATOM     46  C   UNL A   1      38.057  33.049  32.981  1.00  0.00     0.074 A 
ATOM     47  C   UNL A   1      42.572  30.838  36.894  1.00  0.00     0.029 A 
ATOM     48  N   UNL A   1      41.160  31.133  35.200  1.00  0.00    -0.354 N 
ATOM     49  N   UNL A   1      39.009  32.517  33.715  1.00  0.00    -0.248 NA
ATOM     50  C   UNL A   1      37.437  34.241  33.573  1.00  0.00     0.031 C 
ATOM     51  C   UNL A   1      41.775  31.955  37.167  1.00  0.00     0.029 A 
ATOM     52  C   UNL A   1      40.911  32.153  36.101  1.00  0.00     0.049 A 
ATOM     53  H   UNL A   1      40.689  31.007  34.344  1.00  0.00     0.167 HD
ATOM     54  C   UNL A   1      39.116  33.324  34.843  1.00  0.00     0.074 A 
ATOM     55  C   UNL A   1      38.147  34.390  34.683  1.00  0.00     0.031 C 
ATOM     56  C   UNL A   1      39.938  33.200  35.916  1.00  0.00     0.037 A 
BRANCH  43  57
ATOM     57  C   UNL A   1      43.780  28.356  35.625  1.00  0.00     0.058 A 
ATOM     58  C   UNL A   1      45.128  28.616  35.321  1.00  0.00     0.135 A 
ATOM     59  C   UNL A   1      43.504  27.336  36.548  1.00  0.00     0.135 A 
ATOM     60  F   UNL A   1      45.447  29.564  34.425  1.00  0.00    -0.206 F 
ATOM     61  C   UNL A   1      46.159  27.881  35.894  1.00  0.00     0.059 A 
ATOM     62  C   UNL A   1      44.521  26.603  37.153  1.00  0.00     0.059 A 
ATOM     63  F   UNL A   1      42.234  27.038  36.865  1.00  0.00    -0.206 F 
ATOM     64  C   UNL A   1      45.846  26.875  36.810  1.00  0.00     0.060 A 
BRANCH  64  65
ATOM     65  S   UNL A   1      47.195  25.935  37.554  1.00  0.00     0.124 S 
ATOM     66  O   UNL A   1      47.064  24.650  36.874  1.00  0.00    -0.237 OA
ATOM     67  O   UNL A   1      48.366  26.728  37.190  1.00  0.00    -0.237 OA
ATOM     68  O   UNL A   1      46.864  25.930  38.975  1.00  0.00    -0.744 OA
ENDBRANCH  64  65
ENDBRANCH  43  57
BRANCH  44  69
ATOM     69  C   UNL A   1      36.427  33.335  30.967  1.00  0.00     0.058 A 
ATOM     70  C   UNL A   1      36.647  34.150  29.849  1.00  0.00     0.135 A 
ATOM     71  C   UNL A   1      35.113  33.229  31.451  1.00  0.00     0.135 A 
ATOM     72  F   UNL A   1      37.886  34.288  29.353  1.00  0.00    -0.206 F 
ATOM     73  C   UNL A   1      35.611  34.859  29.248  1.00  0.00     0.059 A 
ATOM     74  C   UNL A   1      34.056  33.906  30.852  1.00  0.00     0.059 A 
ATOM     75  F   UNL A   1      34.846  32.449  32.509  1.00  0.00    -0.206 F 
ATOM     76  C   UNL A   1      34.317  34.732  29.759  1.00  0.00     0.060 A 
BRANCH  76  77
ATOM     77  S   UNL A   1      32.973  35.636  28.963  1.00  0.00     0.124 S 
ATOM     78  O   UNL A   1      32.195  36.080  30.113  1.00  0.00    -0.237 OA
ATOM     79  O   UNL A   1      33.691  36.679  28.236  1.00  0.00    -0.237 OA
ATOM     80  O   UNL A   1      32.338  34.624  28.124  1.00  0.00    -0.744 OA
ENDBRANCH  76  77
ENDBRANCH  44  69
BRANCH  56  81
ATOM     81  C   UNL A   1      39.836  34.255  36.983  1.00  0.00     0.058 A 
ATOM     82  C   UNL A   1      39.121  34.034  38.170  1.00  0.00     0.135 A 
ATOM     83  C   UNL A   1      40.487  35.489  36.826  1.00  0.00     0.135 A 
ATOM     84  F   UNL A   1      38.483  32.871  38.368  1.00  0.00    -0.206 F 
ATOM     85  C   UNL A   1      39.019  35.017  39.148  1.00  0.00     0.059 A 
ATOM     86  C   UNL A   1      40.422  36.476  37.805  1.00  0.00     0.059 A 
ATOM     87  F   UNL A   1      41.199  35.744  35.717  1.00  0.00    -0.206 F 
ATOM     88  C   UNL A   1      39.669  36.238  38.953  1.00  0.00     0.060 A 
BRANCH  88  89
ATOM     89  S   UNL A   1      39.532  37.505  40.231  1.00  0.00     0.124 S 
ATOM     90  O   UNL A   1      40.923  37.655  40.644  1.00  0.00    -0.237 OA
ATOM     91  O   UNL A   1      38.965  38.633  39.497  1.00  0.00    -0.237 OA
ATOM     92  O   UNL A   1      38.645  36.898  41.218  1.00  0.00    -0.744 OA
ENDBRANCH  88  89
ENDBRANCH  56  81
ENDBRANCH  30  31
ENDBRANCH  23  25
ENDBRANCH  22  23
ENDBRANCH  21  22
ENDBRANCH   1  21
TORSDOF 18
ENDMDL
