MODEL 1
REMARK VINA RESULT:     -10.3      0.000      0.000
REMARK SMILES O=C(OCCOC(=O)c1cccnc1SCC(=O)c1ccccc1Cl)c1ccc(-c2c3nc(c(-c4c(F)cc(S(=O)(=O)[O-])cc4F)c4ccc([nH]4)c(-c4c(F)cc(S(=O)(=O)[O-])cc4F)c4nc(c(-c5c(F)cc(S(=O)(=O)[O-])cc5F)c5ccc2[nH]5)C=C4)C=C3)cc1
REMARK SMILES IDX 5 1 4 2 3 3 2 4 1 5 26 6 27 7 91 8 28 9 90 10 29 11 30 12
REMARK SMILES IDX 31 13 84 14 32 15 89 16 83 17 85 18 33 19 88 20 82 21 81 22
REMARK SMILES IDX 34 24 68 25 47 26 67 27 48 28 51 29 66 30 86 31 49 32 50 33
REMARK SMILES IDX 65 35 87 36 52 37 35 38 36 39 45 40 37 41 38 42 44 43 46 44
REMARK SMILES IDX 39 45 40 46 41 47 42 48 43 49 69 50 70 51 79 52 71 53 72 54
REMARK SMILES IDX 78 55 80 56 73 57 74 58 75 59 76 60 77 61 53 62 54 63 63 64
REMARK SMILES IDX 55 65 56 66 62 67 64 68 57 69 58 70 59 71 60 72 61 73 6 74
REMARK SMILES IDX 7 75 8 76 9 77 10 78 14 79 11 80 13 81 12 82 15 83 16 84
REMARK SMILES IDX 17 85 18 86 19 87 20 88 24 89 21 90 23 91 25 92 22 93
REMARK H PARENT 85 23 51 34
REMARK Flexibility Score: inf
ROOT
ATOM      1  C   UNL A   1      41.074  20.372  27.314  1.00  0.00     0.275 C 
ENDROOT
BRANCH   1   2
ATOM      2  C   UNL A   1      39.880  20.896  26.498  1.00  0.00     0.275 C 
BRANCH   2   3
ATOM      3  O   UNL A   1      40.075  22.260  26.114  1.00  0.00    -0.458 OA
BRANCH   3   4
ATOM      4  C   UNL A   1      39.020  23.067  26.398  1.00  0.00     0.338 C 
ATOM      5  O   UNL A   1      37.865  22.886  26.060  1.00  0.00    -0.246 OA
BRANCH   4   6
ATOM      6  C   UNL A   1      39.567  24.322  26.981  1.00  0.00     0.060 A 
ATOM      7  C   UNL A   1      40.112  25.316  26.162  1.00  0.00     0.016 A 
ATOM      8  C   UNL A   1      39.363  24.578  28.338  1.00  0.00     0.016 A 
ATOM      9  C   UNL A   1      40.440  26.550  26.697  1.00  0.00     0.010 A 
ATOM     10  C   UNL A   1      39.583  25.851  28.856  1.00  0.00     0.010 A 
ATOM     11  C   UNL A   1      40.179  26.820  28.045  1.00  0.00    -0.014 A 
BRANCH  11  12
ATOM     12  C   UNL A   1      40.795  28.028  28.620  1.00  0.00     0.031 A 
ATOM     13  C   UNL A   1      42.277  28.177  28.444  1.00  0.00     0.074 A 
ATOM     14  C   UNL A   1      40.018  29.017  29.097  1.00  0.00     0.049 A 
ATOM     15  N   UNL A   1      43.013  29.247  28.557  1.00  0.00    -0.248 NA
ATOM     16  C   UNL A   1      43.029  26.973  28.043  1.00  0.00     0.031 C 
ATOM     17  C   UNL A   1      38.562  28.946  29.253  1.00  0.00     0.029 A 
ATOM     18  N   UNL A   1      40.333  30.286  29.498  1.00  0.00    -0.354 N 
ATOM     19  C   UNL A   1      44.292  28.855  28.181  1.00  0.00     0.074 A 
ATOM     20  C   UNL A   1      44.261  27.437  27.927  1.00  0.00     0.031 C 
ATOM     21  C   UNL A   1      38.111  30.123  29.719  1.00  0.00     0.029 A 
ATOM     22  C   UNL A   1      39.240  31.034  29.869  1.00  0.00     0.049 A 
ATOM     23  H   UNL A   1      41.255  30.631  29.519  1.00  0.00     0.167 HD
ATOM     24  C   UNL A   1      45.388  29.626  28.014  1.00  0.00     0.037 A 
ATOM     25  C   UNL A   1      39.170  32.323  30.253  1.00  0.00     0.037 A 
ATOM     26  C   UNL A   1      45.396  31.028  28.314  1.00  0.00     0.049 A 
ATOM     27  C   UNL A   1      40.432  33.142  30.166  1.00  0.00     0.074 A 
ATOM     28  C   UNL A   1      46.443  31.924  28.241  1.00  0.00     0.029 A 
ATOM     29  N   UNL A   1      44.285  31.730  28.768  1.00  0.00    -0.354 N 
ATOM     30  N   UNL A   1      41.624  32.772  29.756  1.00  0.00    -0.248 NA
ATOM     31  C   UNL A   1      40.338  34.553  30.554  1.00  0.00     0.031 C 
ATOM     32  C   UNL A   1      45.973  33.162  28.695  1.00  0.00     0.029 A 
ATOM     33  C   UNL A   1      44.625  33.047  29.005  1.00  0.00     0.049 A 
ATOM     34  H   UNL A   1      43.390  31.345  28.901  1.00  0.00     0.167 HD
ATOM     35  C   UNL A   1      42.416  33.912  29.801  1.00  0.00     0.074 A 
ATOM     36  C   UNL A   1      41.562  34.986  30.276  1.00  0.00     0.031 C 
ATOM     37  C   UNL A   1      43.725  34.071  29.477  1.00  0.00     0.037 A 
BRANCH  24  38
ATOM     38  C   UNL A   1      46.627  28.942  27.515  1.00  0.00     0.058 A 
ATOM     39  C   UNL A   1      46.828  28.697  26.144  1.00  0.00     0.135 A 
ATOM     40  C   UNL A   1      47.589  28.459  28.413  1.00  0.00     0.135 A 
ATOM     41  F   UNL A   1      45.919  29.105  25.244  1.00  0.00    -0.206 F 
ATOM     42  C   UNL A   1      47.921  27.967  25.687  1.00  0.00     0.059 A 
ATOM     43  C   UNL A   1      48.702  27.746  27.975  1.00  0.00     0.059 A 
ATOM     44  F   UNL A   1      47.436  28.646  29.733  1.00  0.00    -0.206 F 
ATOM     45  C   UNL A   1      48.850  27.489  26.613  1.00  0.00     0.060 A 
BRANCH  45  46
ATOM     46  S   UNL A   1      50.248  26.519  26.009  1.00  0.00     0.124 S 
ATOM     47  O   UNL A   1      50.153  25.321  26.838  1.00  0.00    -0.237 OA
ATOM     48  O   UNL A   1      49.921  26.341  24.599  1.00  0.00    -0.237 OA
ATOM     49  O   UNL A   1      51.398  27.377  26.279  1.00  0.00    -0.744 OA
ENDBRANCH  45  46
ENDBRANCH  24  38
BRANCH  25  50
ATOM     50  C   UNL A   1      37.876  32.907  30.702  1.00  0.00     0.058 A 
ATOM     51  C   UNL A   1      36.941  33.427  29.796  1.00  0.00     0.135 A 
ATOM     52  C   UNL A   1      37.542  32.937  32.067  1.00  0.00     0.135 A 
ATOM     53  F   UNL A   1      37.207  33.420  28.482  1.00  0.00    -0.206 F 
ATOM     54  C   UNL A   1      35.732  33.974  30.224  1.00  0.00     0.059 A 
ATOM     55  C   UNL A   1      36.332  33.460  32.518  1.00  0.00     0.059 A 
ATOM     56  F   UNL A   1      38.389  32.434  32.978  1.00  0.00    -0.206 F 
ATOM     57  C   UNL A   1      35.437  33.985  31.589  1.00  0.00     0.060 A 
BRANCH  57  58
ATOM     58  S   UNL A   1      33.850  34.661  32.131  1.00  0.00     0.124 S 
ATOM     59  O   UNL A   1      34.271  35.839  32.879  1.00  0.00    -0.237 OA
ATOM     60  O   UNL A   1      33.177  34.917  30.861  1.00  0.00    -0.237 OA
ATOM     61  O   UNL A   1      33.279  33.578  32.927  1.00  0.00    -0.744 OA
ENDBRANCH  57  58
ENDBRANCH  25  50
BRANCH  37  62
ATOM     62  C   UNL A   1      44.291  35.452  29.607  1.00  0.00     0.058 A 
ATOM     63  C   UNL A   1      44.265  36.355  28.534  1.00  0.00     0.135 A 
ATOM     64  C   UNL A   1      44.797  35.896  30.839  1.00  0.00     0.135 A 
ATOM     65  F   UNL A   1      43.793  35.971  27.337  1.00  0.00    -0.206 F 
ATOM     66  C   UNL A   1      44.742  37.651  28.674  1.00  0.00     0.059 A 
ATOM     67  C   UNL A   1      45.253  37.195  31.008  1.00  0.00     0.059 A 
ATOM     68  F   UNL A   1      44.827  35.068  31.896  1.00  0.00    -0.206 F 
ATOM     69  C   UNL A   1      45.232  38.063  29.916  1.00  0.00     0.060 A 
BRANCH  69  70
ATOM     70  S   UNL A   1      45.811  39.761  30.097  1.00  0.00     0.124 S 
ATOM     71  O   UNL A   1      46.794  39.849  29.023  1.00  0.00    -0.237 OA
ATOM     72  O   UNL A   1      44.587  40.532  29.900  1.00  0.00    -0.237 OA
ATOM     73  O   UNL A   1      46.353  39.791  31.451  1.00  0.00    -0.744 OA
ENDBRANCH  69  70
ENDBRANCH  37  62
ENDBRANCH  11  12
ENDBRANCH   4   6
ENDBRANCH   3   4
ENDBRANCH   2   3
ENDBRANCH   1   2
BRANCH   1  74
ATOM     74  O   UNL A   1      42.335  20.613  26.656  1.00  0.00    -0.458 OA
BRANCH  74  75
ATOM     75  C   UNL A   1      42.715  19.680  25.759  1.00  0.00     0.341 C 
ATOM     76  O   UNL A   1      42.093  18.683  25.423  1.00  0.00    -0.246 OA
BRANCH  75  77
ATOM     77  C   UNL A   1      44.116  19.861  25.374  1.00  0.00     0.092 A 
ATOM     78  C   UNL A   1      44.921  18.730  25.614  1.00  0.00     0.020 A 
ATOM     79  C   UNL A   1      44.692  21.000  24.814  1.00  0.00     0.111 A 
ATOM     80  C   UNL A   1      46.276  18.758  25.323  1.00  0.00     0.021 A 
ATOM     81  N   UNL A   1      46.022  21.004  24.493  1.00  0.00    -0.249 NA
ATOM     82  C   UNL A   1      46.778  19.911  24.760  1.00  0.00     0.112 A 
BRANCH  79  83
ATOM     83  S   UNL A   1      44.054  22.658  24.761  1.00  0.00    -0.097 SA
BRANCH  83  84
ATOM     84  C   UNL A   1      44.022  23.451  26.369  1.00  0.00     0.157 C 
BRANCH  84  85
ATOM     85  C   UNL A   1      45.310  23.526  27.122  1.00  0.00     0.174 C 
ATOM     86  O   UNL A   1      46.389  23.323  26.560  1.00  0.00    -0.293 OA
BRANCH  85  87
ATOM     87  C   UNL A   1      45.329  24.068  28.509  1.00  0.00     0.037 A 
ATOM     88  C   UNL A   1      46.457  24.848  28.827  1.00  0.00     0.013 A 
ATOM     89  C   UNL A   1      44.320  23.920  29.470  1.00  0.00     0.051 A 
ATOM     90  C   UNL A   1      46.547  25.521  30.042  1.00  0.00     0.001 A 
ATOM     91  C   UNL A   1      44.408  24.619  30.681  1.00  0.00     0.021 A 
ATOM     92  Cl  UNL A   1      42.958  22.871  29.325  1.00  0.00    -0.084 Cl
ATOM     93  C   UNL A   1      45.510  25.424  30.961  1.00  0.00     0.002 A 
ENDBRANCH  85  87
ENDBRANCH  84  85
ENDBRANCH  83  84
ENDBRANCH  79  83
ENDBRANCH  75  77
ENDBRANCH  74  75
ENDBRANCH   1  74
TORSDOF 18
ENDMDL
MODEL 2
REMARK VINA RESULT:     -10.2      4.892      7.086
REMARK SMILES O=C(OCCOC(=O)c1cccnc1SCC(=O)c1ccccc1Cl)c1ccc(-c2c3nc(c(-c4c(F)cc(S(=O)(=O)[O-])cc4F)c4ccc([nH]4)c(-c4c(F)cc(S(=O)(=O)[O-])cc4F)c4nc(c(-c5c(F)cc(S(=O)(=O)[O-])cc5F)c5ccc2[nH]5)C=C4)C=C3)cc1
REMARK SMILES IDX 5 1 4 2 3 3 2 4 1 5 26 6 27 7 91 8 28 9 90 10 29 11 30 12
REMARK SMILES IDX 31 13 84 14 32 15 89 16 83 17 85 18 33 19 88 20 82 21 81 22
REMARK SMILES IDX 34 24 68 25 47 26 67 27 48 28 51 29 66 30 86 31 49 32 50 33
REMARK SMILES IDX 65 35 87 36 52 37 35 38 36 39 45 40 37 41 38 42 44 43 46 44
REMARK SMILES IDX 39 45 40 46 41 47 42 48 43 49 69 50 70 51 79 52 71 53 72 54
REMARK SMILES IDX 78 55 80 56 73 57 74 58 75 59 76 60 77 61 53 62 54 63 63 64
REMARK SMILES IDX 55 65 56 66 62 67 64 68 57 69 58 70 59 71 60 72 61 73 6 74
REMARK SMILES IDX 7 75 8 76 9 77 10 78 14 79 11 80 13 81 12 82 15 83 16 84
REMARK SMILES IDX 17 85 18 86 19 87 20 88 24 89 21 90 23 91 25 92 22 93
REMARK H PARENT 85 23 51 34
REMARK Flexibility Score: inf
ROOT
ATOM      1  C   UNL A   1      46.353  24.554  25.878  1.00  0.00     0.275 C 
ENDROOT
BRANCH   1   2
ATOM      2  C   UNL A   1      45.179  25.284  25.203  1.00  0.00     0.275 C 
BRANCH   2   3
ATOM      3  O   UNL A   1      44.602  26.256  26.079  1.00  0.00    -0.458 OA
BRANCH   3   4
ATOM      4  C   UNL A   1      43.257  26.391  25.942  1.00  0.00     0.338 C 
ATOM      5  O   UNL A   1      42.618  26.210  24.922  1.00  0.00    -0.246 OA
BRANCH   4   6
ATOM      6  C   UNL A   1      42.747  27.027  27.186  1.00  0.00     0.060 A 
ATOM      7  C   UNL A   1      41.842  26.357  28.016  1.00  0.00     0.016 A 
ATOM      8  C   UNL A   1      43.321  28.226  27.613  1.00  0.00     0.016 A 
ATOM      9  C   UNL A   1      41.527  26.879  29.258  1.00  0.00     0.010 A 
ATOM     10  C   UNL A   1      43.096  28.694  28.904  1.00  0.00     0.010 A 
ATOM     11  C   UNL A   1      42.150  28.049  29.705  1.00  0.00    -0.014 A 
BRANCH  11  12
ATOM     12  C   UNL A   1      41.580  28.703  30.895  1.00  0.00     0.031 A 
ATOM     13  C   UNL A   1      42.350  28.562  32.175  1.00  0.00     0.074 A 
ATOM     14  C   UNL A   1      40.531  29.535  30.767  1.00  0.00     0.049 A 
ATOM     15  N   UNL A   1      42.264  29.270  33.266  1.00  0.00    -0.248 NA
ATOM     16  C   UNL A   1      43.388  27.514  32.221  1.00  0.00     0.031 C 
ATOM     17  C   UNL A   1      39.767  29.747  29.535  1.00  0.00     0.029 A 
ATOM     18  N   UNL A   1      39.953  30.389  31.666  1.00  0.00    -0.354 N 
ATOM     19  C   UNL A   1      43.273  28.794  34.094  1.00  0.00     0.074 A 
ATOM     20  C   UNL A   1      43.900  27.681  33.428  1.00  0.00     0.031 C 
ATOM     21  C   UNL A   1      38.817  30.671  29.758  1.00  0.00     0.029 A 
ATOM     22  C   UNL A   1      38.925  31.132  31.137  1.00  0.00     0.049 A 
ATOM     23  H   UNL A   1      40.246  30.464  32.603  1.00  0.00     0.167 HD
ATOM     24  C   UNL A   1      43.674  29.279  35.288  1.00  0.00     0.037 A 
ATOM     25  C   UNL A   1      38.182  32.101  31.707  1.00  0.00     0.037 A 
ATOM     26  C   UNL A   1      43.003  30.365  35.943  1.00  0.00     0.049 A 
ATOM     27  C   UNL A   1      38.576  32.555  33.089  1.00  0.00     0.074 A 
ATOM     28  C   UNL A   1      43.265  30.930  37.174  1.00  0.00     0.029 A 
ATOM     29  N   UNL A   1      41.910  31.036  35.406  1.00  0.00    -0.354 N 
ATOM     30  N   UNL A   1      39.569  32.133  33.840  1.00  0.00    -0.248 NA
ATOM     31  C   UNL A   1      37.782  33.633  33.687  1.00  0.00     0.031 C 
ATOM     32  C   UNL A   1      42.299  31.917  37.401  1.00  0.00     0.029 A 
ATOM     33  C   UNL A   1      41.467  31.997  36.294  1.00  0.00     0.049 A 
ATOM     34  H   UNL A   1      41.511  30.854  34.526  1.00  0.00     0.167 HD
ATOM     35  C   UNL A   1      39.543  32.919  34.984  1.00  0.00     0.074 A 
ATOM     36  C   UNL A   1      38.436  33.844  34.823  1.00  0.00     0.031 C 
ATOM     37  C   UNL A   1      40.356  32.891  36.071  1.00  0.00     0.037 A 
BRANCH  24  38
ATOM     38  C   UNL A   1      44.857  28.613  35.927  1.00  0.00     0.058 A 
ATOM     39  C   UNL A   1      46.172  29.023  35.642  1.00  0.00     0.135 A 
ATOM     40  C   UNL A   1      44.686  27.508  36.773  1.00  0.00     0.135 A 
ATOM     41  F   UNL A   1      46.394  30.052  34.808  1.00  0.00    -0.206 F 
ATOM     42  C   UNL A   1      47.275  28.339  36.146  1.00  0.00     0.059 A 
ATOM     43  C   UNL A   1      45.774  26.823  37.307  1.00  0.00     0.059 A 
ATOM     44  F   UNL A   1      43.453  27.061  37.061  1.00  0.00    -0.206 F 
ATOM     45  C   UNL A   1      47.064  27.234  36.972  1.00  0.00     0.060 A 
BRANCH  45  46
ATOM     46  S   UNL A   1      48.502  26.337  37.596  1.00  0.00     0.124 S 
ATOM     47  O   UNL A   1      49.589  26.986  36.871  1.00  0.00    -0.237 OA
ATOM     48  O   UNL A   1      48.444  26.610  39.028  1.00  0.00    -0.237 OA
ATOM     49  O   UNL A   1      48.231  24.955  37.215  1.00  0.00    -0.744 OA
ENDBRANCH  45  46
ENDBRANCH  24  38
BRANCH  25  50
ATOM     50  C   UNL A   1      37.046  32.715  30.965  1.00  0.00     0.058 A 
ATOM     51  C   UNL A   1      37.230  33.785  30.078  1.00  0.00     0.135 A 
ATOM     52  C   UNL A   1      35.740  32.220  31.122  1.00  0.00     0.135 A 
ATOM     53  F   UNL A   1      38.455  34.294  29.887  1.00  0.00    -0.206 F 
ATOM     54  C   UNL A   1      36.162  34.356  29.388  1.00  0.00     0.059 A 
ATOM     55  C   UNL A   1      34.659  32.761  30.429  1.00  0.00     0.059 A 
ATOM     56  F   UNL A   1      35.507  31.184  31.942  1.00  0.00    -0.206 F 
ATOM     57  C   UNL A   1      34.879  33.836  29.571  1.00  0.00     0.060 A 
BRANCH  57  58
ATOM     58  S   UNL A   1      33.505  34.558  28.642  1.00  0.00     0.124 S 
ATOM     59  O   UNL A   1      32.575  34.901  29.711  1.00  0.00    -0.237 OA
ATOM     60  O   UNL A   1      34.149  35.682  27.970  1.00  0.00    -0.237 OA
ATOM     61  O   UNL A   1      33.085  33.469  27.764  1.00  0.00    -0.744 OA
ENDBRANCH  57  58
ENDBRANCH  25  50
BRANCH  37  62
ATOM     62  C   UNL A   1      40.086  33.902  37.144  1.00  0.00     0.058 A 
ATOM     63  C   UNL A   1      40.641  35.188  37.091  1.00  0.00     0.135 A 
ATOM     64  C   UNL A   1      39.204  33.599  38.194  1.00  0.00     0.135 A 
ATOM     65  F   UNL A   1      41.491  35.519  36.106  1.00  0.00    -0.206 F 
ATOM     66  C   UNL A   1      40.345  36.139  38.059  1.00  0.00     0.059 A 
ATOM     67  C   UNL A   1      38.875  34.543  39.157  1.00  0.00     0.059 A 
ATOM     68  F   UNL A   1      38.640  32.383  38.275  1.00  0.00    -0.206 F 
ATOM     69  C   UNL A   1      39.459  35.807  39.087  1.00  0.00     0.060 A 
BRANCH  69  70
ATOM     70  S   UNL A   1      39.051  37.063  40.314  1.00  0.00     0.124 S 
ATOM     71  O   UNL A   1      40.367  37.378  40.858  1.00  0.00    -0.237 OA
ATOM     72  O   UNL A   1      38.434  38.108  39.501  1.00  0.00    -0.237 OA
ATOM     73  O   UNL A   1      38.144  36.367  41.222  1.00  0.00    -0.744 OA
ENDBRANCH  69  70
ENDBRANCH  37  62
ENDBRANCH  11  12
ENDBRANCH   4   6
ENDBRANCH   3   4
ENDBRANCH   2   3
ENDBRANCH   1   2
BRANCH   1  74
ATOM     74  O   UNL A   1      46.059  23.164  26.132  1.00  0.00    -0.458 OA
BRANCH  74  75
ATOM     75  C   UNL A   1      46.091  22.353  25.055  1.00  0.00     0.341 C 
ATOM     76  O   UNL A   1      46.627  22.576  23.978  1.00  0.00    -0.246 OA
BRANCH  75  77
ATOM     77  C   UNL A   1      45.183  21.217  25.225  1.00  0.00     0.092 A 
ATOM     78  C   UNL A   1      45.809  19.964  25.072  1.00  0.00     0.020 A 
ATOM     79  C   UNL A   1      43.822  21.267  25.516  1.00  0.00     0.111 A 
ATOM     80  C   UNL A   1      45.072  18.794  25.181  1.00  0.00     0.021 A 
ATOM     81  N   UNL A   1      43.112  20.106  25.662  1.00  0.00    -0.249 NA
ATOM     82  C   UNL A   1      43.734  18.915  25.482  1.00  0.00     0.112 A 
BRANCH  79  83
ATOM     83  S   UNL A   1      42.705  22.643  25.381  1.00  0.00    -0.097 SA
BRANCH  83  84
ATOM     84  C   UNL A   1      41.664  22.849  26.827  1.00  0.00     0.157 C 
BRANCH  84  85
ATOM     85  C   UNL A   1      40.499  21.924  26.970  1.00  0.00     0.174 C 
ATOM     86  O   UNL A   1      40.490  21.041  27.832  1.00  0.00    -0.293 OA
BRANCH  85  87
ATOM     87  C   UNL A   1      39.239  22.195  26.225  1.00  0.00     0.037 A 
ATOM     88  C   UNL A   1      38.744  21.108  25.480  1.00  0.00     0.013 A 
ATOM     89  C   UNL A   1      38.498  23.384  26.254  1.00  0.00     0.051 A 
ATOM     90  C   UNL A   1      37.511  21.178  24.838  1.00  0.00     0.001 A 
ATOM     91  C   UNL A   1      37.248  23.438  25.625  1.00  0.00     0.021 A 
ATOM     92  Cl  UNL A   1      39.026  24.865  26.966  1.00  0.00    -0.084 Cl
ATOM     93  C   UNL A   1      36.751  22.337  24.930  1.00  0.00     0.002 A 
ENDBRANCH  85  87
ENDBRANCH  84  85
ENDBRANCH  83  84
ENDBRANCH  79  83
ENDBRANCH  75  77
ENDBRANCH  74  75
ENDBRANCH   1  74
TORSDOF 18
ENDMDL
MODEL 3
REMARK VINA RESULT:     -10.0      5.199     11.547
REMARK SMILES O=C(OCCOC(=O)c1cccnc1SCC(=O)c1ccccc1Cl)c1ccc(-c2c3nc(c(-c4c(F)cc(S(=O)(=O)[O-])cc4F)c4ccc([nH]4)c(-c4c(F)cc(S(=O)(=O)[O-])cc4F)c4nc(c(-c5c(F)cc(S(=O)(=O)[O-])cc5F)c5ccc2[nH]5)C=C4)C=C3)cc1
REMARK SMILES IDX 5 1 4 2 3 3 2 4 1 5 26 6 27 7 91 8 28 9 90 10 29 11 30 12
REMARK SMILES IDX 31 13 84 14 32 15 89 16 83 17 85 18 33 19 88 20 82 21 81 22
REMARK SMILES IDX 34 24 68 25 47 26 67 27 48 28 51 29 66 30 86 31 49 32 50 33
REMARK SMILES IDX 65 35 87 36 52 37 35 38 36 39 45 40 37 41 38 42 44 43 46 44
REMARK SMILES IDX 39 45 40 46 41 47 42 48 43 49 69 50 70 51 79 52 71 53 72 54
REMARK SMILES IDX 78 55 80 56 73 57 74 58 75 59 76 60 77 61 53 62 54 63 63 64
REMARK SMILES IDX 55 65 56 66 62 67 64 68 57 69 58 70 59 71 60 72 61 73 6 74
REMARK SMILES IDX 7 75 8 76 9 77 10 78 14 79 11 80 13 81 12 82 15 83 16 84
REMARK SMILES IDX 17 85 18 86 19 87 20 88 24 89 21 90 23 91 25 92 22 93
REMARK H PARENT 85 23 51 34
REMARK Flexibility Score: inf
ROOT
ATOM      1  C   UNL A   1      33.347  29.305  24.490  1.00  0.00     0.275 C 
ENDROOT
BRANCH   1   2
ATOM      2  C   UNL A   1      32.947  29.727  25.914  1.00  0.00     0.275 C 
BRANCH   2   3
ATOM      3  O   UNL A   1      33.982  29.424  26.854  1.00  0.00    -0.458 OA
BRANCH   3   4
ATOM      4  C   UNL A   1      34.362  30.485  27.613  1.00  0.00     0.338 C 
ATOM      5  O   UNL A   1      33.789  31.555  27.690  1.00  0.00    -0.246 OA
BRANCH   4   6
ATOM      6  C   UNL A   1      35.723  30.188  28.137  1.00  0.00     0.060 A 
ATOM      7  C   UNL A   1      35.894  29.495  29.340  1.00  0.00     0.016 A 
ATOM      8  C   UNL A   1      36.828  30.446  27.323  1.00  0.00     0.016 A 
ATOM      9  C   UNL A   1      37.154  29.061  29.715  1.00  0.00     0.010 A 
ATOM     10  C   UNL A   1      38.074  29.913  27.639  1.00  0.00     0.010 A 
ATOM     11  C   UNL A   1      38.247  29.271  28.867  1.00  0.00    -0.014 A 
BRANCH  11  12
ATOM     12  C   UNL A   1      39.589  29.044  29.432  1.00  0.00     0.031 A 
ATOM     13  C   UNL A   1      39.954  29.850  30.644  1.00  0.00     0.074 A 
ATOM     14  C   UNL A   1      40.344  28.026  28.983  1.00  0.00     0.049 A 
ATOM     15  N   UNL A   1      40.903  29.640  31.512  1.00  0.00    -0.248 NA
ATOM     16  C   UNL A   1      39.114  31.024  30.946  1.00  0.00     0.031 C 
ATOM     17  C   UNL A   1      40.020  27.178  27.832  1.00  0.00     0.029 A 
ATOM     18  N   UNL A   1      41.514  27.503  29.460  1.00  0.00    -0.354 N 
ATOM     19  C   UNL A   1      40.729  30.613  32.488  1.00  0.00     0.074 A 
ATOM     20  C   UNL A   1      39.652  31.471  32.067  1.00  0.00     0.031 C 
ATOM     21  C   UNL A   1      40.972  26.240  27.693  1.00  0.00     0.029 A 
ATOM     22  C   UNL A   1      41.955  26.407  28.757  1.00  0.00     0.049 A 
ATOM     23  H   UNL A   1      41.994  27.876  30.235  1.00  0.00     0.167 HD
ATOM     24  C   UNL A   1      41.384  30.747  33.662  1.00  0.00     0.037 A 
ATOM     25  C   UNL A   1      43.021  25.614  28.980  1.00  0.00     0.037 A 
ATOM     26  C   UNL A   1      42.480  29.900  34.033  1.00  0.00     0.049 A 
ATOM     27  C   UNL A   1      43.809  25.850  30.242  1.00  0.00     0.074 A 
ATOM     28  C   UNL A   1      43.268  29.948  35.165  1.00  0.00     0.029 A 
ATOM     29  N   UNL A   1      42.949  28.851  33.250  1.00  0.00    -0.354 N 
ATOM     30  N   UNL A   1      43.601  26.741  31.186  1.00  0.00    -0.248 NA
ATOM     31  C   UNL A   1      44.947  24.960  30.492  1.00  0.00     0.031 C 
ATOM     32  C   UNL A   1      44.245  28.953  35.043  1.00  0.00     0.029 A 
ATOM     33  C   UNL A   1      44.035  28.257  33.861  1.00  0.00     0.049 A 
ATOM     34  H   UNL A   1      42.564  28.574  32.388  1.00  0.00     0.167 HD
ATOM     35  C   UNL A   1      44.559  26.496  32.161  1.00  0.00     0.074 A 
ATOM     36  C   UNL A   1      45.344  25.370  31.691  1.00  0.00     0.031 C 
ATOM     37  C   UNL A   1      44.775  27.133  33.341  1.00  0.00     0.037 A 
BRANCH  24  38
ATOM     38  C   UNL A   1      40.928  31.852  34.569  1.00  0.00     0.058 A 
ATOM     39  C   UNL A   1      41.558  33.110  34.567  1.00  0.00     0.135 A 
ATOM     40  C   UNL A   1      39.906  31.635  35.502  1.00  0.00     0.135 A 
ATOM     41  F   UNL A   1      42.569  33.359  33.719  1.00  0.00    -0.206 F 
ATOM     42  C   UNL A   1      41.212  34.101  35.481  1.00  0.00     0.059 A 
ATOM     43  C   UNL A   1      39.527  32.620  36.412  1.00  0.00     0.059 A 
ATOM     44  F   UNL A   1      39.285  30.446  35.563  1.00  0.00    -0.206 F 
ATOM     45  C   UNL A   1      40.198  33.842  36.405  1.00  0.00     0.060 A 
BRANCH  45  46
ATOM     46  S   UNL A   1      39.778  35.125  37.605  1.00  0.00     0.124 S 
ATOM     47  O   UNL A   1      39.453  36.247  36.731  1.00  0.00    -0.237 OA
ATOM     48  O   UNL A   1      38.653  34.530  38.318  1.00  0.00    -0.237 OA
ATOM     49  O   UNL A   1      41.002  35.273  38.386  1.00  0.00    -0.744 OA
ENDBRANCH  45  46
ENDBRANCH  24  38
BRANCH  25  50
ATOM     50  C   UNL A   1      43.363  24.525  28.023  1.00  0.00     0.058 A 
ATOM     51  C   UNL A   1      42.693  23.293  28.029  1.00  0.00     0.135 A 
ATOM     52  C   UNL A   1      44.372  24.709  27.062  1.00  0.00     0.135 A 
ATOM     53  F   UNL A   1      41.719  23.065  28.922  1.00  0.00    -0.206 F 
ATOM     54  C   UNL A   1      43.019  22.278  27.132  1.00  0.00     0.059 A 
ATOM     55  C   UNL A   1      44.704  23.716  26.143  1.00  0.00     0.059 A 
ATOM     56  F   UNL A   1      45.033  25.875  26.996  1.00  0.00    -0.206 F 
ATOM     57  C   UNL A   1      44.028  22.500  26.192  1.00  0.00     0.060 A 
BRANCH  57  58
ATOM     58  S   UNL A   1      44.418  21.191  25.008  1.00  0.00     0.124 S 
ATOM     59  O   UNL A   1      44.237  21.880  23.736  1.00  0.00    -0.237 OA
ATOM     60  O   UNL A   1      45.794  20.858  25.364  1.00  0.00    -0.237 OA
ATOM     61  O   UNL A   1      43.432  20.157  25.312  1.00  0.00    -0.744 OA
ENDBRANCH  57  58
ENDBRANCH  25  50
BRANCH  37  62
ATOM     62  C   UNL A   1      45.884  26.606  34.200  1.00  0.00     0.058 A 
ATOM     63  C   UNL A   1      45.665  25.570  35.120  1.00  0.00     0.135 A 
ATOM     64  C   UNL A   1      47.191  27.096  34.046  1.00  0.00     0.135 A 
ATOM     65  F   UNL A   1      44.431  25.075  35.301  1.00  0.00    -0.206 F 
ATOM     66  C   UNL A   1      46.707  25.049  35.875  1.00  0.00     0.059 A 
ATOM     67  C   UNL A   1      48.250  26.570  34.772  1.00  0.00     0.059 A 
ATOM     68  F   UNL A   1      47.447  28.077  33.166  1.00  0.00    -0.206 F 
ATOM     69  C   UNL A   1      47.996  25.554  35.693  1.00  0.00     0.060 A 
BRANCH  69  70
ATOM     70  S   UNL A   1      49.347  24.840  36.650  1.00  0.00     0.124 S 
ATOM     71  O   UNL A   1      49.258  23.433  36.275  1.00  0.00    -0.237 OA
ATOM     72  O   UNL A   1      50.510  25.560  36.139  1.00  0.00    -0.237 OA
ATOM     73  O   UNL A   1      48.983  25.149  38.029  1.00  0.00    -0.744 OA
ENDBRANCH  69  70
ENDBRANCH  37  62
ENDBRANCH  11  12
ENDBRANCH   4   6
ENDBRANCH   3   4
ENDBRANCH   2   3
ENDBRANCH   1   2
BRANCH   1  74
ATOM     74  O   UNL A   1      32.279  28.625  23.800  1.00  0.00    -0.458 OA
BRANCH  74  75
ATOM     75  C   UNL A   1      32.594  27.423  23.275  1.00  0.00     0.341 C 
ATOM     76  O   UNL A   1      33.111  27.204  22.188  1.00  0.00    -0.246 OA
BRANCH  75  77
ATOM     77  C   UNL A   1      32.022  26.336  24.071  1.00  0.00     0.092 A 
ATOM     78  C   UNL A   1      30.712  26.592  24.523  1.00  0.00     0.020 A 
ATOM     79  C   UNL A   1      32.630  25.127  24.402  1.00  0.00     0.111 A 
ATOM     80  C   UNL A   1      30.047  25.665  25.310  1.00  0.00     0.021 A 
ATOM     81  N   UNL A   1      31.950  24.201  25.145  1.00  0.00    -0.249 NA
ATOM     82  C   UNL A   1      30.702  24.486  25.589  1.00  0.00     0.112 A 
BRANCH  79  83
ATOM     83  S   UNL A   1      34.352  24.689  24.323  1.00  0.00    -0.097 SA
BRANCH  83  84
ATOM     84  C   UNL A   1      34.626  22.918  24.279  1.00  0.00     0.157 C 
BRANCH  84  85
ATOM     85  C   UNL A   1      35.268  22.294  25.476  1.00  0.00     0.174 C 
ATOM     86  O   UNL A   1      34.659  21.480  26.173  1.00  0.00    -0.293 OA
BRANCH  85  87
ATOM     87  C   UNL A   1      36.727  22.476  25.715  1.00  0.00     0.037 A 
ATOM     88  C   UNL A   1      37.103  23.766  26.135  1.00  0.00     0.013 A 
ATOM     89  C   UNL A   1      37.713  21.484  25.619  1.00  0.00     0.051 A 
ATOM     90  C   UNL A   1      38.413  24.044  26.516  1.00  0.00     0.001 A 
ATOM     91  C   UNL A   1      39.022  21.767  26.026  1.00  0.00     0.021 A 
ATOM     92  Cl  UNL A   1      37.472  19.907  24.963  1.00  0.00    -0.084 Cl
ATOM     93  C   UNL A   1      39.369  23.037  26.484  1.00  0.00     0.002 A 
ENDBRANCH  85  87
ENDBRANCH  84  85
ENDBRANCH  83  84
ENDBRANCH  79  83
ENDBRANCH  75  77
ENDBRANCH  74  75
ENDBRANCH   1  74
TORSDOF 18
ENDMDL
