MODEL 1
REMARK VINA RESULT:     -12.2      0.000      0.000
REMARK SMILES NS(=O)(=O)c1ccc(-n2nc(C(F)(F)F)cc2-c2ccc(CC(=O)OCCOC(=O)c3ccc(-c4c5nc(c(-c6c(F)cc(S(=O)(=O)[O-])cc6F)c6ccc([nH]6)c(-c6c(F)cc(S(=O)(=O)[O-])cc6F)c6nc(c(-c7c(F)cc(S(=O)(=O)[O-])cc7F)c7ccc4[nH]7)C=C6)C=C5)cc3)cc2)cc1
REMARK SMILES IDX 26 1 25 2 23 3 24 4 22 5 21 6 18 7 19 8 98 9 20 10 97 11
REMARK SMILES IDX 17 12 9 13 10 14 11 15 16 16 8 17 5 18 6 19 100 20 7 21
REMARK SMILES IDX 99 22 2 23 3 24 4 25 1 26 12 29 13 30 14 31 15 32 27 33
REMARK SMILES IDX 28 34 29 35 30 36 31 37 32 38 96 39 33 40 95 41 34 42 35 43
REMARK SMILES IDX 36 44 89 45 37 46 94 47 88 48 90 49 38 50 93 51 87 52 86 53
REMARK SMILES IDX 39 55 73 56 52 57 72 58 53 59 56 60 71 61 91 62 54 63 55 64
REMARK SMILES IDX 70 66 92 67 57 68 40 69 41 70 50 71 42 72 43 73 49 74 51 75
REMARK SMILES IDX 44 76 45 77 46 78 47 79 48 80 74 81 75 82 84 83 76 84 77 85
REMARK SMILES IDX 83 86 85 87 78 88 79 89 80 90 81 91 82 92 58 93 59 94 68 95
REMARK SMILES IDX 60 96 61 97 67 98 69 99 62 100 63 101 64 102 65 103 66 104
REMARK H PARENT 1 27 1 28 90 54 56 65
REMARK Flexibility Score: inf
ROOT
ATOM      1  C   UNL A   1      34.493  33.275  28.422  1.00  0.00     0.274 C 
ENDROOT
BRANCH   1   2
ATOM      2  O   UNL A   1      35.460  32.239  28.711  1.00  0.00    -0.462 OA
BRANCH   2   3
ATOM      3  C   UNL A   1      35.063  30.966  28.440  1.00  0.00     0.310 C 
ATOM      4  O   UNL A   1      35.737  29.971  28.699  1.00  0.00    -0.252 OA
BRANCH   3   5
ATOM      5  C   UNL A   1      33.757  30.851  27.679  1.00  0.00     0.158 C 
BRANCH   5   6
ATOM      6  C   UNL A   1      33.416  29.548  26.994  1.00  0.00    -0.037 A 
ATOM      7  C   UNL A   1      32.713  27.120  25.731  1.00  0.00     0.000 A 
ATOM      8  C   UNL A   1      31.957  27.604  26.798  1.00  0.00     0.010 A 
ATOM      9  C   UNL A   1      33.855  27.824  25.336  1.00  0.00     0.010 A 
ATOM     10  C   UNL A   1      32.327  28.788  27.430  1.00  0.00     0.005 A 
ATOM     11  C   UNL A   1      34.193  29.039  25.950  1.00  0.00     0.005 A 
BRANCH   7  12
ATOM     12  C   UNL A   1      32.304  25.897  25.049  1.00  0.00     0.075 A 
ATOM     13  N   UNL A   1      31.236  25.794  24.162  1.00  0.00    -0.233 N 
ATOM     14  N   UNL A   1      30.951  24.501  23.860  1.00  0.00    -0.163 NA
ATOM     15  C   UNL A   1      31.899  23.775  24.484  1.00  0.00     0.167 A 
ATOM     16  C   UNL A   1      32.743  24.608  25.257  1.00  0.00     0.064 A 
BRANCH  13  17
ATOM     17  C   UNL A   1      30.490  26.850  23.572  1.00  0.00     0.065 A 
ATOM     18  C   UNL A   1      29.046  29.019  22.584  1.00  0.00     0.082 A 
ATOM     19  C   UNL A   1      30.420  28.935  22.344  1.00  0.00     0.024 A 
ATOM     20  C   UNL A   1      28.383  28.009  23.290  1.00  0.00     0.024 A 
ATOM     21  C   UNL A   1      31.146  27.856  22.849  1.00  0.00     0.030 A 
ATOM     22  C   UNL A   1      29.104  26.905  23.761  1.00  0.00     0.030 A 
BRANCH  18  23
ATOM     23  S   UNL A   1      28.196  30.432  21.948  1.00  0.00     0.238 S 
ATOM     24  O   UNL A   1      27.253  30.870  22.960  1.00  0.00    -0.207 OA
ATOM     25  O   UNL A   1      27.790  30.156  20.593  1.00  0.00    -0.207 OA
BRANCH  23  26
ATOM     26  N   UNL A   1      29.353  31.638  21.856  1.00  0.00    -0.225 NA
ATOM     27  H   UNL A   1      29.208  32.187  21.009  1.00  0.00     0.137 HD
ATOM     28  H   UNL A   1      30.282  31.216  21.833  1.00  0.00     0.137 HD
ENDBRANCH  23  26
ENDBRANCH  18  23
ENDBRANCH  13  17
BRANCH  15  29
ATOM     29  C   UNL A   1      32.022  22.281  24.349  1.00  0.00     0.435 C 
ATOM     30  F   UNL A   1      31.208  21.584  25.180  1.00  0.00    -0.164 F 
ATOM     31  F   UNL A   1      31.749  21.866  23.080  1.00  0.00    -0.164 F 
ATOM     32  F   UNL A   1      33.294  21.860  24.608  1.00  0.00    -0.164 F 
ENDBRANCH  15  29
ENDBRANCH   7  12
ENDBRANCH   5   6
ENDBRANCH   3   5
ENDBRANCH   2   3
ENDBRANCH   1   2
BRANCH   1  33
ATOM     33  C   UNL A   1      34.031  34.049  29.657  1.00  0.00     0.275 C 
BRANCH  33  34
ATOM     34  O   UNL A   1      35.052  34.155  30.649  1.00  0.00    -0.458 OA
BRANCH  34  35
ATOM     35  C   UNL A   1      34.811  33.358  31.712  1.00  0.00     0.338 C 
ATOM     36  O   UNL A   1      33.788  33.309  32.374  1.00  0.00    -0.246 OA
BRANCH  35  37
ATOM     37  C   UNL A   1      36.019  32.671  32.143  1.00  0.00     0.060 A 
ATOM     38  C   UNL A   1      37.199  33.414  32.249  1.00  0.00     0.016 A 
ATOM     39  C   UNL A   1      36.021  31.280  32.035  1.00  0.00     0.016 A 
ATOM     40  C   UNL A   1      38.403  32.782  32.045  1.00  0.00     0.010 A 
ATOM     41  C   UNL A   1      37.223  30.647  31.841  1.00  0.00     0.010 A 
ATOM     42  C   UNL A   1      38.388  31.416  31.766  1.00  0.00    -0.014 A 
BRANCH  42  43
ATOM     43  C   UNL A   1      39.651  30.742  31.544  1.00  0.00     0.031 A 
ATOM     44  C   UNL A   1      40.407  30.556  32.808  1.00  0.00     0.074 A 
ATOM     45  C   UNL A   1      39.942  30.194  30.348  1.00  0.00     0.049 A 
ATOM     46  N   UNL A   1      41.554  31.049  33.139  1.00  0.00    -0.248 NA
ATOM     47  C   UNL A   1      39.693  29.915  33.932  1.00  0.00     0.031 C 
ATOM     48  C   UNL A   1      39.083  30.129  29.160  1.00  0.00     0.029 A 
ATOM     49  N   UNL A   1      41.019  29.456  29.975  1.00  0.00    -0.354 N 
ATOM     50  C   UNL A   1      41.810  30.546  34.413  1.00  0.00     0.074 A 
ATOM     51  C   UNL A   1      40.552  30.094  34.933  1.00  0.00     0.031 C 
ATOM     52  C   UNL A   1      39.562  29.190  28.313  1.00  0.00     0.029 A 
ATOM     53  C   UNL A   1      40.818  28.681  28.836  1.00  0.00     0.049 A 
ATOM     54  H   UNL A   1      41.871  29.467  30.469  1.00  0.00     0.167 HD
ATOM     55  C   UNL A   1      43.077  30.238  34.802  1.00  0.00     0.037 A 
ATOM     56  C   UNL A   1      41.592  27.641  28.425  1.00  0.00     0.037 A 
ATOM     57  C   UNL A   1      44.045  30.899  33.964  1.00  0.00     0.049 A 
ATOM     58  C   UNL A   1      42.894  27.763  29.136  1.00  0.00     0.074 A 
ATOM     59  C   UNL A   1      44.340  32.215  33.669  1.00  0.00     0.029 A 
ATOM     60  N   UNL A   1      44.639  30.145  32.982  1.00  0.00    -0.354 N 
ATOM     61  N   UNL A   1      43.733  28.745  28.943  1.00  0.00    -0.248 NA
ATOM     62  C   UNL A   1      43.035  27.065  30.405  1.00  0.00     0.031 C 
ATOM     63  C   UNL A   1      44.703  32.213  32.291  1.00  0.00     0.029 A 
ATOM     64  C   UNL A   1      44.681  30.894  31.836  1.00  0.00     0.049 A 
ATOM     65  H   UNL A   1      44.976  29.225  33.085  1.00  0.00     0.167 HD
ATOM     66  C   UNL A   1      44.208  29.062  30.210  1.00  0.00     0.074 A 
ATOM     67  C   UNL A   1      43.802  27.944  31.058  1.00  0.00     0.031 C 
ATOM     68  C   UNL A   1      44.624  30.330  30.505  1.00  0.00     0.037 A 
BRANCH  55  69
ATOM     69  C   UNL A   1      43.427  29.020  35.633  1.00  0.00     0.058 A 
ATOM     70  C   UNL A   1      44.246  29.187  36.769  1.00  0.00     0.135 A 
ATOM     71  C   UNL A   1      43.249  27.681  35.210  1.00  0.00     0.135 A 
ATOM     72  F   UNL A   1      44.488  30.412  37.261  1.00  0.00    -0.206 F 
ATOM     73  C   UNL A   1      44.907  28.120  37.379  1.00  0.00     0.059 A 
ATOM     74  C   UNL A   1      43.852  26.599  35.837  1.00  0.00     0.059 A 
ATOM     75  F   UNL A   1      42.565  27.349  34.110  1.00  0.00    -0.206 F 
ATOM     76  C   UNL A   1      44.715  26.831  36.892  1.00  0.00     0.060 A 
BRANCH  76  77
ATOM     77  S   UNL A   1      45.643  25.465  37.605  1.00  0.00     0.124 S 
ATOM     78  O   UNL A   1      47.003  25.988  37.569  1.00  0.00    -0.237 OA
ATOM     79  O   UNL A   1      45.035  25.346  38.926  1.00  0.00    -0.237 OA
ATOM     80  O   UNL A   1      45.366  24.359  36.692  1.00  0.00    -0.744 OA
ENDBRANCH  76  77
ENDBRANCH  55  69
BRANCH  56  81
ATOM     81  C   UNL A   1      41.151  26.372  27.778  1.00  0.00     0.058 A 
ATOM     82  C   UNL A   1      41.911  25.754  26.767  1.00  0.00     0.135 A 
ATOM     83  C   UNL A   1      40.109  25.595  28.326  1.00  0.00     0.135 A 
ATOM     84  F   UNL A   1      42.944  26.404  26.211  1.00  0.00    -0.206 F 
ATOM     85  C   UNL A   1      41.668  24.440  26.344  1.00  0.00     0.059 A 
ATOM     86  C   UNL A   1      39.844  24.288  27.917  1.00  0.00     0.059 A 
ATOM     87  F   UNL A   1      39.366  26.057  29.343  1.00  0.00    -0.206 F 
ATOM     88  C   UNL A   1      40.639  23.709  26.936  1.00  0.00     0.060 A 
BRANCH  88  89
ATOM     89  S   UNL A   1      40.404  21.969  26.494  1.00  0.00     0.124 S 
ATOM     90  O   UNL A   1      41.517  21.737  25.580  1.00  0.00    -0.237 OA
ATOM     91  O   UNL A   1      40.491  21.305  27.790  1.00  0.00    -0.237 OA
ATOM     92  O   UNL A   1      39.080  21.953  25.876  1.00  0.00    -0.744 OA
ENDBRANCH  88  89
ENDBRANCH  56  81
BRANCH  68  93
ATOM     93  C   UNL A   1      44.857  31.286  29.363  1.00  0.00     0.058 A 
ATOM     94  C   UNL A   1      46.016  31.319  28.566  1.00  0.00     0.135 A 
ATOM     95  C   UNL A   1      43.783  32.096  28.966  1.00  0.00     0.135 A 
ATOM     96  F   UNL A   1      47.050  30.504  28.817  1.00  0.00    -0.206 F 
ATOM     97  C   UNL A   1      46.112  32.148  27.445  1.00  0.00     0.059 A 
ATOM     98  C   UNL A   1      43.845  32.904  27.836  1.00  0.00     0.059 A 
ATOM     99  F   UNL A   1      42.628  32.062  29.650  1.00  0.00    -0.206 F 
ATOM    100  C   UNL A   1      45.018  32.936  27.087  1.00  0.00     0.060 A 
BRANCH 100 101
ATOM    101  S   UNL A   1      45.112  33.954  25.598  1.00  0.00     0.124 S 
ATOM    102  O   UNL A   1      44.312  35.115  25.971  1.00  0.00    -0.237 OA
ATOM    103  O   UNL A   1      46.548  34.186  25.464  1.00  0.00    -0.237 OA
ATOM    104  O   UNL A   1      44.528  33.101  24.564  1.00  0.00    -0.744 OA
ENDBRANCH 100 101
ENDBRANCH  68  93
ENDBRANCH  42  43
ENDBRANCH  35  37
ENDBRANCH  34  35
ENDBRANCH  33  34
ENDBRANCH   1  33
TORSDOF 20
ENDMDL
MODEL 2
REMARK VINA RESULT:     -12.0      3.058      9.404
REMARK SMILES NS(=O)(=O)c1ccc(-n2nc(C(F)(F)F)cc2-c2ccc(CC(=O)OCCOC(=O)c3ccc(-c4c5nc(c(-c6c(F)cc(S(=O)(=O)[O-])cc6F)c6ccc([nH]6)c(-c6c(F)cc(S(=O)(=O)[O-])cc6F)c6nc(c(-c7c(F)cc(S(=O)(=O)[O-])cc7F)c7ccc4[nH]7)C=C6)C=C5)cc3)cc2)cc1
REMARK SMILES IDX 26 1 25 2 23 3 24 4 22 5 21 6 18 7 19 8 98 9 20 10 97 11
REMARK SMILES IDX 17 12 9 13 10 14 11 15 16 16 8 17 5 18 6 19 100 20 7 21
REMARK SMILES IDX 99 22 2 23 3 24 4 25 1 26 12 29 13 30 14 31 15 32 27 33
REMARK SMILES IDX 28 34 29 35 30 36 31 37 32 38 96 39 33 40 95 41 34 42 35 43
REMARK SMILES IDX 36 44 89 45 37 46 94 47 88 48 90 49 38 50 93 51 87 52 86 53
REMARK SMILES IDX 39 55 73 56 52 57 72 58 53 59 56 60 71 61 91 62 54 63 55 64
REMARK SMILES IDX 70 66 92 67 57 68 40 69 41 70 50 71 42 72 43 73 49 74 51 75
REMARK SMILES IDX 44 76 45 77 46 78 47 79 48 80 74 81 75 82 84 83 76 84 77 85
REMARK SMILES IDX 83 86 85 87 78 88 79 89 80 90 81 91 82 92 58 93 59 94 68 95
REMARK SMILES IDX 60 96 61 97 67 98 69 99 62 100 63 101 64 102 65 103 66 104
REMARK H PARENT 1 27 1 28 90 54 56 65
REMARK Flexibility Score: inf
ROOT
ATOM      1  C   UNL A   1      41.028  21.650  26.151  1.00  0.00     0.274 C 
ENDROOT
BRANCH   1   2
ATOM      2  O   UNL A   1      39.700  21.278  26.585  1.00  0.00    -0.462 OA
BRANCH   2   3
ATOM      3  C   UNL A   1      38.680  21.680  25.780  1.00  0.00     0.310 C 
ATOM      4  O   UNL A   1      38.112  20.941  24.977  1.00  0.00    -0.252 OA
BRANCH   3   5
ATOM      5  C   UNL A   1      38.350  23.157  25.852  1.00  0.00     0.158 C 
BRANCH   5   6
ATOM      6  C   UNL A   1      36.958  23.619  25.492  1.00  0.00    -0.037 A 
ATOM      7  C   UNL A   1      34.355  24.445  24.763  1.00  0.00     0.000 A 
ATOM      8  C   UNL A   1      35.260  24.027  23.788  1.00  0.00     0.010 A 
ATOM      9  C   UNL A   1      34.774  24.503  26.096  1.00  0.00     0.010 A 
ATOM     10  C   UNL A   1      36.548  23.647  24.155  1.00  0.00     0.005 A 
ATOM     11  C   UNL A   1      36.059  24.075  26.461  1.00  0.00     0.005 A 
BRANCH   7  12
ATOM     12  C   UNL A   1      32.995  24.810  24.380  1.00  0.00     0.075 A 
ATOM     13  N   UNL A   1      32.044  23.932  23.868  1.00  0.00    -0.233 N 
ATOM     14  N   UNL A   1      30.954  24.588  23.392  1.00  0.00    -0.163 NA
ATOM     15  C   UNL A   1      31.166  25.885  23.683  1.00  0.00     0.167 A 
ATOM     16  C   UNL A   1      32.440  26.067  24.274  1.00  0.00     0.064 A 
BRANCH  13  17
ATOM     17  C   UNL A   1      32.105  22.513  23.825  1.00  0.00     0.065 A 
ATOM     18  C   UNL A   1      32.417  19.746  23.726  1.00  0.00     0.082 A 
ATOM     19  C   UNL A   1      32.343  20.391  24.964  1.00  0.00     0.024 A 
ATOM     20  C   UNL A   1      32.304  20.473  22.537  1.00  0.00     0.024 A 
ATOM     21  C   UNL A   1      32.200  21.777  25.014  1.00  0.00     0.030 A 
ATOM     22  C   UNL A   1      32.118  21.860  22.587  1.00  0.00     0.030 A 
BRANCH  18  23
ATOM     23  S   UNL A   1      32.637  17.992  23.737  1.00  0.00     0.238 S 
ATOM     24  O   UNL A   1      31.816  17.452  24.803  1.00  0.00    -0.207 OA
ATOM     25  O   UNL A   1      34.046  17.703  23.636  1.00  0.00    -0.207 OA
BRANCH  23  26
ATOM     26  N   UNL A   1      31.943  17.452  22.313  1.00  0.00    -0.225 NA
ATOM     27  H   UNL A   1      31.454  18.223  21.858  1.00  0.00     0.137 HD
ATOM     28  H   UNL A   1      31.280  16.705  22.520  1.00  0.00     0.137 HD
ENDBRANCH  23  26
ENDBRANCH  18  23
ENDBRANCH  13  17
BRANCH  15  29
ATOM     29  C   UNL A   1      30.160  26.971  23.413  1.00  0.00     0.435 C 
ATOM     30  F   UNL A   1      30.274  27.535  22.185  1.00  0.00    -0.164 F 
ATOM     31  F   UNL A   1      28.881  26.512  23.526  1.00  0.00    -0.164 F 
ATOM     32  F   UNL A   1      30.268  27.987  24.317  1.00  0.00    -0.164 F 
ENDBRANCH  15  29
ENDBRANCH   7  12
ENDBRANCH   5   6
ENDBRANCH   3   5
ENDBRANCH   2   3
ENDBRANCH   1   2
BRANCH   1  33
ATOM     33  C   UNL A   1      42.058  20.528  26.280  1.00  0.00     0.275 C 
BRANCH  33  34
ATOM     34  O   UNL A   1      43.390  21.022  26.421  1.00  0.00    -0.458 OA
BRANCH  34  35
ATOM     35  C   UNL A   1      43.731  21.856  25.416  1.00  0.00     0.338 C 
ATOM     36  O   UNL A   1      43.938  21.555  24.253  1.00  0.00    -0.246 OA
BRANCH  35  37
ATOM     37  C   UNL A   1      44.040  23.188  25.915  1.00  0.00     0.060 A 
ATOM     38  C   UNL A   1      44.714  23.295  27.136  1.00  0.00     0.016 A 
ATOM     39  C   UNL A   1      43.313  24.246  25.369  1.00  0.00     0.016 A 
ATOM     40  C   UNL A   1      44.498  24.404  27.919  1.00  0.00     0.010 A 
ATOM     41  C   UNL A   1      43.105  25.357  26.146  1.00  0.00     0.010 A 
ATOM     42  C   UNL A   1      43.631  25.386  27.441  1.00  0.00    -0.014 A 
BRANCH  42  43
ATOM     43  C   UNL A   1      43.392  26.555  28.262  1.00  0.00     0.031 A 
ATOM     44  C   UNL A   1      44.497  27.542  28.150  1.00  0.00     0.074 A 
ATOM     45  C   UNL A   1      42.201  26.751  28.859  1.00  0.00     0.049 A 
ATOM     46  N   UNL A   1      45.304  27.952  29.071  1.00  0.00    -0.248 NA
ATOM     47  C   UNL A   1      44.890  27.962  26.789  1.00  0.00     0.031 C 
ATOM     48  C   UNL A   1      40.999  25.915  28.753  1.00  0.00     0.029 A 
ATOM     49  N   UNL A   1      41.761  27.812  29.584  1.00  0.00    -0.354 N 
ATOM     50  C   UNL A   1      46.126  28.886  28.442  1.00  0.00     0.074 A 
ATOM     51  C   UNL A   1      46.001  28.653  27.032  1.00  0.00     0.031 C 
ATOM     52  C   UNL A   1      39.924  26.623  29.169  1.00  0.00     0.029 A 
ATOM     53  C   UNL A   1      40.375  27.905  29.682  1.00  0.00     0.049 A 
ATOM     54  H   UNL A   1      42.370  28.460  30.004  1.00  0.00     0.167 HD
ATOM     55  C   UNL A   1      46.579  29.982  29.110  1.00  0.00     0.037 A 
ATOM     56  C   UNL A   1      39.669  29.001  30.072  1.00  0.00     0.037 A 
ATOM     57  C   UNL A   1      46.488  29.787  30.535  1.00  0.00     0.049 A 
ATOM     58  C   UNL A   1      40.622  29.900  30.778  1.00  0.00     0.074 A 
ATOM     59  C   UNL A   1      47.026  28.885  31.430  1.00  0.00     0.029 A 
ATOM     60  N   UNL A   1      45.431  30.382  31.179  1.00  0.00    -0.354 N 
ATOM     61  N   UNL A   1      41.195  29.599  31.912  1.00  0.00    -0.248 NA
ATOM     62  C   UNL A   1      41.309  30.909  29.985  1.00  0.00     0.031 C 
ATOM     63  C   UNL A   1      45.997  28.658  32.390  1.00  0.00     0.029 A 
ATOM     64  C   UNL A   1      44.916  29.481  32.074  1.00  0.00     0.049 A 
ATOM     65  H   UNL A   1      45.101  31.296  31.025  1.00  0.00     0.167 HD
ATOM     66  C   UNL A   1      42.503  30.046  31.782  1.00  0.00     0.074 A 
ATOM     67  C   UNL A   1      42.492  30.913  30.605  1.00  0.00     0.031 C 
ATOM     68  C   UNL A   1      43.523  29.441  32.462  1.00  0.00     0.037 A 
BRANCH  55  69
ATOM     69  C   UNL A   1      46.681  31.360  28.488  1.00  0.00     0.058 A 
ATOM     70  C   UNL A   1      45.530  31.923  27.898  1.00  0.00     0.135 A 
ATOM     71  C   UNL A   1      47.897  32.017  28.184  1.00  0.00     0.135 A 
ATOM     72  F   UNL A   1      44.320  31.385  28.113  1.00  0.00    -0.206 F 
ATOM     73  C   UNL A   1      45.596  32.995  27.005  1.00  0.00     0.059 A 
ATOM     74  C   UNL A   1      47.977  33.119  27.344  1.00  0.00     0.059 A 
ATOM     75  F   UNL A   1      49.088  31.573  28.600  1.00  0.00    -0.206 F 
ATOM     76  C   UNL A   1      46.829  33.574  26.723  1.00  0.00     0.060 A 
BRANCH  76  77
ATOM     77  S   UNL A   1      46.935  34.885  25.497  1.00  0.00     0.124 S 
ATOM     78  O   UNL A   1      46.787  36.073  26.329  1.00  0.00    -0.237 OA
ATOM     79  O   UNL A   1      48.261  34.659  24.931  1.00  0.00    -0.237 OA
ATOM     80  O   UNL A   1      45.820  34.598  24.600  1.00  0.00    -0.744 OA
ENDBRANCH  76  77
ENDBRANCH  55  69
BRANCH  56  81
ATOM     81  C   UNL A   1      38.360  29.480  29.545  1.00  0.00     0.058 A 
ATOM     82  C   UNL A   1      37.307  29.848  30.404  1.00  0.00     0.135 A 
ATOM     83  C   UNL A   1      38.204  29.844  28.192  1.00  0.00     0.135 A 
ATOM     84  F   UNL A   1      37.383  29.574  31.715  1.00  0.00    -0.206 F 
ATOM     85  C   UNL A   1      36.183  30.553  29.954  1.00  0.00     0.059 A 
ATOM     86  C   UNL A   1      37.091  30.540  27.718  1.00  0.00     0.059 A 
ATOM     87  F   UNL A   1      39.176  29.606  27.297  1.00  0.00    -0.206 F 
ATOM     88  C   UNL A   1      36.090  30.908  28.608  1.00  0.00     0.060 A 
BRANCH  88  89
ATOM     89  S   UNL A   1      34.711  31.934  28.042  1.00  0.00     0.124 S 
ATOM     90  O   UNL A   1      35.405  33.030  27.374  1.00  0.00    -0.237 OA
ATOM     91  O   UNL A   1      33.978  31.019  27.176  1.00  0.00    -0.237 OA
ATOM     92  O   UNL A   1      34.028  32.296  29.282  1.00  0.00    -0.744 OA
ENDBRANCH  88  89
ENDBRANCH  56  81
BRANCH  68  93
ATOM     93  C   UNL A   1      43.168  28.499  33.584  1.00  0.00     0.058 A 
ATOM     94  C   UNL A   1      43.208  27.095  33.498  1.00  0.00     0.135 A 
ATOM     95  C   UNL A   1      42.931  29.057  34.848  1.00  0.00     0.135 A 
ATOM     96  F   UNL A   1      43.525  26.483  32.349  1.00  0.00    -0.206 F 
ATOM     97  C   UNL A   1      42.986  26.285  34.614  1.00  0.00     0.059 A 
ATOM     98  C   UNL A   1      42.739  28.270  35.979  1.00  0.00     0.059 A 
ATOM     99  F   UNL A   1      42.942  30.390  35.007  1.00  0.00    -0.206 F 
ATOM    100  C   UNL A   1      42.755  26.883  35.853  1.00  0.00     0.060 A 
BRANCH 100 101
ATOM    101  S   UNL A   1      42.541  25.842  37.312  1.00  0.00     0.124 S 
ATOM    102  O   UNL A   1      42.746  24.505  36.766  1.00  0.00    -0.237 OA
ATOM    103  O   UNL A   1      43.588  26.331  38.206  1.00  0.00    -0.237 OA
ATOM    104  O   UNL A   1      41.176  26.137  37.745  1.00  0.00    -0.744 OA
ENDBRANCH 100 101
ENDBRANCH  68  93
ENDBRANCH  42  43
ENDBRANCH  35  37
ENDBRANCH  34  35
ENDBRANCH  33  34
ENDBRANCH   1  33
TORSDOF 20
ENDMDL
MODEL 3
REMARK VINA RESULT:     -11.7      3.030      5.013
REMARK SMILES NS(=O)(=O)c1ccc(-n2nc(C(F)(F)F)cc2-c2ccc(CC(=O)OCCOC(=O)c3ccc(-c4c5nc(c(-c6c(F)cc(S(=O)(=O)[O-])cc6F)c6ccc([nH]6)c(-c6c(F)cc(S(=O)(=O)[O-])cc6F)c6nc(c(-c7c(F)cc(S(=O)(=O)[O-])cc7F)c7ccc4[nH]7)C=C6)C=C5)cc3)cc2)cc1
REMARK SMILES IDX 26 1 25 2 23 3 24 4 22 5 21 6 18 7 19 8 98 9 20 10 97 11
REMARK SMILES IDX 17 12 9 13 10 14 11 15 16 16 8 17 5 18 6 19 100 20 7 21
REMARK SMILES IDX 99 22 2 23 3 24 4 25 1 26 12 29 13 30 14 31 15 32 27 33
REMARK SMILES IDX 28 34 29 35 30 36 31 37 32 38 96 39 33 40 95 41 34 42 35 43
REMARK SMILES IDX 36 44 89 45 37 46 94 47 88 48 90 49 38 50 93 51 87 52 86 53
REMARK SMILES IDX 39 55 73 56 52 57 72 58 53 59 56 60 71 61 91 62 54 63 55 64
REMARK SMILES IDX 70 66 92 67 57 68 40 69 41 70 50 71 42 72 43 73 49 74 51 75
REMARK SMILES IDX 44 76 45 77 46 78 47 79 48 80 74 81 75 82 84 83 76 84 77 85
REMARK SMILES IDX 83 86 85 87 78 88 79 89 80 90 81 91 82 92 58 93 59 94 68 95
REMARK SMILES IDX 60 96 61 97 67 98 69 99 62 100 63 101 64 102 65 103 66 104
REMARK H PARENT 1 27 1 28 90 54 56 65
REMARK Flexibility Score: inf
ROOT
ATOM      1  C   UNL A   1      32.739  28.790  25.831  1.00  0.00     0.274 C 
ENDROOT
BRANCH   1   2
ATOM      2  O   UNL A   1      32.447  28.868  24.418  1.00  0.00    -0.462 OA
BRANCH   2   3
ATOM      3  C   UNL A   1      33.204  28.075  23.612  1.00  0.00     0.310 C 
ATOM      4  O   UNL A   1      34.412  28.230  23.441  1.00  0.00    -0.252 OA
BRANCH   3   5
ATOM      5  C   UNL A   1      32.431  27.031  22.831  1.00  0.00     0.158 C 
BRANCH   5   6
ATOM      6  C   UNL A   1      32.607  25.572  23.179  1.00  0.00    -0.037 A 
ATOM      7  C   UNL A   1      32.997  22.842  23.797  1.00  0.00     0.000 A 
ATOM      8  C   UNL A   1      33.610  23.405  22.679  1.00  0.00     0.010 A 
ATOM      9  C   UNL A   1      32.142  23.633  24.572  1.00  0.00     0.010 A 
ATOM     10  C   UNL A   1      33.391  24.744  22.368  1.00  0.00     0.005 A 
ATOM     11  C   UNL A   1      31.964  24.993  24.276  1.00  0.00     0.005 A 
BRANCH   7  12
ATOM     12  C   UNL A   1      33.255  21.447  24.139  1.00  0.00     0.075 A 
ATOM     13  N   UNL A   1      34.464  20.951  24.618  1.00  0.00    -0.233 N 
ATOM     14  N   UNL A   1      34.483  19.593  24.634  1.00  0.00    -0.163 NA
ATOM     15  C   UNL A   1      33.249  19.217  24.250  1.00  0.00     0.167 A 
ATOM     16  C   UNL A   1      32.463  20.344  23.907  1.00  0.00     0.064 A 
BRANCH  13  17
ATOM     17  C   UNL A   1      35.586  21.690  25.079  1.00  0.00     0.065 A 
ATOM     18  C   UNL A   1      37.780  23.037  26.147  1.00  0.00     0.082 A 
ATOM     19  C   UNL A   1      37.983  21.926  25.324  1.00  0.00     0.024 A 
ATOM     20  C   UNL A   1      36.486  23.497  26.416  1.00  0.00     0.024 A 
ATOM     21  C   UNL A   1      36.886  21.244  24.799  1.00  0.00     0.030 A 
ATOM     22  C   UNL A   1      35.385  22.838  25.855  1.00  0.00     0.030 A 
BRANCH  18  23
ATOM     23  S   UNL A   1      39.214  23.830  26.809  1.00  0.00     0.238 S 
ATOM     24  O   UNL A   1      39.668  24.803  25.834  1.00  0.00    -0.207 OA
ATOM     25  O   UNL A   1      40.092  22.822  27.349  1.00  0.00    -0.207 OA
BRANCH  23  26
ATOM     26  N   UNL A   1      38.662  24.721  28.115  1.00  0.00    -0.225 NA
ATOM     27  H   UNL A   1      39.288  24.586  28.908  1.00  0.00     0.137 HD
ATOM     28  H   UNL A   1      37.724  24.410  28.366  1.00  0.00     0.137 HD
ENDBRANCH  23  26
ENDBRANCH  18  23
ENDBRANCH  13  17
BRANCH  15  29
ATOM     29  C   UNL A   1      32.793  17.783  24.211  1.00  0.00     0.435 C 
ATOM     30  F   UNL A   1      33.672  16.941  23.613  1.00  0.00    -0.164 F 
ATOM     31  F   UNL A   1      32.558  17.295  25.461  1.00  0.00    -0.164 F 
ATOM     32  F   UNL A   1      31.613  17.653  23.538  1.00  0.00    -0.164 F 
ENDBRANCH  15  29
ENDBRANCH   7  12
ENDBRANCH   5   6
ENDBRANCH   3   5
ENDBRANCH   2   3
ENDBRANCH   1   2
BRANCH   1  33
ATOM     33  C   UNL A   1      33.339  30.072  26.410  1.00  0.00     0.275 C 
BRANCH  33  34
ATOM     34  O   UNL A   1      34.323  29.812  27.410  1.00  0.00    -0.458 OA
BRANCH  34  35
ATOM     35  C   UNL A   1      34.968  30.934  27.792  1.00  0.00     0.338 C 
ATOM     36  O   UNL A   1      34.762  32.069  27.396  1.00  0.00    -0.246 OA
BRANCH  35  37
ATOM     37  C   UNL A   1      36.127  30.625  28.616  1.00  0.00     0.060 A 
ATOM     38  C   UNL A   1      37.042  31.650  28.879  1.00  0.00     0.016 A 
ATOM     39  C   UNL A   1      36.459  29.277  28.751  1.00  0.00     0.016 A 
ATOM     40  C   UNL A   1      38.362  31.326  29.086  1.00  0.00     0.010 A 
ATOM     41  C   UNL A   1      37.774  28.952  28.968  1.00  0.00     0.010 A 
ATOM     42  C   UNL A   1      38.720  29.979  29.050  1.00  0.00    -0.014 A 
BRANCH  42  43
ATOM     43  C   UNL A   1      40.110  29.628  29.260  1.00  0.00     0.031 A 
ATOM     44  C   UNL A   1      40.468  29.637  30.702  1.00  0.00     0.074 A 
ATOM     45  C   UNL A   1      40.866  29.158  28.250  1.00  0.00     0.049 A 
ATOM     46  N   UNL A   1      41.316  30.394  31.314  1.00  0.00    -0.248 NA
ATOM     47  C   UNL A   1      39.612  28.850  31.613  1.00  0.00     0.031 C 
ATOM     48  C   UNL A   1      40.446  28.881  26.871  1.00  0.00     0.029 A 
ATOM     49  N   UNL A   1      42.144  28.698  28.268  1.00  0.00    -0.354 N 
ATOM     50  C   UNL A   1      41.282  29.974  32.643  1.00  0.00     0.074 A 
ATOM     51  C   UNL A   1      40.063  29.236  32.805  1.00  0.00     0.031 C 
ATOM     52  C   UNL A   1      41.360  28.079  26.278  1.00  0.00     0.029 A 
ATOM     53  C   UNL A   1      42.479  27.890  27.185  1.00  0.00     0.049 A 
ATOM     54  H   UNL A   1      42.780  28.917  28.987  1.00  0.00     0.167 HD
ATOM     55  C   UNL A   1      42.407  29.983  33.409  1.00  0.00     0.037 A 
ATOM     56  C   UNL A   1      43.557  27.064  27.102  1.00  0.00     0.037 A 
ATOM     57  C   UNL A   1      43.406  30.853  32.842  1.00  0.00     0.049 A 
ATOM     58  C   UNL A   1      44.518  27.501  28.151  1.00  0.00     0.074 A 
ATOM     59  C   UNL A   1      43.469  32.198  32.543  1.00  0.00     0.029 A 
ATOM     60  N   UNL A   1      44.425  30.257  32.140  1.00  0.00    -0.354 N 
ATOM     61  N   UNL A   1      45.130  28.654  28.136  1.00  0.00    -0.248 NA
ATOM     62  C   UNL A   1      44.422  26.866  29.457  1.00  0.00     0.031 C 
ATOM     63  C   UNL A   1      44.223  32.275  31.337  1.00  0.00     0.029 A 
ATOM     64  C   UNL A   1      44.641  30.986  31.001  1.00  0.00     0.049 A 
ATOM     65  H   UNL A   1      44.915  29.446  32.408  1.00  0.00     0.167 HD
ATOM     66  C   UNL A   1      45.113  29.084  29.457  1.00  0.00     0.074 A 
ATOM     67  C   UNL A   1      44.734  27.907  30.234  1.00  0.00     0.031 C 
ATOM     68  C   UNL A   1      45.121  30.417  29.760  1.00  0.00     0.037 A 
BRANCH  55  69
ATOM     69  C   UNL A   1      42.755  28.890  34.399  1.00  0.00     0.058 A 
ATOM     70  C   UNL A   1      43.097  29.255  35.718  1.00  0.00     0.135 A 
ATOM     71  C   UNL A   1      43.054  27.552  34.047  1.00  0.00     0.135 A 
ATOM     72  F   UNL A   1      42.862  30.499  36.165  1.00  0.00    -0.206 F 
ATOM     73  C   UNL A   1      43.765  28.388  36.584  1.00  0.00     0.059 A 
ATOM     74  C   UNL A   1      43.667  26.657  34.913  1.00  0.00     0.059 A 
ATOM     75  F   UNL A   1      42.863  27.063  32.817  1.00  0.00    -0.206 F 
ATOM     76  C   UNL A   1      44.060  27.096  36.164  1.00  0.00     0.060 A 
BRANCH  76  77
ATOM     77  S   UNL A   1      45.012  26.008  37.234  1.00  0.00     0.124 S 
ATOM     78  O   UNL A   1      45.991  25.466  36.299  1.00  0.00    -0.237 OA
ATOM     79  O   UNL A   1      45.524  26.942  38.232  1.00  0.00    -0.237 OA
ATOM     80  O   UNL A   1      44.013  25.062  37.724  1.00  0.00    -0.744 OA
ENDBRANCH  76  77
ENDBRANCH  55  69
BRANCH  56  81
ATOM     81  C   UNL A   1      43.633  25.723  26.457  1.00  0.00     0.058 A 
ATOM     82  C   UNL A   1      44.478  25.477  25.358  1.00  0.00     0.135 A 
ATOM     83  C   UNL A   1      43.080  24.582  27.073  1.00  0.00     0.135 A 
ATOM     84  F   UNL A   1      45.077  26.500  24.730  1.00  0.00    -0.206 F 
ATOM     85  C   UNL A   1      44.774  24.181  24.914  1.00  0.00     0.059 A 
ATOM     86  C   UNL A   1      43.354  23.282  26.646  1.00  0.00     0.059 A 
ATOM     87  F   UNL A   1      42.316  24.693  28.171  1.00  0.00    -0.206 F 
ATOM     88  C   UNL A   1      44.217  23.087  25.576  1.00  0.00     0.060 A 
BRANCH  88  89
ATOM     89  S   UNL A   1      44.699  21.409  25.098  1.00  0.00     0.124 S 
ATOM     90  O   UNL A   1      46.055  21.321  25.630  1.00  0.00    -0.237 OA
ATOM     91  O   UNL A   1      43.695  20.593  25.772  1.00  0.00    -0.237 OA
ATOM     92  O   UNL A   1      44.604  21.431  23.640  1.00  0.00    -0.744 OA
ENDBRANCH  88  89
ENDBRANCH  56  81
BRANCH  68  93
ATOM     93  C   UNL A   1      45.465  31.394  28.665  1.00  0.00     0.058 A 
ATOM     94  C   UNL A   1      44.547  31.912  27.733  1.00  0.00     0.135 A 
ATOM     95  C   UNL A   1      46.754  31.944  28.668  1.00  0.00     0.135 A 
ATOM     96  F   UNL A   1      43.268  31.513  27.728  1.00  0.00    -0.206 F 
ATOM     97  C   UNL A   1      44.910  32.909  26.823  1.00  0.00     0.059 A 
ATOM     98  C   UNL A   1      47.128  32.959  27.794  1.00  0.00     0.059 A 
ATOM     99  F   UNL A   1      47.657  31.535  29.575  1.00  0.00    -0.206 F 
ATOM    100  C   UNL A   1      46.203  33.428  26.863  1.00  0.00     0.060 A 
BRANCH 100 101
ATOM    101  S   UNL A   1      46.655  34.767  25.739  1.00  0.00     0.124 S 
ATOM    102  O   UNL A   1      45.665  34.621  24.677  1.00  0.00    -0.237 OA
ATOM    103  O   UNL A   1      46.512  35.950  26.583  1.00  0.00    -0.237 OA
ATOM    104  O   UNL A   1      48.029  34.446  25.359  1.00  0.00    -0.744 OA
ENDBRANCH 100 101
ENDBRANCH  68  93
ENDBRANCH  42  43
ENDBRANCH  35  37
ENDBRANCH  34  35
ENDBRANCH  33  34
ENDBRANCH   1  33
TORSDOF 20
ENDMDL
