MODEL 1
REMARK VINA RESULT:     -10.0      0.000      0.000
REMARK SMILES C[C@@H](C(=O)OCCOC(=O)c1ccc(-c2c3nc(c(-c4c(F)cc(S(=O)(=O)[O-])cc4F)c4ccc([nH]4)c(-c4c(F)cc(S(=O)(=O)[O-])cc4F)c4nc(c(-c5c(F)cc(S(=O)(=O)[O-])cc5F)c5ccc2[nH]5)C=C4)C=C3)cc1)c1ccc(-c2ccccc2)c(F)c1
REMARK SMILES IDX 7 1 6 2 5 3 3 4 4 5 2 6 1 7 77 8 78 9 89 10 79 11 87 12
REMARK SMILES IDX 80 13 88 14 81 15 82 16 86 17 83 18 85 19 84 20 8 21 9 22
REMARK SMILES IDX 10 23 11 24 12 25 76 26 13 27 75 28 14 29 15 30 16 31 69 32
REMARK SMILES IDX 17 33 74 34 68 35 70 36 18 37 73 38 67 39 66 40 19 42 53 43
REMARK SMILES IDX 32 44 52 45 33 46 36 47 51 48 71 49 34 50 35 51 50 53 72 54
REMARK SMILES IDX 37 55 20 56 21 57 30 58 22 59 23 60 29 61 31 62 24 63 25 64
REMARK SMILES IDX 26 65 27 66 28 67 54 68 55 69 64 70 56 71 57 72 63 73 65 74
REMARK SMILES IDX 58 75 59 76 60 77 61 78 62 79 38 80 39 81 48 82 40 83 41 84
REMARK SMILES IDX 47 85 49 86 42 87 43 88 44 89 45 90 46 91
REMARK H PARENT 70 41 36 52
REMARK Flexibility Score: inf
ROOT
ATOM      1  C   UNL A   1      42.570  23.018  25.636  1.00  0.00     0.275 C 
ENDROOT
BRANCH   1   2
ATOM      2  C   UNL A   1      43.981  22.667  26.098  1.00  0.00     0.274 C 
BRANCH   2   3
ATOM      3  O   UNL A   1      44.898  23.725  25.749  1.00  0.00    -0.462 OA
BRANCH   3   4
ATOM      4  C   UNL A   1      45.696  24.203  26.746  1.00  0.00     0.313 C 
ATOM      5  O   UNL A   1      46.791  23.726  27.024  1.00  0.00    -0.252 OA
BRANCH   4   6
ATOM      6  C   UNL A   1      45.037  25.352  27.531  1.00  0.00     0.126 C 
ATOM      7  C   UNL A   1      45.676  26.713  27.220  1.00  0.00     0.025 C 
BRANCH   6   8
ATOM      8  C   UNL A   1      44.928  25.050  29.030  1.00  0.00    -0.031 A 
ATOM      9  C   UNL A   1      44.088  24.015  29.476  1.00  0.00     0.005 A 
ATOM     10  C   UNL A   1      45.644  25.757  30.006  1.00  0.00     0.044 A 
ATOM     11  C   UNL A   1      43.993  23.682  30.838  1.00  0.00     0.012 A 
ATOM     12  C   UNL A   1      45.533  25.428  31.363  1.00  0.00     0.131 A 
ATOM     13  C   UNL A   1      44.720  24.380  31.815  1.00  0.00     0.017 A 
ATOM     14  F   UNL A   1      46.267  26.142  32.231  1.00  0.00    -0.206 F 
BRANCH  13  15
ATOM     15  C   UNL A   1      44.663  23.996  33.240  1.00  0.00    -0.015 A 
ATOM     16  C   UNL A   1      43.467  24.095  33.975  1.00  0.00     0.009 A 
ATOM     17  C   UNL A   1      45.792  23.486  33.906  1.00  0.00     0.009 A 
ATOM     18  C   UNL A   1      43.398  23.681  35.310  1.00  0.00     0.001 A 
ATOM     19  C   UNL A   1      45.724  23.074  35.242  1.00  0.00     0.001 A 
ATOM     20  C   UNL A   1      44.525  23.165  35.940  1.00  0.00     0.000 A 
ENDBRANCH  13  15
ENDBRANCH   6   8
ENDBRANCH   4   6
ENDBRANCH   3   4
ENDBRANCH   2   3
ENDBRANCH   1   2
BRANCH   1  21
ATOM     21  O   UNL A   1      42.106  24.162  26.370  1.00  0.00    -0.458 OA
BRANCH  21  22
ATOM     22  C   UNL A   1      40.823  24.126  26.787  1.00  0.00     0.338 C 
ATOM     23  O   UNL A   1      39.967  23.295  26.496  1.00  0.00    -0.246 OA
BRANCH  22  24
ATOM     24  C   UNL A   1      40.584  25.255  27.692  1.00  0.00     0.060 A 
ATOM     25  C   UNL A   1      41.543  26.260  27.785  1.00  0.00     0.016 A 
ATOM     26  C   UNL A   1      39.458  25.274  28.515  1.00  0.00     0.016 A 
ATOM     27  C   UNL A   1      41.415  27.252  28.752  1.00  0.00     0.010 A 
ATOM     28  C   UNL A   1      39.299  26.314  29.440  1.00  0.00     0.010 A 
ATOM     29  C   UNL A   1      40.295  27.293  29.594  1.00  0.00    -0.014 A 
BRANCH  29  30
ATOM     30  C   UNL A   1      40.222  28.318  30.672  1.00  0.00     0.031 A 
ATOM     31  C   UNL A   1      41.279  28.358  31.744  1.00  0.00     0.074 A 
ATOM     32  C   UNL A   1      39.255  29.258  30.654  1.00  0.00     0.049 A 
ATOM     33  N   UNL A   1      41.340  29.105  32.817  1.00  0.00    -0.248 NA
ATOM     34  C   UNL A   1      42.409  27.426  31.601  1.00  0.00     0.031 C 
ATOM     35  C   UNL A   1      38.211  29.382  29.636  1.00  0.00     0.029 A 
ATOM     36  N   UNL A   1      39.024  30.321  31.493  1.00  0.00    -0.354 N 
ATOM     37  C   UNL A   1      42.468  28.682  33.511  1.00  0.00     0.074 A 
ATOM     38  C   UNL A   1      43.075  27.627  32.729  1.00  0.00     0.031 C 
ATOM     39  C   UNL A   1      37.516  30.509  29.855  1.00  0.00     0.029 A 
ATOM     40  C   UNL A   1      38.012  31.150  31.069  1.00  0.00     0.049 A 
ATOM     41  H   UNL A   1      39.536  30.475  32.320  1.00  0.00     0.167 HD
ATOM     42  C   UNL A   1      42.943  29.122  34.702  1.00  0.00     0.037 A 
ATOM     43  C   UNL A   1      37.547  32.299  31.594  1.00  0.00     0.037 A 
ATOM     44  C   UNL A   1      42.385  30.225  35.438  1.00  0.00     0.049 A 
ATOM     45  C   UNL A   1      38.122  32.803  32.889  1.00  0.00     0.074 A 
ATOM     46  C   UNL A   1      42.767  30.723  36.671  1.00  0.00     0.029 A 
ATOM     47  N   UNL A   1      41.346  31.025  34.988  1.00  0.00    -0.354 N 
ATOM     48  N   UNL A   1      39.127  32.328  33.584  1.00  0.00    -0.248 NA
ATOM     49  C   UNL A   1      37.475  33.979  33.488  1.00  0.00     0.031 C 
ATOM     50  C   UNL A   1      41.945  31.814  36.977  1.00  0.00     0.029 A 
ATOM     51  C   UNL A   1      41.070  32.010  35.921  1.00  0.00     0.049 A 
ATOM     52  H   UNL A   1      40.873  30.910  34.133  1.00  0.00     0.167 HD
ATOM     53  C   UNL A   1      39.221  33.136  34.712  1.00  0.00     0.074 A 
ATOM     54  C   UNL A   1      38.203  34.159  34.583  1.00  0.00     0.031 C 
ATOM     55  C   UNL A   1      40.057  33.023  35.773  1.00  0.00     0.037 A 
BRANCH  42  56
ATOM     56  C   UNL A   1      44.086  28.365  35.313  1.00  0.00     0.058 A 
ATOM     57  C   UNL A   1      45.424  28.632  34.989  1.00  0.00     0.135 A 
ATOM     58  C   UNL A   1      43.827  27.360  36.261  1.00  0.00     0.135 A 
ATOM     59  F   UNL A   1      45.724  29.569  34.077  1.00  0.00    -0.206 F 
ATOM     60  C   UNL A   1      46.467  27.913  35.568  1.00  0.00     0.059 A 
ATOM     61  C   UNL A   1      44.854  26.643  36.866  1.00  0.00     0.059 A 
ATOM     62  F   UNL A   1      42.563  27.064  36.604  1.00  0.00    -0.206 F 
ATOM     63  C   UNL A   1      46.171  26.916  36.501  1.00  0.00     0.060 A 
BRANCH  63  64
ATOM     64  S   UNL A   1      47.527  25.984  37.246  1.00  0.00     0.124 S 
ATOM     65  O   UNL A   1      48.202  27.022  38.020  1.00  0.00    -0.237 OA
ATOM     66  O   UNL A   1      46.825  24.970  38.025  1.00  0.00    -0.237 OA
ATOM     67  O   UNL A   1      48.266  25.482  36.092  1.00  0.00    -0.744 OA
ENDBRANCH  63  64
ENDBRANCH  42  56
BRANCH  43  68
ATOM     68  C   UNL A   1      36.493  33.073  30.887  1.00  0.00     0.058 A 
ATOM     69  C   UNL A   1      35.158  33.001  31.315  1.00  0.00     0.135 A 
ATOM     70  C   UNL A   1      36.786  33.895  29.790  1.00  0.00     0.135 A 
ATOM     71  F   UNL A   1      34.831  32.222  32.357  1.00  0.00    -0.206 F 
ATOM     72  C   UNL A   1      34.148  33.711  30.674  1.00  0.00     0.059 A 
ATOM     73  C   UNL A   1      35.797  34.633  29.148  1.00  0.00     0.059 A 
ATOM     74  F   UNL A   1      38.049  34.006  29.349  1.00  0.00    -0.206 F 
ATOM     75  C   UNL A   1      34.478  34.525  29.591  1.00  0.00     0.060 A 
BRANCH  75  76
ATOM     76  S   UNL A   1      33.180  35.495  28.793  1.00  0.00     0.124 S 
ATOM     77  O   UNL A   1      32.473  34.470  28.036  1.00  0.00    -0.237 OA
ATOM     78  O   UNL A   1      32.460  36.059  29.931  1.00  0.00    -0.237 OA
ATOM     79  O   UNL A   1      33.933  36.463  28.000  1.00  0.00    -0.744 OA
ENDBRANCH  75  76
ENDBRANCH  43  68
BRANCH  55  80
ATOM     80  C   UNL A   1      39.897  34.021  36.883  1.00  0.00     0.058 A 
ATOM     81  C   UNL A   1      40.496  35.288  36.810  1.00  0.00     0.135 A 
ATOM     82  C   UNL A   1      39.097  33.734  37.999  1.00  0.00     0.135 A 
ATOM     83  F   UNL A   1      41.274  35.608  35.764  1.00  0.00    -0.206 F 
ATOM     84  C   UNL A   1      40.319  36.234  37.814  1.00  0.00     0.059 A 
ATOM     85  C   UNL A   1      38.891  34.671  39.008  1.00  0.00     0.059 A 
ATOM     86  F   UNL A   1      38.497  32.538  38.112  1.00  0.00    -0.206 F 
ATOM     87  C   UNL A   1      39.516  35.915  38.910  1.00  0.00     0.060 A 
BRANCH  87  88
ATOM     88  S   UNL A   1      39.260  37.163  40.190  1.00  0.00     0.124 S 
ATOM     89  O   UNL A   1      38.519  36.407  41.194  1.00  0.00    -0.237 OA
ATOM     90  O   UNL A   1      40.626  37.530  40.552  1.00  0.00    -0.237 OA
ATOM     91  O   UNL A   1      38.502  38.203  39.500  1.00  0.00    -0.744 OA
ENDBRANCH  87  88
ENDBRANCH  55  80
ENDBRANCH  29  30
ENDBRANCH  22  24
ENDBRANCH  21  22
ENDBRANCH   1  21
TORSDOF 16
ENDMDL
MODEL 2
REMARK VINA RESULT:      -9.9      4.402     11.932
REMARK SMILES C[C@@H](C(=O)OCCOC(=O)c1ccc(-c2c3nc(c(-c4c(F)cc(S(=O)(=O)[O-])cc4F)c4ccc([nH]4)c(-c4c(F)cc(S(=O)(=O)[O-])cc4F)c4nc(c(-c5c(F)cc(S(=O)(=O)[O-])cc5F)c5ccc2[nH]5)C=C4)C=C3)cc1)c1ccc(-c2ccccc2)c(F)c1
REMARK SMILES IDX 7 1 6 2 5 3 3 4 4 5 2 6 1 7 77 8 78 9 89 10 79 11 87 12
REMARK SMILES IDX 80 13 88 14 81 15 82 16 86 17 83 18 85 19 84 20 8 21 9 22
REMARK SMILES IDX 10 23 11 24 12 25 76 26 13 27 75 28 14 29 15 30 16 31 69 32
REMARK SMILES IDX 17 33 74 34 68 35 70 36 18 37 73 38 67 39 66 40 19 42 53 43
REMARK SMILES IDX 32 44 52 45 33 46 36 47 51 48 71 49 34 50 35 51 50 53 72 54
REMARK SMILES IDX 37 55 20 56 21 57 30 58 22 59 23 60 29 61 31 62 24 63 25 64
REMARK SMILES IDX 26 65 27 66 28 67 54 68 55 69 64 70 56 71 57 72 63 73 65 74
REMARK SMILES IDX 58 75 59 76 60 77 61 78 62 79 38 80 39 81 48 82 40 83 41 84
REMARK SMILES IDX 47 85 49 86 42 87 43 88 44 89 45 90 46 91
REMARK H PARENT 70 41 36 52
REMARK Flexibility Score: inf
ROOT
ATOM      1  C   UNL A   1      34.711  33.063  28.063  1.00  0.00     0.275 C 
ENDROOT
BRANCH   1   2
ATOM      2  C   UNL A   1      33.706  34.190  28.278  1.00  0.00     0.274 C 
BRANCH   2   3
ATOM      3  O   UNL A   1      33.283  34.226  29.657  1.00  0.00    -0.462 OA
BRANCH   3   4
ATOM      4  C   UNL A   1      33.073  35.456  30.206  1.00  0.00     0.313 C 
ATOM      5  O   UNL A   1      32.757  36.444  29.554  1.00  0.00    -0.252 OA
BRANCH   4   6
ATOM      6  C   UNL A   1      33.353  35.482  31.721  1.00  0.00     0.126 C 
ATOM      7  C   UNL A   1      33.454  36.911  32.271  1.00  0.00     0.025 C 
BRANCH   6   8
ATOM      8  C   UNL A   1      34.532  34.585  32.113  1.00  0.00    -0.031 A 
ATOM      9  C   UNL A   1      34.424  33.736  33.229  1.00  0.00     0.005 A 
ATOM     10  C   UNL A   1      35.739  34.553  31.402  1.00  0.00     0.044 A 
ATOM     11  C   UNL A   1      35.469  32.870  33.596  1.00  0.00     0.012 A 
ATOM     12  C   UNL A   1      36.780  33.698  31.782  1.00  0.00     0.131 A 
ATOM     13  C   UNL A   1      36.672  32.827  32.875  1.00  0.00     0.017 A 
ATOM     14  F   UNL A   1      37.895  33.715  31.034  1.00  0.00    -0.206 F 
BRANCH  13  15
ATOM     15  C   UNL A   1      37.749  31.879  33.227  1.00  0.00    -0.015 A 
ATOM     16  C   UNL A   1      37.598  30.495  33.020  1.00  0.00     0.009 A 
ATOM     17  C   UNL A   1      38.975  32.326  33.749  1.00  0.00     0.009 A 
ATOM     18  C   UNL A   1      38.637  29.602  33.302  1.00  0.00     0.001 A 
ATOM     19  C   UNL A   1      40.014  31.432  34.033  1.00  0.00     0.001 A 
ATOM     20  C   UNL A   1      39.846  30.071  33.802  1.00  0.00     0.000 A 
ENDBRANCH  13  15
ENDBRANCH   6   8
ENDBRANCH   4   6
ENDBRANCH   3   4
ENDBRANCH   2   3
ENDBRANCH   1   2
BRANCH   1  21
ATOM     21  O   UNL A   1      34.325  31.930  28.857  1.00  0.00    -0.458 OA
BRANCH  21  22
ATOM     22  C   UNL A   1      34.357  30.729  28.242  1.00  0.00     0.338 C 
ATOM     23  O   UNL A   1      33.433  30.157  27.673  1.00  0.00    -0.246 OA
BRANCH  22  24
ATOM     24  C   UNL A   1      35.717  30.185  28.332  1.00  0.00     0.060 A 
ATOM     25  C   UNL A   1      36.187  29.745  29.566  1.00  0.00     0.016 A 
ATOM     26  C   UNL A   1      36.556  30.196  27.218  1.00  0.00     0.016 A 
ATOM     27  C   UNL A   1      37.522  29.379  29.707  1.00  0.00     0.010 A 
ATOM     28  C   UNL A   1      37.881  29.760  27.350  1.00  0.00     0.010 A 
ATOM     29  C   UNL A   1      38.388  29.383  28.606  1.00  0.00    -0.014 A 
BRANCH  29  30
ATOM     30  C   UNL A   1      39.830  29.063  28.801  1.00  0.00     0.031 A 
ATOM     31  C   UNL A   1      40.714  30.015  29.562  1.00  0.00     0.074 A 
ATOM     32  C   UNL A   1      40.333  27.891  28.364  1.00  0.00     0.049 A 
ATOM     33  N   UNL A   1      42.008  29.967  29.755  1.00  0.00    -0.248 NA
ATOM     34  C   UNL A   1      40.063  31.185  30.174  1.00  0.00     0.031 C 
ATOM     35  C   UNL A   1      39.574  26.845  27.676  1.00  0.00     0.029 A 
ATOM     36  N   UNL A   1      41.595  27.360  28.479  1.00  0.00    -0.354 N 
ATOM     37  C   UNL A   1      42.334  31.131  30.442  1.00  0.00     0.074 A 
ATOM     38  C   UNL A   1      41.101  31.857  30.652  1.00  0.00     0.031 C 
ATOM     39  C   UNL A   1      40.356  25.766  27.519  1.00  0.00     0.029 A 
ATOM     40  C   UNL A   1      41.692  26.065  28.024  1.00  0.00     0.049 A 
ATOM     41  H   UNL A   1      42.356  27.859  28.852  1.00  0.00     0.167 HD
ATOM     42  C   UNL A   1      43.554  31.562  30.845  1.00  0.00     0.037 A 
ATOM     43  C   UNL A   1      42.738  25.216  28.026  1.00  0.00     0.037 A 
ATOM     44  C   UNL A   1      44.767  30.800  30.706  1.00  0.00     0.049 A 
ATOM     45  C   UNL A   1      44.073  25.694  28.526  1.00  0.00     0.074 A 
ATOM     46  C   UNL A   1      46.059  31.164  31.045  1.00  0.00     0.029 A 
ATOM     47  N   UNL A   1      44.831  29.504  30.220  1.00  0.00    -0.354 N 
ATOM     48  N   UNL A   1      44.383  26.840  29.082  1.00  0.00    -0.248 NA
ATOM     49  C   UNL A   1      45.208  24.773  28.367  1.00  0.00     0.031 C 
ATOM     50  C   UNL A   1      46.908  30.092  30.745  1.00  0.00     0.029 A 
ATOM     51  C   UNL A   1      46.140  29.053  30.245  1.00  0.00     0.049 A 
ATOM     52  H   UNL A   1      44.060  28.980  29.903  1.00  0.00     0.167 HD
ATOM     53  C   UNL A   1      45.752  26.785  29.321  1.00  0.00     0.074 A 
ATOM     54  C   UNL A   1      46.202  25.476  28.895  1.00  0.00     0.031 C 
ATOM     55  C   UNL A   1      46.568  27.745  29.822  1.00  0.00     0.037 A 
BRANCH  42  56
ATOM     56  C   UNL A   1      43.645  32.948  31.412  1.00  0.00     0.058 A 
ATOM     57  C   UNL A   1      43.908  34.071  30.615  1.00  0.00     0.135 A 
ATOM     58  C   UNL A   1      43.442  33.152  32.788  1.00  0.00     0.135 A 
ATOM     59  F   UNL A   1      44.126  33.929  29.299  1.00  0.00    -0.206 F 
ATOM     60  C   UNL A   1      43.991  35.348  31.167  1.00  0.00     0.059 A 
ATOM     61  C   UNL A   1      43.500  34.419  33.357  1.00  0.00     0.059 A 
ATOM     62  F   UNL A   1      43.188  32.109  33.595  1.00  0.00    -0.206 F 
ATOM     63  C   UNL A   1      43.791  35.510  32.540  1.00  0.00     0.060 A 
BRANCH  63  64
ATOM     64  S   UNL A   1      43.902  37.167  33.250  1.00  0.00     0.124 S 
ATOM     65  O   UNL A   1      42.839  37.127  34.250  1.00  0.00    -0.237 OA
ATOM     66  O   UNL A   1      45.264  37.197  33.774  1.00  0.00    -0.237 OA
ATOM     67  O   UNL A   1      43.657  38.042  32.108  1.00  0.00    -0.744 OA
ENDBRANCH  63  64
ENDBRANCH  42  56
BRANCH  43  68
ATOM     68  C   UNL A   1      42.566  23.815  27.560  1.00  0.00     0.058 A 
ATOM     69  C   UNL A   1      42.589  23.520  26.189  1.00  0.00     0.135 A 
ATOM     70  C   UNL A   1      42.383  22.753  28.456  1.00  0.00     0.135 A 
ATOM     71  F   UNL A   1      42.754  24.506  25.295  1.00  0.00    -0.206 F 
ATOM     72  C   UNL A   1      42.428  22.220  25.720  1.00  0.00     0.059 A 
ATOM     73  C   UNL A   1      42.243  21.441  28.013  1.00  0.00     0.059 A 
ATOM     74  F   UNL A   1      42.363  22.982  29.779  1.00  0.00    -0.206 F 
ATOM     75  C   UNL A   1      42.256  21.187  26.642  1.00  0.00     0.060 A 
BRANCH  75  76
ATOM     76  S   UNL A   1      42.107  19.490  26.041  1.00  0.00     0.124 S 
ATOM     77  O   UNL A   1      42.596  18.731  27.186  1.00  0.00    -0.237 OA
ATOM     78  O   UNL A   1      40.679  19.376  25.761  1.00  0.00    -0.237 OA
ATOM     79  O   UNL A   1      42.968  19.483  24.861  1.00  0.00    -0.744 OA
ENDBRANCH  75  76
ENDBRANCH  43  68
BRANCH  55  80
ATOM     80  C   UNL A   1      48.030  27.420  29.923  1.00  0.00     0.058 A 
ATOM     81  C   UNL A   1      48.911  27.713  28.871  1.00  0.00     0.135 A 
ATOM     82  C   UNL A   1      48.565  26.867  31.097  1.00  0.00     0.135 A 
ATOM     83  F   UNL A   1      48.446  28.239  27.727  1.00  0.00    -0.206 F 
ATOM     84  C   UNL A   1      50.274  27.453  28.972  1.00  0.00     0.059 A 
ATOM     85  C   UNL A   1      49.928  26.616  31.227  1.00  0.00     0.059 A 
ATOM     86  F   UNL A   1      47.764  26.576  32.134  1.00  0.00    -0.206 F 
ATOM     87  C   UNL A   1      50.773  26.904  30.153  1.00  0.00     0.060 A 
BRANCH  87  88
ATOM     88  S   UNL A   1      52.549  26.607  30.290  1.00  0.00     0.124 S 
ATOM     89  O   UNL A   1      52.899  26.283  28.911  1.00  0.00    -0.237 OA
ATOM     90  O   UNL A   1      53.047  27.886  30.787  1.00  0.00    -0.237 OA
ATOM     91  O   UNL A   1      52.633  25.500  31.237  1.00  0.00    -0.744 OA
ENDBRANCH  87  88
ENDBRANCH  55  80
ENDBRANCH  29  30
ENDBRANCH  22  24
ENDBRANCH  21  22
ENDBRANCH   1  21
TORSDOF 16
ENDMDL
MODEL 3
REMARK VINA RESULT:      -9.7      6.845     13.335
REMARK SMILES C[C@@H](C(=O)OCCOC(=O)c1ccc(-c2c3nc(c(-c4c(F)cc(S(=O)(=O)[O-])cc4F)c4ccc([nH]4)c(-c4c(F)cc(S(=O)(=O)[O-])cc4F)c4nc(c(-c5c(F)cc(S(=O)(=O)[O-])cc5F)c5ccc2[nH]5)C=C4)C=C3)cc1)c1ccc(-c2ccccc2)c(F)c1
REMARK SMILES IDX 7 1 6 2 5 3 3 4 4 5 2 6 1 7 77 8 78 9 89 10 79 11 87 12
REMARK SMILES IDX 80 13 88 14 81 15 82 16 86 17 83 18 85 19 84 20 8 21 9 22
REMARK SMILES IDX 10 23 11 24 12 25 76 26 13 27 75 28 14 29 15 30 16 31 69 32
REMARK SMILES IDX 17 33 74 34 68 35 70 36 18 37 73 38 67 39 66 40 19 42 53 43
REMARK SMILES IDX 32 44 52 45 33 46 36 47 51 48 71 49 34 50 35 51 50 53 72 54
REMARK SMILES IDX 37 55 20 56 21 57 30 58 22 59 23 60 29 61 31 62 24 63 25 64
REMARK SMILES IDX 26 65 27 66 28 67 54 68 55 69 64 70 56 71 57 72 63 73 65 74
REMARK SMILES IDX 58 75 59 76 60 77 61 78 62 79 38 80 39 81 48 82 40 83 41 84
REMARK SMILES IDX 47 85 49 86 42 87 43 88 44 89 45 90 46 91
REMARK H PARENT 70 41 36 52
REMARK Flexibility Score: inf
ROOT
ATOM      1  C   UNL A   1      34.633  31.445  28.008  1.00  0.00     0.275 C 
ENDROOT
BRANCH   1   2
ATOM      2  C   UNL A   1      33.389  30.921  27.297  1.00  0.00     0.274 C 
BRANCH   2   3
ATOM      3  O   UNL A   1      33.611  29.573  26.833  1.00  0.00    -0.462 OA
BRANCH   3   4
ATOM      4  C   UNL A   1      32.781  29.113  25.854  1.00  0.00     0.313 C 
ATOM      5  O   UNL A   1      32.700  29.621  24.741  1.00  0.00    -0.252 OA
BRANCH   4   6
ATOM      6  C   UNL A   1      31.902  27.940  26.327  1.00  0.00     0.126 C 
ATOM      7  C   UNL A   1      31.402  28.129  27.766  1.00  0.00     0.025 C 
BRANCH   6   8
ATOM      8  C   UNL A   1      32.560  26.578  26.077  1.00  0.00    -0.031 A 
ATOM      9  C   UNL A   1      33.837  26.515  25.492  1.00  0.00     0.005 A 
ATOM     10  C   UNL A   1      31.952  25.361  26.415  1.00  0.00     0.044 A 
ATOM     11  C   UNL A   1      34.489  25.287  25.283  1.00  0.00     0.012 A 
ATOM     12  C   UNL A   1      32.603  24.142  26.192  1.00  0.00     0.131 A 
ATOM     13  C   UNL A   1      33.887  24.070  25.635  1.00  0.00     0.017 A 
ATOM     14  F   UNL A   1      31.959  23.024  26.563  1.00  0.00    -0.206 F 
BRANCH  13  15
ATOM     15  C   UNL A   1      34.593  22.783  25.468  1.00  0.00    -0.015 A 
ATOM     16  C   UNL A   1      33.899  21.610  25.120  1.00  0.00     0.009 A 
ATOM     17  C   UNL A   1      35.988  22.689  25.617  1.00  0.00     0.009 A 
ATOM     18  C   UNL A   1      34.573  20.402  24.908  1.00  0.00     0.001 A 
ATOM     19  C   UNL A   1      36.662  21.481  25.407  1.00  0.00     0.001 A 
ATOM     20  C   UNL A   1      35.955  20.340  25.046  1.00  0.00     0.000 A 
ENDBRANCH  13  15
ENDBRANCH   6   8
ENDBRANCH   4   6
ENDBRANCH   3   4
ENDBRANCH   2   3
ENDBRANCH   1   2
BRANCH   1  21
ATOM     21  O   UNL A   1      35.300  30.352  28.657  1.00  0.00    -0.458 OA
BRANCH  21  22
ATOM     22  C   UNL A   1      36.229  30.681  29.580  1.00  0.00     0.338 C 
ATOM     23  O   UNL A   1      36.071  31.367  30.585  1.00  0.00    -0.246 OA
BRANCH  22  24
ATOM     24  C   UNL A   1      37.506  30.061  29.212  1.00  0.00     0.060 A 
ATOM     25  C   UNL A   1      38.375  29.654  30.221  1.00  0.00     0.016 A 
ATOM     26  C   UNL A   1      37.885  29.966  27.873  1.00  0.00     0.016 A 
ATOM     27  C   UNL A   1      39.655  29.215  29.897  1.00  0.00     0.010 A 
ATOM     28  C   UNL A   1      39.149  29.458  27.549  1.00  0.00     0.010 A 
ATOM     29  C   UNL A   1      40.062  29.113  28.560  1.00  0.00    -0.014 A 
BRANCH  29  30
ATOM     30  C   UNL A   1      41.463  28.717  28.245  1.00  0.00     0.031 A 
ATOM     31  C   UNL A   1      42.591  29.686  28.487  1.00  0.00     0.074 A 
ATOM     32  C   UNL A   1      41.738  27.470  27.814  1.00  0.00     0.049 A 
ATOM     33  N   UNL A   1      43.860  29.569  28.188  1.00  0.00    -0.248 NA
ATOM     34  C   UNL A   1      42.246  30.962  29.135  1.00  0.00     0.031 C 
ATOM     35  C   UNL A   1      40.752  26.407  27.606  1.00  0.00     0.029 A 
ATOM     36  N   UNL A   1      42.937  26.868  27.520  1.00  0.00    -0.354 N 
ATOM     37  C   UNL A   1      44.446  30.779  28.541  1.00  0.00     0.074 A 
ATOM     38  C   UNL A   1      43.401  31.610  29.096  1.00  0.00     0.031 C 
ATOM     39  C   UNL A   1      41.394  25.264  27.315  1.00  0.00     0.029 A 
ATOM     40  C   UNL A   1      42.828  25.525  27.241  1.00  0.00     0.049 A 
ATOM     41  H   UNL A   1      43.794  27.351  27.512  1.00  0.00     0.167 HD
ATOM     42  C   UNL A   1      45.737  31.166  28.399  1.00  0.00     0.037 A 
ATOM     43  C   UNL A   1      43.777  24.610  26.966  1.00  0.00     0.037 A 
ATOM     44  C   UNL A   1      46.791  30.310  27.921  1.00  0.00     0.049 A 
ATOM     45  C   UNL A   1      45.212  25.047  26.863  1.00  0.00     0.074 A 
ATOM     46  C   UNL A   1      48.122  30.618  27.702  1.00  0.00     0.029 A 
ATOM     47  N   UNL A   1      46.638  28.964  27.625  1.00  0.00    -0.354 N 
ATOM     48  N   UNL A   1      45.734  26.225  27.104  1.00  0.00    -0.248 NA
ATOM     49  C   UNL A   1      46.182  24.035  26.418  1.00  0.00     0.031 C 
ATOM     50  C   UNL A   1      48.771  29.461  27.254  1.00  0.00     0.029 A 
ATOM     51  C   UNL A   1      47.848  28.429  27.221  1.00  0.00     0.049 A 
ATOM     52  H   UNL A   1      45.793  28.464  27.692  1.00  0.00     0.167 HD
ATOM     53  C   UNL A   1      47.091  26.102  26.821  1.00  0.00     0.074 A 
ATOM     54  C   UNL A   1      47.317  24.723  26.438  1.00  0.00     0.031 C 
ATOM     55  C   UNL A   1      48.056  27.053  26.849  1.00  0.00     0.037 A 
BRANCH  42  56
ATOM     56  C   UNL A   1      46.066  32.599  28.700  1.00  0.00     0.058 A 
ATOM     57  C   UNL A   1      45.965  33.613  27.736  1.00  0.00     0.135 A 
ATOM     58  C   UNL A   1      46.474  32.962  29.995  1.00  0.00     0.135 A 
ATOM     59  F   UNL A   1      45.596  33.316  26.481  1.00  0.00    -0.206 F 
ATOM     60  C   UNL A   1      46.280  34.935  28.040  1.00  0.00     0.059 A 
ATOM     61  C   UNL A   1      46.775  34.279  30.325  1.00  0.00     0.059 A 
ATOM     62  F   UNL A   1      46.590  32.029  30.954  1.00  0.00    -0.206 F 
ATOM     63  C   UNL A   1      46.689  35.257  29.336  1.00  0.00     0.060 A 
BRANCH  63  64
ATOM     64  S   UNL A   1      47.098  36.973  29.723  1.00  0.00     0.124 S 
ATOM     65  O   UNL A   1      46.423  37.151  31.006  1.00  0.00    -0.237 OA
ATOM     66  O   UNL A   1      48.556  36.948  29.774  1.00  0.00    -0.237 OA
ATOM     67  O   UNL A   1      46.528  37.718  28.606  1.00  0.00    -0.744 OA
ENDBRANCH  63  64
ENDBRANCH  42  56
BRANCH  43  68
ATOM     68  C   UNL A   1      43.411  23.180  26.791  1.00  0.00     0.058 A 
ATOM     69  C   UNL A   1      43.411  22.604  25.511  1.00  0.00     0.135 A 
ATOM     70  C   UNL A   1      43.063  22.365  27.877  1.00  0.00     0.135 A 
ATOM     71  F   UNL A   1      43.730  23.348  24.442  1.00  0.00    -0.206 F 
ATOM     72  C   UNL A   1      43.071  21.270  25.313  1.00  0.00     0.059 A 
ATOM     73  C   UNL A   1      42.743  21.022  27.707  1.00  0.00     0.059 A 
ATOM     74  F   UNL A   1      43.058  22.867  29.122  1.00  0.00    -0.206 F 
ATOM     75  C   UNL A   1      42.738  20.486  26.418  1.00  0.00     0.060 A 
BRANCH  75  76
ATOM     76  S   UNL A   1      42.355  18.738  26.173  1.00  0.00     0.124 S 
ATOM     77  O   UNL A   1      43.290  18.380  25.114  1.00  0.00    -0.237 OA
ATOM     78  O   UNL A   1      42.627  18.166  27.488  1.00  0.00    -0.237 OA
ATOM     79  O   UNL A   1      40.945  18.763  25.792  1.00  0.00    -0.744 OA
ENDBRANCH  75  76
ENDBRANCH  43  68
BRANCH  55  80
ATOM     80  C   UNL A   1      49.440  26.639  26.441  1.00  0.00     0.058 A 
ATOM     81  C   UNL A   1      50.291  25.975  27.337  1.00  0.00     0.135 A 
ATOM     82  C   UNL A   1      49.899  26.855  25.132  1.00  0.00     0.135 A 
ATOM     83  F   UNL A   1      49.898  25.749  28.600  1.00  0.00    -0.206 F 
ATOM     84  C   UNL A   1      51.559  25.551  26.955  1.00  0.00     0.059 A 
ATOM     85  C   UNL A   1      51.158  26.424  24.723  1.00  0.00     0.059 A 
ATOM     86  F   UNL A   1      49.120  27.480  24.236  1.00  0.00    -0.206 F 
ATOM     87  C   UNL A   1      51.984  25.781  25.646  1.00  0.00     0.060 A 
BRANCH  87  88
ATOM     88  S   UNL A   1      53.617  25.193  25.148  1.00  0.00     0.124 S 
ATOM     89  O   UNL A   1      54.470  25.794  26.168  1.00  0.00    -0.237 OA
ATOM     90  O   UNL A   1      53.468  23.742  25.221  1.00  0.00    -0.237 OA
ATOM     91  O   UNL A   1      53.773  25.732  23.800  1.00  0.00    -0.744 OA
ENDBRANCH  87  88
ENDBRANCH  55  80
ENDBRANCH  29  30
ENDBRANCH  22  24
ENDBRANCH  21  22
ENDBRANCH   1  21
TORSDOF 16
ENDMDL
