MODEL 1
REMARK VINA RESULT:     -11.8      0.000      0.000
REMARK SMILES Cc1cc2c(c(C)c1Cl)C=C(C(=O)OCCOC(=O)c1ccc(-c3c4nc(c(-c5c(F)cc(S(=O)(=O)[O-])cc5F)c5ccc([nH]5)c(-c5c(F)cc(S(=O)(=O)[O-])cc5F)c5nc(c(-c6c(F)cc(S(=O)(=O)[O-])cc6F)c6ccc3[nH]6)C=C5)C=C4)cc1)[C@@H](C(F)(F)F)O2
REMARK SMILES IDX 16 1 15 2 14 3 12 4 13 5 11 6 1 7 2 8 3 9 8 10 4 11 6 12
REMARK SMILES IDX 9 13 5 14 91 15 7 16 10 17 86 18 87 19 88 20 89 21 90 22
REMARK SMILES IDX 17 23 18 24 19 25 20 26 21 27 85 28 22 29 84 30 23 31 24 32
REMARK SMILES IDX 25 33 78 34 26 35 83 36 77 37 79 38 27 39 82 40 76 41 75 42
REMARK SMILES IDX 28 44 62 45 41 46 61 47 42 48 45 49 60 50 80 51 43 52 44 53
REMARK SMILES IDX 59 55 81 56 46 57 29 58 30 59 39 60 31 61 32 62 38 63 40 64
REMARK SMILES IDX 33 65 34 66 35 67 36 68 37 69 63 70 64 71 73 72 65 73 66 74
REMARK SMILES IDX 72 75 74 76 67 77 68 78 69 79 70 80 71 81 47 82 48 83 57 84
REMARK SMILES IDX 49 85 50 86 56 87 58 88 51 89 52 90 53 91 54 92 55 93
REMARK H PARENT 79 43 45 54
REMARK Flexibility Score: inf
ROOT
ATOM      1  C   UNL A   1      32.747  31.021  27.049  1.00  0.00     0.275 C 
ENDROOT
BRANCH   1   2
ATOM      2  C   UNL A   1      32.342  30.063  25.929  1.00  0.00     0.275 C 
BRANCH   2   3
ATOM      3  O   UNL A   1      32.632  28.691  26.275  1.00  0.00    -0.459 OA
BRANCH   3   4
ATOM      4  C   UNL A   1      33.279  27.976  25.325  1.00  0.00     0.338 C 
ATOM      5  O   UNL A   1      33.954  28.425  24.411  1.00  0.00    -0.246 OA
BRANCH   4   6
ATOM      6  C   UNL A   1      33.061  26.530  25.521  1.00  0.00     0.087 C 
ATOM      7  C   UNL A   1      33.109  20.034  25.559  1.00  0.00     0.046 C 
ATOM      8  C   UNL A   1      33.426  21.505  25.563  1.00  0.00    -0.028 A 
ATOM      9  C   UNL A   1      32.379  22.429  25.675  1.00  0.00     0.052 A 
ATOM     10  C   UNL A   1      34.748  21.978  25.458  1.00  0.00     0.047 A 
ATOM     11  C   UNL A   1      32.628  23.799  25.663  1.00  0.00     0.128 A 
ATOM     12  C   UNL A   1      35.024  23.364  25.446  1.00  0.00    -0.021 A 
ATOM     13  Cl  UNL A   1      36.034  20.814  25.337  1.00  0.00    -0.084 Cl
ATOM     14  C   UNL A   1      33.938  24.276  25.542  1.00  0.00     0.022 A 
ATOM     15  O   UNL A   1      31.523  24.596  25.789  1.00  0.00    -0.475 OA
ATOM     16  C   UNL A   1      36.441  23.879  25.346  1.00  0.00     0.047 C 
ATOM     17  C   UNL A   1      34.127  25.723  25.499  1.00  0.00     0.027 C 
ATOM     18  C   UNL A   1      31.653  26.027  25.588  1.00  0.00     0.316 C 
BRANCH  18  19
ATOM     19  C   UNL A   1      30.854  26.432  24.338  1.00  0.00     0.430 C 
ATOM     20  F   UNL A   1      29.835  25.569  24.103  1.00  0.00    -0.167 F 
ATOM     21  F   UNL A   1      30.289  27.656  24.482  1.00  0.00    -0.167 F 
ATOM     22  F   UNL A   1      31.620  26.468  23.224  1.00  0.00    -0.167 F 
ENDBRANCH  18  19
ENDBRANCH   4   6
ENDBRANCH   3   4
ENDBRANCH   2   3
ENDBRANCH   1   2
BRANCH   1  23
ATOM     23  O   UNL A   1      33.534  30.330  28.036  1.00  0.00    -0.458 OA
BRANCH  23  24
ATOM     24  C   UNL A   1      34.570  31.039  28.541  1.00  0.00     0.338 C 
ATOM     25  O   UNL A   1      34.530  32.156  29.026  1.00  0.00    -0.246 OA
BRANCH  24  26
ATOM     26  C   UNL A   1      35.802  30.235  28.519  1.00  0.00     0.060 A 
ATOM     27  C   UNL A   1      36.276  29.717  29.716  1.00  0.00     0.016 A 
ATOM     28  C   UNL A   1      36.601  30.194  27.380  1.00  0.00     0.016 A 
ATOM     29  C   UNL A   1      37.611  29.336  29.822  1.00  0.00     0.010 A 
ATOM     30  C   UNL A   1      37.898  29.666  27.462  1.00  0.00     0.010 A 
ATOM     31  C   UNL A   1      38.454  29.301  28.702  1.00  0.00    -0.014 A 
BRANCH  31  32
ATOM     32  C   UNL A   1      39.909  28.960  28.841  1.00  0.00     0.031 A 
ATOM     33  C   UNL A   1      40.888  29.989  29.373  1.00  0.00     0.074 A 
ATOM     34  C   UNL A   1      40.373  27.726  28.543  1.00  0.00     0.049 A 
ATOM     35  N   UNL A   1      42.196  29.985  29.335  1.00  0.00    -0.248 NA
ATOM     36  C   UNL A   1      40.319  31.185  30.017  1.00  0.00     0.031 C 
ATOM     37  C   UNL A   1      39.562  26.592  28.095  1.00  0.00     0.029 A 
ATOM     38  N   UNL A   1      41.648  27.209  28.587  1.00  0.00    -0.354 N 
ATOM     39  C   UNL A   1      42.603  31.203  29.876  1.00  0.00     0.074 A 
ATOM     40  C   UNL A   1      41.400  31.922  30.236  1.00  0.00     0.031 C 
ATOM     41  C   UNL A   1      40.337  25.506  27.981  1.00  0.00     0.029 A 
ATOM     42  C   UNL A   1      41.724  25.892  28.196  1.00  0.00     0.049 A 
ATOM     43  H   UNL A   1      42.432  27.732  28.873  1.00  0.00     0.167 HD
ATOM     44  C   UNL A   1      43.860  31.676  30.055  1.00  0.00     0.037 A 
ATOM     45  C   UNL A   1      42.783  25.092  27.957  1.00  0.00     0.037 A 
ATOM     46  C   UNL A   1      45.055  30.919  29.772  1.00  0.00     0.049 A 
ATOM     47  C   UNL A   1      44.167  25.655  28.099  1.00  0.00     0.074 A 
ATOM     48  C   UNL A   1      46.376  31.308  29.921  1.00  0.00     0.029 A 
ATOM     49  N   UNL A   1      45.077  29.610  29.312  1.00  0.00    -0.354 N 
ATOM     50  N   UNL A   1      44.534  26.849  28.496  1.00  0.00    -0.248 NA
ATOM     51  C   UNL A   1      45.282  24.774  27.724  1.00  0.00     0.031 C 
ATOM     52  C   UNL A   1      47.195  30.252  29.508  1.00  0.00     0.029 A 
ATOM     53  C   UNL A   1      46.386  29.185  29.153  1.00  0.00     0.049 A 
ATOM     54  H   UNL A   1      44.279  29.065  29.124  1.00  0.00     0.167 HD
ATOM     55  C   UNL A   1      45.922  26.862  28.425  1.00  0.00     0.074 A 
ATOM     56  C   UNL A   1      46.330  25.547  27.973  1.00  0.00     0.031 C 
ATOM     57  C   UNL A   1      46.781  27.874  28.700  1.00  0.00     0.037 A 
BRANCH  44  58
ATOM     58  C   UNL A   1      44.031  33.090  30.551  1.00  0.00     0.058 A 
ATOM     59  C   UNL A   1      44.014  34.196  29.688  1.00  0.00     0.135 A 
ATOM     60  C   UNL A   1      44.136  33.344  31.930  1.00  0.00     0.135 A 
ATOM     61  F   UNL A   1      43.933  34.017  28.360  1.00  0.00    -0.206 F 
ATOM     62  C   UNL A   1      44.109  35.499  30.171  1.00  0.00     0.059 A 
ATOM     63  C   UNL A   1      44.202  34.637  32.438  1.00  0.00     0.059 A 
ATOM     64  F   UNL A   1      44.157  32.324  32.804  1.00  0.00    -0.206 F 
ATOM     65  C   UNL A   1      44.197  35.710  31.549  1.00  0.00     0.060 A 
BRANCH  65  66
ATOM     66  S   UNL A   1      44.294  37.407  32.159  1.00  0.00     0.124 S 
ATOM     67  O   UNL A   1      43.292  37.394  33.222  1.00  0.00    -0.237 OA
ATOM     68  O   UNL A   1      45.682  37.499  32.599  1.00  0.00    -0.237 OA
ATOM     69  O   UNL A   1      43.954  38.212  30.991  1.00  0.00    -0.744 OA
ENDBRANCH  65  66
ENDBRANCH  44  58
BRANCH  45  70
ATOM     70  C   UNL A   1      42.566  23.696  27.487  1.00  0.00     0.058 A 
ATOM     71  C   UNL A   1      42.550  23.386  26.120  1.00  0.00     0.135 A 
ATOM     72  C   UNL A   1      42.400  22.637  28.396  1.00  0.00     0.135 A 
ATOM     73  F   UNL A   1      42.682  24.363  25.209  1.00  0.00    -0.206 F 
ATOM     74  C   UNL A   1      42.384  22.079  25.670  1.00  0.00     0.059 A 
ATOM     75  C   UNL A   1      42.271  21.318  27.973  1.00  0.00     0.059 A 
ATOM     76  F   UNL A   1      42.413  22.876  29.718  1.00  0.00    -0.206 F 
ATOM     77  C   UNL A   1      42.258  21.050  26.606  1.00  0.00     0.060 A 
BRANCH  77  78
ATOM     78  S   UNL A   1      42.115  19.351  26.013  1.00  0.00     0.124 S 
ATOM     79  O   UNL A   1      42.616  18.597  27.156  1.00  0.00    -0.237 OA
ATOM     80  O   UNL A   1      40.683  19.239  25.752  1.00  0.00    -0.237 OA
ATOM     81  O   UNL A   1      42.964  19.336  24.826  1.00  0.00    -0.744 OA
ENDBRANCH  77  78
ENDBRANCH  45  70
BRANCH  57  82
ATOM     82  C   UNL A   1      48.249  27.596  28.542  1.00  0.00     0.058 A 
ATOM     83  C   UNL A   1      49.010  27.049  29.588  1.00  0.00     0.135 A 
ATOM     84  C   UNL A   1      48.896  27.843  27.320  1.00  0.00     0.135 A 
ATOM     85  F   UNL A   1      48.442  26.801  30.778  1.00  0.00    -0.206 F 
ATOM     86  C   UNL A   1      50.367  26.785  29.436  1.00  0.00     0.059 A 
ATOM     87  C   UNL A   1      50.245  27.558  27.137  1.00  0.00     0.059 A 
ATOM     88  F   UNL A   1      48.212  28.355  26.285  1.00  0.00    -0.206 F 
ATOM     89  C   UNL A   1      50.976  27.041  28.206  1.00  0.00     0.060 A 
BRANCH  89  90
ATOM     90  S   UNL A   1      52.733  26.675  28.023  1.00  0.00     0.124 S 
ATOM     91  O   UNL A   1      52.709  25.599  27.038  1.00  0.00    -0.237 OA
ATOM     92  O   UNL A   1      53.268  27.950  27.555  1.00  0.00    -0.237 OA
ATOM     93  O   UNL A   1      53.143  26.285  29.369  1.00  0.00    -0.744 OA
ENDBRANCH  89  90
ENDBRANCH  57  82
ENDBRANCH  31  32
ENDBRANCH  24  26
ENDBRANCH  23  24
ENDBRANCH   1  23
TORSDOF 15
ENDMDL
MODEL 2
REMARK VINA RESULT:     -11.7      4.477      9.791
REMARK SMILES Cc1cc2c(c(C)c1Cl)C=C(C(=O)OCCOC(=O)c1ccc(-c3c4nc(c(-c5c(F)cc(S(=O)(=O)[O-])cc5F)c5ccc([nH]5)c(-c5c(F)cc(S(=O)(=O)[O-])cc5F)c5nc(c(-c6c(F)cc(S(=O)(=O)[O-])cc6F)c6ccc3[nH]6)C=C5)C=C4)cc1)[C@@H](C(F)(F)F)O2
REMARK SMILES IDX 16 1 15 2 14 3 12 4 13 5 11 6 1 7 2 8 3 9 8 10 4 11 6 12
REMARK SMILES IDX 9 13 5 14 91 15 7 16 10 17 86 18 87 19 88 20 89 21 90 22
REMARK SMILES IDX 17 23 18 24 19 25 20 26 21 27 85 28 22 29 84 30 23 31 24 32
REMARK SMILES IDX 25 33 78 34 26 35 83 36 77 37 79 38 27 39 82 40 76 41 75 42
REMARK SMILES IDX 28 44 62 45 41 46 61 47 42 48 45 49 60 50 80 51 43 52 44 53
REMARK SMILES IDX 59 55 81 56 46 57 29 58 30 59 39 60 31 61 32 62 38 63 40 64
REMARK SMILES IDX 33 65 34 66 35 67 36 68 37 69 63 70 64 71 73 72 65 73 66 74
REMARK SMILES IDX 72 75 74 76 67 77 68 78 69 79 70 80 71 81 47 82 48 83 57 84
REMARK SMILES IDX 49 85 50 86 56 87 58 88 51 89 52 90 53 91 54 92 55 93
REMARK H PARENT 79 43 45 54
REMARK Flexibility Score: inf
ROOT
ATOM      1  C   UNL A   1      40.509  20.182  26.090  1.00  0.00     0.275 C 
ENDROOT
BRANCH   1   2
ATOM      2  C   UNL A   1      42.022  20.060  26.267  1.00  0.00     0.275 C 
BRANCH   2   3
ATOM      3  O   UNL A   1      42.647  21.356  26.391  1.00  0.00    -0.459 OA
BRANCH   3   4
ATOM      4  C   UNL A   1      43.844  21.487  25.774  1.00  0.00     0.338 C 
ATOM      5  O   UNL A   1      44.179  20.969  24.720  1.00  0.00    -0.246 OA
BRANCH   4   6
ATOM      6  C   UNL A   1      44.742  22.358  26.556  1.00  0.00     0.087 C 
ATOM      7  C   UNL A   1      47.585  26.634  30.537  1.00  0.00     0.046 C 
ATOM      8  C   UNL A   1      46.737  25.580  29.878  1.00  0.00    -0.028 A 
ATOM      9  C   UNL A   1      47.080  25.131  28.596  1.00  0.00     0.052 A 
ATOM     10  C   UNL A   1      45.607  25.033  30.515  1.00  0.00     0.047 A 
ATOM     11  C   UNL A   1      46.309  24.172  27.943  1.00  0.00     0.128 A 
ATOM     12  C   UNL A   1      44.813  24.057  29.872  1.00  0.00    -0.021 A 
ATOM     13  Cl  UNL A   1      45.209  25.592  32.113  1.00  0.00    -0.084 Cl
ATOM     14  C   UNL A   1      45.176  23.636  28.564  1.00  0.00     0.022 A 
ATOM     15  O   UNL A   1      46.754  23.810  26.700  1.00  0.00    -0.475 OA
ATOM     16  C   UNL A   1      43.606  23.456  30.554  1.00  0.00     0.047 C 
ATOM     17  C   UNL A   1      44.392  22.662  27.811  1.00  0.00     0.027 C 
ATOM     18  C   UNL A   1      45.917  22.973  25.863  1.00  0.00     0.316 C 
BRANCH  18  19
ATOM     19  C   UNL A   1      45.480  23.778  24.627  1.00  0.00     0.430 C 
ATOM     20  F   UNL A   1      46.228  24.899  24.479  1.00  0.00    -0.167 F 
ATOM     21  F   UNL A   1      45.635  23.064  23.485  1.00  0.00    -0.167 F 
ATOM     22  F   UNL A   1      44.185  24.161  24.693  1.00  0.00    -0.167 F 
ENDBRANCH  18  19
ENDBRANCH   4   6
ENDBRANCH   3   4
ENDBRANCH   2   3
ENDBRANCH   1   2
BRANCH   1  23
ATOM     23  O   UNL A   1      39.975  21.147  27.013  1.00  0.00    -0.458 OA
BRANCH  23  24
ATOM     24  C   UNL A   1      39.310  22.177  26.442  1.00  0.00     0.338 C 
ATOM     25  O   UNL A   1      38.476  22.115  25.556  1.00  0.00    -0.246 OA
BRANCH  24  26
ATOM     26  C   UNL A   1      39.659  23.444  27.105  1.00  0.00     0.060 A 
ATOM     27  C   UNL A   1      39.189  24.630  26.557  1.00  0.00     0.016 A 
ATOM     28  C   UNL A   1      40.625  23.477  28.107  1.00  0.00     0.016 A 
ATOM     29  C   UNL A   1      39.820  25.831  26.870  1.00  0.00     0.010 A 
ATOM     30  C   UNL A   1      41.147  24.710  28.526  1.00  0.00     0.010 A 
ATOM     31  C   UNL A   1      40.811  25.902  27.859  1.00  0.00    -0.014 A 
BRANCH  31  32
ATOM     32  C   UNL A   1      41.535  27.188  28.135  1.00  0.00     0.031 A 
ATOM     33  C   UNL A   1      40.860  28.291  28.927  1.00  0.00     0.074 A 
ATOM     34  C   UNL A   1      42.811  27.376  27.731  1.00  0.00     0.049 A 
ATOM     35  N   UNL A   1      41.204  29.548  29.057  1.00  0.00    -0.248 NA
ATOM     36  C   UNL A   1      39.627  27.938  29.652  1.00  0.00     0.031 C 
ATOM     37  C   UNL A   1      43.640  26.394  27.029  1.00  0.00     0.029 A 
ATOM     38  N   UNL A   1      43.647  28.462  27.866  1.00  0.00    -0.354 N 
ATOM     39  C   UNL A   1      40.197  30.148  29.809  1.00  0.00     0.074 A 
ATOM     40  C   UNL A   1      39.227  29.118  30.108  1.00  0.00     0.031 C 
ATOM     41  C   UNL A   1      44.874  26.887  26.865  1.00  0.00     0.029 A 
ATOM     42  C   UNL A   1      44.891  28.274  27.308  1.00  0.00     0.049 A 
ATOM     43  H   UNL A   1      43.380  29.294  28.320  1.00  0.00     0.167 HD
ATOM     44  C   UNL A   1      40.093  31.438  30.213  1.00  0.00     0.037 A 
ATOM     45  C   UNL A   1      45.912  29.128  27.099  1.00  0.00     0.037 A 
ATOM     46  C   UNL A   1      41.104  32.440  29.982  1.00  0.00     0.049 A 
ATOM     47  C   UNL A   1      45.751  30.567  27.493  1.00  0.00     0.074 A 
ATOM     48  C   UNL A   1      41.094  33.775  30.353  1.00  0.00     0.029 A 
ATOM     49  N   UNL A   1      42.319  32.214  29.352  1.00  0.00    -0.354 N 
ATOM     50  N   UNL A   1      44.743  31.147  28.097  1.00  0.00    -0.248 NA
ATOM     51  C   UNL A   1      46.852  31.477  27.147  1.00  0.00     0.031 C 
ATOM     52  C   UNL A   1      42.280  34.365  29.905  1.00  0.00     0.029 A 
ATOM     53  C   UNL A   1      43.055  33.386  29.305  1.00  0.00     0.049 A 
ATOM     54  H   UNL A   1      42.614  31.347  28.989  1.00  0.00     0.167 HD
ATOM     55  C   UNL A   1      45.088  32.489  28.207  1.00  0.00     0.074 A 
ATOM     56  C   UNL A   1      46.411  32.629  27.633  1.00  0.00     0.031 C 
ATOM     57  C   UNL A   1      44.371  33.514  28.728  1.00  0.00     0.037 A 
BRANCH  44  58
ATOM     58  C   UNL A   1      38.831  31.869  30.918  1.00  0.00     0.058 A 
ATOM     59  C   UNL A   1      38.739  31.941  32.316  1.00  0.00     0.135 A 
ATOM     60  C   UNL A   1      37.718  32.292  30.170  1.00  0.00     0.135 A 
ATOM     61  F   UNL A   1      39.763  31.536  33.084  1.00  0.00    -0.206 F 
ATOM     62  C   UNL A   1      37.585  32.403  32.947  1.00  0.00     0.059 A 
ATOM     63  C   UNL A   1      36.566  32.783  30.778  1.00  0.00     0.059 A 
ATOM     64  F   UNL A   1      37.748  32.246  28.829  1.00  0.00    -0.206 F 
ATOM     65  C   UNL A   1      36.506  32.827  32.170  1.00  0.00     0.060 A 
BRANCH  65  66
ATOM     66  S   UNL A   1      35.029  33.445  33.004  1.00  0.00     0.124 S 
ATOM     67  O   UNL A   1      33.975  32.695  32.329  1.00  0.00    -0.237 OA
ATOM     68  O   UNL A   1      35.279  33.075  34.393  1.00  0.00    -0.237 OA
ATOM     69  O   UNL A   1      35.052  34.878  32.726  1.00  0.00    -0.744 OA
ENDBRANCH  65  66
ENDBRANCH  44  58
BRANCH  45  70
ATOM     70  C   UNL A   1      47.148  28.652  26.415  1.00  0.00     0.058 A 
ATOM     71  C   UNL A   1      48.355  28.512  27.114  1.00  0.00     0.135 A 
ATOM     72  C   UNL A   1      47.138  28.299  25.055  1.00  0.00     0.135 A 
ATOM     73  F   UNL A   1      48.423  28.856  28.410  1.00  0.00    -0.206 F 
ATOM     74  C   UNL A   1      49.506  28.035  26.494  1.00  0.00     0.059 A 
ATOM     75  C   UNL A   1      48.265  27.784  24.422  1.00  0.00     0.059 A 
ATOM     76  F   UNL A   1      46.008  28.408  24.338  1.00  0.00    -0.206 F 
ATOM     77  C   UNL A   1      49.447  27.662  25.149  1.00  0.00     0.060 A 
BRANCH  77  78
ATOM     78  S   UNL A   1      50.926  26.978  24.373  1.00  0.00     0.124 S 
ATOM     79  O   UNL A   1      51.144  25.773  25.166  1.00  0.00    -0.237 OA
ATOM     80  O   UNL A   1      50.479  26.767  22.999  1.00  0.00    -0.237 OA
ATOM     81  O   UNL A   1      51.917  28.035  24.546  1.00  0.00    -0.744 OA
ENDBRANCH  77  78
ENDBRANCH  45  70
BRANCH  57  82
ATOM     82  C   UNL A   1      45.009  34.875  28.722  1.00  0.00     0.058 A 
ATOM     83  C   UNL A   1      44.790  35.785  27.675  1.00  0.00     0.135 A 
ATOM     84  C   UNL A   1      45.818  35.289  29.793  1.00  0.00     0.135 A 
ATOM     85  F   UNL A   1      44.031  35.436  26.624  1.00  0.00    -0.206 F 
ATOM     86  C   UNL A   1      45.375  37.046  27.676  1.00  0.00     0.059 A 
ATOM     87  C   UNL A   1      46.388  36.558  29.829  1.00  0.00     0.059 A 
ATOM     88  F   UNL A   1      46.050  34.462  30.824  1.00  0.00    -0.206 F 
ATOM     89  C   UNL A   1      46.172  37.425  28.759  1.00  0.00     0.060 A 
BRANCH  89  90
ATOM     90  S   UNL A   1      46.908  39.072  28.751  1.00  0.00     0.124 S 
ATOM     91  O   UNL A   1      45.988  39.802  27.885  1.00  0.00    -0.237 OA
ATOM     92  O   UNL A   1      46.872  39.435  30.164  1.00  0.00    -0.237 OA
ATOM     93  O   UNL A   1      48.242  38.847  28.200  1.00  0.00    -0.744 OA
ENDBRANCH  89  90
ENDBRANCH  57  82
ENDBRANCH  31  32
ENDBRANCH  24  26
ENDBRANCH  23  24
ENDBRANCH   1  23
TORSDOF 15
ENDMDL
MODEL 3
REMARK VINA RESULT:     -11.5      5.409     10.824
REMARK SMILES Cc1cc2c(c(C)c1Cl)C=C(C(=O)OCCOC(=O)c1ccc(-c3c4nc(c(-c5c(F)cc(S(=O)(=O)[O-])cc5F)c5ccc([nH]5)c(-c5c(F)cc(S(=O)(=O)[O-])cc5F)c5nc(c(-c6c(F)cc(S(=O)(=O)[O-])cc6F)c6ccc3[nH]6)C=C5)C=C4)cc1)[C@@H](C(F)(F)F)O2
REMARK SMILES IDX 16 1 15 2 14 3 12 4 13 5 11 6 1 7 2 8 3 9 8 10 4 11 6 12
REMARK SMILES IDX 9 13 5 14 91 15 7 16 10 17 86 18 87 19 88 20 89 21 90 22
REMARK SMILES IDX 17 23 18 24 19 25 20 26 21 27 85 28 22 29 84 30 23 31 24 32
REMARK SMILES IDX 25 33 78 34 26 35 83 36 77 37 79 38 27 39 82 40 76 41 75 42
REMARK SMILES IDX 28 44 62 45 41 46 61 47 42 48 45 49 60 50 80 51 43 52 44 53
REMARK SMILES IDX 59 55 81 56 46 57 29 58 30 59 39 60 31 61 32 62 38 63 40 64
REMARK SMILES IDX 33 65 34 66 35 67 36 68 37 69 63 70 64 71 73 72 65 73 66 74
REMARK SMILES IDX 72 75 74 76 67 77 68 78 69 79 70 80 71 81 47 82 48 83 57 84
REMARK SMILES IDX 49 85 50 86 56 87 58 88 51 89 52 90 53 91 54 92 55 93
REMARK H PARENT 79 43 45 54
REMARK Flexibility Score: inf
ROOT
ATOM      1  C   UNL A   1      33.825  33.361  27.949  1.00  0.00     0.275 C 
ENDROOT
BRANCH   1   2
ATOM      2  C   UNL A   1      33.849  34.271  29.176  1.00  0.00     0.275 C 
BRANCH   2   3
ATOM      3  O   UNL A   1      34.659  33.712  30.234  1.00  0.00    -0.459 OA
BRANCH   3   4
ATOM      4  C   UNL A   1      34.668  34.412  31.392  1.00  0.00     0.338 C 
ATOM      5  O   UNL A   1      33.696  34.877  31.968  1.00  0.00    -0.246 OA
BRANCH   4   6
ATOM      6  C   UNL A   1      36.045  34.564  31.900  1.00  0.00     0.087 C 
ATOM      7  C   UNL A   1      42.422  34.451  33.134  1.00  0.00     0.046 C 
ATOM      8  C   UNL A   1      41.043  34.505  32.534  1.00  0.00    -0.028 A 
ATOM      9  C   UNL A   1      39.932  34.590  33.383  1.00  0.00     0.052 A 
ATOM     10  C   UNL A   1      40.839  34.472  31.141  1.00  0.00     0.047 A 
ATOM     11  C   UNL A   1      38.638  34.621  32.869  1.00  0.00     0.128 A 
ATOM     12  C   UNL A   1      39.536  34.506  30.598  1.00  0.00    -0.021 A 
ATOM     13  Cl  UNL A   1      42.233  34.384  30.106  1.00  0.00    -0.084 Cl
ATOM     14  C   UNL A   1      38.428  34.573  31.486  1.00  0.00     0.022 A 
ATOM     15  O   UNL A   1      37.640  34.714  33.800  1.00  0.00    -0.475 OA
ATOM     16  C   UNL A   1      39.310  34.484  29.104  1.00  0.00     0.047 C 
ATOM     17  C   UNL A   1      37.047  34.573  31.014  1.00  0.00     0.027 C 
ATOM     18  C   UNL A   1      36.261  34.553  33.381  1.00  0.00     0.316 C 
BRANCH  18  19
ATOM     19  C   UNL A   1      35.688  33.277  34.021  1.00  0.00     0.430 C 
ATOM     20  F   UNL A   1      34.403  33.457  34.414  1.00  0.00    -0.167 F 
ATOM     21  F   UNL A   1      35.676  32.242  33.145  1.00  0.00    -0.167 F 
ATOM     22  F   UNL A   1      36.392  32.883  35.104  1.00  0.00    -0.167 F 
ENDBRANCH  18  19
ENDBRANCH   4   6
ENDBRANCH   3   4
ENDBRANCH   2   3
ENDBRANCH   1   2
BRANCH   1  23
ATOM     23  O   UNL A   1      33.708  31.984  28.351  1.00  0.00    -0.458 OA
BRANCH  23  24
ATOM     24  C   UNL A   1      34.173  31.085  27.453  1.00  0.00     0.338 C 
ATOM     25  O   UNL A   1      33.610  30.689  26.448  1.00  0.00    -0.246 OA
BRANCH  24  26
ATOM     26  C   UNL A   1      35.546  30.680  27.795  1.00  0.00     0.060 A 
ATOM     27  C   UNL A   1      35.795  29.342  28.064  1.00  0.00     0.016 A 
ATOM     28  C   UNL A   1      36.517  31.637  28.078  1.00  0.00     0.016 A 
ATOM     29  C   UNL A   1      36.928  28.983  28.789  1.00  0.00     0.010 A 
ATOM     30  C   UNL A   1      37.725  31.244  28.673  1.00  0.00     0.010 A 
ATOM     31  C   UNL A   1      37.919  29.921  29.111  1.00  0.00    -0.014 A 
BRANCH  31  32
ATOM     32  C   UNL A   1      39.099  29.538  29.955  1.00  0.00     0.031 A 
ATOM     33  C   UNL A   1      40.167  28.614  29.404  1.00  0.00     0.074 A 
ATOM     34  C   UNL A   1      39.263  30.039  31.200  1.00  0.00     0.049 A 
ATOM     35  N   UNL A   1      41.115  27.970  30.038  1.00  0.00    -0.248 NA
ATOM     36  C   UNL A   1      40.157  28.369  27.951  1.00  0.00     0.031 C 
ATOM     37  C   UNL A   1      38.378  31.001  31.860  1.00  0.00     0.029 A 
ATOM     38  N   UNL A   1      40.249  29.818  32.136  1.00  0.00    -0.354 N 
ATOM     39  C   UNL A   1      41.760  27.190  29.081  1.00  0.00     0.074 A 
ATOM     40  C   UNL A   1      41.096  27.440  27.821  1.00  0.00     0.031 C 
ATOM     41  C   UNL A   1      38.894  31.343  33.047  1.00  0.00     0.029 A 
ATOM     42  C   UNL A   1      40.064  30.515  33.308  1.00  0.00     0.049 A 
ATOM     43  H   UNL A   1      41.014  29.219  31.981  1.00  0.00     0.167 HD
ATOM     44  C   UNL A   1      42.808  26.345  29.240  1.00  0.00     0.037 A 
ATOM     45  C   UNL A   1      40.703  30.453  34.493  1.00  0.00     0.037 A 
ATOM     46  C   UNL A   1      43.518  26.164  30.482  1.00  0.00     0.049 A 
ATOM     47  C   UNL A   1      41.818  29.464  34.668  1.00  0.00     0.074 A 
ATOM     48  C   UNL A   1      44.594  25.332  30.746  1.00  0.00     0.029 A 
ATOM     49  N   UNL A   1      43.246  26.846  31.660  1.00  0.00    -0.354 N 
ATOM     50  N   UNL A   1      42.339  28.645  33.787  1.00  0.00    -0.248 NA
ATOM     51  C   UNL A   1      42.410  29.363  36.010  1.00  0.00     0.031 C 
ATOM     52  C   UNL A   1      44.942  25.477  32.093  1.00  0.00     0.029 A 
ATOM     53  C   UNL A   1      44.120  26.439  32.656  1.00  0.00     0.049 A 
ATOM     54  H   UNL A   1      42.536  27.518  31.772  1.00  0.00     0.167 HD
ATOM     55  C   UNL A   1      43.323  27.935  34.464  1.00  0.00     0.074 A 
ATOM     56  C   UNL A   1      43.344  28.440  35.822  1.00  0.00     0.031 C 
ATOM     57  C   UNL A   1      44.130  26.947  34.005  1.00  0.00     0.037 A 
BRANCH  44  58
ATOM     58  C   UNL A   1      43.245  25.515  28.059  1.00  0.00     0.058 A 
ATOM     59  C   UNL A   1      44.167  25.984  27.111  1.00  0.00     0.135 A 
ATOM     60  C   UNL A   1      42.785  24.193  27.921  1.00  0.00     0.135 A 
ATOM     61  F   UNL A   1      44.629  27.242  27.181  1.00  0.00    -0.206 F 
ATOM     62  C   UNL A   1      44.607  25.178  26.062  1.00  0.00     0.059 A 
ATOM     63  C   UNL A   1      43.232  23.361  26.899  1.00  0.00     0.059 A 
ATOM     64  F   UNL A   1      41.902  23.690  28.798  1.00  0.00    -0.206 F 
ATOM     65  C   UNL A   1      44.138  23.866  25.968  1.00  0.00     0.060 A 
BRANCH  65  66
ATOM     66  S   UNL A   1      44.738  22.829  24.617  1.00  0.00     0.124 S 
ATOM     67  O   UNL A   1      43.508  22.579  23.871  1.00  0.00    -0.237 OA
ATOM     68  O   UNL A   1      45.708  23.701  23.964  1.00  0.00    -0.237 OA
ATOM     69  O   UNL A   1      45.301  21.668  25.299  1.00  0.00    -0.744 OA
ENDBRANCH  65  66
ENDBRANCH  44  58
BRANCH  45  70
ATOM     70  C   UNL A   1      40.248  31.306  35.627  1.00  0.00     0.058 A 
ATOM     71  C   UNL A   1      39.012  31.084  36.250  1.00  0.00     0.135 A 
ATOM     72  C   UNL A   1      41.054  32.342  36.130  1.00  0.00     0.135 A 
ATOM     73  F   UNL A   1      38.195  30.121  35.795  1.00  0.00    -0.206 F 
ATOM     74  C   UNL A   1      38.593  31.851  37.333  1.00  0.00     0.059 A 
ATOM     75  C   UNL A   1      40.675  33.098  37.234  1.00  0.00     0.059 A 
ATOM     76  F   UNL A   1      42.250  32.595  35.574  1.00  0.00    -0.206 F 
ATOM     77  C   UNL A   1      39.438  32.849  37.825  1.00  0.00     0.060 A 
BRANCH  77  78
ATOM     78  S   UNL A   1      38.916  33.790  39.274  1.00  0.00     0.124 S 
ATOM     79  O   UNL A   1      38.892  35.150  38.749  1.00  0.00    -0.237 OA
ATOM     80  O   UNL A   1      37.616  33.197  39.571  1.00  0.00    -0.237 OA
ATOM     81  O   UNL A   1      39.962  33.510  40.253  1.00  0.00    -0.744 OA
ENDBRANCH  77  78
ENDBRANCH  45  70
BRANCH  57  82
ATOM     82  C   UNL A   1      45.120  26.360  34.972  1.00  0.00     0.058 A 
ATOM     83  C   UNL A   1      44.813  25.224  35.738  1.00  0.00     0.135 A 
ATOM     84  C   UNL A   1      46.401  26.917  35.108  1.00  0.00     0.135 A 
ATOM     85  F   UNL A   1      43.599  24.658  35.652  1.00  0.00    -0.206 F 
ATOM     86  C   UNL A   1      45.734  24.679  36.627  1.00  0.00     0.059 A 
ATOM     87  C   UNL A   1      47.348  26.370  35.968  1.00  0.00     0.059 A 
ATOM     88  F   UNL A   1      46.749  27.997  34.391  1.00  0.00    -0.206 F 
ATOM     89  C   UNL A   1      47.000  25.257  36.733  1.00  0.00     0.060 A 
BRANCH  89  90
ATOM     90  S   UNL A   1      48.187  24.525  37.878  1.00  0.00     0.124 S 
ATOM     91  O   UNL A   1      48.185  23.129  37.452  1.00  0.00    -0.237 OA
ATOM     92  O   UNL A   1      49.405  25.275  37.585  1.00  0.00    -0.237 OA
ATOM     93  O   UNL A   1      47.599  24.782  39.190  1.00  0.00    -0.744 OA
ENDBRANCH  89  90
ENDBRANCH  57  82
ENDBRANCH  31  32
ENDBRANCH  24  26
ENDBRANCH  23  24
ENDBRANCH   1  23
TORSDOF 15
ENDMDL
