MODEL 1
REMARK VINA RESULT:     -11.3      0.000      0.000
REMARK SMILES Cc1ccc(Oc2ccc(NC(=O)CCCC(=O)OCCOC(=O)c3ccc(-c4c5nc(c(-c6c(F)cc(S(=O)(=O)[O-])cc6F)c6ccc([nH]6)c(-c6c(F)cc(S(=O)(=O)[O-])cc6F)c6nc(c(-c7c(F)cc(S(=O)(=O)[O-])cc7F)c7ccc4[nH]7)C=C6)C=C5)cc3)cc2)cc1C
REMARK SMILES IDX 19 1 17 2 18 3 16 4 15 5 14 6 12 7 11 8 13 10 10 11 7 12
REMARK SMILES IDX 8 13 92 14 9 15 91 16 6 17 5 18 1 19 2 20 3 21 94 22 4 23
REMARK SMILES IDX 93 24 95 25 20 26 21 27 22 28 23 29 24 30 25 31 26 32 90 33
REMARK SMILES IDX 27 34 89 35 28 36 29 37 30 38 83 39 31 40 88 41 82 42 84 43
REMARK SMILES IDX 32 44 87 45 81 46 80 47 33 49 67 50 46 51 66 52 47 53 50 54
REMARK SMILES IDX 65 55 85 56 48 57 49 58 64 60 86 61 51 62 34 63 35 64 44 65
REMARK SMILES IDX 36 66 37 67 43 68 45 69 38 70 39 71 40 72 41 73 42 74 68 75
REMARK SMILES IDX 69 76 78 77 70 78 71 79 77 80 79 81 72 82 73 83 74 84 75 85
REMARK SMILES IDX 76 86 52 87 53 88 62 89 54 90 55 91 61 92 63 93 56 94 57 95
REMARK SMILES IDX 58 96 59 97 60 98
REMARK H PARENT 11 9 84 48 50 59
REMARK Flexibility Score: inf
ROOT
ATOM      1  O   UNL A   1      32.192  27.384  26.352  1.00  0.00    -0.462 OA
ENDROOT
BRANCH   1   2
ATOM      2  C   UNL A   1      32.348  26.034  26.352  1.00  0.00     0.305 C 
ATOM      3  O   UNL A   1      31.443  25.239  26.573  1.00  0.00    -0.252 OA
BRANCH   2   4
ATOM      4  C   UNL A   1      33.751  25.577  26.016  1.00  0.00     0.123 C 
BRANCH   4   5
ATOM      5  C   UNL A   1      33.946  24.094  25.731  1.00  0.00     0.022 C 
BRANCH   5   6
ATOM      6  C   UNL A   1      33.309  23.572  24.440  1.00  0.00     0.101 C 
BRANCH   6   7
ATOM      7  C   UNL A   1      34.001  24.060  23.183  1.00  0.00     0.224 C 
ATOM      8  N   UNL A   1      33.656  25.211  22.541  1.00  0.00    -0.326 N 
ATOM      9  H   UNL A   1      34.290  25.467  21.832  1.00  0.00     0.169 HD
ATOM     10  O   UNL A   1      34.992  23.452  22.763  1.00  0.00    -0.275 OA
BRANCH   8  11
ATOM     11  C   UNL A   1      32.587  26.108  22.679  1.00  0.00     0.041 A 
ATOM     12  C   UNL A   1      30.656  28.062  23.247  1.00  0.00     0.127 A 
ATOM     13  C   UNL A   1      30.296  26.717  23.191  1.00  0.00     0.049 A 
ATOM     14  C   UNL A   1      31.955  28.439  22.923  1.00  0.00     0.049 A 
ATOM     15  C   UNL A   1      31.260  25.740  22.898  1.00  0.00     0.030 A 
ATOM     16  C   UNL A   1      32.909  27.469  22.608  1.00  0.00     0.030 A 
BRANCH  12  17
ATOM     17  O   UNL A   1      29.866  29.040  23.796  1.00  0.00    -0.457 OA
BRANCH  17  18
ATOM     18  C   UNL A   1      29.197  29.952  23.019  1.00  0.00     0.127 A 
ATOM     19  C   UNL A   1      27.618  33.139  20.573  1.00  0.00     0.044 C 
ATOM     20  C   UNL A   1      28.134  32.053  21.475  1.00  0.00    -0.048 A 
ATOM     21  C   UNL A   1      28.003  30.712  21.069  1.00  0.00     0.007 A 
ATOM     22  C   UNL A   1      28.794  32.342  22.684  1.00  0.00    -0.045 A 
ATOM     23  C   UNL A   1      28.542  29.670  21.826  1.00  0.00     0.047 A 
ATOM     24  C   UNL A   1      29.306  31.280  23.448  1.00  0.00     0.050 A 
ATOM     25  C   UNL A   1      28.983  33.741  23.208  1.00  0.00     0.045 C 
ENDBRANCH  17  18
ENDBRANCH  12  17
ENDBRANCH   8  11
ENDBRANCH   6   7
ENDBRANCH   5   6
ENDBRANCH   4   5
ENDBRANCH   2   4
ENDBRANCH   1   2
BRANCH   1  26
ATOM     26  C   UNL A   1      33.410  28.154  26.373  1.00  0.00     0.274 C 
BRANCH  26  27
ATOM     27  C   UNL A   1      33.586  29.005  27.634  1.00  0.00     0.275 C 
BRANCH  27  28
ATOM     28  O   UNL A   1      34.100  30.314  27.347  1.00  0.00    -0.458 OA
BRANCH  28  29
ATOM     29  C   UNL A   1      34.791  30.883  28.363  1.00  0.00     0.338 C 
ATOM     30  O   UNL A   1      34.365  31.668  29.194  1.00  0.00    -0.246 OA
BRANCH  29  31
ATOM     31  C   UNL A   1      36.128  30.279  28.442  1.00  0.00     0.060 A 
ATOM     32  C   UNL A   1      36.609  29.931  29.709  1.00  0.00     0.016 A 
ATOM     33  C   UNL A   1      36.921  30.112  27.308  1.00  0.00     0.016 A 
ATOM     34  C   UNL A   1      37.879  29.406  29.862  1.00  0.00     0.010 A 
ATOM     35  C   UNL A   1      38.216  29.615  27.463  1.00  0.00     0.010 A 
ATOM     36  C   UNL A   1      38.695  29.276  28.741  1.00  0.00    -0.014 A 
BRANCH  36  37
ATOM     37  C   UNL A   1      40.111  28.921  28.932  1.00  0.00     0.031 A 
ATOM     38  C   UNL A   1      41.056  29.997  29.364  1.00  0.00     0.074 A 
ATOM     39  C   UNL A   1      40.516  27.656  28.739  1.00  0.00     0.049 A 
ATOM     40  N   UNL A   1      42.357  29.980  29.420  1.00  0.00    -0.248 NA
ATOM     41  C   UNL A   1      40.445  31.268  29.792  1.00  0.00     0.031 C 
ATOM     42  C   UNL A   1      39.637  26.529  28.422  1.00  0.00     0.029 A 
ATOM     43  N   UNL A   1      41.772  27.113  28.760  1.00  0.00    -0.354 N 
ATOM     44  C   UNL A   1      42.728  31.249  29.847  1.00  0.00     0.074 A 
ATOM     45  C   UNL A   1      41.515  32.007  30.048  1.00  0.00     0.031 C 
ATOM     46  C   UNL A   1      40.389  25.432  28.236  1.00  0.00     0.029 A 
ATOM     47  C   UNL A   1      41.797  25.799  28.361  1.00  0.00     0.049 A 
ATOM     48  H   UNL A   1      42.574  27.612  29.033  1.00  0.00     0.167 HD
ATOM     49  C   UNL A   1      43.979  31.729  30.031  1.00  0.00     0.037 A 
ATOM     50  C   UNL A   1      42.848  25.010  28.066  1.00  0.00     0.037 A 
ATOM     51  C   UNL A   1      45.162  30.939  29.819  1.00  0.00     0.049 A 
ATOM     52  C   UNL A   1      44.230  25.588  28.191  1.00  0.00     0.074 A 
ATOM     53  C   UNL A   1      46.485  31.302  29.981  1.00  0.00     0.029 A 
ATOM     54  N   UNL A   1      45.155  29.620  29.381  1.00  0.00    -0.354 N 
ATOM     55  N   UNL A   1      44.586  26.793  28.577  1.00  0.00    -0.248 NA
ATOM     56  C   UNL A   1      45.352  24.715  27.827  1.00  0.00     0.031 C 
ATOM     57  C   UNL A   1      47.280  30.218  29.589  1.00  0.00     0.029 A 
ATOM     58  C   UNL A   1      46.453  29.163  29.230  1.00  0.00     0.049 A 
ATOM     59  H   UNL A   1      44.347  29.088  29.205  1.00  0.00     0.167 HD
ATOM     60  C   UNL A   1      45.973  26.825  28.500  1.00  0.00     0.074 A 
ATOM     61  C   UNL A   1      46.392  25.510  28.055  1.00  0.00     0.031 C 
ATOM     62  C   UNL A   1      46.826  27.847  28.767  1.00  0.00     0.037 A 
BRANCH  49  63
ATOM     63  C   UNL A   1      44.114  33.178  30.404  1.00  0.00     0.058 A 
ATOM     64  C   UNL A   1      44.239  33.602  31.737  1.00  0.00     0.135 A 
ATOM     65  C   UNL A   1      44.091  34.165  29.405  1.00  0.00     0.135 A 
ATOM     66  F   UNL A   1      44.240  32.704  32.735  1.00  0.00    -0.206 F 
ATOM     67  C   UNL A   1      44.301  34.953  32.068  1.00  0.00     0.059 A 
ATOM     68  C   UNL A   1      44.178  35.520  29.710  1.00  0.00     0.059 A 
ATOM     69  F   UNL A   1      43.962  33.816  28.115  1.00  0.00    -0.206 F 
ATOM     70  C   UNL A   1      44.264  35.905  31.047  1.00  0.00     0.060 A 
BRANCH  70  71
ATOM     71  S   UNL A   1      44.322  37.654  31.490  1.00  0.00     0.124 S 
ATOM     72  O   UNL A   1      45.759  37.874  31.627  1.00  0.00    -0.237 OA
ATOM     73  O   UNL A   1      43.691  38.290  30.337  1.00  0.00    -0.237 OA
ATOM     74  O   UNL A   1      43.557  37.716  32.732  1.00  0.00    -0.744 OA
ENDBRANCH  70  71
ENDBRANCH  49  63
BRANCH  50  75
ATOM     75  C   UNL A   1      42.611  23.633  27.559  1.00  0.00     0.058 A 
ATOM     76  C   UNL A   1      42.490  23.374  26.188  1.00  0.00     0.135 A 
ATOM     77  C   UNL A   1      42.559  22.538  28.437  1.00  0.00     0.135 A 
ATOM     78  F   UNL A   1      42.522  24.387  25.308  1.00  0.00    -0.206 F 
ATOM     79  C   UNL A   1      42.334  22.078  25.702  1.00  0.00     0.059 A 
ATOM     80  C   UNL A   1      42.428  21.231  27.976  1.00  0.00     0.059 A 
ATOM     81  F   UNL A   1      42.678  22.730  29.761  1.00  0.00    -0.206 F 
ATOM     82  C   UNL A   1      42.314  21.012  26.604  1.00  0.00     0.060 A 
BRANCH  82  83
ATOM     83  S   UNL A   1      42.195  19.329  25.958  1.00  0.00     0.124 S 
ATOM     84  O   UNL A   1      42.668  18.544  27.091  1.00  0.00    -0.237 OA
ATOM     85  O   UNL A   1      40.770  19.219  25.654  1.00  0.00    -0.237 OA
ATOM     86  O   UNL A   1      43.076  19.352  24.793  1.00  0.00    -0.744 OA
ENDBRANCH  82  83
ENDBRANCH  50  75
BRANCH  62  87
ATOM     87  C   UNL A   1      48.291  27.580  28.576  1.00  0.00     0.058 A 
ATOM     88  C   UNL A   1      49.028  26.857  29.524  1.00  0.00     0.135 A 
ATOM     89  C   UNL A   1      48.941  27.983  27.399  1.00  0.00     0.135 A 
ATOM     90  F   UNL A   1      48.452  26.457  30.669  1.00  0.00    -0.206 F 
ATOM     91  C   UNL A   1      50.369  26.552  29.317  1.00  0.00     0.059 A 
ATOM     92  C   UNL A   1      50.274  27.668  27.161  1.00  0.00     0.059 A 
ATOM     93  F   UNL A   1      48.274  28.670  26.458  1.00  0.00    -0.206 F 
ATOM     94  C   UNL A   1      50.980  26.956  28.130  1.00  0.00     0.060 A 
BRANCH  94  95
ATOM     95  S   UNL A   1      52.706  26.507  27.851  1.00  0.00     0.124 S 
ATOM     96  O   UNL A   1      52.569  25.261  27.105  1.00  0.00    -0.237 OA
ATOM     97  O   UNL A   1      53.207  27.649  27.092  1.00  0.00    -0.237 OA
ATOM     98  O   UNL A   1      53.245  26.375  29.201  1.00  0.00    -0.744 OA
ENDBRANCH  94  95
ENDBRANCH  62  87
ENDBRANCH  36  37
ENDBRANCH  29  31
ENDBRANCH  28  29
ENDBRANCH  27  28
ENDBRANCH  26  27
ENDBRANCH   1  26
TORSDOF 20
ENDMDL
MODEL 2
REMARK VINA RESULT:     -11.2      1.772      3.211
REMARK SMILES Cc1ccc(Oc2ccc(NC(=O)CCCC(=O)OCCOC(=O)c3ccc(-c4c5nc(c(-c6c(F)cc(S(=O)(=O)[O-])cc6F)c6ccc([nH]6)c(-c6c(F)cc(S(=O)(=O)[O-])cc6F)c6nc(c(-c7c(F)cc(S(=O)(=O)[O-])cc7F)c7ccc4[nH]7)C=C6)C=C5)cc3)cc2)cc1C
REMARK SMILES IDX 19 1 17 2 18 3 16 4 15 5 14 6 12 7 11 8 13 10 10 11 7 12
REMARK SMILES IDX 8 13 92 14 9 15 91 16 6 17 5 18 1 19 2 20 3 21 94 22 4 23
REMARK SMILES IDX 93 24 95 25 20 26 21 27 22 28 23 29 24 30 25 31 26 32 90 33
REMARK SMILES IDX 27 34 89 35 28 36 29 37 30 38 83 39 31 40 88 41 82 42 84 43
REMARK SMILES IDX 32 44 87 45 81 46 80 47 33 49 67 50 46 51 66 52 47 53 50 54
REMARK SMILES IDX 65 55 85 56 48 57 49 58 64 60 86 61 51 62 34 63 35 64 44 65
REMARK SMILES IDX 36 66 37 67 43 68 45 69 38 70 39 71 40 72 41 73 42 74 68 75
REMARK SMILES IDX 69 76 78 77 70 78 71 79 77 80 79 81 72 82 73 83 74 84 75 85
REMARK SMILES IDX 76 86 52 87 53 88 62 89 54 90 55 91 61 92 63 93 56 94 57 95
REMARK SMILES IDX 58 96 59 97 60 98
REMARK H PARENT 11 9 84 48 50 59
REMARK Flexibility Score: inf
ROOT
ATOM      1  O   UNL A   1      34.286  26.159  25.774  1.00  0.00    -0.462 OA
ENDROOT
BRANCH   1   2
ATOM      2  C   UNL A   1      34.704  25.102  25.031  1.00  0.00     0.305 C 
ATOM      3  O   UNL A   1      34.357  24.896  23.875  1.00  0.00    -0.252 OA
BRANCH   2   4
ATOM      4  C   UNL A   1      35.681  24.195  25.748  1.00  0.00     0.123 C 
BRANCH   4   5
ATOM      5  C   UNL A   1      36.933  23.785  24.984  1.00  0.00     0.022 C 
BRANCH   5   6
ATOM      6  C   UNL A   1      36.821  22.502  24.156  1.00  0.00     0.101 C 
BRANCH   6   7
ATOM      7  C   UNL A   1      36.870  21.237  24.988  1.00  0.00     0.224 C 
ATOM      8  N   UNL A   1      35.759  20.645  25.511  1.00  0.00    -0.326 N 
ATOM      9  H   UNL A   1      35.936  19.757  25.897  1.00  0.00     0.169 HD
ATOM     10  O   UNL A   1      37.946  20.643  25.125  1.00  0.00    -0.275 OA
BRANCH   8  11
ATOM     11  C   UNL A   1      34.417  21.037  25.614  1.00  0.00     0.041 A 
ATOM     12  C   UNL A   1      31.801  22.046  25.507  1.00  0.00     0.127 A 
ATOM     13  C   UNL A   1      32.529  22.111  26.693  1.00  0.00     0.049 A 
ATOM     14  C   UNL A   1      32.342  21.390  24.405  1.00  0.00     0.049 A 
ATOM     15  C   UNL A   1      33.834  21.598  26.749  1.00  0.00     0.030 A 
ATOM     16  C   UNL A   1      33.631  20.858  24.469  1.00  0.00     0.030 A 
BRANCH  12  17
ATOM     17  O   UNL A   1      30.654  22.761  25.276  1.00  0.00    -0.457 OA
BRANCH  17  18
ATOM     18  C   UNL A   1      30.679  24.111  25.028  1.00  0.00     0.127 A 
ATOM     19  C   UNL A   1      30.418  28.227  23.751  1.00  0.00     0.044 C 
ATOM     20  C   UNL A   1      30.570  26.792  24.175  1.00  0.00    -0.048 A 
ATOM     21  C   UNL A   1      30.241  26.434  25.495  1.00  0.00     0.007 A 
ATOM     22  C   UNL A   1      30.978  25.791  23.274  1.00  0.00    -0.045 A 
ATOM     23  C   UNL A   1      30.280  25.103  25.915  1.00  0.00     0.047 A 
ATOM     24  C   UNL A   1      31.040  24.460  23.722  1.00  0.00     0.050 A 
ATOM     25  C   UNL A   1      31.356  26.070  21.844  1.00  0.00     0.045 C 
ENDBRANCH  17  18
ENDBRANCH  12  17
ENDBRANCH   8  11
ENDBRANCH   6   7
ENDBRANCH   5   6
ENDBRANCH   4   5
ENDBRANCH   2   4
ENDBRANCH   1   2
BRANCH   1  26
ATOM     26  C   UNL A   1      33.889  27.328  25.030  1.00  0.00     0.274 C 
BRANCH  26  27
ATOM     27  C   UNL A   1      33.429  28.497  25.908  1.00  0.00     0.275 C 
BRANCH  27  28
ATOM     28  O   UNL A   1      34.026  28.473  27.212  1.00  0.00    -0.458 OA
BRANCH  28  29
ATOM     29  C   UNL A   1      34.442  29.680  27.663  1.00  0.00     0.338 C 
ATOM     30  O   UNL A   1      33.756  30.671  27.853  1.00  0.00    -0.246 OA
BRANCH  29  31
ATOM     31  C   UNL A   1      35.851  29.590  28.071  1.00  0.00     0.060 A 
ATOM     32  C   UNL A   1      36.825  29.768  27.083  1.00  0.00     0.016 A 
ATOM     33  C   UNL A   1      36.212  29.278  29.381  1.00  0.00     0.016 A 
ATOM     34  C   UNL A   1      38.169  29.646  27.387  1.00  0.00     0.010 A 
ATOM     35  C   UNL A   1      37.565  29.120  29.683  1.00  0.00     0.010 A 
ATOM     36  C   UNL A   1      38.538  29.291  28.682  1.00  0.00    -0.014 A 
BRANCH  36  37
ATOM     37  C   UNL A   1      39.946  28.954  28.950  1.00  0.00     0.031 A 
ATOM     38  C   UNL A   1      40.845  30.035  29.458  1.00  0.00     0.074 A 
ATOM     39  C   UNL A   1      40.382  27.699  28.757  1.00  0.00     0.049 A 
ATOM     40  N   UNL A   1      42.142  30.038  29.589  1.00  0.00    -0.248 NA
ATOM     41  C   UNL A   1      40.189  31.288  29.874  1.00  0.00     0.031 C 
ATOM     42  C   UNL A   1      39.543  26.565  28.366  1.00  0.00     0.029 A 
ATOM     43  N   UNL A   1      41.644  27.176  28.841  1.00  0.00    -0.354 N 
ATOM     44  C   UNL A   1      42.465  31.303  30.062  1.00  0.00     0.074 A 
ATOM     45  C   UNL A   1      41.229  32.038  30.206  1.00  0.00     0.031 C 
ATOM     46  C   UNL A   1      40.323  25.485  28.204  1.00  0.00     0.029 A 
ATOM     47  C   UNL A   1      41.715  25.871  28.419  1.00  0.00     0.049 A 
ATOM     48  H   UNL A   1      42.420  27.682  29.171  1.00  0.00     0.167 HD
ATOM     49  C   UNL A   1      43.695  31.799  30.329  1.00  0.00     0.037 A 
ATOM     50  C   UNL A   1      42.794  25.104  28.171  1.00  0.00     0.037 A 
ATOM     51  C   UNL A   1      44.902  31.033  30.171  1.00  0.00     0.049 A 
ATOM     52  C   UNL A   1      44.157  25.702  28.388  1.00  0.00     0.074 A 
ATOM     53  C   UNL A   1      46.206  31.412  30.418  1.00  0.00     0.029 A 
ATOM     54  N   UNL A   1      44.943  29.723  29.708  1.00  0.00    -0.354 N 
ATOM     55  N   UNL A   1      44.469  26.905  28.817  1.00  0.00    -0.248 NA
ATOM     56  C   UNL A   1      45.313  24.854  28.074  1.00  0.00     0.031 C 
ATOM     57  C   UNL A   1      47.041  30.350  30.052  1.00  0.00     0.029 A 
ATOM     58  C   UNL A   1      46.254  29.290  29.625  1.00  0.00     0.049 A 
ATOM     59  H   UNL A   1      44.155  29.182  29.474  1.00  0.00     0.167 HD
ATOM     60  C   UNL A   1      45.858  26.960  28.823  1.00  0.00     0.074 A 
ATOM     61  C   UNL A   1      46.324  25.661  28.377  1.00  0.00     0.031 C 
ATOM     62  C   UNL A   1      46.676  27.989  29.159  1.00  0.00     0.037 A 
BRANCH  49  63
ATOM     63  C   UNL A   1      43.783  33.242  30.737  1.00  0.00     0.058 A 
ATOM     64  C   UNL A   1      43.957  34.277  29.805  1.00  0.00     0.135 A 
ATOM     65  C   UNL A   1      43.717  33.593  32.096  1.00  0.00     0.135 A 
ATOM     66  F   UNL A   1      44.054  33.998  28.495  1.00  0.00    -0.206 F 
ATOM     67  C   UNL A   1      44.098  35.603  30.206  1.00  0.00     0.059 A 
ATOM     68  C   UNL A   1      43.829  34.914  32.519  1.00  0.00     0.059 A 
ATOM     69  F   UNL A   1      43.562  32.642  33.032  1.00  0.00    -0.206 F 
ATOM     70  C   UNL A   1      44.038  35.910  31.567  1.00  0.00     0.060 A 
BRANCH  70  71
ATOM     71  S   UNL A   1      44.245  37.630  32.077  1.00  0.00     0.124 S 
ATOM     72  O   UNL A   1      43.792  38.344  30.887  1.00  0.00    -0.237 OA
ATOM     73  O   UNL A   1      43.369  37.719  33.241  1.00  0.00    -0.237 OA
ATOM     74  O   UNL A   1      45.673  37.730  32.363  1.00  0.00    -0.744 OA
ENDBRANCH  70  71
ENDBRANCH  49  63
BRANCH  50  75
ATOM     75  C   UNL A   1      42.611  23.735  27.624  1.00  0.00     0.058 A 
ATOM     76  C   UNL A   1      42.604  23.498  26.243  1.00  0.00     0.135 A 
ATOM     77  C   UNL A   1      42.496  22.625  28.477  1.00  0.00     0.135 A 
ATOM     78  F   UNL A   1      42.700  24.526  25.386  1.00  0.00    -0.206 F 
ATOM     79  C   UNL A   1      42.499  22.209  25.726  1.00  0.00     0.059 A 
ATOM     80  C   UNL A   1      42.414  21.325  27.986  1.00  0.00     0.059 A 
ATOM     81  F   UNL A   1      42.505  22.796  29.809  1.00  0.00    -0.206 F 
ATOM     82  C   UNL A   1      42.414  21.128  26.606  1.00  0.00     0.060 A 
BRANCH  82  83
ATOM     83  S   UNL A   1      42.361  19.455  25.925  1.00  0.00     0.124 S 
ATOM     84  O   UNL A   1      40.931  19.268  25.716  1.00  0.00    -0.237 OA
ATOM     85  O   UNL A   1      43.172  19.591  24.718  1.00  0.00    -0.237 OA
ATOM     86  O   UNL A   1      42.957  18.643  26.983  1.00  0.00    -0.744 OA
ENDBRANCH  82  83
ENDBRANCH  50  75
BRANCH  62  87
ATOM     87  C   UNL A   1      48.154  27.749  29.050  1.00  0.00     0.058 A 
ATOM     88  C   UNL A   1      48.855  27.061  30.050  1.00  0.00     0.135 A 
ATOM     89  C   UNL A   1      48.856  28.142  27.900  1.00  0.00     0.135 A 
ATOM     90  F   UNL A   1      48.228  26.672  31.172  1.00  0.00    -0.206 F 
ATOM     91  C   UNL A   1      50.211  26.780  29.919  1.00  0.00     0.059 A 
ATOM     92  C   UNL A   1      50.205  27.850  27.737  1.00  0.00     0.059 A 
ATOM     93  F   UNL A   1      48.225  28.795  26.911  1.00  0.00    -0.206 F 
ATOM     94  C   UNL A   1      50.875  27.173  28.756  1.00  0.00     0.060 A 
BRANCH  94  95
ATOM     95  S   UNL A   1      52.621  26.755  28.576  1.00  0.00     0.124 S 
ATOM     96  O   UNL A   1      53.186  28.029  28.145  1.00  0.00    -0.237 OA
ATOM     97  O   UNL A   1      52.980  26.325  29.924  1.00  0.00    -0.237 OA
ATOM     98  O   UNL A   1      52.615  25.698  27.569  1.00  0.00    -0.744 OA
ENDBRANCH  94  95
ENDBRANCH  62  87
ENDBRANCH  36  37
ENDBRANCH  29  31
ENDBRANCH  28  29
ENDBRANCH  27  28
ENDBRANCH  26  27
ENDBRANCH   1  26
TORSDOF 20
ENDMDL
MODEL 3
REMARK VINA RESULT:     -10.8      2.121      4.712
REMARK SMILES Cc1ccc(Oc2ccc(NC(=O)CCCC(=O)OCCOC(=O)c3ccc(-c4c5nc(c(-c6c(F)cc(S(=O)(=O)[O-])cc6F)c6ccc([nH]6)c(-c6c(F)cc(S(=O)(=O)[O-])cc6F)c6nc(c(-c7c(F)cc(S(=O)(=O)[O-])cc7F)c7ccc4[nH]7)C=C6)C=C5)cc3)cc2)cc1C
REMARK SMILES IDX 19 1 17 2 18 3 16 4 15 5 14 6 12 7 11 8 13 10 10 11 7 12
REMARK SMILES IDX 8 13 92 14 9 15 91 16 6 17 5 18 1 19 2 20 3 21 94 22 4 23
REMARK SMILES IDX 93 24 95 25 20 26 21 27 22 28 23 29 24 30 25 31 26 32 90 33
REMARK SMILES IDX 27 34 89 35 28 36 29 37 30 38 83 39 31 40 88 41 82 42 84 43
REMARK SMILES IDX 32 44 87 45 81 46 80 47 33 49 67 50 46 51 66 52 47 53 50 54
REMARK SMILES IDX 65 55 85 56 48 57 49 58 64 60 86 61 51 62 34 63 35 64 44 65
REMARK SMILES IDX 36 66 37 67 43 68 45 69 38 70 39 71 40 72 41 73 42 74 68 75
REMARK SMILES IDX 69 76 78 77 70 78 71 79 77 80 79 81 72 82 73 83 74 84 75 85
REMARK SMILES IDX 76 86 52 87 53 88 62 89 54 90 55 91 61 92 63 93 56 94 57 95
REMARK SMILES IDX 58 96 59 97 60 98
REMARK H PARENT 11 9 84 48 50 59
REMARK Flexibility Score: inf
ROOT
ATOM      1  O   UNL A   1      32.715  29.344  27.406  1.00  0.00    -0.462 OA
ENDROOT
BRANCH   1   2
ATOM      2  C   UNL A   1      31.761  28.458  27.021  1.00  0.00     0.305 C 
ATOM      3  O   UNL A   1      31.162  27.717  27.790  1.00  0.00    -0.252 OA
BRANCH   2   4
ATOM      4  C   UNL A   1      31.465  28.480  25.537  1.00  0.00     0.123 C 
BRANCH   4   5
ATOM      5  C   UNL A   1      30.726  27.279  24.960  1.00  0.00     0.022 C 
BRANCH   5   6
ATOM      6  C   UNL A   1      29.845  27.560  23.740  1.00  0.00     0.101 C 
BRANCH   6   7
ATOM      7  C   UNL A   1      30.622  28.027  22.526  1.00  0.00     0.224 C 
ATOM      8  N   UNL A   1      31.678  27.340  22.008  1.00  0.00    -0.326 N 
ATOM      9  H   UNL A   1      31.981  27.689  21.138  1.00  0.00     0.169 HD
ATOM     10  O   UNL A   1      30.230  29.020  21.903  1.00  0.00    -0.275 OA
BRANCH   8  11
ATOM     11  C   UNL A   1      32.425  26.241  22.454  1.00  0.00     0.041 A 
ATOM     12  C   UNL A   1      33.600  23.941  23.551  1.00  0.00     0.127 A 
ATOM     13  C   UNL A   1      34.240  25.174  23.659  1.00  0.00     0.049 A 
ATOM     14  C   UNL A   1      32.425  23.840  22.811  1.00  0.00     0.049 A 
ATOM     15  C   UNL A   1      33.656  26.323  23.103  1.00  0.00     0.030 A 
ATOM     16  C   UNL A   1      31.858  24.979  22.237  1.00  0.00     0.030 A 
BRANCH  12  17
ATOM     17  O   UNL A   1      33.938  22.838  24.293  1.00  0.00    -0.457 OA
BRANCH  17  18
ATOM     18  C   UNL A   1      35.171  22.714  24.884  1.00  0.00     0.127 A 
ATOM     19  C   UNL A   1      39.240  22.113  26.195  1.00  0.00     0.044 C 
ATOM     20  C   UNL A   1      37.806  22.269  25.772  1.00  0.00    -0.048 A 
ATOM     21  C   UNL A   1      37.164  23.502  25.985  1.00  0.00     0.007 A 
ATOM     22  C   UNL A   1      37.108  21.236  25.119  1.00  0.00    -0.045 A 
ATOM     23  C   UNL A   1      35.863  23.730  25.532  1.00  0.00     0.047 A 
ATOM     24  C   UNL A   1      35.789  21.472  24.695  1.00  0.00     0.050 A 
ATOM     25  C   UNL A   1      37.702  19.880  24.847  1.00  0.00     0.045 C 
ENDBRANCH  17  18
ENDBRANCH  12  17
ENDBRANCH   8  11
ENDBRANCH   6   7
ENDBRANCH   5   6
ENDBRANCH   4   5
ENDBRANCH   2   4
ENDBRANCH   1   2
BRANCH   1  26
ATOM     26  C   UNL A   1      33.689  29.691  26.402  1.00  0.00     0.274 C 
BRANCH  26  27
ATOM     27  C   UNL A   1      35.015  30.206  26.972  1.00  0.00     0.275 C 
BRANCH  27  28
ATOM     28  O   UNL A   1      35.536  29.355  28.004  1.00  0.00    -0.458 OA
BRANCH  28  29
ATOM     29  C   UNL A   1      36.100  30.014  29.044  1.00  0.00     0.338 C 
ATOM     30  O   UNL A   1      35.521  30.579  29.957  1.00  0.00    -0.246 OA
BRANCH  29  31
ATOM     31  C   UNL A   1      37.554  29.806  29.024  1.00  0.00     0.060 A 
ATOM     32  C   UNL A   1      38.175  29.689  27.776  1.00  0.00     0.016 A 
ATOM     33  C   UNL A   1      38.288  29.668  30.201  1.00  0.00     0.016 A 
ATOM     34  C   UNL A   1      39.534  29.442  27.684  1.00  0.00     0.010 A 
ATOM     35  C   UNL A   1      39.651  29.384  30.112  1.00  0.00     0.010 A 
ATOM     36  C   UNL A   1      40.266  29.258  28.854  1.00  0.00    -0.014 A 
BRANCH  36  37
ATOM     37  C   UNL A   1      41.657  28.786  28.751  1.00  0.00     0.031 A 
ATOM     38  C   UNL A   1      42.755  29.788  28.916  1.00  0.00     0.074 A 
ATOM     39  C   UNL A   1      41.908  27.485  28.537  1.00  0.00     0.049 A 
ATOM     40  N   UNL A   1      44.032  29.659  28.688  1.00  0.00    -0.248 NA
ATOM     41  C   UNL A   1      42.356  31.120  29.403  1.00  0.00     0.031 C 
ATOM     42  C   UNL A   1      40.896  26.430  28.473  1.00  0.00     0.029 A 
ATOM     43  N   UNL A   1      43.091  26.836  28.311  1.00  0.00    -0.354 N 
ATOM     44  C   UNL A   1      44.586  30.903  28.962  1.00  0.00     0.074 A 
ATOM     45  C   UNL A   1      43.510  31.770  29.384  1.00  0.00     0.031 C 
ATOM     46  C   UNL A   1      41.500  25.267  28.182  1.00  0.00     0.029 A 
ATOM     47  C   UNL A   1      42.925  25.513  27.981  1.00  0.00     0.049 A 
ATOM     48  H   UNL A   1      43.971  27.271  28.379  1.00  0.00     0.167 HD
ATOM     49  C   UNL A   1      45.881  31.277  28.848  1.00  0.00     0.037 A 
ATOM     50  C   UNL A   1      43.820  24.626  27.504  1.00  0.00     0.037 A 
ATOM     51  C   UNL A   1      46.922  30.381  28.422  1.00  0.00     0.049 A 
ATOM     52  C   UNL A   1      45.237  25.085  27.297  1.00  0.00     0.074 A 
ATOM     53  C   UNL A   1      48.273  30.631  28.276  1.00  0.00     0.029 A 
ATOM     54  N   UNL A   1      46.715  29.055  28.061  1.00  0.00    -0.354 N 
ATOM     55  N   UNL A   1      45.762  26.266  27.538  1.00  0.00    -0.248 NA
ATOM     56  C   UNL A   1      46.179  24.107  26.742  1.00  0.00     0.031 C 
ATOM     57  C   UNL A   1      48.874  29.472  27.774  1.00  0.00     0.029 A 
ATOM     58  C   UNL A   1      47.908  28.482  27.654  1.00  0.00     0.049 A 
ATOM     59  H   UNL A   1      45.849  28.590  28.090  1.00  0.00     0.167 HD
ATOM     60  C   UNL A   1      47.097  26.174  27.161  1.00  0.00     0.074 A 
ATOM     61  C   UNL A   1      47.302  24.815  26.700  1.00  0.00     0.031 C 
ATOM     62  C   UNL A   1      48.065  27.126  27.187  1.00  0.00     0.037 A 
BRANCH  49  63
ATOM     63  C   UNL A   1      46.208  32.720  29.112  1.00  0.00     0.058 A 
ATOM     64  C   UNL A   1      46.563  33.188  30.387  1.00  0.00     0.135 A 
ATOM     65  C   UNL A   1      46.138  33.658  28.068  1.00  0.00     0.135 A 
ATOM     66  F   UNL A   1      46.619  32.341  31.427  1.00  0.00    -0.206 F 
ATOM     67  C   UNL A   1      46.803  34.539  30.625  1.00  0.00     0.059 A 
ATOM     68  C   UNL A   1      46.399  35.008  28.277  1.00  0.00     0.059 A 
ATOM     69  F   UNL A   1      45.793  33.266  26.831  1.00  0.00    -0.206 F 
ATOM     70  C   UNL A   1      46.713  35.442  29.564  1.00  0.00     0.060 A 
BRANCH  70  71
ATOM     71  S   UNL A   1      47.004  37.194  29.890  1.00  0.00     0.124 S 
ATOM     72  O   UNL A   1      48.243  37.427  29.155  1.00  0.00    -0.237 OA
ATOM     73  O   UNL A   1      45.809  37.819  29.331  1.00  0.00    -0.237 OA
ATOM     74  O   UNL A   1      47.116  37.255  31.344  1.00  0.00    -0.744 OA
ENDBRANCH  70  71
ENDBRANCH  49  63
BRANCH  50  75
ATOM     75  C   UNL A   1      43.370  23.261  27.127  1.00  0.00     0.058 A 
ATOM     76  C   UNL A   1      43.275  22.871  25.785  1.00  0.00     0.135 A 
ATOM     77  C   UNL A   1      43.080  22.298  28.109  1.00  0.00     0.135 A 
ATOM     78  F   UNL A   1      43.530  23.756  24.810  1.00  0.00    -0.206 F 
ATOM     79  C   UNL A   1      42.917  21.573  25.428  1.00  0.00     0.059 A 
ATOM     80  C   UNL A   1      42.744  20.989  27.778  1.00  0.00     0.059 A 
ATOM     81  F   UNL A   1      43.164  22.619  29.410  1.00  0.00    -0.206 F 
ATOM     82  C   UNL A   1      42.663  20.637  26.432  1.00  0.00     0.060 A 
BRANCH  82  83
ATOM     83  S   UNL A   1      42.281  18.935  25.958  1.00  0.00     0.124 S 
ATOM     84  O   UNL A   1      42.733  18.195  27.130  1.00  0.00    -0.237 OA
ATOM     85  O   UNL A   1      40.836  18.992  25.756  1.00  0.00    -0.237 OA
ATOM     86  O   UNL A   1      43.069  18.739  24.744  1.00  0.00    -0.744 OA
ENDBRANCH  82  83
ENDBRANCH  50  75
BRANCH  62  87
ATOM     87  C   UNL A   1      49.426  26.725  26.695  1.00  0.00     0.058 A 
ATOM     88  C   UNL A   1      50.288  25.955  27.488  1.00  0.00     0.135 A 
ATOM     89  C   UNL A   1      49.838  27.051  25.394  1.00  0.00     0.135 A 
ATOM     90  F   UNL A   1      49.941  25.626  28.743  1.00  0.00    -0.206 F 
ATOM     91  C   UNL A   1      51.522  25.528  27.010  1.00  0.00     0.059 A 
ATOM     92  C   UNL A   1      51.056  26.614  24.887  1.00  0.00     0.059 A 
ATOM     93  F   UNL A   1      49.043  27.779  24.594  1.00  0.00    -0.206 F 
ATOM     94  C   UNL A   1      51.894  25.857  25.705  1.00  0.00     0.060 A 
BRANCH  94  95
ATOM     95  S   UNL A   1      53.474  25.252  25.080  1.00  0.00     0.124 S 
ATOM     96  O   UNL A   1      53.297  25.402  23.639  1.00  0.00    -0.237 OA
ATOM     97  O   UNL A   1      54.428  26.167  25.700  1.00  0.00    -0.237 OA
ATOM     98  O   UNL A   1      53.528  23.876  25.565  1.00  0.00    -0.744 OA
ENDBRANCH  94  95
ENDBRANCH  62  87
ENDBRANCH  36  37
ENDBRANCH  29  31
ENDBRANCH  28  29
ENDBRANCH  27  28
ENDBRANCH  26  27
ENDBRANCH   1  26
TORSDOF 20
ENDMDL
