MODEL 1
REMARK VINA RESULT:     -10.4      0.000      0.000
REMARK SMILES CC(=O)Nc1ccc(/N=C2\C(=O)N(c3ccc(NC(C)=O)cc3)[C@H](c3ccccc3)[C@H]2CC(=O)OCCOC(=O)c2ccc(-c3c4nc(c(-c5c(F)cc(S(=O)(=O)[O-])cc5F)c5ccc([nH]5)c(-c5c(F)cc(S(=O)(=O)[O-])cc5F)c5nc(c(-c6c(F)cc(S(=O)(=O)[O-])cc6F)c6ccc3[nH]6)C=C5)C=C4)cc2)cc1
REMARK SMILES IDX 36 1 35 2 33 3 34 4 32 5 31 6 9 7 10 8 11 9 12 10 13 11
REMARK SMILES IDX 24 12 8 13 5 14 6 15 108 16 7 17 107 18 4 19 1 20 2 21 3 22
REMARK SMILES IDX 14 24 15 25 23 26 16 27 22 28 17 29 18 30 19 31 20 33 21 34
REMARK SMILES IDX 25 35 26 36 30 37 27 38 29 39 28 40 37 41 38 42 39 43 40 44
REMARK SMILES IDX 41 45 42 46 106 47 43 48 105 49 44 50 45 51 46 52 99 53
REMARK SMILES IDX 47 54 104 55 98 56 100 57 48 58 103 59 97 60 96 61 49 63
REMARK SMILES IDX 83 64 62 65 82 66 63 67 66 68 81 69 101 70 64 71 65 72 80 74
REMARK SMILES IDX 102 75 67 76 50 77 51 78 60 79 52 80 53 81 59 82 61 83 54 84
REMARK SMILES IDX 55 85 56 86 57 87 58 88 84 89 85 90 94 91 86 92 87 93 93 94
REMARK SMILES IDX 95 95 88 96 89 97 90 98 91 99 92 100 68 101 69 102 78 103
REMARK SMILES IDX 70 104 71 105 77 106 79 107 72 108 73 109 74 110 75 111
REMARK SMILES IDX 76 112
REMARK H PARENT 4 23 18 32 100 62 66 73
REMARK Flexibility Score: inf
ROOT
ATOM      1  C   UNL A   1      43.447  22.037  25.829  1.00  0.00     0.274 C 
ENDROOT
BRANCH   1   2
ATOM      2  O   UNL A   1      44.277  22.825  24.956  1.00  0.00    -0.462 OA
BRANCH   2   3
ATOM      3  C   UNL A   1      45.320  23.486  25.518  1.00  0.00     0.306 C 
ATOM      4  O   UNL A   1      46.062  23.034  26.378  1.00  0.00    -0.252 OA
BRANCH   3   5
ATOM      5  C   UNL A   1      45.426  24.898  24.986  1.00  0.00     0.135 C 
BRANCH   5   6
ATOM      6  C   UNL A   1      46.461  25.718  25.758  1.00  0.00     0.083 C 
ATOM      7  N   UNL A   1      48.365  26.012  24.263  1.00  0.00    -0.247 NA
ATOM      8  C   UNL A   1      47.304  26.519  24.808  1.00  0.00     0.112 C 
ATOM      9  C   UNL A   1      46.786  27.929  24.759  1.00  0.00     0.273 C 
ATOM     10  O   UNL A   1      46.933  28.670  23.810  1.00  0.00    -0.267 OA
ATOM     11  N   UNL A   1      46.199  28.135  25.997  1.00  0.00    -0.299 N 
ATOM     12  C   UNL A   1      45.847  26.857  26.628  1.00  0.00     0.131 C 
BRANCH   7  13
ATOM     13  C   UNL A   1      49.268  26.716  23.455  1.00  0.00     0.064 A 
ATOM     14  C   UNL A   1      51.139  28.282  22.000  1.00  0.00     0.041 A 
ATOM     15  C   UNL A   1      51.261  28.112  23.386  1.00  0.00     0.028 A 
ATOM     16  C   UNL A   1      50.044  27.706  21.358  1.00  0.00     0.028 A 
ATOM     17  C   UNL A   1      50.344  27.329  24.098  1.00  0.00     0.030 A 
ATOM     18  C   UNL A   1      49.102  26.958  22.088  1.00  0.00     0.030 A 
BRANCH  14  19
ATOM     19  N   UNL A   1      52.125  29.074  21.384  1.00  0.00    -0.326 N 
ATOM     20  C   UNL A   1      50.808  30.865  20.236  1.00  0.00     0.114 C 
ATOM     21  C   UNL A   1      52.097  30.230  20.664  1.00  0.00     0.221 C 
ATOM     22  O   UNL A   1      53.176  30.736  20.336  1.00  0.00    -0.275 OA
ATOM     23  H   UNL A   1      53.034  28.713  21.497  1.00  0.00     0.169 HD
ENDBRANCH  14  19
ENDBRANCH   7  13
BRANCH  11  24
ATOM     24  C   UNL A   1      45.826  29.423  26.467  1.00  0.00     0.045 A 
ATOM     25  C   UNL A   1      44.534  29.667  26.949  1.00  0.00     0.028 A 
ATOM     26  C   UNL A   1      46.681  30.522  26.336  1.00  0.00     0.028 A 
ATOM     27  C   UNL A   1      44.102  30.964  27.269  1.00  0.00     0.028 A 
ATOM     28  C   UNL A   1      46.248  31.820  26.637  1.00  0.00     0.028 A 
ATOM     29  C   UNL A   1      44.948  32.055  27.090  1.00  0.00     0.041 A 
BRANCH  29  30
ATOM     30  N   UNL A   1      44.572  33.399  27.289  1.00  0.00    -0.326 N 
ATOM     31  C   UNL A   1      43.996  34.257  26.372  1.00  0.00     0.221 C 
ATOM     32  H   UNL A   1      44.740  33.769  28.185  1.00  0.00     0.169 HD
ATOM     33  C   UNL A   1      43.829  35.657  26.911  1.00  0.00     0.114 C 
ATOM     34  O   UNL A   1      43.626  33.983  25.235  1.00  0.00    -0.275 OA
ENDBRANCH  29  30
ENDBRANCH  11  24
BRANCH  12  35
ATOM     35  C   UNL A   1      46.174  26.678  28.099  1.00  0.00    -0.024 A 
ATOM     36  C   UNL A   1      47.445  27.056  28.576  1.00  0.00     0.006 A 
ATOM     37  C   UNL A   1      45.248  26.148  29.013  1.00  0.00     0.006 A 
ATOM     38  C   UNL A   1      47.778  26.905  29.923  1.00  0.00     0.000 A 
ATOM     39  C   UNL A   1      45.581  26.013  30.363  1.00  0.00     0.000 A 
ATOM     40  C   UNL A   1      46.846  26.388  30.816  1.00  0.00     0.000 A 
ENDBRANCH  12  35
ENDBRANCH   5   6
ENDBRANCH   3   5
ENDBRANCH   2   3
ENDBRANCH   1   2
BRANCH   1  41
ATOM     41  C   UNL A   1      42.014  22.570  25.878  1.00  0.00     0.275 C 
BRANCH  41  42
ATOM     42  O   UNL A   1      41.922  23.665  26.805  1.00  0.00    -0.458 OA
BRANCH  42  43
ATOM     43  C   UNL A   1      41.756  24.893  26.260  1.00  0.00     0.338 C 
ATOM     44  O   UNL A   1      41.662  25.157  25.073  1.00  0.00    -0.246 OA
BRANCH  43  45
ATOM     45  C   UNL A   1      41.557  25.888  27.337  1.00  0.00     0.060 A 
ATOM     46  C   UNL A   1      40.598  25.607  28.318  1.00  0.00     0.016 A 
ATOM     47  C   UNL A   1      42.306  27.067  27.403  1.00  0.00     0.016 A 
ATOM     48  C   UNL A   1      40.408  26.488  29.381  1.00  0.00     0.010 A 
ATOM     49  C   UNL A   1      42.099  27.961  28.456  1.00  0.00     0.010 A 
ATOM     50  C   UNL A   1      41.154  27.672  29.453  1.00  0.00    -0.014 A 
BRANCH  50  51
ATOM     51  C   UNL A   1      40.926  28.613  30.571  1.00  0.00     0.031 A 
ATOM     52  C   UNL A   1      41.800  28.555  31.788  1.00  0.00     0.074 A 
ATOM     53  C   UNL A   1      39.952  29.537  30.482  1.00  0.00     0.049 A 
ATOM     54  N   UNL A   1      41.822  29.351  32.825  1.00  0.00    -0.248 NA
ATOM     55  C   UNL A   1      42.782  27.463  31.840  1.00  0.00     0.031 C 
ATOM     56  C   UNL A   1      39.042  29.701  29.348  1.00  0.00     0.029 A 
ATOM     57  N   UNL A   1      39.568  30.510  31.366  1.00  0.00    -0.354 N 
ATOM     58  C   UNL A   1      42.843  28.882  33.638  1.00  0.00     0.074 A 
ATOM     59  C   UNL A   1      43.400  27.713  32.986  1.00  0.00     0.031 C 
ATOM     60  C   UNL A   1      38.193  30.708  29.612  1.00  0.00     0.029 A 
ATOM     61  C   UNL A   1      38.508  31.263  30.927  1.00  0.00     0.049 A 
ATOM     62  H   UNL A   1      40.010  30.656  32.234  1.00  0.00     0.167 HD
ATOM     63  C   UNL A   1      43.286  29.383  34.815  1.00  0.00     0.037 A 
ATOM     64  C   UNL A   1      37.866  32.288  31.517  1.00  0.00     0.037 A 
ATOM     65  C   UNL A   1      42.715  30.519  35.486  1.00  0.00     0.049 A 
ATOM     66  C   UNL A   1      38.323  32.779  32.859  1.00  0.00     0.074 A 
ATOM     67  C   UNL A   1      43.110  31.115  36.671  1.00  0.00     0.029 A 
ATOM     68  N   UNL A   1      41.607  31.220  35.037  1.00  0.00    -0.354 N 
ATOM     69  N   UNL A   1      39.328  32.361  33.588  1.00  0.00    -0.248 NA
ATOM     70  C   UNL A   1      37.560  33.885  33.454  1.00  0.00     0.031 C 
ATOM     71  C   UNL A   1      42.226  32.168  36.948  1.00  0.00     0.029 A 
ATOM     72  C   UNL A   1      41.288  32.228  35.930  1.00  0.00     0.049 A 
ATOM     73  H   UNL A   1      41.117  31.029  34.203  1.00  0.00     0.167 HD
ATOM     74  C   UNL A   1      39.328  33.157  34.726  1.00  0.00     0.074 A 
ATOM     75  C   UNL A   1      38.218  34.080  34.591  1.00  0.00     0.031 C 
ATOM     76  C   UNL A   1      40.174  33.130  35.784  1.00  0.00     0.037 A 
BRANCH  63  77
ATOM     77  C   UNL A   1      44.460  28.688  35.432  1.00  0.00     0.058 A 
ATOM     78  C   UNL A   1      44.270  27.653  36.359  1.00  0.00     0.135 A 
ATOM     79  C   UNL A   1      45.771  29.091  35.143  1.00  0.00     0.135 A 
ATOM     80  F   UNL A   1      43.031  27.250  36.679  1.00  0.00    -0.206 F 
ATOM     81  C   UNL A   1      45.346  27.055  37.005  1.00  0.00     0.059 A 
ATOM     82  C   UNL A   1      46.863  28.505  35.777  1.00  0.00     0.059 A 
ATOM     83  F   UNL A   1      45.998  30.090  34.276  1.00  0.00    -0.206 F 
ATOM     84  C   UNL A   1      46.638  27.502  36.722  1.00  0.00     0.060 A 
BRANCH  84  85
ATOM     85  S   UNL A   1      48.034  26.776  37.607  1.00  0.00     0.124 S 
ATOM     86  O   UNL A   1      47.551  25.417  37.838  1.00  0.00    -0.237 OA
ATOM     87  O   UNL A   1      49.128  26.903  36.649  1.00  0.00    -0.237 OA
ATOM     88  O   UNL A   1      48.146  27.616  38.795  1.00  0.00    -0.744 OA
ENDBRANCH  84  85
ENDBRANCH  63  77
BRANCH  64  89
ATOM     89  C   UNL A   1      36.717  32.919  30.828  1.00  0.00     0.058 A 
ATOM     90  C   UNL A   1      35.404  32.685  31.255  1.00  0.00     0.135 A 
ATOM     91  C   UNL A   1      36.920  33.801  29.757  1.00  0.00     0.135 A 
ATOM     92  F   UNL A   1      35.171  31.847  32.278  1.00  0.00    -0.206 F 
ATOM     93  C   UNL A   1      34.322  33.311  30.646  1.00  0.00     0.059 A 
ATOM     94  C   UNL A   1      35.856  34.441  29.134  1.00  0.00     0.059 A 
ATOM     95  F   UNL A   1      38.164  34.055  29.323  1.00  0.00    -0.206 F 
ATOM     96  C   UNL A   1      34.559  34.187  29.586  1.00  0.00     0.060 A 
BRANCH  96  97
ATOM     97  S   UNL A   1      33.174  35.070  28.831  1.00  0.00     0.124 S 
ATOM     98  O   UNL A   1      32.648  34.061  27.919  1.00  0.00    -0.237 OA
ATOM     99  O   UNL A   1      32.332  35.394  29.979  1.00  0.00    -0.237 OA
ATOM    100  O   UNL A   1      33.828  36.215  28.205  1.00  0.00    -0.744 OA
ENDBRANCH  96  97
ENDBRANCH  64  89
BRANCH  76 101
ATOM    101  C   UNL A   1      39.926  34.126  36.874  1.00  0.00     0.058 A 
ATOM    102  C   UNL A   1      39.223  33.767  38.032  1.00  0.00     0.135 A 
ATOM    103  C   UNL A   1      40.410  35.439  36.770  1.00  0.00     0.135 A 
ATOM    104  F   UNL A   1      38.737  32.524  38.169  1.00  0.00    -0.206 F 
ATOM    105  C   UNL A   1      38.996  34.684  39.054  1.00  0.00     0.059 A 
ATOM    106  C   UNL A   1      40.200  36.369  37.782  1.00  0.00     0.059 A 
ATOM    107  F   UNL A   1      41.087  35.825  35.678  1.00  0.00    -0.206 F 
ATOM    108  C   UNL A   1      39.484  35.984  38.917  1.00  0.00     0.060 A 
BRANCH 108 109
ATOM    109  S   UNL A   1      39.221  37.180  40.245  1.00  0.00     0.124 S 
ATOM    110  O   UNL A   1      40.591  37.451  40.668  1.00  0.00    -0.237 OA
ATOM    111  O   UNL A   1      38.540  38.280  39.568  1.00  0.00    -0.237 OA
ATOM    112  O   UNL A   1      38.400  36.437  41.195  1.00  0.00    -0.744 OA
ENDBRANCH 108 109
ENDBRANCH  76 101
ENDBRANCH  50  51
ENDBRANCH  43  45
ENDBRANCH  42  43
ENDBRANCH  41  42
ENDBRANCH   1  41
TORSDOF 20
ENDMDL
MODEL 2
REMARK VINA RESULT:     -10.3      4.601     14.226
REMARK SMILES CC(=O)Nc1ccc(/N=C2\C(=O)N(c3ccc(NC(C)=O)cc3)[C@H](c3ccccc3)[C@H]2CC(=O)OCCOC(=O)c2ccc(-c3c4nc(c(-c5c(F)cc(S(=O)(=O)[O-])cc5F)c5ccc([nH]5)c(-c5c(F)cc(S(=O)(=O)[O-])cc5F)c5nc(c(-c6c(F)cc(S(=O)(=O)[O-])cc6F)c6ccc3[nH]6)C=C5)C=C4)cc2)cc1
REMARK SMILES IDX 36 1 35 2 33 3 34 4 32 5 31 6 9 7 10 8 11 9 12 10 13 11
REMARK SMILES IDX 24 12 8 13 5 14 6 15 108 16 7 17 107 18 4 19 1 20 2 21 3 22
REMARK SMILES IDX 14 24 15 25 23 26 16 27 22 28 17 29 18 30 19 31 20 33 21 34
REMARK SMILES IDX 25 35 26 36 30 37 27 38 29 39 28 40 37 41 38 42 39 43 40 44
REMARK SMILES IDX 41 45 42 46 106 47 43 48 105 49 44 50 45 51 46 52 99 53
REMARK SMILES IDX 47 54 104 55 98 56 100 57 48 58 103 59 97 60 96 61 49 63
REMARK SMILES IDX 83 64 62 65 82 66 63 67 66 68 81 69 101 70 64 71 65 72 80 74
REMARK SMILES IDX 102 75 67 76 50 77 51 78 60 79 52 80 53 81 59 82 61 83 54 84
REMARK SMILES IDX 55 85 56 86 57 87 58 88 84 89 85 90 94 91 86 92 87 93 93 94
REMARK SMILES IDX 95 95 88 96 89 97 90 98 91 99 92 100 68 101 69 102 78 103
REMARK SMILES IDX 70 104 71 105 77 106 79 107 72 108 73 109 74 110 75 111
REMARK SMILES IDX 76 112
REMARK H PARENT 4 23 18 32 100 62 66 73
REMARK Flexibility Score: inf
ROOT
ATOM      1  C   UNL A   1      35.601  33.382  31.554  1.00  0.00     0.274 C 
ENDROOT
BRANCH   1   2
ATOM      2  O   UNL A   1      37.001  33.687  31.410  1.00  0.00    -0.462 OA
BRANCH   2   3
ATOM      3  C   UNL A   1      37.686  34.012  32.535  1.00  0.00     0.306 C 
ATOM      4  O   UNL A   1      38.300  35.054  32.713  1.00  0.00    -0.252 OA
BRANCH   3   5
ATOM      5  C   UNL A   1      37.646  32.887  33.547  1.00  0.00     0.135 C 
BRANCH   5   6
ATOM      6  C   UNL A   1      38.910  32.855  34.408  1.00  0.00     0.083 C 
ATOM      7  N   UNL A   1      38.186  33.211  36.709  1.00  0.00    -0.247 NA
ATOM      8  C   UNL A   1      38.582  32.382  35.794  1.00  0.00     0.112 C 
ATOM      9  C   UNL A   1      38.927  30.924  35.912  1.00  0.00     0.273 C 
ATOM     10  O   UNL A   1      38.394  30.165  36.694  1.00  0.00    -0.267 OA
ATOM     11  N   UNL A   1      39.951  30.727  35.001  1.00  0.00    -0.299 N 
ATOM     12  C   UNL A   1      39.947  31.775  33.973  1.00  0.00     0.131 C 
BRANCH   7  13
ATOM     13  C   UNL A   1      37.964  32.879  38.053  1.00  0.00     0.064 A 
ATOM     14  C   UNL A   1      37.303  32.298  40.754  1.00  0.00     0.041 A 
ATOM     15  C   UNL A   1      36.315  32.340  39.760  1.00  0.00     0.028 A 
ATOM     16  C   UNL A   1      38.615  32.601  40.393  1.00  0.00     0.028 A 
ATOM     17  C   UNL A   1      36.646  32.614  38.428  1.00  0.00     0.030 A 
ATOM     18  C   UNL A   1      38.932  32.920  39.060  1.00  0.00     0.030 A 
BRANCH  14  19
ATOM     19  N   UNL A   1      36.861  31.996  42.054  1.00  0.00    -0.326 N 
ATOM     20  C   UNL A   1      38.161  29.945  42.654  1.00  0.00     0.114 C 
ATOM     21  C   UNL A   1      37.207  31.055  42.977  1.00  0.00     0.221 C 
ATOM     22  O   UNL A   1      36.683  31.118  44.094  1.00  0.00    -0.275 OA
ATOM     23  H   UNL A   1      36.145  32.595  42.367  1.00  0.00     0.169 HD
ENDBRANCH  14  19
ENDBRANCH   7  13
BRANCH  11  24
ATOM     24  C   UNL A   1      40.751  29.553  34.984  1.00  0.00     0.045 A 
ATOM     25  C   UNL A   1      41.769  29.362  35.928  1.00  0.00     0.028 A 
ATOM     26  C   UNL A   1      40.650  28.616  33.951  1.00  0.00     0.028 A 
ATOM     27  C   UNL A   1      42.668  28.288  35.831  1.00  0.00     0.028 A 
ATOM     28  C   UNL A   1      41.556  27.554  33.841  1.00  0.00     0.028 A 
ATOM     29  C   UNL A   1      42.585  27.389  34.771  1.00  0.00     0.041 A 
BRANCH  29  30
ATOM     30  N   UNL A   1      43.499  26.342  34.537  1.00  0.00    -0.326 N 
ATOM     31  C   UNL A   1      43.362  25.012  34.882  1.00  0.00     0.221 C 
ATOM     32  H   UNL A   1      44.333  26.589  34.075  1.00  0.00     0.169 HD
ATOM     33  C   UNL A   1      44.594  24.200  34.564  1.00  0.00     0.114 C 
ATOM     34  O   UNL A   1      42.379  24.475  35.382  1.00  0.00    -0.275 OA
ENDBRANCH  29  30
ENDBRANCH  11  24
BRANCH  12  35
ATOM     35  C   UNL A   1      41.276  32.397  33.587  1.00  0.00    -0.024 A 
ATOM     36  C   UNL A   1      41.560  33.721  33.979  1.00  0.00     0.006 A 
ATOM     37  C   UNL A   1      42.245  31.696  32.851  1.00  0.00     0.006 A 
ATOM     38  C   UNL A   1      42.773  34.323  33.641  1.00  0.00     0.000 A 
ATOM     39  C   UNL A   1      43.464  32.298  32.528  1.00  0.00     0.000 A 
ATOM     40  C   UNL A   1      43.725  33.611  32.919  1.00  0.00     0.000 A 
ENDBRANCH  12  35
ENDBRANCH   5   6
ENDBRANCH   3   5
ENDBRANCH   2   3
ENDBRANCH   1   2
BRANCH   1  41
ATOM     41  C   UNL A   1      35.089  32.523  30.397  1.00  0.00     0.275 C 
BRANCH  41  42
ATOM     42  O   UNL A   1      36.165  31.754  29.834  1.00  0.00    -0.458 OA
BRANCH  42  43
ATOM     43  C   UNL A   1      36.454  30.589  30.460  1.00  0.00     0.338 C 
ATOM     44  O   UNL A   1      35.695  29.921  31.143  1.00  0.00    -0.246 OA
BRANCH  43  45
ATOM     45  C   UNL A   1      37.813  30.146  30.076  1.00  0.00     0.060 A 
ATOM     46  C   UNL A   1      38.082  29.967  28.714  1.00  0.00     0.016 A 
ATOM     47  C   UNL A   1      38.815  29.927  31.026  1.00  0.00     0.016 A 
ATOM     48  C   UNL A   1      39.361  29.600  28.298  1.00  0.00     0.010 A 
ATOM     49  C   UNL A   1      40.090  29.536  30.610  1.00  0.00     0.010 A 
ATOM     50  C   UNL A   1      40.370  29.378  29.244  1.00  0.00    -0.014 A 
BRANCH  50  51
ATOM     51  C   UNL A   1      41.717  28.962  28.794  1.00  0.00     0.031 A 
ATOM     52  C   UNL A   1      42.840  29.955  28.780  1.00  0.00     0.074 A 
ATOM     53  C   UNL A   1      41.936  27.688  28.423  1.00  0.00     0.049 A 
ATOM     54  N   UNL A   1      44.106  29.763  28.514  1.00  0.00    -0.248 NA
ATOM     55  C   UNL A   1      42.495  31.343  29.118  1.00  0.00     0.031 C 
ATOM     56  C   UNL A   1      40.928  26.627  28.402  1.00  0.00     0.029 A 
ATOM     57  N   UNL A   1      43.082  27.073  27.992  1.00  0.00    -0.354 N 
ATOM     58  C   UNL A   1      44.718  30.995  28.687  1.00  0.00     0.074 A 
ATOM     59  C   UNL A   1      43.679  31.936  29.056  1.00  0.00     0.031 C 
ATOM     60  C   UNL A   1      41.499  25.493  27.964  1.00  0.00     0.029 A 
ATOM     61  C   UNL A   1      42.911  25.747  27.686  1.00  0.00     0.049 A 
ATOM     62  H   UNL A   1      43.945  27.539  27.910  1.00  0.00     0.167 HD
ATOM     63  C   UNL A   1      46.028  31.314  28.562  1.00  0.00     0.037 A 
ATOM     64  C   UNL A   1      43.795  24.837  27.236  1.00  0.00     0.037 A 
ATOM     65  C   UNL A   1      47.059  30.396  28.161  1.00  0.00     0.049 A 
ATOM     66  C   UNL A   1      45.228  25.232  27.029  1.00  0.00     0.074 A 
ATOM     67  C   UNL A   1      48.417  30.622  28.029  1.00  0.00     0.029 A 
ATOM     68  N   UNL A   1      46.836  29.075  27.805  1.00  0.00    -0.354 N 
ATOM     69  N   UNL A   1      45.803  26.388  27.253  1.00  0.00    -0.248 NA
ATOM     70  C   UNL A   1      46.132  24.195  26.512  1.00  0.00     0.031 C 
ATOM     71  C   UNL A   1      49.015  29.437  27.574  1.00  0.00     0.029 A 
ATOM     72  C   UNL A   1      48.027  28.477  27.432  1.00  0.00     0.049 A 
ATOM     73  H   UNL A   1      45.959  28.627  27.817  1.00  0.00     0.167 HD
ATOM     74  C   UNL A   1      47.139  26.218  26.915  1.00  0.00     0.074 A 
ATOM     75  C   UNL A   1      47.287  24.848  26.465  1.00  0.00     0.031 C 
ATOM     76  C   UNL A   1      48.152  27.115  26.977  1.00  0.00     0.037 A 
BRANCH  63  77
ATOM     77  C   UNL A   1      46.398  32.730  28.880  1.00  0.00     0.058 A 
ATOM     78  C   UNL A   1      46.339  33.722  27.890  1.00  0.00     0.135 A 
ATOM     79  C   UNL A   1      46.865  33.087  30.152  1.00  0.00     0.135 A 
ATOM     80  F   UNL A   1      45.917  33.420  26.653  1.00  0.00    -0.206 F 
ATOM     81  C   UNL A   1      46.760  35.023  28.144  1.00  0.00     0.059 A 
ATOM     82  C   UNL A   1      47.291  34.382  30.429  1.00  0.00     0.059 A 
ATOM     83  F   UNL A   1      46.955  32.165  31.124  1.00  0.00    -0.206 F 
ATOM     84  C   UNL A   1      47.254  35.338  29.411  1.00  0.00     0.060 A 
BRANCH  84  85
ATOM     85  S   UNL A   1      47.865  37.007  29.727  1.00  0.00     0.124 S 
ATOM     86  O   UNL A   1      47.059  37.393  30.882  1.00  0.00    -0.237 OA
ATOM     87  O   UNL A   1      49.283  36.789  29.992  1.00  0.00    -0.237 OA
ATOM     88  O   UNL A   1      47.564  37.710  28.484  1.00  0.00    -0.744 OA
ENDBRANCH  84  85
ENDBRANCH  63  77
BRANCH  64  89
ATOM     89  C   UNL A   1      43.339  23.458  26.954  1.00  0.00     0.058 A 
ATOM     90  C   UNL A   1      43.176  23.007  25.638  1.00  0.00     0.135 A 
ATOM     91  C   UNL A   1      43.100  22.555  28.000  1.00  0.00     0.135 A 
ATOM     92  F   UNL A   1      43.396  23.843  24.611  1.00  0.00    -0.206 F 
ATOM     93  C   UNL A   1      42.795  21.699  25.363  1.00  0.00     0.059 A 
ATOM     94  C   UNL A   1      42.722  21.241  27.750  1.00  0.00     0.059 A 
ATOM     95  F   UNL A   1      43.251  22.948  29.274  1.00  0.00    -0.206 F 
ATOM     96  C   UNL A   1      42.570  20.823  26.427  1.00  0.00     0.060 A 
BRANCH  96  97
ATOM     97  S   UNL A   1      42.150  19.098  26.089  1.00  0.00     0.124 S 
ATOM     98  O   UNL A   1      42.532  18.455  27.341  1.00  0.00    -0.237 OA
ATOM     99  O   UNL A   1      40.718  19.160  25.816  1.00  0.00    -0.237 OA
ATOM    100  O   UNL A   1      42.985  18.786  24.933  1.00  0.00    -0.744 OA
ENDBRANCH  96  97
ENDBRANCH  64  89
BRANCH  76 101
ATOM    101  C   UNL A   1      49.505  26.638  26.546  1.00  0.00     0.058 A 
ATOM    102  C   UNL A   1      50.371  26.012  27.453  1.00  0.00     0.135 A 
ATOM    103  C   UNL A   1      49.929  26.787  25.217  1.00  0.00     0.135 A 
ATOM    104  F   UNL A   1      50.007  25.855  28.735  1.00  0.00    -0.206 F 
ATOM    105  C   UNL A   1      51.625  25.557  27.060  1.00  0.00     0.059 A 
ATOM    106  C   UNL A   1      51.176  26.334  24.802  1.00  0.00     0.059 A 
ATOM    107  F   UNL A   1      49.132  27.382  24.316  1.00  0.00    -0.206 F 
ATOM    108  C   UNL A   1      52.022  25.728  25.733  1.00  0.00     0.060 A 
BRANCH 108 109
ATOM    109  S   UNL A   1      53.636  25.120  25.198  1.00  0.00     0.124 S 
ATOM    110  O   UNL A   1      53.747  25.715  23.870  1.00  0.00    -0.237 OA
ATOM    111  O   UNL A   1      54.542  25.658  26.209  1.00  0.00    -0.237 OA
ATOM    112  O   UNL A   1      53.465  23.671  25.231  1.00  0.00    -0.744 OA
ENDBRANCH 108 109
ENDBRANCH  76 101
ENDBRANCH  50  51
ENDBRANCH  43  45
ENDBRANCH  42  43
ENDBRANCH  41  42
ENDBRANCH   1  41
TORSDOF 20
ENDMDL
MODEL 3
REMARK VINA RESULT:     -10.3      1.089      7.693
REMARK SMILES CC(=O)Nc1ccc(/N=C2\C(=O)N(c3ccc(NC(C)=O)cc3)[C@H](c3ccccc3)[C@H]2CC(=O)OCCOC(=O)c2ccc(-c3c4nc(c(-c5c(F)cc(S(=O)(=O)[O-])cc5F)c5ccc([nH]5)c(-c5c(F)cc(S(=O)(=O)[O-])cc5F)c5nc(c(-c6c(F)cc(S(=O)(=O)[O-])cc6F)c6ccc3[nH]6)C=C5)C=C4)cc2)cc1
REMARK SMILES IDX 36 1 35 2 33 3 34 4 32 5 31 6 9 7 10 8 11 9 12 10 13 11
REMARK SMILES IDX 24 12 8 13 5 14 6 15 108 16 7 17 107 18 4 19 1 20 2 21 3 22
REMARK SMILES IDX 14 24 15 25 23 26 16 27 22 28 17 29 18 30 19 31 20 33 21 34
REMARK SMILES IDX 25 35 26 36 30 37 27 38 29 39 28 40 37 41 38 42 39 43 40 44
REMARK SMILES IDX 41 45 42 46 106 47 43 48 105 49 44 50 45 51 46 52 99 53
REMARK SMILES IDX 47 54 104 55 98 56 100 57 48 58 103 59 97 60 96 61 49 63
REMARK SMILES IDX 83 64 62 65 82 66 63 67 66 68 81 69 101 70 64 71 65 72 80 74
REMARK SMILES IDX 102 75 67 76 50 77 51 78 60 79 52 80 53 81 59 82 61 83 54 84
REMARK SMILES IDX 55 85 56 86 57 87 58 88 84 89 85 90 94 91 86 92 87 93 93 94
REMARK SMILES IDX 95 95 88 96 89 97 90 98 91 99 92 100 68 101 69 102 78 103
REMARK SMILES IDX 70 104 71 105 77 106 79 107 72 108 73 109 74 110 75 111
REMARK SMILES IDX 76 112
REMARK H PARENT 4 23 18 32 100 62 66 73
REMARK Flexibility Score: inf
ROOT
ATOM      1  C   UNL A   1      42.973  22.804  25.383  1.00  0.00     0.274 C 
ENDROOT
BRANCH   1   2
ATOM      2  O   UNL A   1      44.218  22.370  25.962  1.00  0.00    -0.462 OA
BRANCH   2   3
ATOM      3  C   UNL A   1      45.360  22.864  25.422  1.00  0.00     0.306 C 
ATOM      4  O   UNL A   1      46.403  22.240  25.281  1.00  0.00    -0.252 OA
BRANCH   3   5
ATOM      5  C   UNL A   1      45.209  24.324  25.057  1.00  0.00     0.135 C 
BRANCH   5   6
ATOM      6  C   UNL A   1      46.146  25.213  25.875  1.00  0.00     0.083 C 
ATOM      7  N   UNL A   1      48.122  25.589  24.497  1.00  0.00    -0.247 NA
ATOM      8  C   UNL A   1      47.002  26.044  24.965  1.00  0.00     0.112 C 
ATOM      9  C   UNL A   1      46.411  27.422  24.856  1.00  0.00     0.273 C 
ATOM     10  O   UNL A   1      46.577  28.154  23.903  1.00  0.00    -0.267 OA
ATOM     11  N   UNL A   1      45.736  27.615  26.050  1.00  0.00    -0.299 N 
ATOM     12  C   UNL A   1      45.416  26.330  26.683  1.00  0.00     0.131 C 
BRANCH   7  13
ATOM     13  C   UNL A   1      49.034  26.330  23.733  1.00  0.00     0.064 A 
ATOM     14  C   UNL A   1      50.903  27.976  22.367  1.00  0.00     0.041 A 
ATOM     15  C   UNL A   1      50.938  27.846  23.762  1.00  0.00     0.028 A 
ATOM     16  C   UNL A   1      49.893  27.317  21.668  1.00  0.00     0.028 A 
ATOM     17  C   UNL A   1      50.023  27.024  24.431  1.00  0.00     0.030 A 
ATOM     18  C   UNL A   1      48.949  26.529  22.352  1.00  0.00     0.030 A 
BRANCH  14  19
ATOM     19  N   UNL A   1      51.880  28.813  21.798  1.00  0.00    -0.326 N 
ATOM     20  C   UNL A   1      50.539  30.479  20.499  1.00  0.00     0.114 C 
ATOM     21  C   UNL A   1      51.831  29.944  21.040  1.00  0.00     0.221 C 
ATOM     22  O   UNL A   1      52.897  30.511  20.774  1.00  0.00    -0.275 OA
ATOM     23  H   UNL A   1      52.799  28.518  21.989  1.00  0.00     0.169 HD
ENDBRANCH  14  19
ENDBRANCH   7  13
BRANCH  11  24
ATOM     24  C   UNL A   1      45.264  28.887  26.470  1.00  0.00     0.045 A 
ATOM     25  C   UNL A   1      46.153  29.871  26.922  1.00  0.00     0.028 A 
ATOM     26  C   UNL A   1      43.897  29.157  26.584  1.00  0.00     0.028 A 
ATOM     27  C   UNL A   1      45.694  31.072  27.488  1.00  0.00     0.028 A 
ATOM     28  C   UNL A   1      43.435  30.345  27.164  1.00  0.00     0.028 A 
ATOM     29  C   UNL A   1      44.330  31.307  27.637  1.00  0.00     0.041 A 
BRANCH  29  30
ATOM     30  N   UNL A   1      43.779  32.434  28.280  1.00  0.00    -0.326 N 
ATOM     31  C   UNL A   1      43.372  32.537  29.596  1.00  0.00     0.221 C 
ATOM     32  H   UNL A   1      43.672  33.241  27.726  1.00  0.00     0.169 HD
ATOM     33  C   UNL A   1      42.733  33.869  29.903  1.00  0.00     0.114 C 
ATOM     34  O   UNL A   1      43.492  31.691  30.476  1.00  0.00    -0.275 OA
ENDBRANCH  29  30
ENDBRANCH  11  24
BRANCH  12  35
ATOM     35  C   UNL A   1      45.658  26.193  28.175  1.00  0.00    -0.024 A 
ATOM     36  C   UNL A   1      46.977  26.054  28.651  1.00  0.00     0.006 A 
ATOM     37  C   UNL A   1      44.608  26.204  29.108  1.00  0.00     0.006 A 
ATOM     38  C   UNL A   1      47.235  25.927  30.017  1.00  0.00     0.000 A 
ATOM     39  C   UNL A   1      44.873  26.091  30.475  1.00  0.00     0.000 A 
ATOM     40  C   UNL A   1      46.184  25.949  30.928  1.00  0.00     0.000 A 
ENDBRANCH  12  35
ENDBRANCH   5   6
ENDBRANCH   3   5
ENDBRANCH   2   3
ENDBRANCH   1   2
BRANCH   1  41
ATOM     41  C   UNL A   1      41.955  23.188  26.458  1.00  0.00     0.275 C 
BRANCH  41  42
ATOM     42  O   UNL A   1      41.596  24.573  26.330  1.00  0.00    -0.458 OA
BRANCH  42  43
ATOM     43  C   UNL A   1      40.310  24.885  26.621  1.00  0.00     0.338 C 
ATOM     44  O   UNL A   1      39.312  24.391  26.126  1.00  0.00    -0.246 OA
BRANCH  43  45
ATOM     45  C   UNL A   1      40.277  25.832  27.758  1.00  0.00     0.060 A 
ATOM     46  C   UNL A   1      41.263  26.824  27.811  1.00  0.00     0.016 A 
ATOM     47  C   UNL A   1      39.289  25.767  28.745  1.00  0.00     0.016 A 
ATOM     48  C   UNL A   1      41.245  27.771  28.835  1.00  0.00     0.010 A 
ATOM     49  C   UNL A   1      39.285  26.702  29.784  1.00  0.00     0.010 A 
ATOM     50  C   UNL A   1      40.259  27.712  29.828  1.00  0.00    -0.014 A 
BRANCH  50  51
ATOM     51  C   UNL A   1      40.264  28.706  30.924  1.00  0.00     0.031 A 
ATOM     52  C   UNL A   1      39.325  29.873  30.880  1.00  0.00     0.074 A 
ATOM     53  C   UNL A   1      41.093  28.544  31.971  1.00  0.00     0.049 A 
ATOM     54  N   UNL A   1      39.111  30.793  31.784  1.00  0.00    -0.248 NA
ATOM     55  C   UNL A   1      38.516  30.020  29.661  1.00  0.00     0.031 C 
ATOM     56  C   UNL A   1      42.046  27.445  32.135  1.00  0.00     0.029 A 
ATOM     57  N   UNL A   1      41.264  29.310  33.094  1.00  0.00    -0.354 N 
ATOM     58  C   UNL A   1      38.117  31.608  31.264  1.00  0.00     0.074 A 
ATOM     59  C   UNL A   1      37.789  31.090  29.950  1.00  0.00     0.031 C 
ATOM     60  C   UNL A   1      42.714  27.617  33.288  1.00  0.00     0.029 A 
ATOM     61  C   UNL A   1      42.228  28.828  33.944  1.00  0.00     0.049 A 
ATOM     62  H   UNL A   1      40.746  30.127  33.274  1.00  0.00     0.167 HD
ATOM     63  C   UNL A   1      37.523  32.685  31.831  1.00  0.00     0.037 A 
ATOM     64  C   UNL A   1      42.667  29.309  35.123  1.00  0.00     0.037 A 
ATOM     65  C   UNL A   1      37.869  33.227  33.116  1.00  0.00     0.049 A 
ATOM     66  C   UNL A   1      42.048  30.549  35.697  1.00  0.00     0.074 A 
ATOM     67  C   UNL A   1      37.306  34.301  33.783  1.00  0.00     0.029 A 
ATOM     68  N   UNL A   1      38.889  32.746  33.922  1.00  0.00    -0.354 N 
ATOM     69  N   UNL A   1      41.068  31.276  35.219  1.00  0.00    -0.248 NA
ATOM     70  C   UNL A   1      42.593  31.031  36.974  1.00  0.00     0.031 C 
ATOM     71  C   UNL A   1      38.002  34.480  34.988  1.00  0.00     0.029 A 
ATOM     72  C   UNL A   1      38.990  33.512  35.069  1.00  0.00     0.049 A 
ATOM     73  H   UNL A   1      39.459  31.971  33.708  1.00  0.00     0.167 HD
ATOM     74  C   UNL A   1      40.869  32.296  36.140  1.00  0.00     0.074 A 
ATOM     75  C   UNL A   1      41.835  32.096  37.202  1.00  0.00     0.031 C 
ATOM     76  C   UNL A   1      39.964  33.304  36.110  1.00  0.00     0.037 A 
BRANCH  63  77
ATOM     77  C   UNL A   1      36.425  33.328  31.041  1.00  0.00     0.058 A 
ATOM     78  C   UNL A   1      36.723  34.146  29.940  1.00  0.00     0.135 A 
ATOM     79  C   UNL A   1      35.083  33.176  31.413  1.00  0.00     0.135 A 
ATOM     80  F   UNL A   1      37.996  34.334  29.562  1.00  0.00    -0.206 F 
ATOM     81  C   UNL A   1      35.722  34.819  29.248  1.00  0.00     0.059 A 
ATOM     82  C   UNL A   1      34.065  33.839  30.735  1.00  0.00     0.059 A 
ATOM     83  F   UNL A   1      34.755  32.417  32.471  1.00  0.00    -0.206 F 
ATOM     84  C   UNL A   1      34.397  34.675  29.666  1.00  0.00     0.060 A 
BRANCH  84  85
ATOM     85  S   UNL A   1      33.101  35.599  28.815  1.00  0.00     0.124 S 
ATOM     86  O   UNL A   1      32.526  34.564  27.960  1.00  0.00    -0.237 OA
ATOM     87  O   UNL A   1      32.253  36.055  29.912  1.00  0.00    -0.237 OA
ATOM     88  O   UNL A   1      33.843  36.649  28.124  1.00  0.00    -0.744 OA
ENDBRANCH  84  85
ENDBRANCH  63  77
BRANCH  64  89
ATOM     89  C   UNL A   1      43.754  28.601  35.836  1.00  0.00     0.058 A 
ATOM     90  C   UNL A   1      45.090  28.989  35.678  1.00  0.00     0.135 A 
ATOM     91  C   UNL A   1      43.466  27.554  36.722  1.00  0.00     0.135 A 
ATOM     92  F   UNL A   1      45.404  29.989  34.840  1.00  0.00    -0.206 F 
ATOM     93  C   UNL A   1      46.113  28.363  36.382  1.00  0.00     0.059 A 
ATOM     94  C   UNL A   1      44.471  26.915  37.439  1.00  0.00     0.059 A 
ATOM     95  F   UNL A   1      42.197  27.158  36.904  1.00  0.00    -0.206 F 
ATOM     96  C   UNL A   1      45.793  27.326  37.260  1.00  0.00     0.060 A 
BRANCH  96  97
ATOM     97  S   UNL A   1      47.098  26.551  38.241  1.00  0.00     0.124 S 
ATOM     98  O   UNL A   1      46.399  26.279  39.491  1.00  0.00    -0.237 OA
ATOM     99  O   UNL A   1      47.454  25.383  37.442  1.00  0.00    -0.237 OA
ATOM    100  O   UNL A   1      48.118  27.594  38.296  1.00  0.00    -0.744 OA
ENDBRANCH  96  97
ENDBRANCH  64  89
BRANCH  76 101
ATOM    101  C   UNL A   1      39.983  34.264  37.260  1.00  0.00     0.058 A 
ATOM    102  C   UNL A   1      39.268  33.994  38.435  1.00  0.00     0.135 A 
ATOM    103  C   UNL A   1      40.736  35.446  37.196  1.00  0.00     0.135 A 
ATOM    104  F   UNL A   1      38.530  32.878  38.535  1.00  0.00    -0.206 F 
ATOM    105  C   UNL A   1      39.287  34.875  39.511  1.00  0.00     0.059 A 
ATOM    106  C   UNL A   1      40.774  36.337  38.263  1.00  0.00     0.059 A 
ATOM    107  F   UNL A   1      41.435  35.743  36.090  1.00  0.00    -0.206 F 
ATOM    108  C   UNL A   1      40.038  36.047  39.413  1.00  0.00     0.060 A 
BRANCH 108 109
ATOM    109  S   UNL A   1      40.096  37.189  40.811  1.00  0.00     0.124 S 
ATOM    110  O   UNL A   1      41.372  36.836  41.425  1.00  0.00    -0.237 OA
ATOM    111  O   UNL A   1      40.045  38.499  40.169  1.00  0.00    -0.237 OA
ATOM    112  O   UNL A   1      38.905  36.830  41.575  1.00  0.00    -0.744 OA
ENDBRANCH 108 109
ENDBRANCH  76 101
ENDBRANCH  50  51
ENDBRANCH  43  45
ENDBRANCH  42  43
ENDBRANCH  41  42
ENDBRANCH   1  41
TORSDOF 20
ENDMDL
