MODEL 1
REMARK VINA RESULT:     -11.3      0.000      0.000
REMARK SMILES NC(=O)[C@@H]1CCCCN1c1cncc(C(=O)OCCOC(=O)c2ccc(-c3c4nc(c(-c5c(F)cc(S(=O)(=O)[O-])cc5F)c5ccc([nH]5)c(-c5c(F)cc(S(=O)(=O)[O-])cc5F)c5nc(c(-c6c(F)cc(S(=O)(=O)[O-])cc6F)c6ccc3[nH]6)C=C5)C=C4)cc2)n1
REMARK SMILES IDX 19 1 18 2 17 3 15 4 16 5 14 6 10 7 11 8 89 9 12 10 13 11
REMARK SMILES IDX 9 12 4 13 5 14 6 15 8 16 7 17 2 18 1 19 3 22 20 23 21 24
REMARK SMILES IDX 22 25 23 26 24 27 88 28 25 29 87 30 26 31 27 32 28 33 81 34
REMARK SMILES IDX 29 35 86 36 80 37 82 38 30 39 85 40 79 41 78 42 31 44 65 45
REMARK SMILES IDX 44 46 64 47 45 48 48 49 63 50 83 51 46 52 47 53 62 55 84 56
REMARK SMILES IDX 49 57 32 58 33 59 42 60 34 61 35 62 41 63 43 64 36 65 37 66
REMARK SMILES IDX 38 67 39 68 40 69 66 70 67 71 76 72 68 73 69 74 75 75 77 76
REMARK SMILES IDX 70 77 71 78 72 79 73 80 74 81 50 82 51 83 60 84 52 85 53 86
REMARK SMILES IDX 59 87 61 88 54 89 55 90 56 91 57 92 58 93
REMARK H PARENT 1 20 1 21 82 43 48 54
REMARK Flexibility Score: inf
ROOT
ATOM      1  C   UNL A   1      39.493  22.102  26.166  1.00  0.00     0.275 C 
ENDROOT
BRANCH   1   2
ATOM      2  C   UNL A   1      38.203  21.746  25.427  1.00  0.00     0.275 C 
BRANCH   2   3
ATOM      3  O   UNL A   1      37.343  22.895  25.282  1.00  0.00    -0.457 OA
BRANCH   3   4
ATOM      4  C   UNL A   1      36.576  22.921  24.159  1.00  0.00     0.358 C 
ATOM      5  O   UNL A   1      36.952  22.682  23.026  1.00  0.00    -0.244 OA
BRANCH   4   6
ATOM      6  C   UNL A   1      35.161  23.217  24.490  1.00  0.00     0.169 A 
ATOM      7  C   UNL A   1      33.473  24.729  24.886  1.00  0.00     0.148 A 
ATOM      8  C   UNL A   1      32.593  23.646  25.014  1.00  0.00     0.157 A 
ATOM      9  N   UNL A   1      34.791  24.516  24.670  1.00  0.00    -0.220 NA
ATOM     10  N   UNL A   1      32.952  22.353  24.843  1.00  0.00    -0.258 NA
ATOM     11  C   UNL A   1      34.253  22.170  24.536  1.00  0.00     0.147 A 
BRANCH   7  12
ATOM     12  N   UNL A   1      33.006  26.019  24.914  1.00  0.00    -0.343 N 
ATOM     13  C   UNL A   1      32.791  26.834  23.704  1.00  0.00     0.172 C 
ATOM     14  C   UNL A   1      33.753  28.025  23.730  1.00  0.00     0.035 C 
ATOM     15  C   UNL A   1      33.583  28.813  25.031  1.00  0.00     0.004 C 
ATOM     16  C   UNL A   1      32.833  26.689  26.196  1.00  0.00     0.119 C 
ATOM     17  C   UNL A   1      33.756  27.909  26.254  1.00  0.00     0.022 C 
BRANCH  13  18
ATOM     18  C   UNL A   1      32.811  26.092  22.350  1.00  0.00     0.240 C 
ATOM     19  N   UNL A   1      31.652  25.494  21.946  1.00  0.00    -0.368 N 
ATOM     20  H   UNL A   1      31.621  25.010  21.090  1.00  0.00     0.159 HD
ATOM     21  H   UNL A   1      30.848  25.547  22.512  1.00  0.00     0.159 HD
ATOM     22  O   UNL A   1      33.822  25.998  21.656  1.00  0.00    -0.273 OA
ENDBRANCH  13  18
ENDBRANCH   7  12
ENDBRANCH   4   6
ENDBRANCH   3   4
ENDBRANCH   2   3
ENDBRANCH   1   2
BRANCH   1  23
ATOM     23  O   UNL A   1      39.385  23.414  26.746  1.00  0.00    -0.458 OA
BRANCH  23  24
ATOM     24  C   UNL A   1      40.535  24.123  26.819  1.00  0.00     0.338 C 
ATOM     25  O   UNL A   1      41.591  23.882  26.257  1.00  0.00    -0.246 OA
BRANCH  24  26
ATOM     26  C   UNL A   1      40.334  25.317  27.658  1.00  0.00     0.060 A 
ATOM     27  C   UNL A   1      41.278  26.336  27.606  1.00  0.00     0.016 A 
ATOM     28  C   UNL A   1      39.313  25.363  28.602  1.00  0.00     0.016 A 
ATOM     29  C   UNL A   1      41.279  27.347  28.563  1.00  0.00     0.010 A 
ATOM     30  C   UNL A   1      39.245  26.443  29.492  1.00  0.00     0.010 A 
ATOM     31  C   UNL A   1      40.253  27.427  29.514  1.00  0.00    -0.014 A 
BRANCH  31  32
ATOM     32  C   UNL A   1      40.262  28.508  30.544  1.00  0.00     0.031 A 
ATOM     33  C   UNL A   1      41.255  28.464  31.680  1.00  0.00     0.074 A 
ATOM     34  C   UNL A   1      39.398  29.543  30.465  1.00  0.00     0.049 A 
ATOM     35  N   UNL A   1      41.298  29.187  32.770  1.00  0.00    -0.248 NA
ATOM     36  C   UNL A   1      42.330  27.461  31.588  1.00  0.00     0.031 C 
ATOM     37  C   UNL A   1      38.409  29.746  29.404  1.00  0.00     0.029 A 
ATOM     38  N   UNL A   1      39.218  30.628  31.289  1.00  0.00    -0.354 N 
ATOM     39  C   UNL A   1      42.354  28.683  33.522  1.00  0.00     0.074 A 
ATOM     40  C   UNL A   1      42.931  27.596  32.762  1.00  0.00     0.031 C 
ATOM     41  C   UNL A   1      37.756  30.897  29.619  1.00  0.00     0.029 A 
ATOM     42  C   UNL A   1      38.210  31.471  30.880  1.00  0.00     0.049 A 
ATOM     43  H   UNL A   1      39.758  30.786  32.097  1.00  0.00     0.167 HD
ATOM     44  C   UNL A   1      42.798  29.089  34.737  1.00  0.00     0.037 A 
ATOM     45  C   UNL A   1      37.673  32.557  31.470  1.00  0.00     0.037 A 
ATOM     46  C   UNL A   1      42.273  30.222  35.454  1.00  0.00     0.049 A 
ATOM     47  C   UNL A   1      38.187  32.993  32.812  1.00  0.00     0.074 A 
ATOM     48  C   UNL A   1      42.673  30.726  36.680  1.00  0.00     0.029 A 
ATOM     49  N   UNL A   1      41.252  31.044  35.000  1.00  0.00    -0.354 N 
ATOM     50  N   UNL A   1      39.141  32.463  33.540  1.00  0.00    -0.248 NA
ATOM     51  C   UNL A   1      37.539  34.161  33.426  1.00  0.00     0.031 C 
ATOM     52  C   UNL A   1      41.876  31.836  36.980  1.00  0.00     0.029 A 
ATOM     53  C   UNL A   1      41.005  32.046  35.924  1.00  0.00     0.049 A 
ATOM     54  H   UNL A   1      40.773  30.931  34.147  1.00  0.00     0.167 HD
ATOM     55  C   UNL A   1      39.211  33.235  34.693  1.00  0.00     0.074 A 
ATOM     56  C   UNL A   1      38.218  34.282  34.558  1.00  0.00     0.031 C 
ATOM     57  C   UNL A   1      40.019  33.085  35.771  1.00  0.00     0.037 A 
BRANCH  44  58
ATOM     58  C   UNL A   1      43.888  28.285  35.392  1.00  0.00     0.058 A 
ATOM     59  C   UNL A   1      43.613  27.189  36.223  1.00  0.00     0.135 A 
ATOM     60  C   UNL A   1      45.236  28.591  35.136  1.00  0.00     0.135 A 
ATOM     61  F   UNL A   1      42.345  26.862  36.514  1.00  0.00    -0.206 F 
ATOM     62  C   UNL A   1      44.636  26.434  36.792  1.00  0.00     0.059 A 
ATOM     63  C   UNL A   1      46.274  27.837  35.676  1.00  0.00     0.059 A 
ATOM     64  F   UNL A   1      45.554  29.630  34.348  1.00  0.00    -0.206 F 
ATOM     65  C   UNL A   1      45.964  26.767  36.513  1.00  0.00     0.060 A 
BRANCH  65  66
ATOM     66  S   UNL A   1      47.281  25.772  37.245  1.00  0.00     0.124 S 
ATOM     67  O   UNL A   1      48.429  26.167  36.434  1.00  0.00    -0.237 OA
ATOM     68  O   UNL A   1      47.293  26.235  38.629  1.00  0.00    -0.237 OA
ATOM     69  O   UNL A   1      46.819  24.401  37.051  1.00  0.00    -0.744 OA
ENDBRANCH  65  66
ENDBRANCH  44  58
BRANCH  45  70
ATOM     70  C   UNL A   1      36.543  33.272  30.816  1.00  0.00     0.058 A 
ATOM     71  C   UNL A   1      35.236  33.177  31.315  1.00  0.00     0.135 A 
ATOM     72  C   UNL A   1      36.755  34.081  29.687  1.00  0.00     0.135 A 
ATOM     73  F   UNL A   1      34.981  32.406  32.383  1.00  0.00    -0.206 F 
ATOM     74  C   UNL A   1      34.178  33.853  30.715  1.00  0.00     0.059 A 
ATOM     75  C   UNL A   1      35.720  34.787  29.088  1.00  0.00     0.059 A 
ATOM     76  F   UNL A   1      37.990  34.214  29.178  1.00  0.00    -0.206 F 
ATOM     77  C   UNL A   1      34.431  34.659  29.604  1.00  0.00     0.060 A 
BRANCH  77  78
ATOM     78  S   UNL A   1      33.066  35.582  28.864  1.00  0.00     0.124 S 
ATOM     79  O   UNL A   1      33.779  36.628  28.141  1.00  0.00    -0.237 OA
ATOM     80  O   UNL A   1      32.413  34.568  28.042  1.00  0.00    -0.237 OA
ATOM     81  O   UNL A   1      32.298  36.026  30.024  1.00  0.00    -0.744 OA
ENDBRANCH  77  78
ENDBRANCH  45  70
BRANCH  57  82
ATOM     82  C   UNL A   1      39.883  34.091  36.877  1.00  0.00     0.058 A 
ATOM     83  C   UNL A   1      40.466  35.363  36.787  1.00  0.00     0.135 A 
ATOM     84  C   UNL A   1      39.126  33.793  38.020  1.00  0.00     0.135 A 
ATOM     85  F   UNL A   1      41.207  35.693  35.715  1.00  0.00    -0.206 F 
ATOM     86  C   UNL A   1      40.320  36.302  37.802  1.00  0.00     0.059 A 
ATOM     87  C   UNL A   1      38.948  34.723  39.039  1.00  0.00     0.059 A 
ATOM     88  F   UNL A   1      38.542  32.591  38.151  1.00  0.00    -0.206 F 
ATOM     89  C   UNL A   1      39.560  35.972  38.926  1.00  0.00     0.060 A 
BRANCH  89  90
ATOM     90  S   UNL A   1      39.349  37.207  40.226  1.00  0.00     0.124 S 
ATOM     91  O   UNL A   1      40.726  37.408  40.664  1.00  0.00    -0.237 OA
ATOM     92  O   UNL A   1      38.744  38.323  39.505  1.00  0.00    -0.237 OA
ATOM     93  O   UNL A   1      38.474  36.542  41.186  1.00  0.00    -0.744 OA
ENDBRANCH  89  90
ENDBRANCH  57  82
ENDBRANCH  31  32
ENDBRANCH  24  26
ENDBRANCH  23  24
ENDBRANCH   1  23
TORSDOF 16
ENDMDL
MODEL 2
REMARK VINA RESULT:     -11.2      1.515      8.583
REMARK SMILES NC(=O)[C@@H]1CCCCN1c1cncc(C(=O)OCCOC(=O)c2ccc(-c3c4nc(c(-c5c(F)cc(S(=O)(=O)[O-])cc5F)c5ccc([nH]5)c(-c5c(F)cc(S(=O)(=O)[O-])cc5F)c5nc(c(-c6c(F)cc(S(=O)(=O)[O-])cc6F)c6ccc3[nH]6)C=C5)C=C4)cc2)n1
REMARK SMILES IDX 19 1 18 2 17 3 15 4 16 5 14 6 10 7 11 8 89 9 12 10 13 11
REMARK SMILES IDX 9 12 4 13 5 14 6 15 8 16 7 17 2 18 1 19 3 22 20 23 21 24
REMARK SMILES IDX 22 25 23 26 24 27 88 28 25 29 87 30 26 31 27 32 28 33 81 34
REMARK SMILES IDX 29 35 86 36 80 37 82 38 30 39 85 40 79 41 78 42 31 44 65 45
REMARK SMILES IDX 44 46 64 47 45 48 48 49 63 50 83 51 46 52 47 53 62 55 84 56
REMARK SMILES IDX 49 57 32 58 33 59 42 60 34 61 35 62 41 63 43 64 36 65 37 66
REMARK SMILES IDX 38 67 39 68 40 69 66 70 67 71 76 72 68 73 69 74 75 75 77 76
REMARK SMILES IDX 70 77 71 78 72 79 73 80 74 81 50 82 51 83 60 84 52 85 53 86
REMARK SMILES IDX 59 87 61 88 54 89 55 90 56 91 57 92 58 93
REMARK H PARENT 1 20 1 21 82 43 48 54
REMARK Flexibility Score: inf
ROOT
ATOM      1  C   UNL A   1      40.888  23.129  26.388  1.00  0.00     0.275 C 
ENDROOT
BRANCH   1   2
ATOM      2  C   UNL A   1      39.957  21.917  26.333  1.00  0.00     0.275 C 
BRANCH   2   3
ATOM      3  O   UNL A   1      38.599  22.308  26.040  1.00  0.00    -0.457 OA
BRANCH   3   4
ATOM      4  C   UNL A   1      37.882  21.432  25.285  1.00  0.00     0.358 C 
ATOM      5  O   UNL A   1      38.135  20.253  25.119  1.00  0.00    -0.244 OA
BRANCH   4   6
ATOM      6  C   UNL A   1      36.675  22.082  24.720  1.00  0.00     0.169 A 
ATOM      7  C   UNL A   1      34.522  22.858  24.960  1.00  0.00     0.148 A 
ATOM      8  C   UNL A   1      34.589  23.320  23.638  1.00  0.00     0.157 A 
ATOM      9  N   UNL A   1      35.562  22.183  25.500  1.00  0.00    -0.220 NA
ATOM     10  N   UNL A   1      35.688  23.219  22.854  1.00  0.00    -0.258 NA
ATOM     11  C   UNL A   1      36.744  22.625  23.445  1.00  0.00     0.147 A 
BRANCH   7  12
ATOM     12  N   UNL A   1      33.433  23.138  25.746  1.00  0.00    -0.343 N 
ATOM     13  C   UNL A   1      32.300  22.212  25.926  1.00  0.00     0.172 C 
ATOM     14  C   UNL A   1      31.039  22.852  25.337  1.00  0.00     0.035 C 
ATOM     15  C   UNL A   1      30.804  24.229  25.962  1.00  0.00     0.004 C 
ATOM     16  C   UNL A   1      33.301  24.461  26.339  1.00  0.00     0.119 C 
ATOM     17  C   UNL A   1      32.032  25.128  25.801  1.00  0.00     0.022 C 
BRANCH  13  18
ATOM     18  C   UNL A   1      32.501  20.759  25.444  1.00  0.00     0.240 C 
ATOM     19  N   UNL A   1      33.149  19.904  26.287  1.00  0.00    -0.368 N 
ATOM     20  H   UNL A   1      33.300  18.969  26.020  1.00  0.00     0.159 HD
ATOM     21  H   UNL A   1      33.467  20.223  27.163  1.00  0.00     0.159 HD
ATOM     22  O   UNL A   1      32.132  20.366  24.338  1.00  0.00    -0.273 OA
ENDBRANCH  13  18
ENDBRANCH   7  12
ENDBRANCH   4   6
ENDBRANCH   3   4
ENDBRANCH   2   3
ENDBRANCH   1   2
BRANCH   1  23
ATOM     23  O   UNL A   1      40.120  24.345  26.354  1.00  0.00    -0.458 OA
BRANCH  23  24
ATOM     24  C   UNL A   1      40.831  25.487  26.211  1.00  0.00     0.338 C 
ATOM     25  O   UNL A   1      41.320  25.933  25.187  1.00  0.00    -0.246 OA
BRANCH  24  26
ATOM     26  C   UNL A   1      40.900  26.196  27.500  1.00  0.00     0.060 A 
ATOM     27  C   UNL A   1      39.959  25.897  28.479  1.00  0.00     0.016 A 
ATOM     28  C   UNL A   1      41.782  27.256  27.686  1.00  0.00     0.016 A 
ATOM     29  C   UNL A   1      39.813  26.717  29.594  1.00  0.00     0.010 A 
ATOM     30  C   UNL A   1      41.713  28.012  28.865  1.00  0.00     0.010 A 
ATOM     31  C   UNL A   1      40.699  27.780  29.815  1.00  0.00    -0.014 A 
BRANCH  31  32
ATOM     32  C   UNL A   1      40.535  28.664  31.008  1.00  0.00     0.031 A 
ATOM     33  C   UNL A   1      39.447  29.710  31.032  1.00  0.00     0.074 A 
ATOM     34  C   UNL A   1      41.341  28.527  32.082  1.00  0.00     0.049 A 
ATOM     35  N   UNL A   1      39.264  30.694  31.875  1.00  0.00    -0.248 NA
ATOM     36  C   UNL A   1      38.445  29.656  29.954  1.00  0.00     0.031 C 
ATOM     37  C   UNL A   1      42.409  27.535  32.224  1.00  0.00     0.029 A 
ATOM     38  N   UNL A   1      41.384  29.222  33.267  1.00  0.00    -0.354 N 
ATOM     39  C   UNL A   1      38.175  31.413  31.394  1.00  0.00     0.074 A 
ATOM     40  C   UNL A   1      37.733  30.749  30.187  1.00  0.00     0.031 C 
ATOM     41  C   UNL A   1      42.972  27.658  33.434  1.00  0.00     0.029 A 
ATOM     42  C   UNL A   1      42.374  28.796  34.122  1.00  0.00     0.049 A 
ATOM     43  H   UNL A   1      40.764  29.956  33.484  1.00  0.00     0.167 HD
ATOM     44  C   UNL A   1      37.601  32.527  31.910  1.00  0.00     0.037 A 
ATOM     45  C   UNL A   1      42.793  29.288  35.304  1.00  0.00     0.037 A 
ATOM     46  C   UNL A   1      37.993  33.137  33.155  1.00  0.00     0.049 A 
ATOM     47  C   UNL A   1      42.135  30.518  35.862  1.00  0.00     0.074 A 
ATOM     48  C   UNL A   1      37.455  34.254  33.772  1.00  0.00     0.029 A 
ATOM     49  N   UNL A   1      39.001  32.671  33.983  1.00  0.00    -0.354 N 
ATOM     50  N   UNL A   1      41.151  31.225  35.358  1.00  0.00    -0.248 NA
ATOM     51  C   UNL A   1      42.657  31.033  37.136  1.00  0.00     0.031 C 
ATOM     52  C   UNL A   1      38.157  34.478  34.962  1.00  0.00     0.029 A 
ATOM     53  C   UNL A   1      39.107  33.479  35.103  1.00  0.00     0.049 A 
ATOM     54  H   UNL A   1      39.561  31.881  33.802  1.00  0.00     0.167 HD
ATOM     55  C   UNL A   1      40.933  32.263  36.256  1.00  0.00     0.074 A 
ATOM     56  C   UNL A   1      41.872  32.081  37.344  1.00  0.00     0.031 C 
ATOM     57  C   UNL A   1      40.041  33.281  36.181  1.00  0.00     0.037 A 
BRANCH  44  58
ATOM     58  C   UNL A   1      36.504  33.185  31.119  1.00  0.00     0.058 A 
ATOM     59  C   UNL A   1      35.155  33.099  31.493  1.00  0.00     0.135 A 
ATOM     60  C   UNL A   1      36.822  33.962  29.991  1.00  0.00     0.135 A 
ATOM     61  F   UNL A   1      34.794  32.358  32.552  1.00  0.00    -0.206 F 
ATOM     62  C   UNL A   1      34.157  33.745  30.768  1.00  0.00     0.059 A 
ATOM     63  C   UNL A   1      35.843  34.634  29.265  1.00  0.00     0.059 A 
ATOM     64  F   UNL A   1      38.097  34.077  29.589  1.00  0.00    -0.206 F 
ATOM     65  C   UNL A   1      34.511  34.510  29.654  1.00  0.00     0.060 A 
BRANCH  65  66
ATOM     66  S   UNL A   1      33.209  35.355  28.731  1.00  0.00     0.124 S 
ATOM     67  O   UNL A   1      33.990  36.234  27.866  1.00  0.00    -0.237 OA
ATOM     68  O   UNL A   1      32.529  34.249  28.063  1.00  0.00    -0.237 OA
ATOM     69  O   UNL A   1      32.434  36.024  29.771  1.00  0.00    -0.744 OA
ENDBRANCH  65  66
ENDBRANCH  44  58
BRANCH  45  70
ATOM     70  C   UNL A   1      43.934  28.645  36.012  1.00  0.00     0.058 A 
ATOM     71  C   UNL A   1      45.245  29.117  35.854  1.00  0.00     0.135 A 
ATOM     72  C   UNL A   1      43.730  27.557  36.875  1.00  0.00     0.135 A 
ATOM     73  F   UNL A   1      45.493  30.146  35.030  1.00  0.00    -0.206 F 
ATOM     74  C   UNL A   1      46.315  28.528  36.522  1.00  0.00     0.059 A 
ATOM     75  C   UNL A   1      44.778  26.970  37.574  1.00  0.00     0.059 A 
ATOM     76  F   UNL A   1      42.492  27.075  37.069  1.00  0.00    -0.206 F 
ATOM     77  C   UNL A   1      46.070  27.457  37.383  1.00  0.00     0.060 A 
BRANCH  77  78
ATOM     78  S   UNL A   1      47.452  26.734  38.294  1.00  0.00     0.124 S 
ATOM     79  O   UNL A   1      47.282  25.315  38.003  1.00  0.00    -0.237 OA
ATOM     80  O   UNL A   1      48.605  27.380  37.676  1.00  0.00    -0.237 OA
ATOM     81  O   UNL A   1      47.185  27.132  39.673  1.00  0.00    -0.744 OA
ENDBRANCH  77  78
ENDBRANCH  45  70
BRANCH  57  82
ATOM     82  C   UNL A   1      40.018  34.260  37.319  1.00  0.00     0.058 A 
ATOM     83  C   UNL A   1      40.736  35.464  37.265  1.00  0.00     0.135 A 
ATOM     84  C   UNL A   1      39.238  34.008  38.457  1.00  0.00     0.135 A 
ATOM     85  F   UNL A   1      41.504  35.747  36.199  1.00  0.00    -0.206 F 
ATOM     86  C   UNL A   1      40.695  36.380  38.310  1.00  0.00     0.059 A 
ATOM     87  C   UNL A   1      39.164  34.919  39.506  1.00  0.00     0.059 A 
ATOM     88  F   UNL A   1      38.527  32.873  38.553  1.00  0.00    -0.206 F 
ATOM     89  C   UNL A   1      39.907  36.098  39.429  1.00  0.00     0.060 A 
BRANCH  89  90
ATOM     90  S   UNL A   1      39.835  37.306  40.768  1.00  0.00     0.124 S 
ATOM     91  O   UNL A   1      41.236  37.391  41.162  1.00  0.00    -0.237 OA
ATOM     92  O   UNL A   1      39.291  38.485  40.100  1.00  0.00    -0.237 OA
ATOM     93  O   UNL A   1      38.944  36.680  41.741  1.00  0.00    -0.744 OA
ENDBRANCH  89  90
ENDBRANCH  57  82
ENDBRANCH  31  32
ENDBRANCH  24  26
ENDBRANCH  23  24
ENDBRANCH   1  23
TORSDOF 16
ENDMDL
MODEL 3
REMARK VINA RESULT:     -11.1      1.567      2.126
REMARK SMILES NC(=O)[C@@H]1CCCCN1c1cncc(C(=O)OCCOC(=O)c2ccc(-c3c4nc(c(-c5c(F)cc(S(=O)(=O)[O-])cc5F)c5ccc([nH]5)c(-c5c(F)cc(S(=O)(=O)[O-])cc5F)c5nc(c(-c6c(F)cc(S(=O)(=O)[O-])cc6F)c6ccc3[nH]6)C=C5)C=C4)cc2)n1
REMARK SMILES IDX 19 1 18 2 17 3 15 4 16 5 14 6 10 7 11 8 89 9 12 10 13 11
REMARK SMILES IDX 9 12 4 13 5 14 6 15 8 16 7 17 2 18 1 19 3 22 20 23 21 24
REMARK SMILES IDX 22 25 23 26 24 27 88 28 25 29 87 30 26 31 27 32 28 33 81 34
REMARK SMILES IDX 29 35 86 36 80 37 82 38 30 39 85 40 79 41 78 42 31 44 65 45
REMARK SMILES IDX 44 46 64 47 45 48 48 49 63 50 83 51 46 52 47 53 62 55 84 56
REMARK SMILES IDX 49 57 32 58 33 59 42 60 34 61 35 62 41 63 43 64 36 65 37 66
REMARK SMILES IDX 38 67 39 68 40 69 66 70 67 71 76 72 68 73 69 74 75 75 77 76
REMARK SMILES IDX 70 77 71 78 72 79 73 80 74 81 50 82 51 83 60 84 52 85 53 86
REMARK SMILES IDX 59 87 61 88 54 89 55 90 56 91 57 92 58 93
REMARK H PARENT 1 20 1 21 82 43 48 54
REMARK Flexibility Score: inf
ROOT
ATOM      1  C   UNL A   1      41.061  22.048  26.134  1.00  0.00     0.275 C 
ENDROOT
BRANCH   1   2
ATOM      2  C   UNL A   1      39.807  21.196  26.334  1.00  0.00     0.275 C 
BRANCH   2   3
ATOM      3  O   UNL A   1      38.633  21.854  25.814  1.00  0.00    -0.457 OA
BRANCH   3   4
ATOM      4  C   UNL A   1      37.804  21.077  25.066  1.00  0.00     0.358 C 
ATOM      5  O   UNL A   1      37.927  19.883  24.863  1.00  0.00    -0.244 OA
BRANCH   4   6
ATOM      6  C   UNL A   1      36.651  21.863  24.562  1.00  0.00     0.169 A 
ATOM      7  C   UNL A   1      34.527  22.701  24.838  1.00  0.00     0.148 A 
ATOM      8  C   UNL A   1      34.670  23.349  23.603  1.00  0.00     0.157 A 
ATOM      9  N   UNL A   1      35.512  21.903  25.307  1.00  0.00    -0.220 NA
ATOM     10  N   UNL A   1      35.796  23.311  22.853  1.00  0.00    -0.258 NA
ATOM     11  C   UNL A   1      36.798  22.584  23.386  1.00  0.00     0.147 A 
BRANCH   7  12
ATOM     12  N   UNL A   1      33.419  22.915  25.617  1.00  0.00    -0.343 N 
ATOM     13  C   UNL A   1      32.193  22.099  25.534  1.00  0.00     0.172 C 
ATOM     14  C   UNL A   1      31.041  22.983  25.049  1.00  0.00     0.035 C 
ATOM     15  C   UNL A   1      30.894  24.206  25.957  1.00  0.00     0.004 C 
ATOM     16  C   UNL A   1      33.371  24.082  26.488  1.00  0.00     0.119 C 
ATOM     17  C   UNL A   1      32.209  24.983  26.058  1.00  0.00     0.022 C 
BRANCH  13  18
ATOM     18  C   UNL A   1      32.289  20.774  24.746  1.00  0.00     0.240 C 
ATOM     19  N   UNL A   1      32.201  20.847  23.386  1.00  0.00    -0.368 N 
ATOM     20  H   UNL A   1      32.256  20.027  22.845  1.00  0.00     0.159 HD
ATOM     21  H   UNL A   1      32.080  21.720  22.947  1.00  0.00     0.159 HD
ATOM     22  O   UNL A   1      32.409  19.679  25.293  1.00  0.00    -0.273 OA
ENDBRANCH  13  18
ENDBRANCH   7  12
ENDBRANCH   4   6
ENDBRANCH   3   4
ENDBRANCH   2   3
ENDBRANCH   1   2
BRANCH   1  23
ATOM     23  O   UNL A   1      41.034  23.183  27.018  1.00  0.00    -0.458 OA
BRANCH  23  24
ATOM     24  C   UNL A   1      41.600  24.315  26.541  1.00  0.00     0.338 C 
ATOM     25  O   UNL A   1      42.245  24.445  25.513  1.00  0.00    -0.246 OA
BRANCH  24  26
ATOM     26  C   UNL A   1      41.280  25.446  27.428  1.00  0.00     0.060 A 
ATOM     27  C   UNL A   1      42.134  26.543  27.448  1.00  0.00     0.016 A 
ATOM     28  C   UNL A   1      40.237  25.361  28.346  1.00  0.00     0.016 A 
ATOM     29  C   UNL A   1      42.028  27.502  28.450  1.00  0.00     0.010 A 
ATOM     30  C   UNL A   1      40.059  26.388  29.283  1.00  0.00     0.010 A 
ATOM     31  C   UNL A   1      40.978  27.451  29.377  1.00  0.00    -0.014 A 
BRANCH  31  32
ATOM     32  C   UNL A   1      40.872  28.478  30.456  1.00  0.00     0.031 A 
ATOM     33  C   UNL A   1      41.831  28.454  31.622  1.00  0.00     0.074 A 
ATOM     34  C   UNL A   1      39.935  29.447  30.395  1.00  0.00     0.049 A 
ATOM     35  N   UNL A   1      41.785  29.124  32.744  1.00  0.00    -0.248 NA
ATOM     36  C   UNL A   1      42.982  27.540  31.520  1.00  0.00     0.031 C 
ATOM     37  C   UNL A   1      38.965  29.626  29.312  1.00  0.00     0.029 A 
ATOM     38  N   UNL A   1      39.646  30.474  31.262  1.00  0.00    -0.354 N 
ATOM     39  C   UNL A   1      42.854  28.665  33.508  1.00  0.00     0.074 A 
ATOM     40  C   UNL A   1      43.535  27.663  32.718  1.00  0.00     0.031 C 
ATOM     41  C   UNL A   1      38.219  30.713  29.557  1.00  0.00     0.029 A 
ATOM     42  C   UNL A   1      38.589  31.257  30.859  1.00  0.00     0.049 A 
ATOM     43  H   UNL A   1      40.148  30.633  32.094  1.00  0.00     0.167 HD
ATOM     44  C   UNL A   1      43.228  29.043  34.755  1.00  0.00     0.037 A 
ATOM     45  C   UNL A   1      37.952  32.269  31.479  1.00  0.00     0.037 A 
ATOM     46  C   UNL A   1      42.595  30.098  35.505  1.00  0.00     0.049 A 
ATOM     47  C   UNL A   1      38.390  32.677  32.857  1.00  0.00     0.074 A 
ATOM     48  C   UNL A   1      42.918  30.570  36.766  1.00  0.00     0.029 A 
ATOM     49  N   UNL A   1      41.529  30.861  35.055  1.00  0.00    -0.354 N 
ATOM     50  N   UNL A   1      39.359  32.185  33.591  1.00  0.00    -0.248 NA
ATOM     51  C   UNL A   1      37.635  33.761  33.502  1.00  0.00     0.031 C 
ATOM     52  C   UNL A   1      42.029  31.600  37.090  1.00  0.00     0.029 A 
ATOM     53  C   UNL A   1      41.176  31.795  36.015  1.00  0.00     0.049 A 
ATOM     54  H   UNL A   1      41.086  30.753  34.182  1.00  0.00     0.167 HD
ATOM     55  C   UNL A   1      39.335  32.903  34.781  1.00  0.00     0.074 A 
ATOM     56  C   UNL A   1      38.268  33.877  34.661  1.00  0.00     0.031 C 
ATOM     57  C   UNL A   1      40.118  32.762  35.878  1.00  0.00     0.037 A 
BRANCH  44  58
ATOM     58  C   UNL A   1      44.356  28.293  35.409  1.00  0.00     0.058 A 
ATOM     59  C   UNL A   1      45.692  28.706  35.299  1.00  0.00     0.135 A 
ATOM     60  C   UNL A   1      44.081  27.169  36.206  1.00  0.00     0.135 A 
ATOM     61  F   UNL A   1      46.012  29.763  34.538  1.00  0.00    -0.206 F 
ATOM     62  C   UNL A   1      46.719  28.020  35.941  1.00  0.00     0.059 A 
ATOM     63  C   UNL A   1      45.090  26.481  36.875  1.00  0.00     0.059 A 
ATOM     64  F   UNL A   1      42.820  26.732  36.345  1.00  0.00    -0.206 F 
ATOM     65  C   UNL A   1      46.408  26.907  36.727  1.00  0.00     0.060 A 
BRANCH  65  66
ATOM     66  S   UNL A   1      47.748  26.035  37.567  1.00  0.00     0.124 S 
ATOM     67  O   UNL A   1      48.748  27.090  37.692  1.00  0.00    -0.237 OA
ATOM     68  O   UNL A   1      47.115  25.610  38.812  1.00  0.00    -0.237 OA
ATOM     69  O   UNL A   1      48.084  24.957  36.642  1.00  0.00    -0.744 OA
ENDBRANCH  65  66
ENDBRANCH  44  58
BRANCH  45  70
ATOM     70  C   UNL A   1      36.791  32.928  30.821  1.00  0.00     0.058 A 
ATOM     71  C   UNL A   1      35.475  32.633  31.204  1.00  0.00     0.135 A 
ATOM     72  C   UNL A   1      36.979  33.881  29.807  1.00  0.00     0.135 A 
ATOM     73  F   UNL A   1      35.243  31.720  32.159  1.00  0.00    -0.206 F 
ATOM     74  C   UNL A   1      34.385  33.254  30.600  1.00  0.00     0.059 A 
ATOM     75  C   UNL A   1      35.909  34.535  29.209  1.00  0.00     0.059 A 
ATOM     76  F   UNL A   1      38.220  34.206  29.412  1.00  0.00    -0.206 F 
ATOM     77  C   UNL A   1      34.613  34.207  29.606  1.00  0.00     0.060 A 
BRANCH  77  78
ATOM     78  S   UNL A   1      33.200  35.055  28.867  1.00  0.00     0.124 S 
ATOM     79  O   UNL A   1      33.839  36.224  28.273  1.00  0.00    -0.237 OA
ATOM     80  O   UNL A   1      32.693  34.058  27.930  1.00  0.00    -0.237 OA
ATOM     81  O   UNL A   1      32.336  35.321  30.013  1.00  0.00    -0.744 OA
ENDBRANCH  77  78
ENDBRANCH  45  70
BRANCH  57  82
ATOM     82  C   UNL A   1      39.872  33.700  37.024  1.00  0.00     0.058 A 
ATOM     83  C   UNL A   1      40.388  35.004  37.028  1.00  0.00     0.135 A 
ATOM     84  C   UNL A   1      39.076  33.303  38.109  1.00  0.00     0.135 A 
ATOM     85  F   UNL A   1      41.163  35.428  36.016  1.00  0.00    -0.206 F 
ATOM     86  C   UNL A   1      40.139  35.879  38.080  1.00  0.00     0.059 A 
ATOM     87  C   UNL A   1      38.796  34.167  39.162  1.00  0.00     0.059 A 
ATOM     88  F   UNL A   1      38.552  32.067  38.147  1.00  0.00    -0.206 F 
ATOM     89  C   UNL A   1      39.343  35.451  39.144  1.00  0.00     0.060 A 
BRANCH  89  90
ATOM     90  S   UNL A   1      38.999  36.603  40.491  1.00  0.00     0.124 S 
ATOM     91  O   UNL A   1      40.273  36.610  41.202  1.00  0.00    -0.237 OA
ATOM     92  O   UNL A   1      38.664  37.832  39.777  1.00  0.00    -0.237 OA
ATOM     93  O   UNL A   1      37.887  35.975  41.198  1.00  0.00    -0.744 OA
ENDBRANCH  89  90
ENDBRANCH  57  82
ENDBRANCH  31  32
ENDBRANCH  24  26
ENDBRANCH  23  24
ENDBRANCH   1  23
TORSDOF 16
ENDMDL
