MODEL 1
REMARK VINA RESULT:     -11.3      0.000      0.000
REMARK SMILES CCc1cc2ccccc2c(=O)n1CC(=O)OCCOC(=O)c1ccc(-c2c3nc(c(-c4c(F)cc(S(=O)(=O)[O-])cc4F)c4ccc([nH]4)c(-c4c(F)cc(S(=O)(=O)[O-])cc4F)c4nc(c(-c5c(F)cc(S(=O)(=O)[O-])cc5F)c5ccc2[nH]5)C=C4)C=C3)cc1
REMARK SMILES IDX 19 1 18 2 17 3 15 4 16 5 14 6 13 7 3 8 4 9 5 10 11 11 6 12
REMARK SMILES IDX 10 13 12 14 7 15 9 16 8 17 2 18 1 19 20 20 21 21 22 22 23 23
REMARK SMILES IDX 24 24 88 25 25 26 87 27 26 28 27 29 28 30 81 31 29 32 86 33
REMARK SMILES IDX 80 34 82 35 30 36 85 37 79 38 78 39 31 41 65 42 44 43 64 44
REMARK SMILES IDX 45 45 48 46 63 47 83 48 46 49 47 50 62 52 84 53 49 54 32 55
REMARK SMILES IDX 33 56 42 57 34 58 35 59 41 60 43 61 36 62 37 63 38 64 39 65
REMARK SMILES IDX 40 66 66 67 67 68 76 69 68 70 69 71 75 72 77 73 70 74 71 75
REMARK SMILES IDX 72 76 73 77 74 78 50 79 51 80 60 81 52 82 53 83 59 84 61 85
REMARK SMILES IDX 54 86 55 87 56 88 57 89 58 90
REMARK H PARENT 82 40 48 51
REMARK Flexibility Score: inf
ROOT
ATOM      1  C   UNL A   1      38.626  23.340  26.091  1.00  0.00     0.275 C 
ENDROOT
BRANCH   1   2
ATOM      2  C   UNL A   1      37.151  23.732  26.101  1.00  0.00     0.274 C 
BRANCH   2   3
ATOM      3  O   UNL A   1      36.636  23.754  24.755  1.00  0.00    -0.461 OA
BRANCH   3   4
ATOM      4  C   UNL A   1      35.279  23.730  24.639  1.00  0.00     0.326 C 
ATOM      5  O   UNL A   1      34.642  24.349  23.791  1.00  0.00    -0.250 OA
BRANCH   4   6
ATOM      6  C   UNL A   1      34.601  22.792  25.632  1.00  0.00     0.248 C 
BRANCH   6   7
ATOM      7  N   UNL A   1      33.982  21.602  25.066  1.00  0.00    -0.301 N 
ATOM      8  C   UNL A   1      32.641  21.541  24.670  1.00  0.00     0.022 A 
ATOM      9  C   UNL A   1      32.163  20.397  24.138  1.00  0.00     0.030 A 
ATOM     10  C   UNL A   1      32.974  19.187  24.049  1.00  0.00    -0.011 A 
ATOM     11  C   UNL A   1      34.851  20.491  24.983  1.00  0.00     0.259 A 
ATOM     12  C   UNL A   1      32.433  17.978  23.596  1.00  0.00     0.009 A 
ATOM     13  C   UNL A   1      34.293  19.215  24.495  1.00  0.00     0.047 A 
ATOM     14  O   UNL A   1      36.037  20.533  25.305  1.00  0.00    -0.269 OA
ATOM     15  C   UNL A   1      33.202  16.811  23.609  1.00  0.00     0.001 A 
ATOM     16  C   UNL A   1      35.069  18.048  24.507  1.00  0.00     0.014 A 
ATOM     17  C   UNL A   1      34.518  16.845  24.070  1.00  0.00     0.001 A 
BRANCH   8  18
ATOM     18  C   UNL A   1      31.622  22.658  24.889  1.00  0.00     0.051 C 
ATOM     19  C   UNL A   1      30.640  22.683  26.053  1.00  0.00     0.010 C 
ENDBRANCH   8  18
ENDBRANCH   6   7
ENDBRANCH   4   6
ENDBRANCH   3   4
ENDBRANCH   2   3
ENDBRANCH   1   2
BRANCH   1  20
ATOM     20  O   UNL A   1      39.427  24.529  26.170  1.00  0.00    -0.458 OA
BRANCH  20  21
ATOM     21  C   UNL A   1      40.554  24.430  26.918  1.00  0.00     0.338 C 
ATOM     22  O   UNL A   1      41.388  23.542  26.877  1.00  0.00    -0.246 OA
BRANCH  21  23
ATOM     23  C   UNL A   1      40.571  25.537  27.893  1.00  0.00     0.060 A 
ATOM     24  C   UNL A   1      39.491  25.688  28.757  1.00  0.00     0.016 A 
ATOM     25  C   UNL A   1      41.664  26.400  27.988  1.00  0.00     0.016 A 
ATOM     26  C   UNL A   1      39.498  26.728  29.689  1.00  0.00     0.010 A 
ATOM     27  C   UNL A   1      41.723  27.361  28.995  1.00  0.00     0.010 A 
ATOM     28  C   UNL A   1      40.624  27.562  29.837  1.00  0.00    -0.014 A 
BRANCH  28  29
ATOM     29  C   UNL A   1      40.630  28.643  30.861  1.00  0.00     0.031 A 
ATOM     30  C   UNL A   1      39.635  29.776  30.794  1.00  0.00     0.074 A 
ATOM     31  C   UNL A   1      41.520  28.586  31.873  1.00  0.00     0.049 A 
ATOM     32  N   UNL A   1      39.440  30.751  31.645  1.00  0.00    -0.248 NA
ATOM     33  C   UNL A   1      38.757  29.839  29.613  1.00  0.00     0.031 C 
ATOM     34  C   UNL A   1      42.577  27.579  32.013  1.00  0.00     0.029 A 
ATOM     35  N   UNL A   1      41.659  29.364  32.995  1.00  0.00    -0.354 N 
ATOM     36  C   UNL A   1      38.420  31.529  31.110  1.00  0.00     0.074 A 
ATOM     37  C   UNL A   1      38.086  30.962  29.825  1.00  0.00     0.031 C 
ATOM     38  C   UNL A   1      43.197  27.751  33.191  1.00  0.00     0.029 A 
ATOM     39  C   UNL A   1      42.612  28.899  33.874  1.00  0.00     0.049 A 
ATOM     40  H   UNL A   1      41.129  30.178  33.157  1.00  0.00     0.167 HD
ATOM     41  C   UNL A   1      37.784  32.592  31.658  1.00  0.00     0.037 A 
ATOM     42  C   UNL A   1      42.956  29.334  35.101  1.00  0.00     0.037 A 
ATOM     43  C   UNL A   1      38.093  33.134  32.955  1.00  0.00     0.049 A 
ATOM     44  C   UNL A   1      42.234  30.517  35.685  1.00  0.00     0.074 A 
ATOM     45  C   UNL A   1      37.491  34.193  33.610  1.00  0.00     0.029 A 
ATOM     46  N   UNL A   1      39.078  32.646  33.801  1.00  0.00    -0.354 N 
ATOM     47  N   UNL A   1      41.243  31.212  35.178  1.00  0.00    -0.248 NA
ATOM     48  C   UNL A   1      42.675  30.977  37.010  1.00  0.00     0.031 C 
ATOM     49  C   UNL A   1      38.126  34.361  34.845  1.00  0.00     0.029 A 
ATOM     50  C   UNL A   1      39.101  33.385  34.971  1.00  0.00     0.049 A 
ATOM     51  H   UNL A   1      39.671  31.888  33.599  1.00  0.00     0.167 HD
ATOM     52  C   UNL A   1      40.927  32.172  36.131  1.00  0.00     0.074 A 
ATOM     53  C   UNL A   1      41.820  31.961  37.252  1.00  0.00     0.031 C 
ATOM     54  C   UNL A   1      39.985  33.146  36.082  1.00  0.00     0.037 A 
BRANCH  41  55
ATOM     55  C   UNL A   1      36.649  33.210  30.887  1.00  0.00     0.058 A 
ATOM     56  C   UNL A   1      35.316  33.010  31.280  1.00  0.00     0.135 A 
ATOM     57  C   UNL A   1      36.891  34.069  29.804  1.00  0.00     0.135 A 
ATOM     58  F   UNL A   1      35.027  32.184  32.299  1.00  0.00    -0.206 F 
ATOM     59  C   UNL A   1      34.261  33.633  30.622  1.00  0.00     0.059 A 
ATOM     60  C   UNL A   1      35.852  34.724  29.146  1.00  0.00     0.059 A 
ATOM     61  F   UNL A   1      38.146  34.294  29.386  1.00  0.00    -0.206 F 
ATOM     62  C   UNL A   1      34.540  34.496  29.561  1.00  0.00     0.060 A 
BRANCH  62  63
ATOM     63  S   UNL A   1      33.160  35.335  28.753  1.00  0.00     0.124 S 
ATOM     64  O   UNL A   1      33.855  36.315  27.925  1.00  0.00    -0.237 OA
ATOM     65  O   UNL A   1      32.511  34.242  28.033  1.00  0.00    -0.237 OA
ATOM     66  O   UNL A   1      32.396  35.887  29.868  1.00  0.00    -0.744 OA
ENDBRANCH  62  63
ENDBRANCH  41  55
BRANCH  42  67
ATOM     67  C   UNL A   1      43.998  28.620  35.887  1.00  0.00     0.058 A 
ATOM     68  C   UNL A   1      43.654  27.550  36.728  1.00  0.00     0.135 A 
ATOM     69  C   UNL A   1      45.349  28.996  35.828  1.00  0.00     0.135 A 
ATOM     70  F   UNL A   1      42.375  27.155  36.820  1.00  0.00    -0.206 F 
ATOM     71  C   UNL A   1      44.605  26.897  37.505  1.00  0.00     0.059 A 
ATOM     72  C   UNL A   1      46.323  28.341  36.577  1.00  0.00     0.059 A 
ATOM     73  F   UNL A   1      45.733  30.002  35.027  1.00  0.00    -0.206 F 
ATOM     74  C   UNL A   1      45.937  27.303  37.424  1.00  0.00     0.060 A 
BRANCH  74  75
ATOM     75  S   UNL A   1      47.167  26.441  38.429  1.00  0.00     0.124 S 
ATOM     76  O   UNL A   1      48.200  27.460  38.567  1.00  0.00    -0.237 OA
ATOM     77  O   UNL A   1      46.412  26.130  39.639  1.00  0.00    -0.237 OA
ATOM     78  O   UNL A   1      47.523  25.288  37.608  1.00  0.00    -0.744 OA
ENDBRANCH  74  75
ENDBRANCH  42  67
BRANCH  54  79
ATOM     79  C   UNL A   1      39.850  34.040  37.280  1.00  0.00     0.058 A 
ATOM     80  C   UNL A   1      40.531  35.264  37.359  1.00  0.00     0.135 A 
ATOM     81  C   UNL A   1      38.976  33.703  38.325  1.00  0.00     0.135 A 
ATOM     82  F   UNL A   1      41.384  35.628  36.387  1.00  0.00    -0.206 F 
ATOM     83  C   UNL A   1      40.361  36.118  38.442  1.00  0.00     0.059 A 
ATOM     84  C   UNL A   1      38.772  34.554  39.407  1.00  0.00     0.059 A 
ATOM     85  F   UNL A   1      38.293  32.548  38.289  1.00  0.00    -0.206 F 
ATOM     86  C   UNL A   1      39.475  35.757  39.459  1.00  0.00     0.060 A 
BRANCH  86  87
ATOM     87  S   UNL A   1      39.229  36.899  40.835  1.00  0.00     0.124 S 
ATOM     88  O   UNL A   1      40.604  37.246  41.179  1.00  0.00    -0.237 OA
ATOM     89  O   UNL A   1      38.443  37.963  40.219  1.00  0.00    -0.237 OA
ATOM     90  O   UNL A   1      38.519  36.094  41.824  1.00  0.00    -0.744 OA
ENDBRANCH  86  87
ENDBRANCH  54  79
ENDBRANCH  28  29
ENDBRANCH  21  23
ENDBRANCH  20  21
ENDBRANCH   1  20
TORSDOF 16
ENDMDL
MODEL 2
REMARK VINA RESULT:     -11.2      6.057     11.286
REMARK SMILES CCc1cc2ccccc2c(=O)n1CC(=O)OCCOC(=O)c1ccc(-c2c3nc(c(-c4c(F)cc(S(=O)(=O)[O-])cc4F)c4ccc([nH]4)c(-c4c(F)cc(S(=O)(=O)[O-])cc4F)c4nc(c(-c5c(F)cc(S(=O)(=O)[O-])cc5F)c5ccc2[nH]5)C=C4)C=C3)cc1
REMARK SMILES IDX 19 1 18 2 17 3 15 4 16 5 14 6 13 7 3 8 4 9 5 10 11 11 6 12
REMARK SMILES IDX 10 13 12 14 7 15 9 16 8 17 2 18 1 19 20 20 21 21 22 22 23 23
REMARK SMILES IDX 24 24 88 25 25 26 87 27 26 28 27 29 28 30 81 31 29 32 86 33
REMARK SMILES IDX 80 34 82 35 30 36 85 37 79 38 78 39 31 41 65 42 44 43 64 44
REMARK SMILES IDX 45 45 48 46 63 47 83 48 46 49 47 50 62 52 84 53 49 54 32 55
REMARK SMILES IDX 33 56 42 57 34 58 35 59 41 60 43 61 36 62 37 63 38 64 39 65
REMARK SMILES IDX 40 66 66 67 67 68 76 69 68 70 69 71 75 72 77 73 70 74 71 75
REMARK SMILES IDX 72 76 73 77 74 78 50 79 51 80 60 81 52 82 53 83 59 84 61 85
REMARK SMILES IDX 54 86 55 87 56 88 57 89 58 90
REMARK H PARENT 82 40 48 51
REMARK Flexibility Score: inf
ROOT
ATOM      1  C   UNL A   1      32.558  29.002  26.733  1.00  0.00     0.275 C 
ENDROOT
BRANCH   1   2
ATOM      2  C   UNL A   1      32.017  27.761  27.438  1.00  0.00     0.274 C 
BRANCH   2   3
ATOM      3  O   UNL A   1      31.026  27.117  26.613  1.00  0.00    -0.461 OA
BRANCH   3   4
ATOM      4  C   UNL A   1      31.318  25.846  26.220  1.00  0.00     0.326 C 
ATOM      5  O   UNL A   1      31.619  24.933  26.984  1.00  0.00    -0.250 OA
BRANCH   4   6
ATOM      6  C   UNL A   1      31.169  25.625  24.718  1.00  0.00     0.248 C 
BRANCH   6   7
ATOM      7  N   UNL A   1      30.836  26.803  23.930  1.00  0.00    -0.301 N 
ATOM      8  C   UNL A   1      31.794  27.633  23.336  1.00  0.00     0.022 A 
ATOM      9  C   UNL A   1      31.387  28.693  22.608  1.00  0.00     0.030 A 
ATOM     10  C   UNL A   1      29.979  29.060  22.495  1.00  0.00    -0.011 A 
ATOM     11  C   UNL A   1      29.450  27.060  23.843  1.00  0.00     0.259 A 
ATOM     12  C   UNL A   1      29.580  30.223  21.827  1.00  0.00     0.009 A 
ATOM     13  C   UNL A   1      29.018  28.278  23.130  1.00  0.00     0.047 A 
ATOM     14  O   UNL A   1      28.594  26.329  24.338  1.00  0.00    -0.269 OA
ATOM     15  C   UNL A   1      28.235  30.603  21.814  1.00  0.00     0.001 A 
ATOM     16  C   UNL A   1      27.668  28.653  23.117  1.00  0.00     0.014 A 
ATOM     17  C   UNL A   1      27.280  29.821  22.463  1.00  0.00     0.001 A 
BRANCH   8  18
ATOM     18  C   UNL A   1      33.303  27.493  23.535  1.00  0.00     0.051 C 
ATOM     19  C   UNL A   1      34.304  28.578  23.160  1.00  0.00     0.010 C 
ENDBRANCH   8  18
ENDBRANCH   6   7
ENDBRANCH   4   6
ENDBRANCH   3   4
ENDBRANCH   2   3
ENDBRANCH   1   2
BRANCH   1  20
ATOM     20  O   UNL A   1      33.981  29.063  26.919  1.00  0.00    -0.458 OA
BRANCH  20  21
ATOM     21  C   UNL A   1      34.425  30.043  27.745  1.00  0.00     0.338 C 
ATOM     22  O   UNL A   1      33.802  31.017  28.130  1.00  0.00    -0.246 OA
BRANCH  21  23
ATOM     23  C   UNL A   1      35.851  29.803  28.037  1.00  0.00     0.060 A 
ATOM     24  C   UNL A   1      36.210  29.353  29.303  1.00  0.00     0.016 A 
ATOM     25  C   UNL A   1      36.829  29.981  27.057  1.00  0.00     0.016 A 
ATOM     26  C   UNL A   1      37.556  29.116  29.589  1.00  0.00     0.010 A 
ATOM     27  C   UNL A   1      38.155  29.631  27.308  1.00  0.00     0.010 A 
ATOM     28  C   UNL A   1      38.542  29.228  28.589  1.00  0.00    -0.014 A 
BRANCH  28  29
ATOM     29  C   UNL A   1      39.969  28.937  28.902  1.00  0.00     0.031 A 
ATOM     30  C   UNL A   1      40.567  27.585  28.596  1.00  0.00     0.074 A 
ATOM     31  C   UNL A   1      40.736  29.909  29.439  1.00  0.00     0.049 A 
ATOM     32  N   UNL A   1      41.808  27.188  28.720  1.00  0.00    -0.248 NA
ATOM     33  C   UNL A   1      39.657  26.536  28.106  1.00  0.00     0.031 C 
ATOM     34  C   UNL A   1      40.259  31.235  29.843  1.00  0.00     0.029 A 
ATOM     35  N   UNL A   1      42.082  29.951  29.703  1.00  0.00    -0.354 N 
ATOM     36  C   UNL A   1      41.827  25.858  28.318  1.00  0.00     0.074 A 
ATOM     37  C   UNL A   1      40.463  25.488  28.018  1.00  0.00     0.031 C 
ATOM     38  C   UNL A   1      41.306  31.984  30.222  1.00  0.00     0.029 A 
ATOM     39  C   UNL A   1      42.522  31.184  30.127  1.00  0.00     0.049 A 
ATOM     40  H   UNL A   1      42.676  29.173  29.600  1.00  0.00     0.167 HD
ATOM     41  C   UNL A   1      42.888  25.030  28.165  1.00  0.00     0.037 A 
ATOM     42  C   UNL A   1      43.767  31.627  30.384  1.00  0.00     0.037 A 
ATOM     43  C   UNL A   1      44.250  25.411  28.429  1.00  0.00     0.049 A 
ATOM     44  C   UNL A   1      44.928  30.687  30.207  1.00  0.00     0.074 A 
ATOM     45  C   UNL A   1      45.399  24.654  28.282  1.00  0.00     0.029 A 
ATOM     46  N   UNL A   1      44.648  26.662  28.876  1.00  0.00    -0.354 N 
ATOM     47  N   UNL A   1      44.926  29.444  29.785  1.00  0.00    -0.248 NA
ATOM     48  C   UNL A   1      46.262  31.207  30.540  1.00  0.00     0.031 C 
ATOM     49  C   UNL A   1      46.492  25.440  28.663  1.00  0.00     0.029 A 
ATOM     50  C   UNL A   1      46.026  26.697  29.013  1.00  0.00     0.049 A 
ATOM     51  H   UNL A   1      44.042  27.413  29.068  1.00  0.00     0.167 HD
ATOM     52  C   UNL A   1      46.256  29.044  29.779  1.00  0.00     0.074 A 
ATOM     53  C   UNL A   1      47.038  30.180  30.223  1.00  0.00     0.031 C 
ATOM     54  C   UNL A   1      46.785  27.844  29.439  1.00  0.00     0.037 A 
BRANCH  41  55
ATOM     55  C   UNL A   1      42.633  23.645  27.635  1.00  0.00     0.058 A 
ATOM     56  C   UNL A   1      42.695  23.375  26.259  1.00  0.00     0.135 A 
ATOM     57  C   UNL A   1      42.405  22.567  28.505  1.00  0.00     0.135 A 
ATOM     58  F   UNL A   1      42.892  24.373  25.382  1.00  0.00    -0.206 F 
ATOM     59  C   UNL A   1      42.534  22.088  25.761  1.00  0.00     0.059 A 
ATOM     60  C   UNL A   1      42.266  21.264  28.030  1.00  0.00     0.059 A 
ATOM     61  F   UNL A   1      42.335  22.769  29.829  1.00  0.00    -0.206 F 
ATOM     62  C   UNL A   1      42.329  21.036  26.656  1.00  0.00     0.060 A 
BRANCH  62  63
ATOM     63  S   UNL A   1      42.172  19.364  25.991  1.00  0.00     0.124 S 
ATOM     64  O   UNL A   1      40.736  19.279  25.746  1.00  0.00    -0.237 OA
ATOM     65  O   UNL A   1      43.015  19.424  24.800  1.00  0.00    -0.237 OA
ATOM     66  O   UNL A   1      42.675  18.519  27.070  1.00  0.00    -0.744 OA
ENDBRANCH  62  63
ENDBRANCH  41  55
BRANCH  42  67
ATOM     67  C   UNL A   1      43.995  33.041  30.786  1.00  0.00     0.058 A 
ATOM     68  C   UNL A   1      44.027  33.406  32.141  1.00  0.00     0.135 A 
ATOM     69  C   UNL A   1      44.171  34.057  29.834  1.00  0.00     0.135 A 
ATOM     70  F   UNL A   1      43.861  32.471  33.090  1.00  0.00    -0.206 F 
ATOM     71  C   UNL A   1      44.195  34.728  32.538  1.00  0.00     0.059 A 
ATOM     72  C   UNL A   1      44.367  35.383  30.207  1.00  0.00     0.059 A 
ATOM     73  F   UNL A   1      44.166  33.759  28.525  1.00  0.00    -0.206 F 
ATOM     74  C   UNL A   1      44.361  35.710  31.562  1.00  0.00     0.060 A 
BRANCH  74  75
ATOM     75  S   UNL A   1      44.590  37.424  32.089  1.00  0.00     0.124 S 
ATOM     76  O   UNL A   1      44.001  38.154  30.973  1.00  0.00    -0.237 OA
ATOM     77  O   UNL A   1      43.843  37.462  33.342  1.00  0.00    -0.237 OA
ATOM     78  O   UNL A   1      46.039  37.542  32.227  1.00  0.00    -0.744 OA
ENDBRANCH  74  75
ENDBRANCH  42  67
BRANCH  54  79
ATOM     79  C   UNL A   1      48.278  27.699  29.508  1.00  0.00     0.058 A 
ATOM     80  C   UNL A   1      48.908  27.156  30.637  1.00  0.00     0.135 A 
ATOM     81  C   UNL A   1      49.077  28.040  28.406  1.00  0.00     0.135 A 
ATOM     82  F   UNL A   1      48.187  26.820  31.719  1.00  0.00    -0.206 F 
ATOM     83  C   UNL A   1      50.285  26.969  30.678  1.00  0.00     0.059 A 
ATOM     84  C   UNL A   1      50.454  27.839  28.416  1.00  0.00     0.059 A 
ATOM     85  F   UNL A   1      48.519  28.553  27.298  1.00  0.00    -0.206 F 
ATOM     86  C   UNL A   1      51.049  27.309  29.560  1.00  0.00     0.060 A 
BRANCH  86  87
ATOM     87  S   UNL A   1      52.830  27.016  29.610  1.00  0.00     0.124 S 
ATOM     88  O   UNL A   1      52.964  26.230  30.832  1.00  0.00    -0.237 OA
ATOM     89  O   UNL A   1      53.061  26.292  28.364  1.00  0.00    -0.237 OA
ATOM     90  O   UNL A   1      53.396  28.360  29.663  1.00  0.00    -0.744 OA
ENDBRANCH  86  87
ENDBRANCH  54  79
ENDBRANCH  28  29
ENDBRANCH  21  23
ENDBRANCH  20  21
ENDBRANCH   1  20
TORSDOF 16
ENDMDL
MODEL 3
REMARK VINA RESULT:     -11.2      5.501     10.599
REMARK SMILES CCc1cc2ccccc2c(=O)n1CC(=O)OCCOC(=O)c1ccc(-c2c3nc(c(-c4c(F)cc(S(=O)(=O)[O-])cc4F)c4ccc([nH]4)c(-c4c(F)cc(S(=O)(=O)[O-])cc4F)c4nc(c(-c5c(F)cc(S(=O)(=O)[O-])cc5F)c5ccc2[nH]5)C=C4)C=C3)cc1
REMARK SMILES IDX 19 1 18 2 17 3 15 4 16 5 14 6 13 7 3 8 4 9 5 10 11 11 6 12
REMARK SMILES IDX 10 13 12 14 7 15 9 16 8 17 2 18 1 19 20 20 21 21 22 22 23 23
REMARK SMILES IDX 24 24 88 25 25 26 87 27 26 28 27 29 28 30 81 31 29 32 86 33
REMARK SMILES IDX 80 34 82 35 30 36 85 37 79 38 78 39 31 41 65 42 44 43 64 44
REMARK SMILES IDX 45 45 48 46 63 47 83 48 46 49 47 50 62 52 84 53 49 54 32 55
REMARK SMILES IDX 33 56 42 57 34 58 35 59 41 60 43 61 36 62 37 63 38 64 39 65
REMARK SMILES IDX 40 66 66 67 67 68 76 69 68 70 69 71 75 72 77 73 70 74 71 75
REMARK SMILES IDX 72 76 73 77 74 78 50 79 51 80 60 81 52 82 53 83 59 84 61 85
REMARK SMILES IDX 54 86 55 87 56 88 57 89 58 90
REMARK H PARENT 82 40 48 51
REMARK Flexibility Score: inf
ROOT
ATOM      1  C   UNL A   1      33.682  28.596  26.313  1.00  0.00     0.275 C 
ENDROOT
BRANCH   1   2
ATOM      2  C   UNL A   1      33.817  27.088  26.123  1.00  0.00     0.274 C 
BRANCH   2   3
ATOM      3  O   UNL A   1      33.949  26.777  24.722  1.00  0.00    -0.461 OA
BRANCH   3   4
ATOM      4  C   UNL A   1      33.899  25.453  24.402  1.00  0.00     0.326 C 
ATOM      5  O   UNL A   1      34.018  25.008  23.264  1.00  0.00    -0.250 OA
BRANCH   4   6
ATOM      6  C   UNL A   1      33.749  24.540  25.614  1.00  0.00     0.248 C 
BRANCH   6   7
ATOM      7  N   UNL A   1      34.187  23.164  25.435  1.00  0.00    -0.301 N 
ATOM      8  C   UNL A   1      35.521  22.754  25.555  1.00  0.00     0.022 A 
ATOM      9  C   UNL A   1      35.827  21.451  25.389  1.00  0.00     0.030 A 
ATOM     10  C   UNL A   1      34.826  20.465  24.993  1.00  0.00    -0.011 A 
ATOM     11  C   UNL A   1      33.147  22.273  25.091  1.00  0.00     0.259 A 
ATOM     12  C   UNL A   1      35.178  19.139  24.719  1.00  0.00     0.009 A 
ATOM     13  C   UNL A   1      33.506  20.868  24.811  1.00  0.00     0.047 A 
ATOM     14  O   UNL A   1      31.967  22.610  25.004  1.00  0.00    -0.269 OA
ATOM     15  C   UNL A   1      34.219  18.236  24.251  1.00  0.00     0.001 A 
ATOM     16  C   UNL A   1      32.540  19.967  24.344  1.00  0.00     0.014 A 
ATOM     17  C   UNL A   1      32.902  18.651  24.058  1.00  0.00     0.001 A 
BRANCH   8  18
ATOM     18  C   UNL A   1      36.701  23.701  25.763  1.00  0.00     0.051 C 
ATOM     19  C   UNL A   1      38.125  23.226  26.023  1.00  0.00     0.010 C 
ENDBRANCH   8  18
ENDBRANCH   6   7
ENDBRANCH   4   6
ENDBRANCH   3   4
ENDBRANCH   2   3
ENDBRANCH   1   2
BRANCH   1  20
ATOM     20  O   UNL A   1      33.867  28.912  27.702  1.00  0.00    -0.458 OA
BRANCH  20  21
ATOM     21  C   UNL A   1      34.478  30.094  27.961  1.00  0.00     0.338 C 
ATOM     22  O   UNL A   1      33.978  31.204  27.914  1.00  0.00    -0.246 OA
BRANCH  21  23
ATOM     23  C   UNL A   1      35.909  29.841  28.215  1.00  0.00     0.060 A 
ATOM     24  C   UNL A   1      36.291  29.326  29.450  1.00  0.00     0.016 A 
ATOM     25  C   UNL A   1      36.870  30.067  27.228  1.00  0.00     0.016 A 
ATOM     26  C   UNL A   1      37.642  29.076  29.700  1.00  0.00     0.010 A 
ATOM     27  C   UNL A   1      38.199  29.706  27.437  1.00  0.00     0.010 A 
ATOM     28  C   UNL A   1      38.610  29.238  28.690  1.00  0.00    -0.014 A 
BRANCH  28  29
ATOM     29  C   UNL A   1      40.041  28.932  28.962  1.00  0.00     0.031 A 
ATOM     30  C   UNL A   1      40.615  27.572  28.646  1.00  0.00     0.074 A 
ATOM     31  C   UNL A   1      40.835  29.898  29.471  1.00  0.00     0.049 A 
ATOM     32  N   UNL A   1      41.854  27.161  28.735  1.00  0.00    -0.248 NA
ATOM     33  C   UNL A   1      39.679  26.531  28.188  1.00  0.00     0.031 C 
ATOM     34  C   UNL A   1      40.385  31.231  29.882  1.00  0.00     0.029 A 
ATOM     35  N   UNL A   1      42.188  29.925  29.695  1.00  0.00    -0.354 N 
ATOM     36  C   UNL A   1      41.846  25.829  28.339  1.00  0.00     0.074 A 
ATOM     37  C   UNL A   1      40.469  25.473  28.081  1.00  0.00     0.031 C 
ATOM     38  C   UNL A   1      41.452  31.969  30.227  1.00  0.00     0.029 A 
ATOM     39  C   UNL A   1      42.655  31.155  30.100  1.00  0.00     0.049 A 
ATOM     40  H   UNL A   1      42.771  29.140  29.579  1.00  0.00     0.167 HD
ATOM     41  C   UNL A   1      42.892  24.988  28.159  1.00  0.00     0.037 A 
ATOM     42  C   UNL A   1      43.913  31.585  30.318  1.00  0.00     0.037 A 
ATOM     43  C   UNL A   1      44.266  25.354  28.382  1.00  0.00     0.049 A 
ATOM     44  C   UNL A   1      45.056  30.630  30.112  1.00  0.00     0.074 A 
ATOM     45  C   UNL A   1      45.401  24.583  28.205  1.00  0.00     0.029 A 
ATOM     46  N   UNL A   1      44.691  26.602  28.811  1.00  0.00    -0.354 N 
ATOM     47  N   UNL A   1      45.027  29.386  29.697  1.00  0.00    -0.248 NA
ATOM     48  C   UNL A   1      46.405  31.136  30.403  1.00  0.00     0.031 C 
ATOM     49  C   UNL A   1      46.513  25.358  28.549  1.00  0.00     0.029 A 
ATOM     50  C   UNL A   1      46.072  26.622  28.907  1.00  0.00     0.049 A 
ATOM     51  H   UNL A   1      44.100  27.361  29.016  1.00  0.00     0.167 HD
ATOM     52  C   UNL A   1      46.353  28.970  29.653  1.00  0.00     0.074 A 
ATOM     53  C   UNL A   1      47.160  30.098  30.068  1.00  0.00     0.031 C 
ATOM     54  C   UNL A   1      46.857  27.761  29.305  1.00  0.00     0.037 A 
BRANCH  41  55
ATOM     55  C   UNL A   1      42.605  23.604  27.645  1.00  0.00     0.058 A 
ATOM     56  C   UNL A   1      42.544  23.344  26.267  1.00  0.00     0.135 A 
ATOM     57  C   UNL A   1      42.471  22.516  28.523  1.00  0.00     0.135 A 
ATOM     58  F   UNL A   1      42.648  24.350  25.383  1.00  0.00    -0.206 F 
ATOM     59  C   UNL A   1      42.353  22.057  25.775  1.00  0.00     0.059 A 
ATOM     60  C   UNL A   1      42.304  21.215  28.053  1.00  0.00     0.059 A 
ATOM     61  F   UNL A   1      42.521  22.708  29.850  1.00  0.00    -0.206 F 
ATOM     62  C   UNL A   1      42.243  20.997  26.677  1.00  0.00     0.060 A 
BRANCH  62  63
ATOM     63  S   UNL A   1      42.045  19.328  26.016  1.00  0.00     0.124 S 
ATOM     64  O   UNL A   1      42.900  19.378  24.834  1.00  0.00    -0.237 OA
ATOM     65  O   UNL A   1      42.532  18.500  27.115  1.00  0.00    -0.237 OA
ATOM     66  O   UNL A   1      40.614  19.233  25.750  1.00  0.00    -0.744 OA
ENDBRANCH  62  63
ENDBRANCH  41  55
BRANCH  42  67
ATOM     67  C   UNL A   1      44.168  32.998  30.706  1.00  0.00     0.058 A 
ATOM     68  C   UNL A   1      44.232  33.371  32.058  1.00  0.00     0.135 A 
ATOM     69  C   UNL A   1      44.341  34.004  29.743  1.00  0.00     0.135 A 
ATOM     70  F   UNL A   1      44.070  32.445  33.016  1.00  0.00    -0.206 F 
ATOM     71  C   UNL A   1      44.427  34.693  32.442  1.00  0.00     0.059 A 
ATOM     72  C   UNL A   1      44.563  35.330  30.103  1.00  0.00     0.059 A 
ATOM     73  F   UNL A   1      44.307  33.699  28.436  1.00  0.00    -0.206 F 
ATOM     74  C   UNL A   1      44.588  35.667  31.456  1.00  0.00     0.060 A 
BRANCH  74  75
ATOM     75  S   UNL A   1      44.851  37.380  31.966  1.00  0.00     0.124 S 
ATOM     76  O   UNL A   1      46.150  37.293  32.624  1.00  0.00    -0.237 OA
ATOM     77  O   UNL A   1      44.829  38.088  30.690  1.00  0.00    -0.237 OA
ATOM     78  O   UNL A   1      43.715  37.647  32.844  1.00  0.00    -0.744 OA
ENDBRANCH  74  75
ENDBRANCH  42  67
BRANCH  54  79
ATOM     79  C   UNL A   1      48.349  27.599  29.330  1.00  0.00     0.058 A 
ATOM     80  C   UNL A   1      49.137  27.896  28.208  1.00  0.00     0.135 A 
ATOM     81  C   UNL A   1      49.003  27.212  30.511  1.00  0.00     0.135 A 
ATOM     82  F   UNL A   1      48.558  28.265  27.054  1.00  0.00    -0.206 F 
ATOM     83  C   UNL A   1      50.523  27.802  28.251  1.00  0.00     0.059 A 
ATOM     84  C   UNL A   1      50.390  27.134  30.583  1.00  0.00     0.059 A 
ATOM     85  F   UNL A   1      48.293  26.928  31.615  1.00  0.00    -0.206 F 
ATOM     86  C   UNL A   1      51.141  27.424  29.445  1.00  0.00     0.060 A 
BRANCH  86  87
ATOM     87  S   UNL A   1      52.944  27.352  29.497  1.00  0.00     0.124 S 
ATOM     88  O   UNL A   1      53.169  26.400  30.580  1.00  0.00    -0.237 OA
ATOM     89  O   UNL A   1      53.275  26.877  28.158  1.00  0.00    -0.237 OA
ATOM     90  O   UNL A   1      53.333  28.730  29.782  1.00  0.00    -0.744 OA
ENDBRANCH  86  87
ENDBRANCH  54  79
ENDBRANCH  28  29
ENDBRANCH  21  23
ENDBRANCH  20  21
ENDBRANCH   1  20
TORSDOF 16
ENDMDL
