MODEL 1
REMARK VINA RESULT:     -12.0      0.000      0.000
REMARK SMILES O=C(OCCOC(=O)c1cnccc1C(=O)N1CCC(Cc2ccccc2)CC1)c1ccc(-c2c3nc(c(-c4c(F)cc(S(=O)(=O)[O-])cc4F)c4ccc([nH]4)c(-c4c(F)cc(S(=O)(=O)[O-])cc4F)c4nc(c(-c5c(F)cc(S(=O)(=O)[O-])cc5F)c5ccc2[nH]5)C=C4)C=C3)cc1
REMARK SMILES IDX 4 1 3 2 2 3 1 4 30 5 31 6 95 7 32 8 94 9 33 10 34 11 35 12
REMARK SMILES IDX 88 13 36 14 93 15 87 16 89 17 37 18 92 19 86 20 85 21 38 23
REMARK SMILES IDX 72 24 51 25 71 26 52 27 55 28 70 29 90 30 53 31 54 32 69 34
REMARK SMILES IDX 91 35 56 36 39 37 40 38 49 39 41 40 42 41 48 42 50 43 43 44
REMARK SMILES IDX 44 45 45 46 46 47 47 48 73 49 74 50 83 51 75 52 76 53 82 54
REMARK SMILES IDX 84 55 77 56 78 57 79 58 80 59 81 60 57 61 58 62 67 63 59 64
REMARK SMILES IDX 60 65 66 66 68 67 61 68 62 69 63 70 64 71 65 72 5 73 6 74
REMARK SMILES IDX 7 75 8 76 9 77 10 78 14 79 11 80 13 81 12 82 15 83 16 84
REMARK SMILES IDX 17 85 18 86 29 87 19 88 28 89 20 90 21 91 22 92 23 93 27 94
REMARK SMILES IDX 24 95 26 96 25 97
REMARK H PARENT 89 22 55 33
REMARK Flexibility Score: inf
ROOT
ATOM      1  C   UNL A   1      39.044  23.092  26.568  1.00  0.00     0.275 C 
ENDROOT
BRANCH   1   2
ATOM      2  O   UNL A   1      40.295  23.793  26.472  1.00  0.00    -0.458 OA
BRANCH   2   3
ATOM      3  C   UNL A   1      40.552  25.122  26.478  1.00  0.00     0.338 C 
ATOM      4  O   UNL A   1      40.958  25.629  25.432  1.00  0.00    -0.246 OA
BRANCH   3   5
ATOM      5  C   UNL A   1      40.410  26.015  27.680  1.00  0.00     0.060 A 
ATOM      6  C   UNL A   1      39.410  25.940  28.655  1.00  0.00     0.016 A 
ATOM      7  C   UNL A   1      41.401  27.002  27.842  1.00  0.00     0.016 A 
ATOM      8  C   UNL A   1      39.435  26.755  29.789  1.00  0.00     0.010 A 
ATOM      9  C   UNL A   1      41.423  27.836  28.965  1.00  0.00     0.010 A 
ATOM     10  C   UNL A   1      40.432  27.716  29.942  1.00  0.00    -0.014 A 
BRANCH  10  11
ATOM     11  C   UNL A   1      40.292  28.733  31.005  1.00  0.00     0.031 A 
ATOM     12  C   UNL A   1      41.151  28.581  32.218  1.00  0.00     0.074 A 
ATOM     13  C   UNL A   1      39.488  29.800  30.861  1.00  0.00     0.049 A 
ATOM     14  N   UNL A   1      41.252  29.366  33.251  1.00  0.00    -0.248 NA
ATOM     15  C   UNL A   1      42.049  27.412  32.247  1.00  0.00     0.031 C 
ATOM     16  C   UNL A   1      38.731  30.099  29.658  1.00  0.00     0.029 A 
ATOM     17  N   UNL A   1      39.165  30.827  31.710  1.00  0.00    -0.354 N 
ATOM     18  C   UNL A   1      42.249  28.811  34.037  1.00  0.00     0.074 A 
ATOM     19  C   UNL A   1      42.685  27.594  33.392  1.00  0.00     0.031 C 
ATOM     20  C   UNL A   1      37.965  31.184  29.856  1.00  0.00     0.029 A 
ATOM     21  C   UNL A   1      38.199  31.672  31.208  1.00  0.00     0.049 A 
ATOM     22  H   UNL A   1      39.583  30.949  32.592  1.00  0.00     0.167 HD
ATOM     23  C   UNL A   1      42.765  29.297  35.185  1.00  0.00     0.037 A 
ATOM     24  C   UNL A   1      37.575  32.719  31.781  1.00  0.00     0.037 A 
ATOM     25  C   UNL A   1      42.277  30.486  35.827  1.00  0.00     0.049 A 
ATOM     26  C   UNL A   1      38.056  33.149  33.139  1.00  0.00     0.074 A 
ATOM     27  C   UNL A   1      42.690  31.052  37.017  1.00  0.00     0.029 A 
ATOM     28  N   UNL A   1      41.244  31.277  35.338  1.00  0.00    -0.354 N 
ATOM     29  N   UNL A   1      39.015  32.627  33.868  1.00  0.00    -0.248 NA
ATOM     30  C   UNL A   1      37.411  34.322  33.740  1.00  0.00     0.031 C 
ATOM     31  C   UNL A   1      41.865  32.151  37.279  1.00  0.00     0.029 A 
ATOM     32  C   UNL A   1      40.981  32.309  36.221  1.00  0.00     0.049 A 
ATOM     33  H   UNL A   1      40.771  31.126  34.489  1.00  0.00     0.167 HD
ATOM     34  C   UNL A   1      39.122  33.434  34.993  1.00  0.00     0.074 A 
ATOM     35  C   UNL A   1      38.126  34.478  34.846  1.00  0.00     0.031 C 
ATOM     36  C   UNL A   1      39.976  33.331  36.042  1.00  0.00     0.037 A 
BRANCH  23  37
ATOM     37  C   UNL A   1      43.863  28.499  35.820  1.00  0.00     0.058 A 
ATOM     38  C   UNL A   1      43.593  27.469  36.738  1.00  0.00     0.135 A 
ATOM     39  C   UNL A   1      45.205  28.802  35.547  1.00  0.00     0.135 A 
ATOM     40  F   UNL A   1      42.327  27.168  37.065  1.00  0.00    -0.206 F 
ATOM     41  C   UNL A   1      44.619  26.783  37.381  1.00  0.00     0.059 A 
ATOM     42  C   UNL A   1      46.246  28.113  36.159  1.00  0.00     0.059 A 
ATOM     43  F   UNL A   1      45.514  29.794  34.698  1.00  0.00    -0.206 F 
ATOM     44  C   UNL A   1      45.942  27.116  37.085  1.00  0.00     0.060 A 
BRANCH  44  45
ATOM     45  S   UNL A   1      47.262  26.224  37.933  1.00  0.00     0.124 S 
ATOM     46  O   UNL A   1      47.260  26.874  39.240  1.00  0.00    -0.237 OA
ATOM     47  O   UNL A   1      46.772  24.849  37.908  1.00  0.00    -0.237 OA
ATOM     48  O   UNL A   1      48.436  26.485  37.105  1.00  0.00    -0.744 OA
ENDBRANCH  44  45
ENDBRANCH  23  37
BRANCH  24  49
ATOM     49  C   UNL A   1      36.463  33.420  31.078  1.00  0.00     0.058 A 
ATOM     50  C   UNL A   1      36.689  34.208  29.940  1.00  0.00     0.135 A 
ATOM     51  C   UNL A   1      35.140  33.316  31.540  1.00  0.00     0.135 A 
ATOM     52  F   UNL A   1      37.932  34.345  29.456  1.00  0.00    -0.206 F 
ATOM     53  C   UNL A   1      35.652  34.888  29.301  1.00  0.00     0.059 A 
ATOM     54  C   UNL A   1      34.083  33.968  30.906  1.00  0.00     0.059 A 
ATOM     55  F   UNL A   1      34.861  32.566  32.618  1.00  0.00    -0.206 F 
ATOM     56  C   UNL A   1      34.352  34.762  29.794  1.00  0.00     0.060 A 
BRANCH  56  57
ATOM     57  S   UNL A   1      33.016  35.642  28.950  1.00  0.00     0.124 S 
ATOM     58  O   UNL A   1      32.404  34.571  28.171  1.00  0.00    -0.237 OA
ATOM     59  O   UNL A   1      32.227  36.146  30.069  1.00  0.00    -0.237 OA
ATOM     60  O   UNL A   1      33.717  36.660  28.175  1.00  0.00    -0.744 OA
ENDBRANCH  56  57
ENDBRANCH  24  49
BRANCH  36  61
ATOM     61  C   UNL A   1      39.888  34.394  37.098  1.00  0.00     0.058 A 
ATOM     62  C   UNL A   1      40.573  35.611  36.978  1.00  0.00     0.135 A 
ATOM     63  C   UNL A   1      39.048  34.213  38.209  1.00  0.00     0.135 A 
ATOM     64  F   UNL A   1      41.394  35.827  35.938  1.00  0.00    -0.206 F 
ATOM     65  C   UNL A   1      40.444  36.608  37.936  1.00  0.00     0.059 A 
ATOM     66  C   UNL A   1      38.879  35.210  39.161  1.00  0.00     0.059 A 
ATOM     67  F   UNL A   1      38.363  33.068  38.361  1.00  0.00    -0.206 F 
ATOM     68  C   UNL A   1      39.589  36.400  39.021  1.00  0.00     0.060 A 
BRANCH  68  69
ATOM     69  S   UNL A   1      39.392  37.724  40.231  1.00  0.00     0.124 S 
ATOM     70  O   UNL A   1      39.080  36.971  41.441  1.00  0.00    -0.237 OA
ATOM     71  O   UNL A   1      40.702  38.368  40.203  1.00  0.00    -0.237 OA
ATOM     72  O   UNL A   1      38.297  38.521  39.686  1.00  0.00    -0.744 OA
ENDBRANCH  68  69
ENDBRANCH  36  61
ENDBRANCH  10  11
ENDBRANCH   3   5
ENDBRANCH   2   3
ENDBRANCH   1   2
BRANCH   1  73
ATOM     73  C   UNL A   1      37.910  23.733  25.775  1.00  0.00     0.275 C 
BRANCH  73  74
ATOM     74  O   UNL A   1      36.740  22.899  25.721  1.00  0.00    -0.458 OA
BRANCH  74  75
ATOM     75  C   UNL A   1      36.144  22.750  24.516  1.00  0.00     0.340 C 
ATOM     76  O   UNL A   1      36.480  23.278  23.462  1.00  0.00    -0.246 OA
BRANCH  75  77
ATOM     77  C   UNL A   1      35.054  21.782  24.593  1.00  0.00     0.091 A 
ATOM     78  C   UNL A   1      35.453  20.469  24.832  1.00  0.00     0.127 A 
ATOM     79  C   UNL A   1      33.694  22.037  24.404  1.00  0.00     0.057 A 
ATOM     80  N   UNL A   1      34.605  19.422  24.964  1.00  0.00    -0.264 NA
ATOM     81  C   UNL A   1      32.807  20.948  24.510  1.00  0.00     0.035 A 
ATOM     82  C   UNL A   1      33.294  19.688  24.814  1.00  0.00     0.112 A 
BRANCH  79  83
ATOM     83  C   UNL A   1      33.048  23.369  24.155  1.00  0.00     0.254 C 
ATOM     84  O   UNL A   1      32.513  23.599  23.074  1.00  0.00    -0.269 OA
ATOM     85  N   UNL A   1      32.945  24.270  25.196  1.00  0.00    -0.339 N 
ATOM     86  C   UNL A   1      31.610  24.657  25.661  1.00  0.00     0.120 C 
ATOM     87  C   UNL A   1      34.068  25.152  25.475  1.00  0.00     0.120 C 
ATOM     88  C   UNL A   1      31.308  26.152  25.553  1.00  0.00     0.025 C 
ATOM     89  C   UNL A   1      33.730  26.613  25.258  1.00  0.00     0.025 C 
ATOM     90  C   UNL A   1      32.484  26.989  26.076  1.00  0.00    -0.003 C 
BRANCH  90  91
ATOM     91  C   UNL A   1      32.266  28.504  25.972  1.00  0.00     0.039 C 
BRANCH  91  92
ATOM     92  C   UNL A   1      33.211  29.359  26.779  1.00  0.00    -0.048 A 
ATOM     93  C   UNL A   1      32.862  30.684  27.069  1.00  0.00     0.004 A 
ATOM     94  C   UNL A   1      34.458  28.878  27.198  1.00  0.00     0.004 A 
ATOM     95  C   UNL A   1      33.745  31.518  27.754  1.00  0.00     0.000 A 
ATOM     96  C   UNL A   1      35.341  29.712  27.888  1.00  0.00     0.000 A 
ATOM     97  C   UNL A   1      34.986  31.034  28.161  1.00  0.00     0.000 A 
ENDBRANCH  91  92
ENDBRANCH  90  91
ENDBRANCH  79  83
ENDBRANCH  75  77
ENDBRANCH  74  75
ENDBRANCH  73  74
ENDBRANCH   1  73
TORSDOF 17
ENDMDL
MODEL 2
REMARK VINA RESULT:     -11.8      6.810     12.265
REMARK SMILES O=C(OCCOC(=O)c1cnccc1C(=O)N1CCC(Cc2ccccc2)CC1)c1ccc(-c2c3nc(c(-c4c(F)cc(S(=O)(=O)[O-])cc4F)c4ccc([nH]4)c(-c4c(F)cc(S(=O)(=O)[O-])cc4F)c4nc(c(-c5c(F)cc(S(=O)(=O)[O-])cc5F)c5ccc2[nH]5)C=C4)C=C3)cc1
REMARK SMILES IDX 4 1 3 2 2 3 1 4 30 5 31 6 95 7 32 8 94 9 33 10 34 11 35 12
REMARK SMILES IDX 88 13 36 14 93 15 87 16 89 17 37 18 92 19 86 20 85 21 38 23
REMARK SMILES IDX 72 24 51 25 71 26 52 27 55 28 70 29 90 30 53 31 54 32 69 34
REMARK SMILES IDX 91 35 56 36 39 37 40 38 49 39 41 40 42 41 48 42 50 43 43 44
REMARK SMILES IDX 44 45 45 46 46 47 47 48 73 49 74 50 83 51 75 52 76 53 82 54
REMARK SMILES IDX 84 55 77 56 78 57 79 58 80 59 81 60 57 61 58 62 67 63 59 64
REMARK SMILES IDX 60 65 66 66 68 67 61 68 62 69 63 70 64 71 65 72 5 73 6 74
REMARK SMILES IDX 7 75 8 76 9 77 10 78 14 79 11 80 13 81 12 82 15 83 16 84
REMARK SMILES IDX 17 85 18 86 29 87 19 88 28 89 20 90 21 91 22 92 23 93 27 94
REMARK SMILES IDX 24 95 26 96 25 97
REMARK H PARENT 89 22 55 33
REMARK Flexibility Score: inf
ROOT
ATOM      1  C   UNL A   1      34.974  29.890  27.506  1.00  0.00     0.275 C 
ENDROOT
BRANCH   1   2
ATOM      2  O   UNL A   1      35.319  30.278  28.847  1.00  0.00    -0.458 OA
BRANCH   2   3
ATOM      3  C   UNL A   1      36.312  29.835  29.653  1.00  0.00     0.338 C 
ATOM      4  O   UNL A   1      36.052  29.687  30.847  1.00  0.00    -0.246 OA
BRANCH   3   5
ATOM      5  C   UNL A   1      37.717  29.548  29.201  1.00  0.00     0.060 A 
ATOM      6  C   UNL A   1      38.168  29.501  27.877  1.00  0.00     0.016 A 
ATOM      7  C   UNL A   1      38.666  29.333  30.218  1.00  0.00     0.016 A 
ATOM      8  C   UNL A   1      39.521  29.328  27.574  1.00  0.00     0.010 A 
ATOM      9  C   UNL A   1      40.020  29.140  29.923  1.00  0.00     0.010 A 
ATOM     10  C   UNL A   1      40.450  29.133  28.594  1.00  0.00    -0.014 A 
BRANCH  10  11
ATOM     11  C   UNL A   1      41.818  28.695  28.245  1.00  0.00     0.031 A 
ATOM     12  C   UNL A   1      42.881  29.742  28.191  1.00  0.00     0.074 A 
ATOM     13  C   UNL A   1      42.120  27.398  28.060  1.00  0.00     0.049 A 
ATOM     14  N   UNL A   1      44.156  29.602  27.967  1.00  0.00    -0.248 NA
ATOM     15  C   UNL A   1      42.459  31.125  28.476  1.00  0.00     0.031 C 
ATOM     16  C   UNL A   1      41.179  26.305  28.236  1.00  0.00     0.029 A 
ATOM     17  N   UNL A   1      43.279  26.769  27.691  1.00  0.00    -0.354 N 
ATOM     18  C   UNL A   1      44.696  30.868  28.118  1.00  0.00     0.074 A 
ATOM     19  C   UNL A   1      43.607  31.776  28.400  1.00  0.00     0.031 C 
ATOM     20  C   UNL A   1      41.760  25.142  27.901  1.00  0.00     0.029 A 
ATOM     21  C   UNL A   1      43.134  25.412  27.504  1.00  0.00     0.049 A 
ATOM     22  H   UNL A   1      44.135  27.242  27.571  1.00  0.00     0.167 HD
ATOM     23  C   UNL A   1      45.995  31.228  28.050  1.00  0.00     0.037 A 
ATOM     24  C   UNL A   1      44.016  24.495  27.061  1.00  0.00     0.037 A 
ATOM     25  C   UNL A   1      47.050  30.311  27.720  1.00  0.00     0.049 A 
ATOM     26  C   UNL A   1      45.430  24.951  26.832  1.00  0.00     0.074 A 
ATOM     27  C   UNL A   1      48.399  30.567  27.577  1.00  0.00     0.029 A 
ATOM     28  N   UNL A   1      46.864  28.958  27.457  1.00  0.00    -0.354 N 
ATOM     29  N   UNL A   1      45.937  26.151  26.997  1.00  0.00    -0.248 NA
ATOM     30  C   UNL A   1      46.401  23.939  26.399  1.00  0.00     0.031 C 
ATOM     31  C   UNL A   1      49.021  29.382  27.165  1.00  0.00     0.029 A 
ATOM     32  C   UNL A   1      48.070  28.373  27.116  1.00  0.00     0.049 A 
ATOM     33  H   UNL A   1      46.002  28.487  27.507  1.00  0.00     0.167 HD
ATOM     34  C   UNL A   1      47.294  26.032  26.733  1.00  0.00     0.074 A 
ATOM     35  C   UNL A   1      47.527  24.640  26.396  1.00  0.00     0.031 C 
ATOM     36  C   UNL A   1      48.263  26.981  26.783  1.00  0.00     0.037 A 
BRANCH  23  37
ATOM     37  C   UNL A   1      46.305  32.676  28.281  1.00  0.00     0.058 A 
ATOM     38  C   UNL A   1      46.268  33.616  27.236  1.00  0.00     0.135 A 
ATOM     39  C   UNL A   1      46.696  33.120  29.553  1.00  0.00     0.135 A 
ATOM     40  F   UNL A   1      45.942  33.233  25.992  1.00  0.00    -0.206 F 
ATOM     41  C   UNL A   1      46.631  34.943  27.442  1.00  0.00     0.059 A 
ATOM     42  C   UNL A   1      47.038  34.447  29.786  1.00  0.00     0.059 A 
ATOM     43  F   UNL A   1      46.770  32.256  30.576  1.00  0.00    -0.206 F 
ATOM     44  C   UNL A   1      47.017  35.347  28.722  1.00  0.00     0.060 A 
BRANCH  44  45
ATOM     45  S   UNL A   1      47.493  37.070  28.972  1.00  0.00     0.124 S 
ATOM     46  O   UNL A   1      46.860  37.716  27.826  1.00  0.00    -0.237 OA
ATOM     47  O   UNL A   1      46.904  37.368  30.273  1.00  0.00    -0.237 OA
ATOM     48  O   UNL A   1      48.952  37.027  28.940  1.00  0.00    -0.744 OA
ENDBRANCH  44  45
ENDBRANCH  23  37
BRANCH  24  49
ATOM     49  C   UNL A   1      43.593  23.085  26.824  1.00  0.00     0.058 A 
ATOM     50  C   UNL A   1      43.303  22.213  27.883  1.00  0.00     0.135 A 
ATOM     51  C   UNL A   1      43.472  22.578  25.518  1.00  0.00     0.135 A 
ATOM     52  F   UNL A   1      43.402  22.640  29.150  1.00  0.00    -0.206 F 
ATOM     53  C   UNL A   1      42.936  20.885  27.661  1.00  0.00     0.059 A 
ATOM     54  C   UNL A   1      43.087  21.263  25.269  1.00  0.00     0.059 A 
ATOM     55  F   UNL A   1      43.725  23.371  24.464  1.00  0.00    -0.206 F 
ATOM     56  C   UNL A   1      42.832  20.419  26.349  1.00  0.00     0.060 A 
BRANCH  56  57
ATOM     57  S   UNL A   1      42.348  18.699  26.075  1.00  0.00     0.124 S 
ATOM     58  O   UNL A   1      40.942  18.843  25.711  1.00  0.00    -0.237 OA
ATOM     59  O   UNL A   1      43.246  18.295  24.999  1.00  0.00    -0.237 OA
ATOM     60  O   UNL A   1      42.600  18.066  27.366  1.00  0.00    -0.744 OA
ENDBRANCH  56  57
ENDBRANCH  24  49
BRANCH  36  61
ATOM     61  C   UNL A   1      49.667  26.537  26.492  1.00  0.00     0.058 A 
ATOM     62  C   UNL A   1      50.483  25.977  27.485  1.00  0.00     0.135 A 
ATOM     63  C   UNL A   1      50.170  26.610  25.183  1.00  0.00     0.135 A 
ATOM     64  F   UNL A   1      50.049  25.893  28.752  1.00  0.00    -0.206 F 
ATOM     65  C   UNL A   1      51.763  25.522  27.193  1.00  0.00     0.059 A 
ATOM     66  C   UNL A   1      51.434  26.131  24.864  1.00  0.00     0.059 A 
ATOM     67  F   UNL A   1      49.421  27.128  24.197  1.00  0.00    -0.206 F 
ATOM     68  C   UNL A   1      52.227  25.597  25.878  1.00  0.00     0.060 A 
BRANCH  68  69
ATOM     69  S   UNL A   1      53.871  24.956  25.505  1.00  0.00     0.124 S 
ATOM     70  O   UNL A   1      53.572  23.573  25.151  1.00  0.00    -0.237 OA
ATOM     71  O   UNL A   1      54.298  25.815  24.404  1.00  0.00    -0.237 OA
ATOM     72  O   UNL A   1      54.600  25.142  26.756  1.00  0.00    -0.744 OA
ENDBRANCH  68  69
ENDBRANCH  36  61
ENDBRANCH  10  11
ENDBRANCH   3   5
ENDBRANCH   2   3
ENDBRANCH   1   2
BRANCH   1  73
ATOM     73  C   UNL A   1      33.493  29.579  27.310  1.00  0.00     0.275 C 
BRANCH  73  74
ATOM     74  O   UNL A   1      33.269  28.615  26.268  1.00  0.00    -0.458 OA
BRANCH  74  75
ATOM     75  C   UNL A   1      32.066  27.997  26.248  1.00  0.00     0.340 C 
ATOM     76  O   UNL A   1      31.503  27.458  27.194  1.00  0.00    -0.246 OA
BRANCH  75  77
ATOM     77  C   UNL A   1      31.443  28.120  24.934  1.00  0.00     0.091 A 
ATOM     78  C   UNL A   1      30.962  29.391  24.630  1.00  0.00     0.127 A 
ATOM     79  C   UNL A   1      31.246  27.097  24.004  1.00  0.00     0.057 A 
ATOM     80  N   UNL A   1      30.372  29.727  23.458  1.00  0.00    -0.264 NA
ATOM     81  C   UNL A   1      30.607  27.432  22.793  1.00  0.00     0.035 A 
ATOM     82  C   UNL A   1      30.220  28.739  22.556  1.00  0.00     0.112 A 
BRANCH  79  83
ATOM     83  C   UNL A   1      31.695  25.669  24.117  1.00  0.00     0.254 C 
ATOM     84  O   UNL A   1      30.879  24.787  24.370  1.00  0.00    -0.269 OA
ATOM     85  N   UNL A   1      33.001  25.349  23.801  1.00  0.00    -0.339 N 
ATOM     86  C   UNL A   1      33.250  24.453  22.668  1.00  0.00     0.120 C 
ATOM     87  C   UNL A   1      34.025  25.488  24.825  1.00  0.00     0.120 C 
ATOM     88  C   UNL A   1      33.993  23.166  23.029  1.00  0.00     0.025 C 
ATOM     89  C   UNL A   1      34.655  24.163  25.203  1.00  0.00     0.025 C 
ATOM     90  C   UNL A   1      35.188  23.458  23.946  1.00  0.00    -0.003 C 
BRANCH  90  91
ATOM     91  C   UNL A   1      35.966  22.207  24.375  1.00  0.00     0.039 C 
BRANCH  91  92
ATOM     92  C   UNL A   1      37.198  22.455  25.207  1.00  0.00    -0.048 A 
ATOM     93  C   UNL A   1      37.407  23.722  25.766  1.00  0.00     0.004 A 
ATOM     94  C   UNL A   1      38.172  21.464  25.389  1.00  0.00     0.004 A 
ATOM     95  C   UNL A   1      38.570  24.000  26.483  1.00  0.00     0.000 A 
ATOM     96  C   UNL A   1      39.336  21.742  26.110  1.00  0.00     0.000 A 
ATOM     97  C   UNL A   1      39.537  23.012  26.652  1.00  0.00     0.000 A 
ENDBRANCH  91  92
ENDBRANCH  90  91
ENDBRANCH  79  83
ENDBRANCH  75  77
ENDBRANCH  74  75
ENDBRANCH  73  74
ENDBRANCH   1  73
TORSDOF 17
ENDMDL
MODEL 3
REMARK VINA RESULT:     -11.8      4.270      6.703
REMARK SMILES O=C(OCCOC(=O)c1cnccc1C(=O)N1CCC(Cc2ccccc2)CC1)c1ccc(-c2c3nc(c(-c4c(F)cc(S(=O)(=O)[O-])cc4F)c4ccc([nH]4)c(-c4c(F)cc(S(=O)(=O)[O-])cc4F)c4nc(c(-c5c(F)cc(S(=O)(=O)[O-])cc5F)c5ccc2[nH]5)C=C4)C=C3)cc1
REMARK SMILES IDX 4 1 3 2 2 3 1 4 30 5 31 6 95 7 32 8 94 9 33 10 34 11 35 12
REMARK SMILES IDX 88 13 36 14 93 15 87 16 89 17 37 18 92 19 86 20 85 21 38 23
REMARK SMILES IDX 72 24 51 25 71 26 52 27 55 28 70 29 90 30 53 31 54 32 69 34
REMARK SMILES IDX 91 35 56 36 39 37 40 38 49 39 41 40 42 41 48 42 50 43 43 44
REMARK SMILES IDX 44 45 45 46 46 47 47 48 73 49 74 50 83 51 75 52 76 53 82 54
REMARK SMILES IDX 84 55 77 56 78 57 79 58 80 59 81 60 57 61 58 62 67 63 59 64
REMARK SMILES IDX 60 65 66 66 68 67 61 68 62 69 63 70 64 71 65 72 5 73 6 74
REMARK SMILES IDX 7 75 8 76 9 77 10 78 14 79 11 80 13 81 12 82 15 83 16 84
REMARK SMILES IDX 17 85 18 86 29 87 19 88 28 89 20 90 21 91 22 92 23 93 27 94
REMARK SMILES IDX 24 95 26 96 25 97
REMARK H PARENT 89 22 55 33
REMARK Flexibility Score: inf
ROOT
ATOM      1  C   UNL A   1      39.418  20.438  25.635  1.00  0.00     0.275 C 
ENDROOT
BRANCH   1   2
ATOM      2  O   UNL A   1      39.677  21.725  26.222  1.00  0.00    -0.458 OA
BRANCH   2   3
ATOM      3  C   UNL A   1      38.961  22.872  26.156  1.00  0.00     0.338 C 
ATOM      4  O   UNL A   1      37.925  22.859  25.490  1.00  0.00    -0.246 OA
BRANCH   3   5
ATOM      5  C   UNL A   1      39.358  24.168  26.807  1.00  0.00     0.060 A 
ATOM      6  C   UNL A   1      40.161  25.166  26.244  1.00  0.00     0.016 A 
ATOM      7  C   UNL A   1      38.845  24.399  28.097  1.00  0.00     0.016 A 
ATOM      8  C   UNL A   1      40.382  26.380  26.898  1.00  0.00     0.010 A 
ATOM      9  C   UNL A   1      39.077  25.604  28.769  1.00  0.00     0.010 A 
ATOM     10  C   UNL A   1      39.853  26.599  28.169  1.00  0.00    -0.014 A 
BRANCH  10  11
ATOM     11  C   UNL A   1      40.311  27.771  28.945  1.00  0.00     0.031 A 
ATOM     12  C   UNL A   1      41.666  27.694  29.568  1.00  0.00     0.074 A 
ATOM     13  C   UNL A   1      39.579  28.896  29.024  1.00  0.00     0.049 A 
ATOM     14  N   UNL A   1      42.307  28.605  30.242  1.00  0.00    -0.248 NA
ATOM     15  C   UNL A   1      42.415  26.442  29.364  1.00  0.00     0.031 C 
ATOM     16  C   UNL A   1      38.320  29.105  28.330  1.00  0.00     0.029 A 
ATOM     17  N   UNL A   1      39.769  30.067  29.709  1.00  0.00    -0.354 N 
ATOM     18  C   UNL A   1      43.550  28.053  30.511  1.00  0.00     0.074 A 
ATOM     19  C   UNL A   1      43.555  26.710  29.979  1.00  0.00     0.031 C 
ATOM     20  C   UNL A   1      37.799  30.293  28.676  1.00  0.00     0.029 A 
ATOM     21  C   UNL A   1      38.709  30.942  29.608  1.00  0.00     0.049 A 
ATOM     22  H   UNL A   1      40.586  30.266  30.222  1.00  0.00     0.167 HD
ATOM     23  C   UNL A   1      44.597  28.635  31.131  1.00  0.00     0.037 A 
ATOM     24  C   UNL A   1      38.501  32.130  30.207  1.00  0.00     0.037 A 
ATOM     25  C   UNL A   1      44.545  29.956  31.693  1.00  0.00     0.049 A 
ATOM     26  C   UNL A   1      39.624  32.693  31.032  1.00  0.00     0.074 A 
ATOM     27  C   UNL A   1      45.528  30.637  32.384  1.00  0.00     0.029 A 
ATOM     28  N   UNL A   1      43.432  30.788  31.648  1.00  0.00    -0.354 N 
ATOM     29  N   UNL A   1      40.806  32.170  31.267  1.00  0.00    -0.248 NA
ATOM     30  C   UNL A   1      39.416  34.012  31.641  1.00  0.00     0.031 C 
ATOM     31  C   UNL A   1      44.989  31.855  32.812  1.00  0.00     0.029 A 
ATOM     32  C   UNL A   1      43.692  31.963  32.331  1.00  0.00     0.049 A 
ATOM     33  H   UNL A   1      42.585  30.573  31.195  1.00  0.00     0.167 HD
ATOM     34  C   UNL A   1      41.500  33.114  32.011  1.00  0.00     0.074 A 
ATOM     35  C   UNL A   1      40.603  34.240  32.189  1.00  0.00     0.031 C 
ATOM     36  C   UNL A   1      42.769  33.063  32.489  1.00  0.00     0.037 A 
BRANCH  23  37
ATOM     37  C   UNL A   1      45.841  27.810  31.269  1.00  0.00     0.058 A 
ATOM     38  C   UNL A   1      46.017  26.909  32.333  1.00  0.00     0.135 A 
ATOM     39  C   UNL A   1      46.893  27.962  30.354  1.00  0.00     0.135 A 
ATOM     40  F   UNL A   1      45.057  26.759  33.259  1.00  0.00    -0.206 F 
ATOM     41  C   UNL A   1      47.204  26.203  32.497  1.00  0.00     0.059 A 
ATOM     42  C   UNL A   1      48.079  27.247  30.484  1.00  0.00     0.059 A 
ATOM     43  F   UNL A   1      46.783  28.828  29.336  1.00  0.00    -0.206 F 
ATOM     44  C   UNL A   1      48.230  26.382  31.567  1.00  0.00     0.060 A 
BRANCH  44  45
ATOM     45  S   UNL A   1      49.768  25.466  31.797  1.00  0.00     0.124 S 
ATOM     46  O   UNL A   1      49.386  24.511  32.833  1.00  0.00    -0.237 OA
ATOM     47  O   UNL A   1      49.995  24.904  30.470  1.00  0.00    -0.237 OA
ATOM     48  O   UNL A   1      50.717  26.495  32.212  1.00  0.00    -0.744 OA
ENDBRANCH  44  45
ENDBRANCH  23  37
BRANCH  24  49
ATOM     49  C   UNL A   1      37.207  32.851  30.038  1.00  0.00     0.058 A 
ATOM     50  C   UNL A   1      36.095  32.573  30.845  1.00  0.00     0.135 A 
ATOM     51  C   UNL A   1      37.058  33.841  29.051  1.00  0.00     0.135 A 
ATOM     52  F   UNL A   1      36.178  31.636  31.801  1.00  0.00    -0.206 F 
ATOM     53  C   UNL A   1      34.876  33.227  30.665  1.00  0.00     0.059 A 
ATOM     54  C   UNL A   1      35.858  34.524  28.866  1.00  0.00     0.059 A 
ATOM     55  F   UNL A   1      38.092  34.160  28.256  1.00  0.00    -0.206 F 
ATOM     56  C   UNL A   1      34.767  34.201  29.671  1.00  0.00     0.060 A 
BRANCH  56  57
ATOM     57  S   UNL A   1      33.184  35.047  29.455  1.00  0.00     0.124 S 
ATOM     58  O   UNL A   1      32.632  34.990  30.805  1.00  0.00    -0.237 OA
ATOM     59  O   UNL A   1      33.603  36.367  28.995  1.00  0.00    -0.237 OA
ATOM     60  O   UNL A   1      32.496  34.231  28.461  1.00  0.00    -0.744 OA
ENDBRANCH  56  57
ENDBRANCH  24  49
BRANCH  36  61
ATOM     61  C   UNL A   1      43.269  34.272  33.224  1.00  0.00     0.058 A 
ATOM     62  C   UNL A   1      43.927  35.318  32.562  1.00  0.00     0.135 A 
ATOM     63  C   UNL A   1      43.020  34.411  34.600  1.00  0.00     0.135 A 
ATOM     64  F   UNL A   1      44.194  35.227  31.250  1.00  0.00    -0.206 F 
ATOM     65  C   UNL A   1      44.339  36.456  33.244  1.00  0.00     0.059 A 
ATOM     66  C   UNL A   1      43.394  35.554  35.293  1.00  0.00     0.059 A 
ATOM     67  F   UNL A   1      42.383  33.440  35.274  1.00  0.00    -0.206 F 
ATOM     68  C   UNL A   1      44.062  36.567  34.609  1.00  0.00     0.060 A 
BRANCH  68  69
ATOM     69  S   UNL A   1      44.559  38.072  35.470  1.00  0.00     0.124 S 
ATOM     70  O   UNL A   1      43.745  39.077  34.795  1.00  0.00    -0.237 OA
ATOM     71  O   UNL A   1      44.189  37.777  36.851  1.00  0.00    -0.237 OA
ATOM     72  O   UNL A   1      45.995  38.151  35.216  1.00  0.00    -0.744 OA
ENDBRANCH  68  69
ENDBRANCH  36  61
ENDBRANCH  10  11
ENDBRANCH   3   5
ENDBRANCH   2   3
ENDBRANCH   1   2
BRANCH   1  73
ATOM     73  C   UNL A   1      40.358  19.337  26.113  1.00  0.00     0.275 C 
BRANCH  73  74
ATOM     74  O   UNL A   1      41.655  19.417  25.498  1.00  0.00    -0.458 OA
BRANCH  74  75
ATOM     75  C   UNL A   1      42.627  20.052  26.190  1.00  0.00     0.340 C 
ATOM     76  O   UNL A   1      42.503  20.637  27.260  1.00  0.00    -0.246 OA
BRANCH  75  77
ATOM     77  C   UNL A   1      43.921  19.889  25.534  1.00  0.00     0.091 A 
ATOM     78  C   UNL A   1      44.393  18.580  25.487  1.00  0.00     0.127 A 
ATOM     79  C   UNL A   1      44.726  20.903  25.010  1.00  0.00     0.057 A 
ATOM     80  N   UNL A   1      45.556  18.205  24.905  1.00  0.00    -0.264 NA
ATOM     81  C   UNL A   1      45.953  20.525  24.428  1.00  0.00     0.035 A 
ATOM     82  C   UNL A   1      46.307  19.188  24.373  1.00  0.00     0.112 A 
BRANCH  79  83
ATOM     83  C   UNL A   1      44.408  22.368  24.940  1.00  0.00     0.254 C 
ATOM     84  O   UNL A   1      43.551  22.773  24.159  1.00  0.00    -0.269 OA
ATOM     85  N   UNL A   1      44.990  23.226  25.852  1.00  0.00    -0.339 N 
ATOM     86  C   UNL A   1      44.125  23.945  26.791  1.00  0.00     0.120 C 
ATOM     87  C   UNL A   1      46.315  23.759  25.569  1.00  0.00     0.120 C 
ATOM     88  C   UNL A   1      44.210  25.469  26.693  1.00  0.00     0.025 C 
ATOM     89  C   UNL A   1      46.313  25.263  25.390  1.00  0.00     0.025 C 
ATOM     90  C   UNL A   1      45.670  25.935  26.614  1.00  0.00    -0.003 C 
BRANCH  90  91
ATOM     91  C   UNL A   1      45.833  27.455  26.483  1.00  0.00     0.039 C 
BRANCH  91  92
ATOM     92  C   UNL A   1      44.553  28.247  26.414  1.00  0.00    -0.048 A 
ATOM     93  C   UNL A   1      44.373  29.342  27.269  1.00  0.00     0.004 A 
ATOM     94  C   UNL A   1      43.510  27.881  25.552  1.00  0.00     0.004 A 
ATOM     95  C   UNL A   1      43.173  30.051  27.274  1.00  0.00     0.000 A 
ATOM     96  C   UNL A   1      42.308  28.594  25.555  1.00  0.00     0.000 A 
ATOM     97  C   UNL A   1      42.139  29.675  26.420  1.00  0.00     0.000 A 
ENDBRANCH  91  92
ENDBRANCH  90  91
ENDBRANCH  79  83
ENDBRANCH  75  77
ENDBRANCH  74  75
ENDBRANCH  73  74
ENDBRANCH   1  73
TORSDOF 17
ENDMDL
