MODEL 1
REMARK VINA RESULT:     -11.8      0.000      0.000
REMARK SMILES CNC(=O)c1cccc(-c2cnc(O)c(C(=O)OCCOC(=O)c3ccc(-c4c5nc(c(-c6c(F)cc(S(=O)(=O)[O-])cc6F)c6ccc([nH]6)c(-c6c(F)cc(S(=O)(=O)[O-])cc6F)c6nc(c(-c7c(F)cc(S(=O)(=O)[O-])cc7F)c7ccc4[nH]7)C=C6)C=C5)cc3)c2)c1
REMARK SMILES IDX 20 1 19 2 18 3 16 4 17 5 15 6 10 7 11 8 90 9 12 10 13 11
REMARK SMILES IDX 9 12 5 13 6 14 91 15 7 16 8 17 3 18 1 19 2 20 4 22 14 23
REMARK SMILES IDX 21 25 22 26 23 27 24 28 25 29 89 30 26 31 88 32 27 33 28 34
REMARK SMILES IDX 29 35 82 36 30 37 87 38 81 39 83 40 31 41 86 42 80 43 79 44
REMARK SMILES IDX 32 46 66 47 45 48 65 49 46 50 49 51 64 52 84 53 47 54 48 55
REMARK SMILES IDX 63 57 85 58 50 59 33 60 34 61 43 62 35 63 36 64 42 65 44 66
REMARK SMILES IDX 37 67 38 68 39 69 40 70 41 71 67 72 68 73 77 74 69 75 70 76
REMARK SMILES IDX 76 77 78 78 71 79 72 80 73 81 74 82 75 83 51 84 52 85 61 86
REMARK SMILES IDX 53 87 54 88 60 89 62 90 55 91 56 92 57 93 58 94 59 95
REMARK H PARENT 2 21 14 24 83 45 49 56
REMARK Flexibility Score: inf
ROOT
ATOM      1  C   UNL A   1      39.546  22.123  26.463  1.00  0.00     0.275 C 
ENDROOT
BRANCH   1   2
ATOM      2  C   UNL A   1      38.380  21.540  25.663  1.00  0.00     0.275 C 
BRANCH   2   3
ATOM      3  O   UNL A   1      37.169  22.290  25.888  1.00  0.00    -0.458 OA
BRANCH   3   4
ATOM      4  C   UNL A   1      36.011  21.642  25.605  1.00  0.00     0.343 C 
ATOM      5  O   UNL A   1      35.902  20.543  25.091  1.00  0.00    -0.246 OA
BRANCH   4   6
ATOM      6  C   UNL A   1      34.869  22.488  25.976  1.00  0.00     0.122 A 
ATOM      7  C   UNL A   1      33.659  24.575  25.888  1.00  0.00     0.001 A 
ATOM      8  C   UNL A   1      32.603  23.912  26.521  1.00  0.00     0.124 A 
ATOM      9  C   UNL A   1      34.824  23.836  25.634  1.00  0.00     0.031 A 
ATOM     10  N   UNL A   1      32.647  22.632  26.930  1.00  0.00    -0.221 NA
ATOM     11  C   UNL A   1      33.769  21.962  26.624  1.00  0.00     0.225 A 
BRANCH   7  12
ATOM     12  C   UNL A   1      33.489  25.942  25.406  1.00  0.00    -0.016 A 
ATOM     13  C   UNL A   1      33.113  28.281  25.931  1.00  0.00     0.040 A 
ATOM     14  C   UNL A   1      33.413  28.637  24.615  1.00  0.00     0.014 A 
ATOM     15  C   UNL A   1      33.094  26.939  26.305  1.00  0.00     0.022 A 
ATOM     16  C   UNL A   1      33.757  27.649  23.693  1.00  0.00     0.001 A 
ATOM     17  C   UNL A   1      33.811  26.311  24.091  1.00  0.00     0.009 A 
BRANCH  13  18
ATOM     18  C   UNL A   1      32.817  29.331  26.929  1.00  0.00     0.251 C 
ATOM     19  C   UNL A   1      35.244  29.553  27.693  1.00  0.00     0.143 C 
ATOM     20  N   UNL A   1      33.816  29.796  27.751  1.00  0.00    -0.355 N 
ATOM     21  H   UNL A   1      33.518  30.379  28.487  1.00  0.00     0.163 HD
ATOM     22  O   UNL A   1      31.680  29.788  27.010  1.00  0.00    -0.269 OA
ENDBRANCH  13  18
ENDBRANCH   7  12
BRANCH  11  23
ATOM     23  O   UNL A   1      33.754  20.713  27.113  1.00  0.00    -0.493 OA
ATOM     24  H   UNL A   1      34.509  20.165  27.023  1.00  0.00     0.295 HD
ENDBRANCH  11  23
ENDBRANCH   4   6
ENDBRANCH   3   4
ENDBRANCH   2   3
ENDBRANCH   1   2
BRANCH   1  25
ATOM     25  O   UNL A   1      39.512  23.564  26.456  1.00  0.00    -0.458 OA
BRANCH  25  26
ATOM     26  C   UNL A   1      40.590  24.155  27.016  1.00  0.00     0.338 C 
ATOM     27  O   UNL A   1      41.752  23.781  26.946  1.00  0.00    -0.246 OA
BRANCH  26  28
ATOM     28  C   UNL A   1      40.221  25.408  27.688  1.00  0.00     0.060 A 
ATOM     29  C   UNL A   1      41.076  26.486  27.528  1.00  0.00     0.016 A 
ATOM     30  C   UNL A   1      39.264  25.425  28.702  1.00  0.00     0.016 A 
ATOM     31  C   UNL A   1      41.139  27.457  28.520  1.00  0.00     0.010 A 
ATOM     32  C   UNL A   1      39.205  26.518  29.582  1.00  0.00     0.010 A 
ATOM     33  C   UNL A   1      40.188  27.523  29.547  1.00  0.00    -0.014 A 
BRANCH  33  34
ATOM     34  C   UNL A   1      40.251  28.623  30.566  1.00  0.00     0.031 A 
ATOM     35  C   UNL A   1      41.276  28.601  31.680  1.00  0.00     0.074 A 
ATOM     36  C   UNL A   1      39.399  29.670  30.485  1.00  0.00     0.049 A 
ATOM     37  N   UNL A   1      41.329  29.328  32.770  1.00  0.00    -0.248 NA
ATOM     38  C   UNL A   1      42.378  27.630  31.567  1.00  0.00     0.031 C 
ATOM     39  C   UNL A   1      38.387  29.868  29.443  1.00  0.00     0.029 A 
ATOM     40  N   UNL A   1      39.250  30.779  31.285  1.00  0.00    -0.354 N 
ATOM     41  C   UNL A   1      42.412  28.851  33.505  1.00  0.00     0.074 A 
ATOM     42  C   UNL A   1      43.000  27.779  32.730  1.00  0.00     0.031 C 
ATOM     43  C   UNL A   1      37.781  31.046  29.619  1.00  0.00     0.029 A 
ATOM     44  C   UNL A   1      38.240  31.620  30.874  1.00  0.00     0.049 A 
ATOM     45  H   UNL A   1      39.811  30.955  32.076  1.00  0.00     0.167 HD
ATOM     46  C   UNL A   1      42.863  29.266  34.715  1.00  0.00     0.037 A 
ATOM     47  C   UNL A   1      37.675  32.690  31.464  1.00  0.00     0.037 A 
ATOM     48  C   UNL A   1      42.312  30.387  35.438  1.00  0.00     0.049 A 
ATOM     49  C   UNL A   1      38.164  33.108  32.817  1.00  0.00     0.074 A 
ATOM     50  C   UNL A   1      42.704  30.897  36.664  1.00  0.00     0.029 A 
ATOM     51  N   UNL A   1      41.266  31.184  34.993  1.00  0.00    -0.354 N 
ATOM     52  N   UNL A   1      39.128  32.588  33.538  1.00  0.00    -0.248 NA
ATOM     53  C   UNL A   1      37.475  34.239  33.451  1.00  0.00     0.031 C 
ATOM     54  C   UNL A   1      41.867  31.975  36.979  1.00  0.00     0.029 A 
ATOM     55  C   UNL A   1      40.991  32.171  35.925  1.00  0.00     0.049 A 
ATOM     56  H   UNL A   1      40.790  31.064  34.139  1.00  0.00     0.167 HD
ATOM     57  C   UNL A   1      39.169  33.336  34.707  1.00  0.00     0.074 A 
ATOM     58  C   UNL A   1      38.148  34.357  34.587  1.00  0.00     0.031 C 
ATOM     59  C   UNL A   1      39.978  33.186  35.785  1.00  0.00     0.037 A 
BRANCH  46  60
ATOM     60  C   UNL A   1      43.982  28.492  35.368  1.00  0.00     0.058 A 
ATOM     61  C   UNL A   1      45.333  28.822  35.193  1.00  0.00     0.135 A 
ATOM     62  C   UNL A   1      43.682  27.434  36.247  1.00  0.00     0.135 A 
ATOM     63  F   UNL A   1      45.684  29.814  34.359  1.00  0.00    -0.206 F 
ATOM     64  C   UNL A   1      46.347  28.123  35.845  1.00  0.00     0.059 A 
ATOM     65  C   UNL A   1      44.676  26.740  36.931  1.00  0.00     0.059 A 
ATOM     66  F   UNL A   1      42.406  27.074  36.459  1.00  0.00    -0.206 F 
ATOM     67  C   UNL A   1      46.007  27.083  36.715  1.00  0.00     0.060 A 
BRANCH  67  68
ATOM     68  S   UNL A   1      47.332  26.193  37.564  1.00  0.00     0.124 S 
ATOM     69  O   UNL A   1      47.002  26.444  38.963  1.00  0.00    -0.237 OA
ATOM     70  O   UNL A   1      47.132  24.822  37.103  1.00  0.00    -0.237 OA
ATOM     71  O   UNL A   1      48.545  26.843  37.079  1.00  0.00    -0.744 OA
ENDBRANCH  67  68
ENDBRANCH  46  60
BRANCH  47  72
ATOM     72  C   UNL A   1      36.527  33.376  30.810  1.00  0.00     0.058 A 
ATOM     73  C   UNL A   1      35.223  33.242  31.305  1.00  0.00     0.135 A 
ATOM     74  C   UNL A   1      36.717  34.208  29.692  1.00  0.00     0.135 A 
ATOM     75  F   UNL A   1      34.984  32.451  32.363  1.00  0.00    -0.206 F 
ATOM     76  C   UNL A   1      34.147  33.900  30.714  1.00  0.00     0.059 A 
ATOM     77  C   UNL A   1      35.666  34.905  29.108  1.00  0.00     0.059 A 
ATOM     78  F   UNL A   1      37.947  34.383  29.185  1.00  0.00    -0.206 F 
ATOM     79  C   UNL A   1      34.381  34.734  29.618  1.00  0.00     0.060 A 
BRANCH  79  80
ATOM     80  S   UNL A   1      32.990  35.621  28.886  1.00  0.00     0.124 S 
ATOM     81  O   UNL A   1      32.229  36.000  30.071  1.00  0.00    -0.237 OA
ATOM     82  O   UNL A   1      33.657  36.710  28.179  1.00  0.00    -0.237 OA
ATOM     83  O   UNL A   1      32.366  34.618  28.028  1.00  0.00    -0.744 OA
ENDBRANCH  79  80
ENDBRANCH  47  72
BRANCH  59  84
ATOM     84  C   UNL A   1      39.819  34.182  36.898  1.00  0.00     0.058 A 
ATOM     85  C   UNL A   1      39.080  33.887  38.053  1.00  0.00     0.135 A 
ATOM     86  C   UNL A   1      40.440  35.439  36.816  1.00  0.00     0.135 A 
ATOM     87  F   UNL A   1      38.456  32.704  38.175  1.00  0.00    -0.206 F 
ATOM     88  C   UNL A   1      38.941  34.815  39.081  1.00  0.00     0.059 A 
ATOM     89  C   UNL A   1      40.339  36.370  37.843  1.00  0.00     0.059 A 
ATOM     90  F   UNL A   1      41.163  35.766  35.733  1.00  0.00    -0.206 F 
ATOM     91  C   UNL A   1      39.577  36.053  38.967  1.00  0.00     0.060 A 
BRANCH  91  92
ATOM     92  S   UNL A   1      39.413  37.236  40.319  1.00  0.00     0.124 S 
ATOM     93  O   UNL A   1      38.732  38.345  39.660  1.00  0.00    -0.237 OA
ATOM     94  O   UNL A   1      38.619  36.491  41.291  1.00  0.00    -0.237 OA
ATOM     95  O   UNL A   1      40.795  37.494  40.714  1.00  0.00    -0.744 OA
ENDBRANCH  91  92
ENDBRANCH  59  84
ENDBRANCH  33  34
ENDBRANCH  26  28
ENDBRANCH  25  26
ENDBRANCH   1  25
TORSDOF 17
ENDMDL
MODEL 2
REMARK VINA RESULT:     -11.6      5.238     10.922
REMARK SMILES CNC(=O)c1cccc(-c2cnc(O)c(C(=O)OCCOC(=O)c3ccc(-c4c5nc(c(-c6c(F)cc(S(=O)(=O)[O-])cc6F)c6ccc([nH]6)c(-c6c(F)cc(S(=O)(=O)[O-])cc6F)c6nc(c(-c7c(F)cc(S(=O)(=O)[O-])cc7F)c7ccc4[nH]7)C=C6)C=C5)cc3)c2)c1
REMARK SMILES IDX 20 1 19 2 18 3 16 4 17 5 15 6 10 7 11 8 90 9 12 10 13 11
REMARK SMILES IDX 9 12 5 13 6 14 91 15 7 16 8 17 3 18 1 19 2 20 4 22 14 23
REMARK SMILES IDX 21 25 22 26 23 27 24 28 25 29 89 30 26 31 88 32 27 33 28 34
REMARK SMILES IDX 29 35 82 36 30 37 87 38 81 39 83 40 31 41 86 42 80 43 79 44
REMARK SMILES IDX 32 46 66 47 45 48 65 49 46 50 49 51 64 52 84 53 47 54 48 55
REMARK SMILES IDX 63 57 85 58 50 59 33 60 34 61 43 62 35 63 36 64 42 65 44 66
REMARK SMILES IDX 37 67 38 68 39 69 40 70 41 71 67 72 68 73 77 74 69 75 70 76
REMARK SMILES IDX 76 77 78 78 71 79 72 80 73 81 74 82 75 83 51 84 52 85 61 86
REMARK SMILES IDX 53 87 54 88 60 89 62 90 55 91 56 92 57 93 58 94 59 95
REMARK H PARENT 2 21 14 24 83 45 49 56
REMARK Flexibility Score: inf
ROOT
ATOM      1  C   UNL A   1      32.948  28.160  26.432  1.00  0.00     0.275 C 
ENDROOT
BRANCH   1   2
ATOM      2  C   UNL A   1      33.494  28.032  25.009  1.00  0.00     0.275 C 
BRANCH   2   3
ATOM      3  O   UNL A   1      33.299  26.698  24.496  1.00  0.00    -0.458 OA
BRANCH   3   4
ATOM      4  C   UNL A   1      32.009  26.299  24.364  1.00  0.00     0.343 C 
ATOM      5  O   UNL A   1      31.128  26.880  23.756  1.00  0.00    -0.246 OA
BRANCH   4   6
ATOM      6  C   UNL A   1      31.800  25.051  25.112  1.00  0.00     0.122 A 
ATOM      7  C   UNL A   1      32.368  22.759  25.611  1.00  0.00     0.001 A 
ATOM      8  C   UNL A   1      31.499  22.852  26.703  1.00  0.00     0.124 A 
ATOM      9  C   UNL A   1      32.497  23.889  24.791  1.00  0.00     0.031 A 
ATOM     10  N   UNL A   1      30.758  23.936  26.992  1.00  0.00    -0.221 NA
ATOM     11  C   UNL A   1      30.952  25.001  26.199  1.00  0.00     0.225 A 
BRANCH   7  12
ATOM     12  C   UNL A   1      33.194  21.570  25.425  1.00  0.00    -0.016 A 
ATOM     13  C   UNL A   1      33.306  19.187  24.978  1.00  0.00     0.040 A 
ATOM     14  C   UNL A   1      34.687  19.275  24.790  1.00  0.00     0.014 A 
ATOM     15  C   UNL A   1      32.578  20.315  25.350  1.00  0.00     0.022 A 
ATOM     16  C   UNL A   1      35.324  20.509  24.914  1.00  0.00     0.001 A 
ATOM     17  C   UNL A   1      34.579  21.653  25.213  1.00  0.00     0.009 A 
BRANCH  13  18
ATOM     18  C   UNL A   1      32.617  17.895  24.778  1.00  0.00     0.251 C 
ATOM     19  C   UNL A   1      32.340  18.217  22.260  1.00  0.00     0.143 C 
ATOM     20  N   UNL A   1      32.129  17.562  23.536  1.00  0.00    -0.355 N 
ATOM     21  H   UNL A   1      31.554  16.764  23.510  1.00  0.00     0.163 HD
ATOM     22  O   UNL A   1      32.491  17.122  25.723  1.00  0.00    -0.269 OA
ENDBRANCH  13  18
ENDBRANCH   7  12
BRANCH  11  23
ATOM     23  O   UNL A   1      30.138  26.018  26.521  1.00  0.00    -0.493 OA
ATOM     24  H   UNL A   1      29.209  25.912  26.465  1.00  0.00     0.295 HD
ENDBRANCH  11  23
ENDBRANCH   4   6
ENDBRANCH   3   4
ENDBRANCH   2   3
ENDBRANCH   1   2
BRANCH   1  25
ATOM     25  O   UNL A   1      34.011  28.383  27.379  1.00  0.00    -0.458 OA
BRANCH  25  26
ATOM     26  C   UNL A   1      34.235  29.681  27.678  1.00  0.00     0.338 C 
ATOM     27  O   UNL A   1      33.426  30.597  27.630  1.00  0.00    -0.246 OA
BRANCH  26  28
ATOM     28  C   UNL A   1      35.603  29.885  28.173  1.00  0.00     0.060 A 
ATOM     29  C   UNL A   1      36.567  30.231  27.240  1.00  0.00     0.016 A 
ATOM     30  C   UNL A   1      35.988  29.426  29.432  1.00  0.00     0.016 A 
ATOM     31  C   UNL A   1      37.894  29.889  27.474  1.00  0.00     0.010 A 
ATOM     32  C   UNL A   1      37.353  29.276  29.728  1.00  0.00     0.010 A 
ATOM     33  C   UNL A   1      38.328  29.441  28.729  1.00  0.00    -0.014 A 
BRANCH  33  34
ATOM     34  C   UNL A   1      39.779  29.140  28.963  1.00  0.00     0.031 A 
ATOM     35  C   UNL A   1      40.717  30.189  29.524  1.00  0.00     0.074 A 
ATOM     36  C   UNL A   1      40.267  27.908  28.695  1.00  0.00     0.049 A 
ATOM     37  N   UNL A   1      42.027  30.187  29.570  1.00  0.00    -0.248 NA
ATOM     38  C   UNL A   1      40.110  31.403  30.094  1.00  0.00     0.031 C 
ATOM     39  C   UNL A   1      39.485  26.770  28.200  1.00  0.00     0.029 A 
ATOM     40  N   UNL A   1      41.536  27.391  28.811  1.00  0.00    -0.354 N 
ATOM     41  C   UNL A   1      42.400  31.422  30.095  1.00  0.00     0.074 A 
ATOM     42  C   UNL A   1      41.176  32.146  30.366  1.00  0.00     0.031 C 
ATOM     43  C   UNL A   1      40.262  25.685  28.127  1.00  0.00     0.029 A 
ATOM     44  C   UNL A   1      41.632  26.077  28.412  1.00  0.00     0.049 A 
ATOM     45  H   UNL A   1      42.303  27.911  29.146  1.00  0.00     0.167 HD
ATOM     46  C   UNL A   1      43.648  31.905  30.320  1.00  0.00     0.037 A 
ATOM     47  C   UNL A   1      42.700  25.282  28.213  1.00  0.00     0.037 A 
ATOM     48  C   UNL A   1      44.855  31.141  30.116  1.00  0.00     0.049 A 
ATOM     49  C   UNL A   1      44.070  25.847  28.431  1.00  0.00     0.074 A 
ATOM     50  C   UNL A   1      46.167  31.531  30.325  1.00  0.00     0.029 A 
ATOM     51  N   UNL A   1      44.898  29.824  29.677  1.00  0.00    -0.354 N 
ATOM     52  N   UNL A   1      44.407  27.047  28.838  1.00  0.00    -0.248 NA
ATOM     53  C   UNL A   1      45.206  24.965  28.138  1.00  0.00     0.031 C 
ATOM     54  C   UNL A   1      47.004  30.466  29.972  1.00  0.00     0.029 A 
ATOM     55  C   UNL A   1      46.213  29.394  29.596  1.00  0.00     0.049 A 
ATOM     56  H   UNL A   1      44.110  29.277  29.457  1.00  0.00     0.167 HD
ATOM     57  C   UNL A   1      45.796  27.060  28.862  1.00  0.00     0.074 A 
ATOM     58  C   UNL A   1      46.234  25.742  28.448  1.00  0.00     0.031 C 
ATOM     59  C   UNL A   1      46.631  28.075  29.192  1.00  0.00     0.037 A 
BRANCH  46  60
ATOM     60  C   UNL A   1      43.793  33.338  30.772  1.00  0.00     0.058 A 
ATOM     61  C   UNL A   1      43.866  33.700  32.125  1.00  0.00     0.135 A 
ATOM     62  C   UNL A   1      43.930  34.363  29.818  1.00  0.00     0.135 A 
ATOM     63  F   UNL A   1      43.730  32.768  33.082  1.00  0.00    -0.206 F 
ATOM     64  C   UNL A   1      44.048  35.025  32.517  1.00  0.00     0.059 A 
ATOM     65  C   UNL A   1      44.142  35.689  30.186  1.00  0.00     0.059 A 
ATOM     66  F   UNL A   1      43.874  34.078  28.507  1.00  0.00    -0.206 F 
ATOM     67  C   UNL A   1      44.188  36.013  31.539  1.00  0.00     0.060 A 
BRANCH  67  68
ATOM     68  S   UNL A   1      44.436  37.724  32.063  1.00  0.00     0.124 S 
ATOM     69  O   UNL A   1      43.883  38.460  30.931  1.00  0.00    -0.237 OA
ATOM     70  O   UNL A   1      43.661  37.789  33.298  1.00  0.00    -0.237 OA
ATOM     71  O   UNL A   1      45.883  37.824  32.229  1.00  0.00    -0.744 OA
ENDBRANCH  67  68
ENDBRANCH  46  60
BRANCH  47  72
ATOM     72  C   UNL A   1      42.507  23.897  27.698  1.00  0.00     0.058 A 
ATOM     73  C   UNL A   1      42.400  23.642  26.324  1.00  0.00     0.135 A 
ATOM     74  C   UNL A   1      42.457  22.797  28.571  1.00  0.00     0.135 A 
ATOM     75  F   UNL A   1      42.430  24.658  25.448  1.00  0.00    -0.206 F 
ATOM     76  C   UNL A   1      42.244  22.349  25.833  1.00  0.00     0.059 A 
ATOM     77  C   UNL A   1      42.340  21.493  28.104  1.00  0.00     0.059 A 
ATOM     78  F   UNL A   1      42.568  22.983  29.896  1.00  0.00    -0.206 F 
ATOM     79  C   UNL A   1      42.220  21.280  26.732  1.00  0.00     0.060 A 
BRANCH  79  80
ATOM     80  S   UNL A   1      42.065  19.601  26.086  1.00  0.00     0.124 S 
ATOM     81  O   UNL A   1      42.992  19.635  24.961  1.00  0.00    -0.237 OA
ATOM     82  O   UNL A   1      42.477  18.792  27.230  1.00  0.00    -0.237 OA
ATOM     83  O   UNL A   1      40.651  19.505  25.738  1.00  0.00    -0.744 OA
ENDBRANCH  79  80
ENDBRANCH  47  72
BRANCH  59  84
ATOM     84  C   UNL A   1      48.104  27.781  29.164  1.00  0.00     0.058 A 
ATOM     85  C   UNL A   1      48.771  27.242  30.275  1.00  0.00     0.135 A 
ATOM     86  C   UNL A   1      48.849  28.017  27.999  1.00  0.00     0.135 A 
ATOM     87  F   UNL A   1      48.105  27.011  31.419  1.00  0.00    -0.206 F 
ATOM     88  C   UNL A   1      50.134  26.970  30.239  1.00  0.00     0.059 A 
ATOM     89  C   UNL A   1      50.207  27.725  27.930  1.00  0.00     0.059 A 
ATOM     90  F   UNL A   1      48.255  28.526  26.908  1.00  0.00    -0.206 F 
ATOM     91  C   UNL A   1      50.844  27.213  29.061  1.00  0.00     0.060 A 
BRANCH  91  92
ATOM     92  S   UNL A   1      52.605  26.828  29.017  1.00  0.00     0.124 S 
ATOM     93  O   UNL A   1      52.696  25.993  27.825  1.00  0.00    -0.237 OA
ATOM     94  O   UNL A   1      53.212  28.153  28.910  1.00  0.00    -0.237 OA
ATOM     95  O   UNL A   1      52.835  26.142  30.285  1.00  0.00    -0.744 OA
ENDBRANCH  91  92
ENDBRANCH  59  84
ENDBRANCH  33  34
ENDBRANCH  26  28
ENDBRANCH  25  26
ENDBRANCH   1  25
TORSDOF 17
ENDMDL
MODEL 3
REMARK VINA RESULT:     -11.6      1.955      8.960
REMARK SMILES CNC(=O)c1cccc(-c2cnc(O)c(C(=O)OCCOC(=O)c3ccc(-c4c5nc(c(-c6c(F)cc(S(=O)(=O)[O-])cc6F)c6ccc([nH]6)c(-c6c(F)cc(S(=O)(=O)[O-])cc6F)c6nc(c(-c7c(F)cc(S(=O)(=O)[O-])cc7F)c7ccc4[nH]7)C=C6)C=C5)cc3)c2)c1
REMARK SMILES IDX 20 1 19 2 18 3 16 4 17 5 15 6 10 7 11 8 90 9 12 10 13 11
REMARK SMILES IDX 9 12 5 13 6 14 91 15 7 16 8 17 3 18 1 19 2 20 4 22 14 23
REMARK SMILES IDX 21 25 22 26 23 27 24 28 25 29 89 30 26 31 88 32 27 33 28 34
REMARK SMILES IDX 29 35 82 36 30 37 87 38 81 39 83 40 31 41 86 42 80 43 79 44
REMARK SMILES IDX 32 46 66 47 45 48 65 49 46 50 49 51 64 52 84 53 47 54 48 55
REMARK SMILES IDX 63 57 85 58 50 59 33 60 34 61 43 62 35 63 36 64 42 65 44 66
REMARK SMILES IDX 37 67 38 68 39 69 40 70 41 71 67 72 68 73 77 74 69 75 70 76
REMARK SMILES IDX 76 77 78 78 71 79 72 80 73 81 74 82 75 83 51 84 52 85 61 86
REMARK SMILES IDX 53 87 54 88 60 89 62 90 55 91 56 92 57 93 58 94 59 95
REMARK H PARENT 2 21 14 24 83 45 49 56
REMARK Flexibility Score: inf
ROOT
ATOM      1  C   UNL A   1      43.532  23.693  25.577  1.00  0.00     0.275 C 
ENDROOT
BRANCH   1   2
ATOM      2  C   UNL A   1      43.185  22.313  26.136  1.00  0.00     0.275 C 
BRANCH   2   3
ATOM      3  O   UNL A   1      41.912  21.855  25.637  1.00  0.00    -0.458 OA
BRANCH   3   4
ATOM      4  C   UNL A   1      40.871  21.946  26.502  1.00  0.00     0.343 C 
ATOM      5  O   UNL A   1      40.848  22.572  27.546  1.00  0.00    -0.246 OA
BRANCH   4   6
ATOM      6  C   UNL A   1      39.752  21.127  26.014  1.00  0.00     0.122 A 
ATOM      7  C   UNL A   1      37.533  20.903  25.092  1.00  0.00     0.001 A 
ATOM      8  C   UNL A   1      37.817  19.546  24.912  1.00  0.00     0.124 A 
ATOM      9  C   UNL A   1      38.529  21.699  25.679  1.00  0.00     0.031 A 
ATOM     10  N   UNL A   1      38.962  18.953  25.295  1.00  0.00    -0.221 NA
ATOM     11  C   UNL A   1      39.894  19.768  25.812  1.00  0.00     0.225 A 
BRANCH   7  12
ATOM     12  C   UNL A   1      36.296  21.474  24.569  1.00  0.00    -0.016 A 
ATOM     13  C   UNL A   1      33.877  21.617  24.695  1.00  0.00     0.040 A 
ATOM     14  C   UNL A   1      33.883  22.705  23.820  1.00  0.00     0.014 A 
ATOM     15  C   UNL A   1      35.069  20.972  25.017  1.00  0.00     0.022 A 
ATOM     16  C   UNL A   1      35.095  23.184  23.321  1.00  0.00     0.001 A 
ATOM     17  C   UNL A   1      36.295  22.582  23.707  1.00  0.00     0.009 A 
BRANCH  13  18
ATOM     18  C   UNL A   1      32.602  21.152  25.281  1.00  0.00     0.251 C 
ATOM     19  C   UNL A   1      32.554  22.957  27.086  1.00  0.00     0.143 C 
ATOM     20  N   UNL A   1      32.109  21.751  26.416  1.00  0.00    -0.355 N 
ATOM     21  H   UNL A   1      31.344  21.295  26.834  1.00  0.00     0.163 HD
ATOM     22  O   UNL A   1      31.986  20.235  24.744  1.00  0.00    -0.269 OA
ENDBRANCH  13  18
ENDBRANCH   7  12
BRANCH  11  23
ATOM     23  O   UNL A   1      40.980  19.093  26.217  1.00  0.00    -0.493 OA
ATOM     24  H   UNL A   1      41.588  19.493  26.806  1.00  0.00     0.295 HD
ENDBRANCH  11  23
ENDBRANCH   4   6
ENDBRANCH   3   4
ENDBRANCH   2   3
ENDBRANCH   1   2
BRANCH   1  25
ATOM     25  O   UNL A   1      43.110  24.739  26.475  1.00  0.00    -0.458 OA
BRANCH  25  26
ATOM     26  C   UNL A   1      42.483  25.775  25.878  1.00  0.00     0.338 C 
ATOM     27  O   UNL A   1      42.441  26.017  24.679  1.00  0.00    -0.246 OA
BRANCH  26  28
ATOM     28  C   UNL A   1      41.746  26.586  26.855  1.00  0.00     0.060 A 
ATOM     29  C   UNL A   1      42.132  27.909  26.998  1.00  0.00     0.016 A 
ATOM     30  C   UNL A   1      40.941  25.989  27.825  1.00  0.00     0.016 A 
ATOM     31  C   UNL A   1      41.925  28.550  28.214  1.00  0.00     0.010 A 
ATOM     32  C   UNL A   1      40.568  26.721  28.964  1.00  0.00     0.010 A 
ATOM     33  C   UNL A   1      41.110  27.995  29.210  1.00  0.00    -0.014 A 
BRANCH  33  34
ATOM     34  C   UNL A   1      40.860  28.744  30.486  1.00  0.00     0.031 A 
ATOM     35  C   UNL A   1      39.716  29.730  30.604  1.00  0.00     0.074 A 
ATOM     36  C   UNL A   1      41.646  28.527  31.564  1.00  0.00     0.049 A 
ATOM     37  N   UNL A   1      39.493  30.629  31.531  1.00  0.00    -0.248 NA
ATOM     38  C   UNL A   1      38.700  29.717  29.539  1.00  0.00     0.031 C 
ATOM     39  C   UNL A   1      42.757  27.572  31.631  1.00  0.00     0.029 A 
ATOM     40  N   UNL A   1      41.631  29.083  32.822  1.00  0.00    -0.354 N 
ATOM     41  C   UNL A   1      38.365  31.337  31.122  1.00  0.00     0.074 A 
ATOM     42  C   UNL A   1      37.940  30.754  29.868  1.00  0.00     0.031 C 
ATOM     43  C   UNL A   1      43.262  27.552  32.869  1.00  0.00     0.029 A 
ATOM     44  C   UNL A   1      42.626  28.604  33.645  1.00  0.00     0.049 A 
ATOM     45  H   UNL A   1      40.973  29.758  33.107  1.00  0.00     0.167 HD
ATOM     46  C   UNL A   1      37.751  32.380  31.736  1.00  0.00     0.037 A 
ATOM     47  C   UNL A   1      43.049  29.005  34.858  1.00  0.00     0.037 A 
ATOM     48  C   UNL A   1      38.143  32.899  33.025  1.00  0.00     0.049 A 
ATOM     49  C   UNL A   1      42.382  30.183  35.501  1.00  0.00     0.074 A 
ATOM     50  C   UNL A   1      37.580  33.943  33.740  1.00  0.00     0.029 A 
ATOM     51  N   UNL A   1      39.180  32.400  33.802  1.00  0.00    -0.354 N 
ATOM     52  N   UNL A   1      41.376  30.899  35.058  1.00  0.00    -0.248 NA
ATOM     53  C   UNL A   1      42.919  30.626  36.793  1.00  0.00     0.031 C 
ATOM     54  C   UNL A   1      38.304  34.102  34.928  1.00  0.00     0.029 A 
ATOM     55  C   UNL A   1      39.281  33.123  34.979  1.00  0.00     0.049 A 
ATOM     56  H   UNL A   1      39.758  31.642  33.551  1.00  0.00     0.167 HD
ATOM     57  C   UNL A   1      41.153  31.872  36.023  1.00  0.00     0.074 A 
ATOM     58  C   UNL A   1      42.114  31.638  37.083  1.00  0.00     0.031 C 
ATOM     59  C   UNL A   1      40.237  32.870  36.028  1.00  0.00     0.037 A 
BRANCH  46  60
ATOM     60  C   UNL A   1      36.617  33.069  31.018  1.00  0.00     0.058 A 
ATOM     61  C   UNL A   1      35.277  32.927  31.408  1.00  0.00     0.135 A 
ATOM     62  C   UNL A   1      36.892  33.948  29.954  1.00  0.00     0.135 A 
ATOM     63  F   UNL A   1      34.950  32.094  32.409  1.00  0.00    -0.206 F 
ATOM     64  C   UNL A   1      34.251  33.612  30.760  1.00  0.00     0.059 A 
ATOM     65  C   UNL A   1      35.887  34.665  29.310  1.00  0.00     0.059 A 
ATOM     66  F   UNL A   1      38.156  34.130  29.538  1.00  0.00    -0.206 F 
ATOM     67  C   UNL A   1      34.567  34.481  29.712  1.00  0.00     0.060 A 
BRANCH  67  68
ATOM     68  S   UNL A   1      33.227  35.372  28.890  1.00  0.00     0.124 S 
ATOM     69  O   UNL A   1      33.967  36.368  28.121  1.00  0.00    -0.237 OA
ATOM     70  O   UNL A   1      32.585  34.319  28.108  1.00  0.00    -0.237 OA
ATOM     71  O   UNL A   1      32.435  35.897  29.997  1.00  0.00    -0.744 OA
ENDBRANCH  67  68
ENDBRANCH  46  60
BRANCH  47  72
ATOM     72  C   UNL A   1      44.219  28.337  35.493  1.00  0.00     0.058 A 
ATOM     73  C   UNL A   1      45.526  28.787  35.263  1.00  0.00     0.135 A 
ATOM     74  C   UNL A   1      44.049  27.252  36.371  1.00  0.00     0.135 A 
ATOM     75  F   UNL A   1      45.745  29.813  34.425  1.00  0.00    -0.206 F 
ATOM     76  C   UNL A   1      46.623  28.183  35.871  1.00  0.00     0.059 A 
ATOM     77  C   UNL A   1      45.124  26.657  37.020  1.00  0.00     0.059 A 
ATOM     78  F   UNL A   1      42.818  26.788  36.638  1.00  0.00    -0.206 F 
ATOM     79  C   UNL A   1      46.410  27.121  36.753  1.00  0.00     0.060 A 
BRANCH  79  80
ATOM     80  S   UNL A   1      47.833  26.373  37.576  1.00  0.00     0.124 S 
ATOM     81  O   UNL A   1      48.851  27.400  37.390  1.00  0.00    -0.237 OA
ATOM     82  O   UNL A   1      47.342  26.199  38.940  1.00  0.00    -0.237 OA
ATOM     83  O   UNL A   1      48.039  25.136  36.830  1.00  0.00    -0.744 OA
ENDBRANCH  79  80
ENDBRANCH  47  72
BRANCH  59  84
ATOM     84  C   UNL A   1      40.202  33.756  37.241  1.00  0.00     0.058 A 
ATOM     85  C   UNL A   1      41.012  34.897  37.346  1.00  0.00     0.135 A 
ATOM     86  C   UNL A   1      39.324  33.471  38.298  1.00  0.00     0.135 A 
ATOM     87  F   UNL A   1      41.879  35.205  36.367  1.00  0.00    -0.206 F 
ATOM     88  C   UNL A   1      40.972  35.712  38.472  1.00  0.00     0.059 A 
ATOM     89  C   UNL A   1      39.246  34.288  39.420  1.00  0.00     0.059 A 
ATOM     90  F   UNL A   1      38.525  32.394  38.242  1.00  0.00    -0.206 F 
ATOM     91  C   UNL A   1      40.082  35.401  39.503  1.00  0.00     0.060 A 
BRANCH  91  92
ATOM     92  S   UNL A   1      40.017  36.483  40.945  1.00  0.00     0.124 S 
ATOM     93  O   UNL A   1      40.591  37.715  40.416  1.00  0.00    -0.237 OA
ATOM     94  O   UNL A   1      38.587  36.525  41.239  1.00  0.00    -0.237 OA
ATOM     95  O   UNL A   1      40.833  35.783  41.933  1.00  0.00    -0.744 OA
ENDBRANCH  91  92
ENDBRANCH  59  84
ENDBRANCH  33  34
ENDBRANCH  26  28
ENDBRANCH  25  26
ENDBRANCH   1  25
TORSDOF 17
ENDMDL
