MODEL 1
REMARK VINA RESULT:     -10.4      0.000      0.000
REMARK SMILES Cc1cc(C(=O)Nc2nc(CC(=O)OCCOC(=O)c3ccc(-c4c5nc(c(-c6c(F)cc(S(=O)(=O)[O-])cc6F)c6ccc([nH]6)c(-c6c(F)cc(S(=O)(=O)[O-])cc6F)c6nc(c(-c7c(F)cc(S(=O)(=O)[O-])cc7F)c7ccc4[nH]7)C=C6)C=C5)cc3)cs2)sc1C
REMARK SMILES IDX 15 1 14 2 12 3 13 4 11 5 10 6 8 7 9 8 87 9 86 10 7 11 5 12
REMARK SMILES IDX 6 13 4 15 1 16 2 17 3 18 89 19 88 20 90 21 16 22 17 23 18 24
REMARK SMILES IDX 19 25 20 26 21 27 85 28 22 29 84 30 23 31 24 32 25 33 78 34
REMARK SMILES IDX 26 35 83 36 77 37 79 38 27 39 82 40 76 41 75 42 28 44 62 45
REMARK SMILES IDX 41 46 61 47 42 48 45 49 60 50 80 51 43 52 44 53 59 55 81 56
REMARK SMILES IDX 46 57 29 58 30 59 39 60 31 61 32 62 38 63 40 64 33 65 34 66
REMARK SMILES IDX 35 67 36 68 37 69 63 70 64 71 73 72 65 73 66 74 72 75 74 76
REMARK SMILES IDX 67 77 68 78 69 79 70 80 71 81 47 82 48 83 57 84 49 85 50 86
REMARK SMILES IDX 56 87 58 88 51 89 52 90 53 91 54 92 55 93
REMARK H PARENT 7 14 79 43 45 54
REMARK Flexibility Score: inf
ROOT
ATOM      1  C   UNL A   1      33.790  33.047  28.430  1.00  0.00     0.274 C 
ENDROOT
BRANCH   1   2
ATOM      2  O   UNL A   1      32.979  34.220  28.236  1.00  0.00    -0.462 OA
BRANCH   2   3
ATOM      3  C   UNL A   1      33.538  35.395  28.629  1.00  0.00     0.312 C 
ATOM      4  O   UNL A   1      34.660  35.772  28.303  1.00  0.00    -0.252 OA
BRANCH   3   5
ATOM      5  C   UNL A   1      32.666  36.209  29.543  1.00  0.00     0.179 C 
BRANCH   5   6
ATOM      6  C   UNL A   1      33.103  36.321  30.965  1.00  0.00     0.065 A 
ATOM      7  C   UNL A   1      33.846  35.371  32.806  1.00  0.00     0.189 A 
ATOM      8  N   UNL A   1      33.271  35.133  31.658  1.00  0.00    -0.224 NA
ATOM      9  S   UNL A   1      33.978  37.002  33.266  1.00  0.00    -0.105 S 
ATOM     10  C   UNL A   1      33.495  37.446  31.674  1.00  0.00     0.093 A 
BRANCH   7  11
ATOM     11  N   UNL A   1      34.396  34.469  33.662  1.00  0.00    -0.297 N 
ATOM     12  C   UNL A   1      35.317  33.507  33.309  1.00  0.00     0.267 C 
ATOM     13  O   UNL A   1      35.381  32.511  34.040  1.00  0.00    -0.268 OA
ATOM     14  H   UNL A   1      34.116  34.507  34.605  1.00  0.00     0.172 HD
BRANCH  12  15
ATOM     15  C   UNL A   1      36.249  33.689  32.190  1.00  0.00     0.093 A 
ATOM     16  C   UNL A   1      37.353  32.988  28.649  1.00  0.00     0.045 C 
ATOM     17  C   UNL A   1      37.227  33.486  30.048  1.00  0.00    -0.037 A 
ATOM     18  C   UNL A   1      36.135  33.148  30.921  1.00  0.00     0.029 A 
ATOM     19  C   UNL A   1      38.115  34.334  30.688  1.00  0.00     0.005 A 
ATOM     20  S   UNL A   1      37.797  34.412  32.363  1.00  0.00    -0.135 S 
ATOM     21  C   UNL A   1      39.291  35.071  30.136  1.00  0.00     0.056 C 
ENDBRANCH  12  15
ENDBRANCH   7  11
ENDBRANCH   5   6
ENDBRANCH   3   5
ENDBRANCH   2   3
ENDBRANCH   1   2
BRANCH   1  22
ATOM     22  C   UNL A   1      33.258  31.895  27.584  1.00  0.00     0.275 C 
BRANCH  22  23
ATOM     23  O   UNL A   1      34.352  31.087  27.114  1.00  0.00    -0.458 OA
BRANCH  23  24
ATOM     24  C   UNL A   1      34.462  29.854  27.659  1.00  0.00     0.338 C 
ATOM     25  O   UNL A   1      33.574  29.043  27.844  1.00  0.00    -0.246 OA
BRANCH  24  26
ATOM     26  C   UNL A   1      35.865  29.617  28.035  1.00  0.00     0.060 A 
ATOM     27  C   UNL A   1      36.209  29.322  29.357  1.00  0.00     0.016 A 
ATOM     28  C   UNL A   1      36.850  29.733  27.054  1.00  0.00     0.016 A 
ATOM     29  C   UNL A   1      37.549  29.136  29.701  1.00  0.00     0.010 A 
ATOM     30  C   UNL A   1      38.183  29.495  27.391  1.00  0.00     0.010 A 
ATOM     31  C   UNL A   1      38.544  29.190  28.715  1.00  0.00    -0.014 A 
BRANCH  31  32
ATOM     32  C   UNL A   1      39.961  28.870  29.032  1.00  0.00     0.031 A 
ATOM     33  C   UNL A   1      40.883  29.935  29.552  1.00  0.00     0.074 A 
ATOM     34  C   UNL A   1      40.428  27.632  28.780  1.00  0.00     0.049 A 
ATOM     35  N   UNL A   1      42.183  29.903  29.692  1.00  0.00    -0.248 NA
ATOM     36  C   UNL A   1      40.264  31.205  29.965  1.00  0.00     0.031 C 
ATOM     37  C   UNL A   1      39.627  26.507  28.291  1.00  0.00     0.029 A 
ATOM     38  N   UNL A   1      41.698  27.116  28.875  1.00  0.00    -0.354 N 
ATOM     39  C   UNL A   1      42.543  31.150  30.190  1.00  0.00     0.074 A 
ATOM     40  C   UNL A   1      41.324  31.922  30.316  1.00  0.00     0.031 C 
ATOM     41  C   UNL A   1      40.422  25.440  28.119  1.00  0.00     0.029 A 
ATOM     42  C   UNL A   1      41.797  25.821  28.424  1.00  0.00     0.049 A 
ATOM     43  H   UNL A   1      42.461  27.625  29.230  1.00  0.00     0.167 HD
ATOM     44  C   UNL A   1      43.778  31.604  30.513  1.00  0.00     0.037 A 
ATOM     45  C   UNL A   1      42.879  25.042  28.227  1.00  0.00     0.037 A 
ATOM     46  C   UNL A   1      44.983  30.823  30.395  1.00  0.00     0.049 A 
ATOM     47  C   UNL A   1      44.246  25.596  28.520  1.00  0.00     0.074 A 
ATOM     48  C   UNL A   1      46.280  31.187  30.719  1.00  0.00     0.029 A 
ATOM     49  N   UNL A   1      45.044  29.524  29.915  1.00  0.00    -0.354 N 
ATOM     50  N   UNL A   1      44.571  26.779  28.984  1.00  0.00    -0.248 NA
ATOM     51  C   UNL A   1      45.391  24.718  28.246  1.00  0.00     0.031 C 
ATOM     52  C   UNL A   1      47.128  30.121  30.400  1.00  0.00     0.029 A 
ATOM     53  C   UNL A   1      46.357  29.080  29.911  1.00  0.00     0.049 A 
ATOM     54  H   UNL A   1      44.268  28.995  29.618  1.00  0.00     0.167 HD
ATOM     55  C   UNL A   1      45.959  26.784  29.064  1.00  0.00     0.074 A 
ATOM     56  C   UNL A   1      46.409  25.481  28.621  1.00  0.00     0.031 C 
ATOM     57  C   UNL A   1      46.787  27.781  29.461  1.00  0.00     0.037 A 
BRANCH  44  58
ATOM     58  C   UNL A   1      43.901  33.013  31.018  1.00  0.00     0.058 A 
ATOM     59  C   UNL A   1      44.100  34.091  30.143  1.00  0.00     0.135 A 
ATOM     60  C   UNL A   1      43.743  33.296  32.384  1.00  0.00     0.135 A 
ATOM     61  F   UNL A   1      44.271  33.874  28.830  1.00  0.00    -0.206 F 
ATOM     62  C   UNL A   1      44.147  35.403  30.607  1.00  0.00     0.059 A 
ATOM     63  C   UNL A   1      43.768  34.602  32.868  1.00  0.00     0.059 A 
ATOM     64  F   UNL A   1      43.553  32.301  33.264  1.00  0.00    -0.206 F 
ATOM     65  C   UNL A   1      43.978  35.649  31.970  1.00  0.00     0.060 A 
BRANCH  65  66
ATOM     66  S   UNL A   1      44.012  37.358  32.551  1.00  0.00     0.124 S 
ATOM     67  O   UNL A   1      45.374  37.462  33.065  1.00  0.00    -0.237 OA
ATOM     68  O   UNL A   1      43.737  38.109  31.331  1.00  0.00    -0.237 OA
ATOM     69  O   UNL A   1      42.957  37.397  33.558  1.00  0.00    -0.744 OA
ENDBRANCH  65  66
ENDBRANCH  44  58
BRANCH  45  70
ATOM     70  C   UNL A   1      42.720  23.674  27.669  1.00  0.00     0.058 A 
ATOM     71  C   UNL A   1      42.528  22.569  28.510  1.00  0.00     0.135 A 
ATOM     72  C   UNL A   1      42.765  23.444  26.285  1.00  0.00     0.135 A 
ATOM     73  F   UNL A   1      42.488  22.739  29.840  1.00  0.00    -0.206 F 
ATOM     74  C   UNL A   1      42.404  21.281  28.001  1.00  0.00     0.059 A 
ATOM     75  C   UNL A   1      42.618  22.169  25.750  1.00  0.00     0.059 A 
ATOM     76  F   UNL A   1      42.935  24.470  25.437  1.00  0.00    -0.206 F 
ATOM     77  C   UNL A   1      42.452  21.091  26.619  1.00  0.00     0.060 A 
BRANCH  77  78
ATOM     78  S   UNL A   1      42.258  19.420  25.961  1.00  0.00     0.124 S 
ATOM     79  O   UNL A   1      42.795  18.613  27.050  1.00  0.00    -0.237 OA
ATOM     80  O   UNL A   1      40.816  19.334  25.754  1.00  0.00    -0.237 OA
ATOM     81  O   UNL A   1      43.057  19.449  24.739  1.00  0.00    -0.744 OA
ENDBRANCH  77  78
ENDBRANCH  45  70
BRANCH  57  82
ATOM     82  C   UNL A   1      48.261  27.497  29.442  1.00  0.00     0.058 A 
ATOM     83  C   UNL A   1      49.056  27.847  28.339  1.00  0.00     0.135 A 
ATOM     84  C   UNL A   1      48.891  26.909  30.550  1.00  0.00     0.135 A 
ATOM     85  F   UNL A   1      48.497  28.400  27.251  1.00  0.00    -0.206 F 
ATOM     86  C   UNL A   1      50.426  27.609  28.330  1.00  0.00     0.059 A 
ATOM     87  C   UNL A   1      50.263  26.682  30.570  1.00  0.00     0.059 A 
ATOM     88  F   UNL A   1      48.174  26.563  31.629  1.00  0.00    -0.206 F 
ATOM     89  C   UNL A   1      51.020  27.027  29.451  1.00  0.00     0.060 A 
BRANCH  89  90
ATOM     90  S   UNL A   1      52.806  26.757  29.442  1.00  0.00     0.124 S 
ATOM     91  O   UNL A   1      52.988  26.032  28.191  1.00  0.00    -0.237 OA
ATOM     92  O   UNL A   1      53.330  28.119  29.469  1.00  0.00    -0.237 OA
ATOM     93  O   UNL A   1      53.037  25.982  30.657  1.00  0.00    -0.744 OA
ENDBRANCH  89  90
ENDBRANCH  57  82
ENDBRANCH  31  32
ENDBRANCH  24  26
ENDBRANCH  23  24
ENDBRANCH  22  23
ENDBRANCH   1  22
TORSDOF 17
ENDMDL
MODEL 2
REMARK VINA RESULT:     -10.0      5.778     12.120
REMARK SMILES Cc1cc(C(=O)Nc2nc(CC(=O)OCCOC(=O)c3ccc(-c4c5nc(c(-c6c(F)cc(S(=O)(=O)[O-])cc6F)c6ccc([nH]6)c(-c6c(F)cc(S(=O)(=O)[O-])cc6F)c6nc(c(-c7c(F)cc(S(=O)(=O)[O-])cc7F)c7ccc4[nH]7)C=C6)C=C5)cc3)cs2)sc1C
REMARK SMILES IDX 15 1 14 2 12 3 13 4 11 5 10 6 8 7 9 8 87 9 86 10 7 11 5 12
REMARK SMILES IDX 6 13 4 15 1 16 2 17 3 18 89 19 88 20 90 21 16 22 17 23 18 24
REMARK SMILES IDX 19 25 20 26 21 27 85 28 22 29 84 30 23 31 24 32 25 33 78 34
REMARK SMILES IDX 26 35 83 36 77 37 79 38 27 39 82 40 76 41 75 42 28 44 62 45
REMARK SMILES IDX 41 46 61 47 42 48 45 49 60 50 80 51 43 52 44 53 59 55 81 56
REMARK SMILES IDX 46 57 29 58 30 59 39 60 31 61 32 62 38 63 40 64 33 65 34 66
REMARK SMILES IDX 35 67 36 68 37 69 63 70 64 71 73 72 65 73 66 74 72 75 74 76
REMARK SMILES IDX 67 77 68 78 69 79 70 80 71 81 47 82 48 83 57 84 49 85 50 86
REMARK SMILES IDX 56 87 58 88 51 89 52 90 53 91 54 92 55 93
REMARK H PARENT 7 14 79 43 45 54
REMARK Flexibility Score: inf
ROOT
ATOM      1  C   UNL A   1      37.660  22.197  25.806  1.00  0.00     0.274 C 
ENDROOT
BRANCH   1   2
ATOM      2  O   UNL A   1      37.529  22.010  24.384  1.00  0.00    -0.462 OA
BRANCH   2   3
ATOM      3  C   UNL A   1      36.678  22.864  23.755  1.00  0.00     0.312 C 
ATOM      4  O   UNL A   1      36.771  23.190  22.575  1.00  0.00    -0.252 OA
BRANCH   3   5
ATOM      5  C   UNL A   1      35.599  23.415  24.644  1.00  0.00     0.179 C 
BRANCH   5   6
ATOM      6  C   UNL A   1      34.199  23.000  24.337  1.00  0.00     0.065 A 
ATOM      7  C   UNL A   1      32.137  22.626  25.008  1.00  0.00     0.189 A 
ATOM      8  N   UNL A   1      33.366  22.777  25.422  1.00  0.00    -0.224 NA
ATOM      9  S   UNL A   1      31.915  22.461  23.331  1.00  0.00    -0.105 S 
ATOM     10  C   UNL A   1      33.558  22.923  23.111  1.00  0.00     0.093 A 
BRANCH   7  11
ATOM     11  N   UNL A   1      31.002  22.630  25.757  1.00  0.00    -0.297 N 
ATOM     12  C   UNL A   1      30.456  23.744  26.356  1.00  0.00     0.267 C 
ATOM     13  O   UNL A   1      29.728  23.542  27.336  1.00  0.00    -0.268 OA
ATOM     14  H   UNL A   1      30.535  21.772  25.880  1.00  0.00     0.172 HD
BRANCH  12  15
ATOM     15  C   UNL A   1      30.636  25.094  25.809  1.00  0.00     0.093 A 
ATOM     16  C   UNL A   1      29.914  27.743  23.217  1.00  0.00     0.045 C 
ATOM     17  C   UNL A   1      30.415  26.972  24.392  1.00  0.00    -0.037 A 
ATOM     18  C   UNL A   1      30.008  25.627  24.696  1.00  0.00     0.029 A 
ATOM     19  C   UNL A   1      31.313  27.434  25.339  1.00  0.00     0.005 A 
ATOM     20  S   UNL A   1      31.876  26.162  26.327  1.00  0.00    -0.135 S 
ATOM     21  C   UNL A   1      31.872  28.806  25.530  1.00  0.00     0.056 C 
ENDBRANCH  12  15
ENDBRANCH   7  11
ENDBRANCH   5   6
ENDBRANCH   3   5
ENDBRANCH   2   3
ENDBRANCH   1   2
BRANCH   1  22
ATOM     22  C   UNL A   1      39.115  22.486  26.164  1.00  0.00     0.275 C 
BRANCH  22  23
ATOM     23  O   UNL A   1      39.215  23.772  26.803  1.00  0.00    -0.458 OA
BRANCH  23  24
ATOM     24  C   UNL A   1      40.462  24.279  26.933  1.00  0.00     0.338 C 
ATOM     25  O   UNL A   1      41.479  23.898  26.384  1.00  0.00    -0.246 OA
BRANCH  24  26
ATOM     26  C   UNL A   1      40.430  25.399  27.887  1.00  0.00     0.060 A 
ATOM     27  C   UNL A   1      39.379  25.529  28.799  1.00  0.00     0.016 A 
ATOM     28  C   UNL A   1      41.447  26.352  27.836  1.00  0.00     0.016 A 
ATOM     29  C   UNL A   1      39.347  26.618  29.672  1.00  0.00     0.010 A 
ATOM     30  C   UNL A   1      41.440  27.411  28.744  1.00  0.00     0.010 A 
ATOM     31  C   UNL A   1      40.394  27.551  29.674  1.00  0.00    -0.014 A 
BRANCH  31  32
ATOM     32  C   UNL A   1      40.448  28.646  30.676  1.00  0.00     0.031 A 
ATOM     33  C   UNL A   1      41.367  28.550  31.860  1.00  0.00     0.074 A 
ATOM     34  C   UNL A   1      39.612  29.696  30.551  1.00  0.00     0.049 A 
ATOM     35  N   UNL A   1      41.410  29.296  32.934  1.00  0.00    -0.248 NA
ATOM     36  C   UNL A   1      42.367  27.471  31.837  1.00  0.00     0.031 C 
ATOM     37  C   UNL A   1      38.686  29.912  29.436  1.00  0.00     0.029 A 
ATOM     38  N   UNL A   1      39.386  30.766  31.381  1.00  0.00    -0.354 N 
ATOM     39  C   UNL A   1      42.424  28.768  33.724  1.00  0.00     0.074 A 
ATOM     40  C   UNL A   1      42.965  27.629  33.012  1.00  0.00     0.031 C 
ATOM     41  C   UNL A   1      37.985  31.035  29.656  1.00  0.00     0.029 A 
ATOM     42  C   UNL A   1      38.366  31.584  30.953  1.00  0.00     0.049 A 
ATOM     43  H   UNL A   1      39.902  30.930  32.202  1.00  0.00     0.167 HD
ATOM     44  C   UNL A   1      42.863  29.199  34.931  1.00  0.00     0.037 A 
ATOM     45  C   UNL A   1      37.767  32.627  31.559  1.00  0.00     0.037 A 
ATOM     46  C   UNL A   1      42.326  30.341  35.626  1.00  0.00     0.049 A 
ATOM     47  C   UNL A   1      38.221  33.039  32.933  1.00  0.00     0.074 A 
ATOM     48  C   UNL A   1      42.719  30.871  36.844  1.00  0.00     0.029 A 
ATOM     49  N   UNL A   1      41.280  31.130  35.169  1.00  0.00    -0.354 N 
ATOM     50  N   UNL A   1      39.177  32.526  33.670  1.00  0.00    -0.248 NA
ATOM     51  C   UNL A   1      37.504  34.155  33.563  1.00  0.00     0.031 C 
ATOM     52  C   UNL A   1      41.888  31.957  37.140  1.00  0.00     0.029 A 
ATOM     53  C   UNL A   1      41.000  32.126  36.091  1.00  0.00     0.049 A 
ATOM     54  H   UNL A   1      40.807  31.000  34.316  1.00  0.00     0.167 HD
ATOM     55  C   UNL A   1      39.179  33.262  34.849  1.00  0.00     0.074 A 
ATOM     56  C   UNL A   1      38.146  34.268  34.718  1.00  0.00     0.031 C 
ATOM     57  C   UNL A   1      39.962  33.115  35.945  1.00  0.00     0.037 A 
BRANCH  44  58
ATOM     58  C   UNL A   1      43.973  28.433  35.592  1.00  0.00     0.058 A 
ATOM     59  C   UNL A   1      45.321  28.742  35.353  1.00  0.00     0.135 A 
ATOM     60  C   UNL A   1      43.686  27.428  36.530  1.00  0.00     0.135 A 
ATOM     61  F   UNL A   1      45.650  29.684  34.454  1.00  0.00    -0.206 F 
ATOM     62  C   UNL A   1      46.347  28.075  36.015  1.00  0.00     0.059 A 
ATOM     63  C   UNL A   1      44.696  26.761  37.218  1.00  0.00     0.059 A 
ATOM     64  F   UNL A   1      42.414  27.093  36.793  1.00  0.00    -0.206 F 
ATOM     65  C   UNL A   1      46.025  27.087  36.948  1.00  0.00     0.060 A 
BRANCH  65  66
ATOM     66  S   UNL A   1      47.367  26.252  37.820  1.00  0.00     0.124 S 
ATOM     67  O   UNL A   1      47.685  25.170  36.894  1.00  0.00    -0.237 OA
ATOM     68  O   UNL A   1      48.371  27.305  37.933  1.00  0.00    -0.237 OA
ATOM     69  O   UNL A   1      46.752  25.841  39.079  1.00  0.00    -0.744 OA
ENDBRANCH  65  66
ENDBRANCH  44  58
BRANCH  45  70
ATOM     70  C   UNL A   1      36.632  33.322  30.897  1.00  0.00     0.058 A 
ATOM     71  C   UNL A   1      35.318  33.156  31.356  1.00  0.00     0.135 A 
ATOM     72  C   UNL A   1      36.839  34.158  29.789  1.00  0.00     0.135 A 
ATOM     73  F   UNL A   1      35.070  32.359  32.405  1.00  0.00    -0.206 F 
ATOM     74  C   UNL A   1      34.245  33.781  30.729  1.00  0.00     0.059 A 
ATOM     75  C   UNL A   1      35.786  34.814  29.160  1.00  0.00     0.059 A 
ATOM     76  F   UNL A   1      38.080  34.359  29.319  1.00  0.00    -0.206 F 
ATOM     77  C   UNL A   1      34.490  34.607  29.630  1.00  0.00     0.060 A 
BRANCH  77  78
ATOM     78  S   UNL A   1      33.097  35.442  28.839  1.00  0.00     0.124 S 
ATOM     79  O   UNL A   1      33.780  36.439  28.024  1.00  0.00    -0.237 OA
ATOM     80  O   UNL A   1      32.457  34.352  28.109  1.00  0.00    -0.237 OA
ATOM     81  O   UNL A   1      32.334  35.962  29.970  1.00  0.00    -0.744 OA
ENDBRANCH  77  78
ENDBRANCH  45  70
BRANCH  57  82
ATOM     82  C   UNL A   1      39.736  34.067  37.083  1.00  0.00     0.058 A 
ATOM     83  C   UNL A   1      38.872  33.747  38.141  1.00  0.00     0.135 A 
ATOM     84  C   UNL A   1      40.420  35.292  37.138  1.00  0.00     0.135 A 
ATOM     85  F   UNL A   1      38.186  32.592  38.127  1.00  0.00    -0.206 F 
ATOM     86  C   UNL A   1      38.681  34.616  39.210  1.00  0.00     0.059 A 
ATOM     87  C   UNL A   1      40.261  36.167  38.208  1.00  0.00     0.059 A 
ATOM     88  F   UNL A   1      41.262  35.641  36.154  1.00  0.00    -0.206 F 
ATOM     89  C   UNL A   1      39.381  35.824  39.234  1.00  0.00     0.060 A 
BRANCH  89  90
ATOM     90  S   UNL A   1      39.154  36.928  40.645  1.00  0.00     0.124 S 
ATOM     91  O   UNL A   1      38.294  37.959  40.076  1.00  0.00    -0.237 OA
ATOM     92  O   UNL A   1      38.527  36.053  41.632  1.00  0.00    -0.237 OA
ATOM     93  O   UNL A   1      40.513  37.350  40.968  1.00  0.00    -0.744 OA
ENDBRANCH  89  90
ENDBRANCH  57  82
ENDBRANCH  31  32
ENDBRANCH  24  26
ENDBRANCH  23  24
ENDBRANCH  22  23
ENDBRANCH   1  22
TORSDOF 17
ENDMDL
MODEL 3
REMARK VINA RESULT:     -10.0      2.313      2.991
REMARK SMILES Cc1cc(C(=O)Nc2nc(CC(=O)OCCOC(=O)c3ccc(-c4c5nc(c(-c6c(F)cc(S(=O)(=O)[O-])cc6F)c6ccc([nH]6)c(-c6c(F)cc(S(=O)(=O)[O-])cc6F)c6nc(c(-c7c(F)cc(S(=O)(=O)[O-])cc7F)c7ccc4[nH]7)C=C6)C=C5)cc3)cs2)sc1C
REMARK SMILES IDX 15 1 14 2 12 3 13 4 11 5 10 6 8 7 9 8 87 9 86 10 7 11 5 12
REMARK SMILES IDX 6 13 4 15 1 16 2 17 3 18 89 19 88 20 90 21 16 22 17 23 18 24
REMARK SMILES IDX 19 25 20 26 21 27 85 28 22 29 84 30 23 31 24 32 25 33 78 34
REMARK SMILES IDX 26 35 83 36 77 37 79 38 27 39 82 40 76 41 75 42 28 44 62 45
REMARK SMILES IDX 41 46 61 47 42 48 45 49 60 50 80 51 43 52 44 53 59 55 81 56
REMARK SMILES IDX 46 57 29 58 30 59 39 60 31 61 32 62 38 63 40 64 33 65 34 66
REMARK SMILES IDX 35 67 36 68 37 69 63 70 64 71 73 72 65 73 66 74 72 75 74 76
REMARK SMILES IDX 67 77 68 78 69 79 70 80 71 81 47 82 48 83 57 84 49 85 50 86
REMARK SMILES IDX 56 87 58 88 51 89 52 90 53 91 54 92 55 93
REMARK H PARENT 7 14 79 43 45 54
REMARK Flexibility Score: inf
ROOT
ATOM      1  C   UNL A   1      33.917  33.580  28.641  1.00  0.00     0.274 C 
ENDROOT
BRANCH   1   2
ATOM      2  O   UNL A   1      34.207  34.808  27.948  1.00  0.00    -0.462 OA
BRANCH   2   3
ATOM      3  C   UNL A   1      33.742  35.941  28.538  1.00  0.00     0.312 C 
ATOM      4  O   UNL A   1      34.115  37.075  28.251  1.00  0.00    -0.252 OA
BRANCH   3   5
ATOM      5  C   UNL A   1      32.728  35.694  29.618  1.00  0.00     0.179 C 
BRANCH   5   6
ATOM      6  C   UNL A   1      33.133  36.040  31.012  1.00  0.00     0.065 A 
ATOM      7  C   UNL A   1      33.952  35.430  32.961  1.00  0.00     0.189 A 
ATOM      8  N   UNL A   1      33.421  34.980  31.856  1.00  0.00    -0.224 NA
ATOM      9  S   UNL A   1      33.900  37.112  33.199  1.00  0.00    -0.105 S 
ATOM     10  C   UNL A   1      33.392  37.285  31.563  1.00  0.00     0.093 A 
BRANCH   7  11
ATOM     11  N   UNL A   1      34.587  34.715  33.928  1.00  0.00    -0.297 N 
ATOM     12  C   UNL A   1      35.594  33.803  33.702  1.00  0.00     0.267 C 
ATOM     13  O   UNL A   1      35.753  32.932  34.567  1.00  0.00    -0.268 OA
ATOM     14  H   UNL A   1      34.306  34.862  34.861  1.00  0.00     0.172 HD
BRANCH  12  15
ATOM     15  C   UNL A   1      36.502  33.908  32.554  1.00  0.00     0.093 A 
ATOM     16  C   UNL A   1      37.478  33.046  29.010  1.00  0.00     0.045 C 
ATOM     17  C   UNL A   1      37.411  33.594  30.395  1.00  0.00    -0.037 A 
ATOM     18  C   UNL A   1      36.330  33.332  31.307  1.00  0.00     0.029 A 
ATOM     19  C   UNL A   1      38.352  34.423  30.984  1.00  0.00     0.005 A 
ATOM     20  S   UNL A   1      38.083  34.568  32.663  1.00  0.00    -0.135 S 
ATOM     21  C   UNL A   1      39.543  35.090  30.377  1.00  0.00     0.056 C 
ENDBRANCH  12  15
ENDBRANCH   7  11
ENDBRANCH   5   6
ENDBRANCH   3   5
ENDBRANCH   2   3
ENDBRANCH   1   2
BRANCH   1  22
ATOM     22  C   UNL A   1      33.706  32.450  27.639  1.00  0.00     0.275 C 
BRANCH  22  23
ATOM     23  O   UNL A   1      33.948  31.182  28.274  1.00  0.00    -0.458 OA
BRANCH  23  24
ATOM     24  C   UNL A   1      34.533  30.232  27.509  1.00  0.00     0.338 C 
ATOM     25  O   UNL A   1      34.085  29.706  26.507  1.00  0.00    -0.246 OA
BRANCH  24  26
ATOM     26  C   UNL A   1      35.843  29.887  28.085  1.00  0.00     0.060 A 
ATOM     27  C   UNL A   1      36.998  29.916  27.300  1.00  0.00     0.016 A 
ATOM     28  C   UNL A   1      35.903  29.489  29.421  1.00  0.00     0.016 A 
ATOM     29  C   UNL A   1      38.225  29.551  27.855  1.00  0.00     0.010 A 
ATOM     30  C   UNL A   1      37.138  29.174  29.987  1.00  0.00     0.010 A 
ATOM     31  C   UNL A   1      38.311  29.207  29.212  1.00  0.00    -0.014 A 
BRANCH  31  32
ATOM     32  C   UNL A   1      39.622  28.937  29.857  1.00  0.00     0.031 A 
ATOM     33  C   UNL A   1      40.137  29.840  30.941  1.00  0.00     0.074 A 
ATOM     34  C   UNL A   1      40.377  27.913  29.411  1.00  0.00     0.049 A 
ATOM     35  N   UNL A   1      41.330  29.888  31.476  1.00  0.00    -0.248 NA
ATOM     36  C   UNL A   1      39.190  30.822  31.492  1.00  0.00     0.031 C 
ATOM     37  C   UNL A   1      39.978  26.954  28.378  1.00  0.00     0.029 A 
ATOM     38  N   UNL A   1      41.649  27.523  29.752  1.00  0.00    -0.354 N 
ATOM     39  C   UNL A   1      41.286  30.914  32.412  1.00  0.00     0.074 A 
ATOM     40  C   UNL A   1      39.951  31.473  32.363  1.00  0.00     0.031 C 
ATOM     41  C   UNL A   1      40.986  26.096  28.160  1.00  0.00     0.029 A 
ATOM     42  C   UNL A   1      42.122  26.479  28.991  1.00  0.00     0.049 A 
ATOM     43  H   UNL A   1      42.169  27.949  30.469  1.00  0.00     0.167 HD
ATOM     44  C   UNL A   1      42.271  31.346  33.236  1.00  0.00     0.037 A 
ATOM     45  C   UNL A   1      43.349  25.926  28.929  1.00  0.00     0.037 A 
ATOM     46  C   UNL A   1      43.593  30.776  33.285  1.00  0.00     0.049 A 
ATOM     47  C   UNL A   1      44.446  26.474  29.800  1.00  0.00     0.074 A 
ATOM     48  C   UNL A   1      44.653  31.129  34.103  1.00  0.00     0.029 A 
ATOM     49  N   UNL A   1      44.038  29.735  32.484  1.00  0.00    -0.354 N 
ATOM     50  N   UNL A   1      44.392  27.449  30.675  1.00  0.00    -0.248 NA
ATOM     51  C   UNL A   1      45.774  25.861  29.660  1.00  0.00     0.031 C 
ATOM     52  C   UNL A   1      45.751  30.327  33.771  1.00  0.00     0.029 A 
ATOM     53  C   UNL A   1      45.364  29.450  32.771  1.00  0.00     0.049 A 
ATOM     54  H   UNL A   1      43.494  29.268  31.810  1.00  0.00     0.167 HD
ATOM     55  C   UNL A   1      45.676  27.562  31.195  1.00  0.00     0.074 A 
ATOM     56  C   UNL A   1      46.479  26.542  30.553  1.00  0.00     0.031 C 
ATOM     57  C   UNL A   1      46.149  28.434  32.117  1.00  0.00     0.037 A 
BRANCH  44  58
ATOM     58  C   UNL A   1      41.969  32.499  34.151  1.00  0.00     0.058 A 
ATOM     59  C   UNL A   1      42.061  33.828  33.712  1.00  0.00     0.135 A 
ATOM     60  C   UNL A   1      41.511  32.269  35.458  1.00  0.00     0.135 A 
ATOM     61  F   UNL A   1      42.507  34.102  32.475  1.00  0.00    -0.206 F 
ATOM     62  C   UNL A   1      41.717  34.892  34.541  1.00  0.00     0.059 A 
ATOM     63  C   UNL A   1      41.144  33.317  36.298  1.00  0.00     0.059 A 
ATOM     64  F   UNL A   1      41.407  31.017  35.928  1.00  0.00    -0.206 F 
ATOM     65  C   UNL A   1      41.257  34.627  35.832  1.00  0.00     0.060 A 
BRANCH  65  66
ATOM     66  S   UNL A   1      40.788  36.017  36.884  1.00  0.00     0.124 S 
ATOM     67  O   UNL A   1      39.859  36.736  36.017  1.00  0.00    -0.237 OA
ATOM     68  O   UNL A   1      40.192  35.351  38.036  1.00  0.00    -0.237 OA
ATOM     69  O   UNL A   1      42.056  36.693  37.141  1.00  0.00    -0.744 OA
ENDBRANCH  65  66
ENDBRANCH  44  58
BRANCH  45  70
ATOM     70  C   UNL A   1      43.623  24.826  27.968  1.00  0.00     0.058 A 
ATOM     71  C   UNL A   1      44.211  25.085  26.723  1.00  0.00     0.135 A 
ATOM     72  C   UNL A   1      43.294  23.496  28.274  1.00  0.00     0.135 A 
ATOM     73  F   UNL A   1      44.532  26.342  26.382  1.00  0.00    -0.206 F 
ATOM     74  C   UNL A   1      44.449  24.068  25.805  1.00  0.00     0.059 A 
ATOM     75  C   UNL A   1      43.546  22.457  27.384  1.00  0.00     0.059 A 
ATOM     76  F   UNL A   1      42.741  23.194  29.459  1.00  0.00    -0.206 F 
ATOM     77  C   UNL A   1      44.111  22.757  26.144  1.00  0.00     0.060 A 
BRANCH  77  78
ATOM     78  S   UNL A   1      44.450  21.434  24.962  1.00  0.00     0.124 S 
ATOM     79  O   UNL A   1      44.407  22.156  23.696  1.00  0.00    -0.237 OA
ATOM     80  O   UNL A   1      45.767  20.970  25.387  1.00  0.00    -0.237 OA
ATOM     81  O   UNL A   1      43.358  20.492  25.193  1.00  0.00    -0.744 OA
ENDBRANCH  77  78
ENDBRANCH  45  70
BRANCH  57  82
ATOM     82  C   UNL A   1      47.599  28.320  32.490  1.00  0.00     0.058 A 
ATOM     83  C   UNL A   1      48.587  29.042  31.805  1.00  0.00     0.135 A 
ATOM     84  C   UNL A   1      47.999  27.513  33.567  1.00  0.00     0.135 A 
ATOM     85  F   UNL A   1      48.255  29.817  30.760  1.00  0.00    -0.206 F 
ATOM     86  C   UNL A   1      49.928  28.958  32.165  1.00  0.00     0.059 A 
ATOM     87  C   UNL A   1      49.331  27.431  33.959  1.00  0.00     0.059 A 
ATOM     88  F   UNL A   1      47.090  26.808  34.257  1.00  0.00    -0.206 F 
ATOM     89  C   UNL A   1      50.289  28.150  33.245  1.00  0.00     0.060 A 
BRANCH  89  90
ATOM     90  S   UNL A   1      52.028  28.077  33.728  1.00  0.00     0.124 S 
ATOM     91  O   UNL A   1      52.062  26.853  34.519  1.00  0.00    -0.237 OA
ATOM     92  O   UNL A   1      52.710  28.018  32.438  1.00  0.00    -0.237 OA
ATOM     93  O   UNL A   1      52.224  29.315  34.476  1.00  0.00    -0.744 OA
ENDBRANCH  89  90
ENDBRANCH  57  82
ENDBRANCH  31  32
ENDBRANCH  24  26
ENDBRANCH  23  24
ENDBRANCH  22  23
ENDBRANCH   1  22
TORSDOF 17
ENDMDL
