MODEL 1
REMARK VINA RESULT:      -9.3      0.000      0.000
REMARK SMILES CC(C)(Br)[C@H](Br)C(=O)OCCOC(=O)c1ccc(-c2c3nc(c(-c4c(F)cc(S(=O)(=O)[O-])cc4F)c4ccc([nH]4)c(-c4c(F)cc(S(=O)(=O)[O-])cc4F)c4nc(c(-c5c(F)cc(S(=O)(=O)[O-])cc5F)c5ccc2[nH]5)C=C4)C=C3)cc1
REMARK SMILES IDX 11 1 10 2 9 3 7 4 8 5 5 6 6 7 2 8 1 9 3 10 4 11 12 12 13 13
REMARK SMILES IDX 14 14 15 15 16 16 80 17 17 18 79 19 18 20 19 21 20 22 73 23
REMARK SMILES IDX 21 24 78 25 72 26 74 27 22 28 77 29 71 30 70 31 23 33 57 34
REMARK SMILES IDX 36 35 56 36 37 37 40 38 55 39 75 40 38 41 39 42 54 44 76 45
REMARK SMILES IDX 41 46 24 47 25 48 34 49 26 50 27 51 33 52 35 53 28 54 29 55
REMARK SMILES IDX 30 56 31 57 32 58 58 59 59 60 68 61 60 62 61 63 67 64 69 65
REMARK SMILES IDX 62 66 63 67 64 68 65 69 66 70 42 71 43 72 52 73 44 74 45 75
REMARK SMILES IDX 51 76 53 77 46 78 47 79 48 80 49 81 50 82
REMARK H PARENT 74 32 40 43
REMARK Flexibility Score: inf
ROOT
ATOM      1  C   UNL A   1      34.460  32.908  28.007  1.00  0.00     0.275 C 
ENDROOT
BRANCH   1   2
ATOM      2  C   UNL A   1      33.597  34.073  28.505  1.00  0.00     0.274 C 
BRANCH   2   3
ATOM      3  O   UNL A   1      34.303  34.915  29.437  1.00  0.00    -0.461 OA
BRANCH   3   4
ATOM      4  C   UNL A   1      33.714  35.119  30.645  1.00  0.00     0.321 C 
ATOM      5  O   UNL A   1      32.499  35.142  30.820  1.00  0.00    -0.251 OA
BRANCH   4   6
ATOM      6  C   UNL A   1      34.695  35.346  31.786  1.00  0.00     0.183 C 
ATOM      7  Br  UNL A   1      34.005  36.735  32.999  1.00  0.00    -0.075 Br
BRANCH   6   8
ATOM      8  C   UNL A   1      35.283  34.100  32.492  1.00  0.00     0.043 C 
ATOM      9  C   UNL A   1      34.277  33.035  32.955  1.00  0.00     0.025 C 
ATOM     10  C   UNL A   1      36.115  34.546  33.710  1.00  0.00     0.025 C 
ATOM     11  Br  UNL A   1      36.547  33.098  31.312  1.00  0.00    -0.084 Br
ENDBRANCH   6   8
ENDBRANCH   4   6
ENDBRANCH   3   4
ENDBRANCH   2   3
ENDBRANCH   1   2
BRANCH   1  12
ATOM     12  O   UNL A   1      34.252  31.710  28.781  1.00  0.00    -0.458 OA
BRANCH  12  13
ATOM     13  C   UNL A   1      34.429  30.550  28.106  1.00  0.00     0.338 C 
ATOM     14  O   UNL A   1      33.636  30.010  27.355  1.00  0.00    -0.246 OA
BRANCH  13  15
ATOM     15  C   UNL A   1      35.806  30.065  28.288  1.00  0.00     0.060 A 
ATOM     16  C   UNL A   1      36.196  29.680  29.574  1.00  0.00     0.016 A 
ATOM     17  C   UNL A   1      36.728  30.076  27.241  1.00  0.00     0.016 A 
ATOM     18  C   UNL A   1      37.513  29.306  29.823  1.00  0.00     0.010 A 
ATOM     19  C   UNL A   1      38.053  29.702  27.494  1.00  0.00     0.010 A 
ATOM     20  C   UNL A   1      38.455  29.327  28.789  1.00  0.00    -0.014 A 
BRANCH  20  21
ATOM     21  C   UNL A   1      39.872  29.009  29.083  1.00  0.00     0.031 A 
ATOM     22  C   UNL A   1      40.749  30.043  29.727  1.00  0.00     0.074 A 
ATOM     23  C   UNL A   1      40.358  27.786  28.800  1.00  0.00     0.049 A 
ATOM     24  N   UNL A   1      42.029  29.992  29.994  1.00  0.00    -0.248 NA
ATOM     25  C   UNL A   1      40.100  31.303  30.124  1.00  0.00     0.031 C 
ATOM     26  C   UNL A   1      39.586  26.685  28.220  1.00  0.00     0.029 A 
ATOM     27  N   UNL A   1      41.616  27.266  28.959  1.00  0.00    -0.354 N 
ATOM     28  C   UNL A   1      42.345  31.216  30.570  1.00  0.00     0.074 A 
ATOM     29  C   UNL A   1      41.125  31.994  30.606  1.00  0.00     0.031 C 
ATOM     30  C   UNL A   1      40.391  25.621  28.069  1.00  0.00     0.029 A 
ATOM     31  C   UNL A   1      41.740  25.977  28.501  1.00  0.00     0.049 A 
ATOM     32  H   UNL A   1      42.360  27.768  29.364  1.00  0.00     0.167 HD
ATOM     33  C   UNL A   1      43.545  31.649  31.027  1.00  0.00     0.037 A 
ATOM     34  C   UNL A   1      42.826  25.184  28.410  1.00  0.00     0.037 A 
ATOM     35  C   UNL A   1      44.751  30.863  31.002  1.00  0.00     0.049 A 
ATOM     36  C   UNL A   1      44.157  25.704  28.879  1.00  0.00     0.074 A 
ATOM     37  C   UNL A   1      46.015  31.209  31.446  1.00  0.00     0.029 A 
ATOM     38  N   UNL A   1      44.842  29.570  30.504  1.00  0.00    -0.354 N 
ATOM     39  N   UNL A   1      44.446  26.871  29.405  1.00  0.00    -0.248 NA
ATOM     40  C   UNL A   1      45.311  24.806  28.733  1.00  0.00     0.031 C 
ATOM     41  C   UNL A   1      46.879  30.138  31.188  1.00  0.00     0.029 A 
ATOM     42  C   UNL A   1      46.144  29.110  30.617  1.00  0.00     0.049 A 
ATOM     43  H   UNL A   1      44.092  29.056  30.129  1.00  0.00     0.167 HD
ATOM     44  C   UNL A   1      45.811  26.841  29.666  1.00  0.00     0.074 A 
ATOM     45  C   UNL A   1      46.288  25.537  29.253  1.00  0.00     0.031 C 
ATOM     46  C   UNL A   1      46.599  27.808  30.201  1.00  0.00     0.037 A 
BRANCH  33  47
ATOM     47  C   UNL A   1      43.616  33.049  31.566  1.00  0.00     0.058 A 
ATOM     48  C   UNL A   1      43.299  33.344  32.901  1.00  0.00     0.135 A 
ATOM     49  C   UNL A   1      44.023  34.107  30.738  1.00  0.00     0.135 A 
ATOM     50  F   UNL A   1      42.887  32.372  33.729  1.00  0.00    -0.206 F 
ATOM     51  C   UNL A   1      43.362  34.645  33.391  1.00  0.00     0.059 A 
ATOM     52  C   UNL A   1      44.113  35.412  31.212  1.00  0.00     0.059 A 
ATOM     53  F   UNL A   1      44.333  33.877  29.452  1.00  0.00    -0.206 F 
ATOM     54  C   UNL A   1      43.765  35.673  32.536  1.00  0.00     0.060 A 
BRANCH  54  55
ATOM     55  S   UNL A   1      43.837  37.359  33.181  1.00  0.00     0.124 S 
ATOM     56  O   UNL A   1      45.149  37.370  33.820  1.00  0.00    -0.237 OA
ATOM     57  O   UNL A   1      43.714  38.165  31.970  1.00  0.00    -0.237 OA
ATOM     58  O   UNL A   1      42.696  37.423  34.089  1.00  0.00    -0.744 OA
ENDBRANCH  54  55
ENDBRANCH  33  47
BRANCH  34  59
ATOM     59  C   UNL A   1      42.700  23.824  27.827  1.00  0.00     0.058 A 
ATOM     60  C   UNL A   1      42.540  22.697  28.645  1.00  0.00     0.135 A 
ATOM     61  C   UNL A   1      42.721  23.628  26.437  1.00  0.00     0.135 A 
ATOM     62  F   UNL A   1      42.524  22.833  29.979  1.00  0.00    -0.206 F 
ATOM     63  C   UNL A   1      42.411  21.420  28.107  1.00  0.00     0.059 A 
ATOM     64  C   UNL A   1      42.572  22.364  25.874  1.00  0.00     0.059 A 
ATOM     65  F   UNL A   1      42.862  24.676  25.611  1.00  0.00    -0.206 F 
ATOM     66  C   UNL A   1      42.426  21.265  26.720  1.00  0.00     0.060 A 
BRANCH  66  67
ATOM     67  S   UNL A   1      42.199  19.612  26.025  1.00  0.00     0.124 S 
ATOM     68  O   UNL A   1      40.783  19.632  25.679  1.00  0.00    -0.237 OA
ATOM     69  O   UNL A   1      43.132  19.619  24.901  1.00  0.00    -0.237 OA
ATOM     70  O   UNL A   1      42.570  18.732  27.130  1.00  0.00    -0.744 OA
ENDBRANCH  66  67
ENDBRANCH  34  59
BRANCH  46  71
ATOM     71  C   UNL A   1      48.053  27.482  30.387  1.00  0.00     0.058 A 
ATOM     72  C   UNL A   1      48.530  26.904  31.573  1.00  0.00     0.135 A 
ATOM     73  C   UNL A   1      48.971  27.708  29.349  1.00  0.00     0.135 A 
ATOM     74  F   UNL A   1      47.693  26.676  32.597  1.00  0.00    -0.206 F 
ATOM     75  C   UNL A   1      49.873  26.578  31.732  1.00  0.00     0.059 A 
ATOM     76  C   UNL A   1      50.315  27.371  29.478  1.00  0.00     0.059 A 
ATOM     77  F   UNL A   1      48.562  28.250  28.191  1.00  0.00    -0.206 F 
ATOM     78  C   UNL A   1      50.758  26.816  30.678  1.00  0.00     0.060 A 
BRANCH  78  79
ATOM     79  S   UNL A   1      52.493  26.359  30.881  1.00  0.00     0.124 S 
ATOM     80  O   UNL A   1      53.009  27.495  31.638  1.00  0.00    -0.237 OA
ATOM     81  O   UNL A   1      52.405  25.098  31.611  1.00  0.00    -0.237 OA
ATOM     82  O   UNL A   1      52.976  26.248  29.507  1.00  0.00    -0.744 OA
ENDBRANCH  78  79
ENDBRANCH  46  71
ENDBRANCH  20  21
ENDBRANCH  13  15
ENDBRANCH  12  13
ENDBRANCH   1  12
TORSDOF 15
ENDMDL
MODEL 2
REMARK VINA RESULT:      -9.2      2.927      3.931
REMARK SMILES CC(C)(Br)[C@H](Br)C(=O)OCCOC(=O)c1ccc(-c2c3nc(c(-c4c(F)cc(S(=O)(=O)[O-])cc4F)c4ccc([nH]4)c(-c4c(F)cc(S(=O)(=O)[O-])cc4F)c4nc(c(-c5c(F)cc(S(=O)(=O)[O-])cc5F)c5ccc2[nH]5)C=C4)C=C3)cc1
REMARK SMILES IDX 11 1 10 2 9 3 7 4 8 5 5 6 6 7 2 8 1 9 3 10 4 11 12 12 13 13
REMARK SMILES IDX 14 14 15 15 16 16 80 17 17 18 79 19 18 20 19 21 20 22 73 23
REMARK SMILES IDX 21 24 78 25 72 26 74 27 22 28 77 29 71 30 70 31 23 33 57 34
REMARK SMILES IDX 36 35 56 36 37 37 40 38 55 39 75 40 38 41 39 42 54 44 76 45
REMARK SMILES IDX 41 46 24 47 25 48 34 49 26 50 27 51 33 52 35 53 28 54 29 55
REMARK SMILES IDX 30 56 31 57 32 58 58 59 59 60 68 61 60 62 61 63 67 64 69 65
REMARK SMILES IDX 62 66 63 67 64 68 65 69 66 70 42 71 43 72 52 73 44 74 45 75
REMARK SMILES IDX 51 76 53 77 46 78 47 79 48 80 49 81 50 82
REMARK H PARENT 74 32 40 43
REMARK Flexibility Score: inf
ROOT
ATOM      1  C   UNL A   1      36.252  32.019  31.591  1.00  0.00     0.275 C 
ENDROOT
BRANCH   1   2
ATOM      2  C   UNL A   1      35.061  32.331  32.504  1.00  0.00     0.274 C 
BRANCH   2   3
ATOM      3  O   UNL A   1      34.070  33.146  31.850  1.00  0.00    -0.461 OA
BRANCH   3   4
ATOM      4  C   UNL A   1      34.388  34.452  31.644  1.00  0.00     0.321 C 
ATOM      5  O   UNL A   1      35.229  35.063  32.297  1.00  0.00    -0.251 OA
BRANCH   4   6
ATOM      6  C   UNL A   1      33.589  35.121  30.537  1.00  0.00     0.183 C 
ATOM      7  Br  UNL A   1      33.116  36.958  31.064  1.00  0.00    -0.075 Br
BRANCH   6   8
ATOM      8  C   UNL A   1      34.105  34.974  29.084  1.00  0.00     0.043 C 
ATOM      9  C   UNL A   1      35.522  34.405  28.913  1.00  0.00     0.025 C 
ATOM     10  C   UNL A   1      34.044  36.343  28.378  1.00  0.00     0.025 C 
ATOM     11  Br  UNL A   1      32.954  33.754  28.000  1.00  0.00    -0.084 Br
ENDBRANCH   6   8
ENDBRANCH   4   6
ENDBRANCH   3   4
ENDBRANCH   2   3
ENDBRANCH   1   2
BRANCH   1  12
ATOM     12  O   UNL A   1      36.245  30.652  31.138  1.00  0.00    -0.458 OA
BRANCH  12  13
ATOM     13  C   UNL A   1      36.284  30.489  29.795  1.00  0.00     0.338 C 
ATOM     14  O   UNL A   1      35.442  30.843  28.988  1.00  0.00    -0.246 OA
BRANCH  13  15
ATOM     15  C   UNL A   1      37.583  29.929  29.391  1.00  0.00     0.060 A 
ATOM     16  C   UNL A   1      38.463  29.530  30.401  1.00  0.00     0.016 A 
ATOM     17  C   UNL A   1      37.973  29.883  28.052  1.00  0.00     0.016 A 
ATOM     18  C   UNL A   1      39.742  29.085  30.080  1.00  0.00     0.010 A 
ATOM     19  C   UNL A   1      39.261  29.438  27.731  1.00  0.00     0.010 A 
ATOM     20  C   UNL A   1      40.155  29.048  28.744  1.00  0.00    -0.014 A 
BRANCH  20  21
ATOM     21  C   UNL A   1      41.547  28.654  28.420  1.00  0.00     0.031 A 
ATOM     22  C   UNL A   1      42.636  29.687  28.432  1.00  0.00     0.074 A 
ATOM     23  C   UNL A   1      41.833  27.367  28.146  1.00  0.00     0.049 A 
ATOM     24  N   UNL A   1      43.896  29.564  28.104  1.00  0.00    -0.248 NA
ATOM     25  C   UNL A   1      42.257  31.039  28.874  1.00  0.00     0.031 C 
ATOM     26  C   UNL A   1      40.866  26.268  28.154  1.00  0.00     0.029 A 
ATOM     27  N   UNL A   1      43.019  26.769  27.806  1.00  0.00    -0.354 N 
ATOM     28  C   UNL A   1      44.457  30.823  28.277  1.00  0.00     0.074 A 
ATOM     29  C   UNL A   1      43.398  31.699  28.731  1.00  0.00     0.031 C 
ATOM     30  C   UNL A   1      41.499  25.129  27.829  1.00  0.00     0.029 A 
ATOM     31  C   UNL A   1      42.902  25.424  27.550  1.00  0.00     0.049 A 
ATOM     32  H   UNL A   1      43.872  27.256  27.751  1.00  0.00     0.167 HD
ATOM     33  C   UNL A   1      45.740  31.210  28.075  1.00  0.00     0.037 A 
ATOM     34  C   UNL A   1      43.816  24.538  27.110  1.00  0.00     0.037 A 
ATOM     35  C   UNL A   1      46.791  30.329  27.638  1.00  0.00     0.049 A 
ATOM     36  C   UNL A   1      45.222  25.001  26.846  1.00  0.00     0.074 A 
ATOM     37  C   UNL A   1      48.124  30.624  27.409  1.00  0.00     0.029 A 
ATOM     38  N   UNL A   1      46.628  28.978  27.362  1.00  0.00    -0.354 N 
ATOM     39  N   UNL A   1      45.736  26.200  26.996  1.00  0.00    -0.248 NA
ATOM     40  C   UNL A   1      46.171  23.998  26.343  1.00  0.00     0.031 C 
ATOM     41  C   UNL A   1      48.760  29.459  26.965  1.00  0.00     0.029 A 
ATOM     42  C   UNL A   1      47.831  28.430  26.952  1.00  0.00     0.049 A 
ATOM     43  H   UNL A   1      45.781  28.484  27.448  1.00  0.00     0.167 HD
ATOM     44  C   UNL A   1      47.070  26.090  26.621  1.00  0.00     0.074 A 
ATOM     45  C   UNL A   1      47.287  24.707  26.250  1.00  0.00     0.031 C 
ATOM     46  C   UNL A   1      48.028  27.049  26.587  1.00  0.00     0.037 A 
BRANCH  33  47
ATOM     47  C   UNL A   1      46.068  32.659  28.297  1.00  0.00     0.058 A 
ATOM     48  C   UNL A   1      46.512  33.134  29.541  1.00  0.00     0.135 A 
ATOM     49  C   UNL A   1      45.954  33.581  27.245  1.00  0.00     0.135 A 
ATOM     50  F   UNL A   1      46.621  32.298  30.585  1.00  0.00    -0.206 F 
ATOM     51  C   UNL A   1      46.810  34.479  29.741  1.00  0.00     0.059 A 
ATOM     52  C   UNL A   1      46.265  34.927  27.416  1.00  0.00     0.059 A 
ATOM     53  F   UNL A   1      45.530  33.178  26.037  1.00  0.00    -0.206 F 
ATOM     54  C   UNL A   1      46.677  35.368  28.672  1.00  0.00     0.060 A 
BRANCH  54  55
ATOM     55  S   UNL A   1      47.058  37.113  28.944  1.00  0.00     0.124 S 
ATOM     56  O   UNL A   1      46.062  37.763  28.098  1.00  0.00    -0.237 OA
ATOM     57  O   UNL A   1      46.860  37.259  30.382  1.00  0.00    -0.237 OA
ATOM     58  O   UNL A   1      48.441  37.233  28.490  1.00  0.00    -0.744 OA
ENDBRANCH  54  55
ENDBRANCH  33  47
BRANCH  34  59
ATOM     59  C   UNL A   1      43.419  23.127  26.866  1.00  0.00     0.058 A 
ATOM     60  C   UNL A   1      43.334  22.613  25.565  1.00  0.00     0.135 A 
ATOM     61  C   UNL A   1      43.132  22.261  27.934  1.00  0.00     0.135 A 
ATOM     62  F   UNL A   1      43.589  23.405  24.513  1.00  0.00    -0.206 F 
ATOM     63  C   UNL A   1      42.973  21.291  25.327  1.00  0.00     0.059 A 
ATOM     64  C   UNL A   1      42.790  20.929  27.723  1.00  0.00     0.059 A 
ATOM     65  F   UNL A   1      43.209  22.703  29.198  1.00  0.00    -0.206 F 
ATOM     66  C   UNL A   1      42.705  20.456  26.414  1.00  0.00     0.060 A 
BRANCH  66  67
ATOM     67  S   UNL A   1      42.294  18.724  26.102  1.00  0.00     0.124 S 
ATOM     68  O   UNL A   1      40.882  18.818  25.751  1.00  0.00    -0.237 OA
ATOM     69  O   UNL A   1      43.202  18.383  25.010  1.00  0.00    -0.237 OA
ATOM     70  O   UNL A   1      42.589  18.077  27.377  1.00  0.00    -0.744 OA
ENDBRANCH  66  67
ENDBRANCH  34  59
BRANCH  46  71
ATOM     71  C   UNL A   1      49.403  26.630  26.153  1.00  0.00     0.058 A 
ATOM     72  C   UNL A   1      49.835  26.790  24.828  1.00  0.00     0.135 A 
ATOM     73  C   UNL A   1      50.314  26.105  27.083  1.00  0.00     0.135 A 
ATOM     74  F   UNL A   1      48.999  27.281  23.900  1.00  0.00    -0.206 F 
ATOM     75  C   UNL A   1      51.119  26.426  24.434  1.00  0.00     0.059 A 
ATOM     76  C   UNL A   1      51.609  25.753  26.716  1.00  0.00     0.059 A 
ATOM     77  F   UNL A   1      49.952  25.940  28.365  1.00  0.00    -0.206 F 
ATOM     78  C   UNL A   1      51.999  25.908  25.386  1.00  0.00     0.060 A 
BRANCH  78  79
ATOM     79  S   UNL A   1      53.673  25.468  24.874  1.00  0.00     0.124 S 
ATOM     80  O   UNL A   1      53.700  25.962  23.502  1.00  0.00    -0.237 OA
ATOM     81  O   UNL A   1      54.499  26.202  25.829  1.00  0.00    -0.237 OA
ATOM     82  O   UNL A   1      53.701  24.016  25.020  1.00  0.00    -0.744 OA
ENDBRANCH  78  79
ENDBRANCH  46  71
ENDBRANCH  20  21
ENDBRANCH  13  15
ENDBRANCH  12  13
ENDBRANCH   1  12
TORSDOF 15
ENDMDL
MODEL 3
REMARK VINA RESULT:      -9.2      5.545     12.456
REMARK SMILES CC(C)(Br)[C@H](Br)C(=O)OCCOC(=O)c1ccc(-c2c3nc(c(-c4c(F)cc(S(=O)(=O)[O-])cc4F)c4ccc([nH]4)c(-c4c(F)cc(S(=O)(=O)[O-])cc4F)c4nc(c(-c5c(F)cc(S(=O)(=O)[O-])cc5F)c5ccc2[nH]5)C=C4)C=C3)cc1
REMARK SMILES IDX 11 1 10 2 9 3 7 4 8 5 5 6 6 7 2 8 1 9 3 10 4 11 12 12 13 13
REMARK SMILES IDX 14 14 15 15 16 16 80 17 17 18 79 19 18 20 19 21 20 22 73 23
REMARK SMILES IDX 21 24 78 25 72 26 74 27 22 28 77 29 71 30 70 31 23 33 57 34
REMARK SMILES IDX 36 35 56 36 37 37 40 38 55 39 75 40 38 41 39 42 54 44 76 45
REMARK SMILES IDX 41 46 24 47 25 48 34 49 26 50 27 51 33 52 35 53 28 54 29 55
REMARK SMILES IDX 30 56 31 57 32 58 58 59 59 60 68 61 60 62 61 63 67 64 69 65
REMARK SMILES IDX 62 66 63 67 64 68 65 69 66 70 42 71 43 72 52 73 44 74 45 75
REMARK SMILES IDX 51 76 53 77 46 78 47 79 48 80 49 81 50 82
REMARK H PARENT 74 32 40 43
REMARK Flexibility Score: inf
ROOT
ATOM      1  C   UNL A   1      43.106  24.243  26.107  1.00  0.00     0.275 C 
ENDROOT
BRANCH   1   2
ATOM      2  C   UNL A   1      43.774  23.755  24.816  1.00  0.00     0.274 C 
BRANCH   2   3
ATOM      3  O   UNL A   1      43.479  22.374  24.537  1.00  0.00    -0.461 OA
BRANCH   3   4
ATOM      4  C   UNL A   1      44.056  21.448  25.348  1.00  0.00     0.321 C 
ATOM      5  O   UNL A   1      45.140  21.603  25.902  1.00  0.00    -0.251 OA
BRANCH   4   6
ATOM      6  C   UNL A   1      43.251  20.166  25.501  1.00  0.00     0.183 C 
ATOM      7  Br  UNL A   1      44.430  18.603  25.290  1.00  0.00    -0.075 Br
BRANCH   6   8
ATOM      8  C   UNL A   1      42.256  20.074  26.684  1.00  0.00     0.043 C 
ATOM      9  C   UNL A   1      42.219  21.274  27.644  1.00  0.00     0.025 C 
ATOM     10  C   UNL A   1      42.552  18.804  27.505  1.00  0.00     0.025 C 
ATOM     11  Br  UNL A   1      40.367  19.889  26.061  1.00  0.00    -0.084 Br
ENDBRANCH   6   8
ENDBRANCH   4   6
ENDBRANCH   3   4
ENDBRANCH   2   3
ENDBRANCH   1   2
BRANCH   1  12
ATOM     12  O   UNL A   1      41.947  25.057  25.844  1.00  0.00    -0.458 OA
BRANCH  12  13
ATOM     13  C   UNL A   1      40.852  24.757  26.581  1.00  0.00     0.338 C 
ATOM     14  O   UNL A   1      40.202  23.726  26.542  1.00  0.00    -0.246 OA
BRANCH  13  15
ATOM     15  C   UNL A   1      40.608  25.812  27.576  1.00  0.00     0.060 A 
ATOM     16  C   UNL A   1      41.460  26.919  27.575  1.00  0.00     0.016 A 
ATOM     17  C   UNL A   1      39.622  25.677  28.554  1.00  0.00     0.016 A 
ATOM     18  C   UNL A   1      41.337  27.899  28.555  1.00  0.00     0.010 A 
ATOM     19  C   UNL A   1      39.500  26.662  29.541  1.00  0.00     0.010 A 
ATOM     20  C   UNL A   1      40.365  27.772  29.553  1.00  0.00    -0.014 A 
BRANCH  20  21
ATOM     21  C   UNL A   1      40.297  28.777  30.641  1.00  0.00     0.031 A 
ATOM     22  C   UNL A   1      41.226  28.668  31.815  1.00  0.00     0.074 A 
ATOM     23  C   UNL A   1      39.425  29.799  30.556  1.00  0.00     0.049 A 
ATOM     24  N   UNL A   1      41.275  29.394  32.901  1.00  0.00    -0.248 NA
ATOM     25  C   UNL A   1      42.236  27.599  31.759  1.00  0.00     0.031 C 
ATOM     26  C   UNL A   1      38.509  30.035  29.439  1.00  0.00     0.029 A 
ATOM     27  N   UNL A   1      39.166  30.827  31.426  1.00  0.00    -0.354 N 
ATOM     28  C   UNL A   1      42.302  28.861  33.669  1.00  0.00     0.074 A 
ATOM     29  C   UNL A   1      42.846  27.743  32.928  1.00  0.00     0.031 C 
ATOM     30  C   UNL A   1      37.785  31.137  29.695  1.00  0.00     0.029 A 
ATOM     31  C   UNL A   1      38.156  31.658  31.008  1.00  0.00     0.049 A 
ATOM     32  H   UNL A   1      39.658  30.956  32.268  1.00  0.00     0.167 HD
ATOM     33  C   UNL A   1      42.750  29.269  34.881  1.00  0.00     0.037 A 
ATOM     34  C   UNL A   1      37.574  32.704  31.629  1.00  0.00     0.037 A 
ATOM     35  C   UNL A   1      42.214  30.392  35.604  1.00  0.00     0.049 A 
ATOM     36  C   UNL A   1      38.055  33.108  32.995  1.00  0.00     0.074 A 
ATOM     37  C   UNL A   1      42.602  30.889  36.836  1.00  0.00     0.029 A 
ATOM     38  N   UNL A   1      41.172  31.194  35.160  1.00  0.00    -0.354 N 
ATOM     39  N   UNL A   1      39.017  32.583  33.718  1.00  0.00    -0.248 NA
ATOM     40  C   UNL A   1      37.368  34.238  33.635  1.00  0.00     0.031 C 
ATOM     41  C   UNL A   1      41.774  31.972  37.153  1.00  0.00     0.029 A 
ATOM     42  C   UNL A   1      40.893  32.173  36.101  1.00  0.00     0.049 A 
ATOM     43  H   UNL A   1      40.701  31.084  34.303  1.00  0.00     0.167 HD
ATOM     44  C   UNL A   1      39.059  33.328  34.891  1.00  0.00     0.074 A 
ATOM     45  C   UNL A   1      38.037  34.348  34.775  1.00  0.00     0.031 C 
ATOM     46  C   UNL A   1      39.872  33.181  35.967  1.00  0.00     0.037 A 
BRANCH  33  47
ATOM     47  C   UNL A   1      43.857  28.475  35.512  1.00  0.00     0.058 A 
ATOM     48  C   UNL A   1      45.209  28.773  35.277  1.00  0.00     0.135 A 
ATOM     49  C   UNL A   1      43.561  27.412  36.380  1.00  0.00     0.135 A 
ATOM     50  F   UNL A   1      45.546  29.767  34.441  1.00  0.00    -0.206 F 
ATOM     51  C   UNL A   1      46.229  28.029  35.862  1.00  0.00     0.059 A 
ATOM     52  C   UNL A   1      44.565  26.667  36.992  1.00  0.00     0.059 A 
ATOM     53  F   UNL A   1      42.284  27.084  36.635  1.00  0.00    -0.206 F 
ATOM     54  C   UNL A   1      45.895  26.974  36.714  1.00  0.00     0.060 A 
BRANCH  54  55
ATOM     55  S   UNL A   1      47.227  26.010  37.462  1.00  0.00     0.124 S 
ATOM     56  O   UNL A   1      46.512  24.812  37.893  1.00  0.00    -0.237 OA
ATOM     57  O   UNL A   1      48.150  25.829  36.347  1.00  0.00    -0.237 OA
ATOM     58  O   UNL A   1      47.709  26.873  38.536  1.00  0.00    -0.744 OA
ENDBRANCH  54  55
ENDBRANCH  33  47
BRANCH  34  59
ATOM     59  C   UNL A   1      36.453  33.422  30.971  1.00  0.00     0.058 A 
ATOM     60  C   UNL A   1      35.136  33.283  31.429  1.00  0.00     0.135 A 
ATOM     61  C   UNL A   1      36.681  34.276  29.880  1.00  0.00     0.135 A 
ATOM     62  F   UNL A   1      34.867  32.471  32.462  1.00  0.00    -0.206 F 
ATOM     63  C   UNL A   1      34.080  33.959  30.825  1.00  0.00     0.059 A 
ATOM     64  C   UNL A   1      35.646  34.980  29.273  1.00  0.00     0.059 A 
ATOM     65  F   UNL A   1      37.926  34.450  29.411  1.00  0.00    -0.206 F 
ATOM     66  C   UNL A   1      34.347  34.808  29.750  1.00  0.00     0.060 A 
BRANCH  66  67
ATOM     67  S   UNL A   1      32.981  35.729  29.007  1.00  0.00     0.124 S 
ATOM     68  O   UNL A   1      32.208  36.107  30.185  1.00  0.00    -0.237 OA
ATOM     69  O   UNL A   1      33.677  36.816  28.325  1.00  0.00    -0.237 OA
ATOM     70  O   UNL A   1      32.356  34.747  28.127  1.00  0.00    -0.744 OA
ENDBRANCH  66  67
ENDBRANCH  34  59
BRANCH  46  71
ATOM     71  C   UNL A   1      39.701  34.158  37.095  1.00  0.00     0.058 A 
ATOM     72  C   UNL A   1      38.850  33.888  38.176  1.00  0.00     0.135 A 
ATOM     73  C   UNL A   1      40.433  35.355  37.114  1.00  0.00     0.135 A 
ATOM     74  F   UNL A   1      38.124  32.760  38.199  1.00  0.00    -0.206 F 
ATOM     75  C   UNL A   1      38.715  34.783  39.233  1.00  0.00     0.059 A 
ATOM     76  C   UNL A   1      40.328  36.256  38.171  1.00  0.00     0.059 A 
ATOM     77  F   UNL A   1      41.267  35.655  36.107  1.00  0.00    -0.206 F 
ATOM     78  C   UNL A   1      39.458  35.965  39.221  1.00  0.00     0.060 A 
BRANCH  78  79
ATOM     79  S   UNL A   1      39.301  37.105  40.612  1.00  0.00     0.124 S 
ATOM     80  O   UNL A   1      38.865  36.210  41.678  1.00  0.00    -0.237 OA
ATOM     81  O   UNL A   1      40.656  37.633  40.742  1.00  0.00    -0.237 OA
ATOM     82  O   UNL A   1      38.304  38.066  40.150  1.00  0.00    -0.744 OA
ENDBRANCH  78  79
ENDBRANCH  46  71
ENDBRANCH  20  21
ENDBRANCH  13  15
ENDBRANCH  12  13
ENDBRANCH   1  12
TORSDOF 15
ENDMDL
