MODEL 1
REMARK VINA RESULT:     -12.4      0.000      0.000
REMARK SMILES CCCCN1C(=O)[C@H]2[C@H](CCC(=O)OCCOC(=O)c3ccc(-c4c5nc(c(-c6c(F)cc(S(=O)(=O)[O-])cc6F)c6ccc([nH]6)c(-c6c(F)cc(S(=O)(=O)[O-])cc6F)c6nc(c(-c7c(F)cc(S(=O)(=O)[O-])cc7F)c7ccc4[nH]7)C=C6)C=C5)cc3)[NH2+][C@@]3(C(=O)Nc4c(CC)cccc43)[C@H]2C1=O
REMARK SMILES IDX 15 1 14 2 12 3 13 4 11 5 10 6 9 7 5 8 6 9 100 10 8 11 7 12
REMARK SMILES IDX 99 13 101 14 87 15 86 16 88 17 98 18 90 21 89 22 91 23 97 24
REMARK SMILES IDX 92 26 96 27 95 28 4 29 3 30 2 31 1 32 93 33 94 34 16 35
REMARK SMILES IDX 17 36 18 37 19 38 20 39 21 40 85 41 22 42 84 43 23 44 24 45
REMARK SMILES IDX 25 46 78 47 26 48 83 49 77 50 79 51 27 52 82 53 76 54 75 55
REMARK SMILES IDX 28 57 62 58 41 59 61 60 42 61 45 62 60 63 80 64 43 65 44 66
REMARK SMILES IDX 59 68 81 69 46 70 29 71 30 72 39 73 31 74 32 75 38 76 40 77
REMARK SMILES IDX 33 78 34 79 35 80 36 81 37 82 63 83 64 84 73 85 65 86 66 87
REMARK SMILES IDX 72 88 74 89 67 90 68 91 69 92 70 93 71 94 47 95 48 96 57 97
REMARK SMILES IDX 49 98 50 99 56 100 58 101 51 102 52 103 53 104 54 105 55 106
REMARK H PARENT 86 19 86 20 90 25 79 56 45 67
REMARK Flexibility Score: inf
ROOT
ATOM      1  C   UNL A   1      34.205  31.942  28.408  1.00  0.00     0.274 C 
ENDROOT
BRANCH   1   2
ATOM      2  O   UNL A   1      34.136  30.817  27.510  1.00  0.00    -0.462 OA
BRANCH   2   3
ATOM      3  C   UNL A   1      32.908  30.271  27.316  1.00  0.00     0.306 C 
ATOM      4  O   UNL A   1      31.953  30.853  26.819  1.00  0.00    -0.252 OA
BRANCH   3   5
ATOM      5  C   UNL A   1      32.827  28.856  27.837  1.00  0.00     0.129 C 
BRANCH   5   6
ATOM      6  C   UNL A   1      31.847  27.930  27.114  1.00  0.00     0.077 C 
BRANCH   6   7
ATOM      7  C   UNL A   1      32.074  27.847  25.599  1.00  0.00     0.197 C 
ATOM      8  N   UNL A   1      33.176  25.279  23.477  1.00  0.00    -0.282 N 
ATOM      9  C   UNL A   1      33.354  26.038  24.588  1.00  0.00     0.239 C 
ATOM     10  C   UNL A   1      31.970  25.576  22.885  1.00  0.00     0.240 C 
ATOM     11  C   UNL A   1      32.003  26.429  25.083  1.00  0.00     0.157 C 
ATOM     12  O   UNL A   1      34.397  26.401  25.106  1.00  0.00    -0.274 OA
ATOM     13  C   UNL A   1      31.129  26.407  23.826  1.00  0.00     0.174 C 
ATOM     14  O   UNL A   1      31.598  25.216  21.776  1.00  0.00    -0.274 OA
ATOM     15  C   UNL A   1      30.873  27.872  23.522  1.00  0.00     0.216 C 
ATOM     16  N   UNL A   1      31.003  28.486  24.873  1.00  0.00    -0.326 N 
ATOM     17  C   UNL A   1      31.840  28.605  22.547  1.00  0.00     0.291 C 
ATOM     18  C   UNL A   1      29.536  28.371  23.015  1.00  0.00     0.047 A 
ATOM     19  H   UNL A   1      31.206  29.480  24.774  1.00  0.00     0.347 HD
ATOM     20  H   UNL A   1      30.129  28.362  25.384  1.00  0.00     0.347 HD
ATOM     21  N   UNL A   1      31.106  29.637  21.963  1.00  0.00    -0.320 N 
ATOM     22  O   UNL A   1      33.035  28.409  22.398  1.00  0.00    -0.267 OA
ATOM     23  C   UNL A   1      29.748  29.548  22.268  1.00  0.00     0.054 A 
ATOM     24  C   UNL A   1      28.263  27.996  23.412  1.00  0.00     0.013 A 
ATOM     25  H   UNL A   1      31.498  30.343  21.400  1.00  0.00     0.170 HD
ATOM     26  C   UNL A   1      28.725  30.454  22.012  1.00  0.00    -0.024 A 
ATOM     27  C   UNL A   1      27.202  28.838  23.088  1.00  0.00     0.001 A 
ATOM     28  C   UNL A   1      27.432  30.051  22.417  1.00  0.00     0.006 A 
BRANCH   8  29
ATOM     29  C   UNL A   1      34.164  24.395  22.874  1.00  0.00     0.128 C 
BRANCH  29  30
ATOM     30  C   UNL A   1      34.167  22.906  23.265  1.00  0.00     0.022 C 
BRANCH  30  31
ATOM     31  C   UNL A   1      32.838  22.243  23.670  1.00  0.00    -0.002 C 
ATOM     32  C   UNL A   1      32.176  21.398  22.600  1.00  0.00     0.004 C 
ENDBRANCH  30  31
ENDBRANCH  29  30
ENDBRANCH   8  29
BRANCH  26  33
ATOM     33  C   UNL A   1      28.846  31.858  21.467  1.00  0.00     0.034 C 
ATOM     34  C   UNL A   1      28.764  33.033  22.430  1.00  0.00     0.009 C 
ENDBRANCH  26  33
ENDBRANCH   6   7
ENDBRANCH   5   6
ENDBRANCH   3   5
ENDBRANCH   2   3
ENDBRANCH   1   2
BRANCH   1  35
ATOM     35  C   UNL A   1      35.294  31.728  29.461  1.00  0.00     0.275 C 
BRANCH  35  36
ATOM     36  O   UNL A   1      35.868  30.428  29.299  1.00  0.00    -0.458 OA
BRANCH  36  37
ATOM     37  C   UNL A   1      36.562  29.897  30.337  1.00  0.00     0.338 C 
ATOM     38  O   UNL A   1      36.192  29.482  31.399  1.00  0.00    -0.246 OA
BRANCH  37  39
ATOM     39  C   UNL A   1      37.955  29.973  29.898  1.00  0.00     0.060 A 
ATOM     40  C   UNL A   1      38.203  29.930  28.526  1.00  0.00     0.016 A 
ATOM     41  C   UNL A   1      38.980  29.885  30.843  1.00  0.00     0.016 A 
ATOM     42  C   UNL A   1      39.496  29.687  28.097  1.00  0.00     0.010 A 
ATOM     43  C   UNL A   1      40.276  29.659  30.407  1.00  0.00     0.010 A 
ATOM     44  C   UNL A   1      40.523  29.510  29.037  1.00  0.00    -0.014 A 
BRANCH  44  45
ATOM     45  C   UNL A   1      41.865  29.129  28.567  1.00  0.00     0.031 A 
ATOM     46  C   UNL A   1      42.956  30.158  28.510  1.00  0.00     0.074 A 
ATOM     47  C   UNL A   1      42.072  27.846  28.232  1.00  0.00     0.049 A 
ATOM     48  N   UNL A   1      44.212  29.999  28.190  1.00  0.00    -0.248 NA
ATOM     49  C   UNL A   1      42.593  31.545  28.850  1.00  0.00     0.031 C 
ATOM     50  C   UNL A   1      41.044  26.801  28.242  1.00  0.00     0.029 A 
ATOM     51  N   UNL A   1      43.205  27.202  27.822  1.00  0.00    -0.354 N 
ATOM     52  C   UNL A   1      44.792  31.257  28.298  1.00  0.00     0.074 A 
ATOM     53  C   UNL A   1      43.747  32.179  28.680  1.00  0.00     0.031 C 
ATOM     54  C   UNL A   1      41.599  25.641  27.862  1.00  0.00     0.029 A 
ATOM     55  C   UNL A   1      43.010  25.867  27.567  1.00  0.00     0.049 A 
ATOM     56  H   UNL A   1      44.075  27.650  27.721  1.00  0.00     0.167 HD
ATOM     57  C   UNL A   1      46.088  31.594  28.103  1.00  0.00     0.037 A 
ATOM     58  C   UNL A   1      43.881  24.936  27.138  1.00  0.00     0.037 A 
ATOM     59  C   UNL A   1      47.105  30.646  27.730  1.00  0.00     0.049 A 
ATOM     60  C   UNL A   1      45.312  25.341  26.936  1.00  0.00     0.074 A 
ATOM     61  C   UNL A   1      48.460  30.862  27.549  1.00  0.00     0.029 A 
ATOM     62  N   UNL A   1      46.876  29.300  27.478  1.00  0.00    -0.354 N 
ATOM     63  N   UNL A   1      45.862  26.522  27.101  1.00  0.00    -0.248 NA
ATOM     64  C   UNL A   1      46.245  24.295  26.502  1.00  0.00     0.031 C 
ATOM     65  C   UNL A   1      49.043  29.654  27.151  1.00  0.00     0.029 A 
ATOM     66  C   UNL A   1      48.060  28.677  27.124  1.00  0.00     0.049 A 
ATOM     67  H   UNL A   1      46.001  28.855  27.541  1.00  0.00     0.167 HD
ATOM     68  C   UNL A   1      47.207  26.360  26.799  1.00  0.00     0.074 A 
ATOM     69  C   UNL A   1      47.391  24.961  26.465  1.00  0.00     0.031 C 
ATOM     70  C   UNL A   1      48.201  27.281  26.793  1.00  0.00     0.037 A 
BRANCH  57  71
ATOM     71  C   UNL A   1      46.497  33.027  28.297  1.00  0.00     0.058 A 
ATOM     72  C   UNL A   1      47.008  33.482  29.523  1.00  0.00     0.135 A 
ATOM     73  C   UNL A   1      46.487  33.926  27.218  1.00  0.00     0.135 A 
ATOM     74  F   UNL A   1      47.024  32.670  30.592  1.00  0.00    -0.206 F 
ATOM     75  C   UNL A   1      47.507  34.773  29.669  1.00  0.00     0.059 A 
ATOM     76  C   UNL A   1      46.998  35.217  27.336  1.00  0.00     0.059 A 
ATOM     77  F   UNL A   1      46.001  33.545  26.027  1.00  0.00    -0.206 F 
ATOM     78  C   UNL A   1      47.509  35.629  28.567  1.00  0.00     0.060 A 
BRANCH  78  79
ATOM     79  S   UNL A   1      48.233  37.274  28.756  1.00  0.00     0.124 S 
ATOM     80  O   UNL A   1      49.430  36.980  29.539  1.00  0.00    -0.237 OA
ATOM     81  O   UNL A   1      48.464  37.672  27.372  1.00  0.00    -0.237 OA
ATOM     82  O   UNL A   1      47.196  38.025  29.457  1.00  0.00    -0.744 OA
ENDBRANCH  78  79
ENDBRANCH  57  71
BRANCH  58  83
ATOM     83  C   UNL A   1      43.414  23.551  26.890  1.00  0.00     0.058 A 
ATOM     84  C   UNL A   1      43.232  23.067  25.587  1.00  0.00     0.135 A 
ATOM     85  C   UNL A   1      43.178  22.668  27.957  1.00  0.00     0.135 A 
ATOM     86  F   UNL A   1      43.452  23.872  24.537  1.00  0.00    -0.206 F 
ATOM     87  C   UNL A   1      42.814  21.762  25.349  1.00  0.00     0.059 A 
ATOM     88  C   UNL A   1      42.781  21.352  27.743  1.00  0.00     0.059 A 
ATOM     89  F   UNL A   1      43.363  23.077  29.221  1.00  0.00    -0.206 F 
ATOM     90  C   UNL A   1      42.592  20.912  26.434  1.00  0.00     0.060 A 
BRANCH  90  91
ATOM     91  S   UNL A   1      42.087  19.209  26.112  1.00  0.00     0.124 S 
ATOM     92  O   UNL A   1      42.838  18.905  24.899  1.00  0.00    -0.237 OA
ATOM     93  O   UNL A   1      42.524  18.523  27.324  1.00  0.00    -0.237 OA
ATOM     94  O   UNL A   1      40.639  19.314  25.949  1.00  0.00    -0.744 OA
ENDBRANCH  90  91
ENDBRANCH  58  83
BRANCH  70  95
ATOM     95  C   UNL A   1      49.570  26.801  26.413  1.00  0.00     0.058 A 
ATOM     96  C   UNL A   1      50.357  26.065  27.310  1.00  0.00     0.135 A 
ATOM     97  C   UNL A   1      50.072  27.028  25.122  1.00  0.00     0.135 A 
ATOM     98  F   UNL A   1      49.920  25.831  28.558  1.00  0.00    -0.206 F 
ATOM     99  C   UNL A   1      51.607  25.581  26.946  1.00  0.00     0.059 A 
ATOM    100  C   UNL A   1      51.309  26.533  24.728  1.00  0.00     0.059 A 
ATOM    101  F   UNL A   1      49.350  27.719  24.226  1.00  0.00    -0.206 F 
ATOM    102  C   UNL A   1      52.073  25.818  25.651  1.00  0.00     0.060 A 
BRANCH 102 103
ATOM    103  S   UNL A   1      53.681  25.151  25.179  1.00  0.00     0.124 S 
ATOM    104  O   UNL A   1      54.575  25.880  26.074  1.00  0.00    -0.237 OA
ATOM    105  O   UNL A   1      53.525  23.728  25.461  1.00  0.00    -0.237 OA
ATOM    106  O   UNL A   1      53.791  25.495  23.764  1.00  0.00    -0.744 OA
ENDBRANCH 102 103
ENDBRANCH  70  95
ENDBRANCH  44  45
ENDBRANCH  37  39
ENDBRANCH  36  37
ENDBRANCH  35  36
ENDBRANCH   1  35
TORSDOF 20
ENDMDL
MODEL 2
REMARK VINA RESULT:     -12.0      5.838      7.951
REMARK SMILES CCCCN1C(=O)[C@H]2[C@H](CCC(=O)OCCOC(=O)c3ccc(-c4c5nc(c(-c6c(F)cc(S(=O)(=O)[O-])cc6F)c6ccc([nH]6)c(-c6c(F)cc(S(=O)(=O)[O-])cc6F)c6nc(c(-c7c(F)cc(S(=O)(=O)[O-])cc7F)c7ccc4[nH]7)C=C6)C=C5)cc3)[NH2+][C@@]3(C(=O)Nc4c(CC)cccc43)[C@H]2C1=O
REMARK SMILES IDX 15 1 14 2 12 3 13 4 11 5 10 6 9 7 5 8 6 9 100 10 8 11 7 12
REMARK SMILES IDX 99 13 101 14 87 15 86 16 88 17 98 18 90 21 89 22 91 23 97 24
REMARK SMILES IDX 92 26 96 27 95 28 4 29 3 30 2 31 1 32 93 33 94 34 16 35
REMARK SMILES IDX 17 36 18 37 19 38 20 39 21 40 85 41 22 42 84 43 23 44 24 45
REMARK SMILES IDX 25 46 78 47 26 48 83 49 77 50 79 51 27 52 82 53 76 54 75 55
REMARK SMILES IDX 28 57 62 58 41 59 61 60 42 61 45 62 60 63 80 64 43 65 44 66
REMARK SMILES IDX 59 68 81 69 46 70 29 71 30 72 39 73 31 74 32 75 38 76 40 77
REMARK SMILES IDX 33 78 34 79 35 80 36 81 37 82 63 83 64 84 73 85 65 86 66 87
REMARK SMILES IDX 72 88 74 89 67 90 68 91 69 92 70 93 71 94 47 95 48 96 57 97
REMARK SMILES IDX 49 98 50 99 56 100 58 101 51 102 52 103 53 104 54 105 55 106
REMARK H PARENT 86 19 86 20 90 25 79 56 45 67
REMARK Flexibility Score: inf
ROOT
ATOM      1  C   UNL A   1      31.578  32.320  27.090  1.00  0.00     0.274 C 
ENDROOT
BRANCH   1   2
ATOM      2  O   UNL A   1      32.153  31.172  26.437  1.00  0.00    -0.462 OA
BRANCH   2   3
ATOM      3  C   UNL A   1      32.698  30.226  27.245  1.00  0.00     0.306 C 
ATOM      4  O   UNL A   1      33.876  30.178  27.571  1.00  0.00    -0.252 OA
BRANCH   3   5
ATOM      5  C   UNL A   1      31.685  29.189  27.668  1.00  0.00     0.129 C 
BRANCH   5   6
ATOM      6  C   UNL A   1      31.877  27.787  27.085  1.00  0.00     0.077 C 
BRANCH   6   7
ATOM      7  C   UNL A   1      32.096  27.771  25.566  1.00  0.00     0.197 C 
ATOM      8  N   UNL A   1      33.196  25.302  23.329  1.00  0.00    -0.282 N 
ATOM      9  C   UNL A   1      33.377  26.013  24.471  1.00  0.00     0.239 C 
ATOM     10  C   UNL A   1      31.986  25.620  22.756  1.00  0.00     0.240 C 
ATOM     11  C   UNL A   1      32.028  26.377  24.989  1.00  0.00     0.157 C 
ATOM     12  O   UNL A   1      34.422  26.357  24.999  1.00  0.00    -0.274 OA
ATOM     13  C   UNL A   1      31.147  26.406  23.738  1.00  0.00     0.174 C 
ATOM     14  O   UNL A   1      31.609  25.307  21.636  1.00  0.00    -0.274 OA
ATOM     15  C   UNL A   1      30.884  27.882  23.499  1.00  0.00     0.216 C 
ATOM     16  N   UNL A   1      31.019  28.436  24.875  1.00  0.00    -0.326 N 
ATOM     17  C   UNL A   1      31.843  28.660  22.552  1.00  0.00     0.291 C 
ATOM     18  C   UNL A   1      29.542  28.397  23.021  1.00  0.00     0.047 A 
ATOM     19  H   UNL A   1      31.218  29.435  24.818  1.00  0.00     0.347 HD
ATOM     20  H   UNL A   1      30.149  28.288  25.384  1.00  0.00     0.347 HD
ATOM     21  N   UNL A   1      31.102  29.714  22.017  1.00  0.00    -0.320 N 
ATOM     22  O   UNL A   1      33.038  28.476  22.388  1.00  0.00    -0.267 OA
ATOM     23  C   UNL A   1      29.746  29.607  22.326  1.00  0.00     0.054 A 
ATOM     24  C   UNL A   1      28.272  28.000  23.408  1.00  0.00     0.013 A 
ATOM     25  H   UNL A   1      31.489  30.445  21.484  1.00  0.00     0.170 HD
ATOM     26  C   UNL A   1      28.718  30.519  22.115  1.00  0.00    -0.024 A 
ATOM     27  C   UNL A   1      27.207  28.852  23.127  1.00  0.00     0.001 A 
ATOM     28  C   UNL A   1      27.429  30.094  22.509  1.00  0.00     0.006 A 
BRANCH   8  29
ATOM     29  C   UNL A   1      34.184  24.449  22.683  1.00  0.00     0.128 C 
BRANCH  29  30
ATOM     30  C   UNL A   1      34.625  23.154  23.389  1.00  0.00     0.022 C 
BRANCH  30  31
ATOM     31  C   UNL A   1      33.545  22.174  23.883  1.00  0.00    -0.002 C 
ATOM     32  C   UNL A   1      33.194  22.274  25.353  1.00  0.00     0.004 C 
ENDBRANCH  30  31
ENDBRANCH  29  30
ENDBRANCH   8  29
BRANCH  26  33
ATOM     33  C   UNL A   1      28.831  31.946  21.630  1.00  0.00     0.034 C 
ATOM     34  C   UNL A   1      28.778  33.076  22.648  1.00  0.00     0.009 C 
ENDBRANCH  26  33
ENDBRANCH   6   7
ENDBRANCH   5   6
ENDBRANCH   3   5
ENDBRANCH   2   3
ENDBRANCH   1   2
BRANCH   1  35
ATOM     35  C   UNL A   1      32.617  33.433  27.243  1.00  0.00     0.275 C 
BRANCH  35  36
ATOM     36  O   UNL A   1      32.566  33.956  28.574  1.00  0.00    -0.458 OA
BRANCH  36  37
ATOM     37  C   UNL A   1      33.512  34.853  28.950  1.00  0.00     0.338 C 
ATOM     38  O   UNL A   1      33.502  36.052  28.950  1.00  0.00    -0.246 OA
BRANCH  37  39
ATOM     39  C   UNL A   1      34.646  34.017  29.343  1.00  0.00     0.060 A 
ATOM     40  C   UNL A   1      34.408  32.996  30.262  1.00  0.00     0.016 A 
ATOM     41  C   UNL A   1      35.937  34.382  28.952  1.00  0.00     0.016 A 
ATOM     42  C   UNL A   1      35.492  32.401  30.883  1.00  0.00     0.010 A 
ATOM     43  C   UNL A   1      37.021  33.771  29.565  1.00  0.00     0.010 A 
ATOM     44  C   UNL A   1      36.795  32.817  30.565  1.00  0.00    -0.014 A 
BRANCH  44  45
ATOM     45  C   UNL A   1      37.927  32.262  31.323  1.00  0.00     0.031 A 
ATOM     46  C   UNL A   1      38.285  32.840  32.661  1.00  0.00     0.074 A 
ATOM     47  C   UNL A   1      38.589  31.221  30.793  1.00  0.00     0.049 A 
ATOM     48  N   UNL A   1      39.201  32.444  33.503  1.00  0.00    -0.248 NA
ATOM     49  C   UNL A   1      37.522  34.016  33.114  1.00  0.00     0.031 C 
ATOM     50  C   UNL A   1      38.305  30.629  29.482  1.00  0.00     0.029 A 
ATOM     51  N   UNL A   1      39.625  30.478  31.282  1.00  0.00    -0.354 N 
ATOM     52  C   UNL A   1      39.122  33.311  34.586  1.00  0.00     0.074 A 
ATOM     53  C   UNL A   1      38.091  34.278  34.284  1.00  0.00     0.031 C 
ATOM     54  C   UNL A   1      39.147  29.605  29.276  1.00  0.00     0.029 A 
ATOM     55  C   UNL A   1      40.034  29.484  30.427  1.00  0.00     0.049 A 
ATOM     56  H   UNL A   1      40.038  30.639  32.161  1.00  0.00     0.167 HD
ATOM     57  C   UNL A   1      39.844  33.282  35.729  1.00  0.00     0.037 A 
ATOM     58  C   UNL A   1      41.021  28.582  30.567  1.00  0.00     0.037 A 
ATOM     59  C   UNL A   1      40.859  32.297  36.000  1.00  0.00     0.049 A 
ATOM     60  C   UNL A   1      41.801  28.573  31.849  1.00  0.00     0.074 A 
ATOM     61  C   UNL A   1      41.624  32.139  37.141  1.00  0.00     0.029 A 
ATOM     62  N   UNL A   1      41.251  31.303  35.113  1.00  0.00    -0.354 N 
ATOM     63  N   UNL A   1      41.675  29.360  32.892  1.00  0.00    -0.248 NA
ATOM     64  C   UNL A   1      42.848  27.553  31.984  1.00  0.00     0.031 C 
ATOM     65  C   UNL A   1      42.505  31.074  36.930  1.00  0.00     0.029 A 
ATOM     66  C   UNL A   1      42.261  30.540  35.674  1.00  0.00     0.049 A 
ATOM     67  H   UNL A   1      40.867  31.161  34.218  1.00  0.00     0.167 HD
ATOM     68  C   UNL A   1      42.620  28.927  33.811  1.00  0.00     0.074 A 
ATOM     69  C   UNL A   1      43.293  27.792  33.210  1.00  0.00     0.031 C 
ATOM     70  C   UNL A   1      42.910  29.421  35.040  1.00  0.00     0.037 A 
BRANCH  57  71
ATOM     71  C   UNL A   1      39.570  34.319  36.781  1.00  0.00     0.058 A 
ATOM     72  C   UNL A   1      38.737  34.045  37.878  1.00  0.00     0.135 A 
ATOM     73  C   UNL A   1      40.235  35.556  36.757  1.00  0.00     0.135 A 
ATOM     74  F   UNL A   1      38.064  32.886  37.943  1.00  0.00    -0.206 F 
ATOM     75  C   UNL A   1      38.584  34.956  38.919  1.00  0.00     0.059 A 
ATOM     76  C   UNL A   1      40.110  36.475  37.797  1.00  0.00     0.059 A 
ATOM     77  F   UNL A   1      41.036  35.871  35.727  1.00  0.00    -0.206 F 
ATOM     78  C   UNL A   1      39.283  36.163  38.876  1.00  0.00     0.060 A 
BRANCH  78  79
ATOM     79  S   UNL A   1      39.131  37.297  40.274  1.00  0.00     0.124 S 
ATOM     80  O   UNL A   1      38.266  38.333  39.718  1.00  0.00    -0.237 OA
ATOM     81  O   UNL A   1      38.526  36.450  41.296  1.00  0.00    -0.237 OA
ATOM     82  O   UNL A   1      40.508  37.705  40.535  1.00  0.00    -0.744 OA
ENDBRANCH  78  79
ENDBRANCH  57  71
BRANCH  58  83
ATOM     83  C   UNL A   1      41.303  27.625  29.469  1.00  0.00     0.058 A 
ATOM     84  C   UNL A   1      42.472  27.721  28.702  1.00  0.00     0.135 A 
ATOM     85  C   UNL A   1      40.421  26.567  29.192  1.00  0.00     0.135 A 
ATOM     86  F   UNL A   1      43.346  28.711  28.935  1.00  0.00    -0.206 F 
ATOM     87  C   UNL A   1      42.750  26.814  27.685  1.00  0.00     0.059 A 
ATOM     88  C   UNL A   1      40.689  25.635  28.195  1.00  0.00     0.059 A 
ATOM     89  F   UNL A   1      39.301  26.419  29.915  1.00  0.00    -0.206 F 
ATOM     90  C   UNL A   1      41.852  25.774  27.440  1.00  0.00     0.060 A 
BRANCH  90  91
ATOM     91  S   UNL A   1      42.242  24.579  26.143  1.00  0.00     0.124 S 
ATOM     92  O   UNL A   1      41.420  23.441  26.537  1.00  0.00    -0.237 OA
ATOM     93  O   UNL A   1      41.822  25.285  24.937  1.00  0.00    -0.237 OA
ATOM     94  O   UNL A   1      43.684  24.395  26.281  1.00  0.00    -0.744 OA
ENDBRANCH  90  91
ENDBRANCH  58  83
BRANCH  70  95
ATOM     95  C   UNL A   1      44.001  28.736  35.807  1.00  0.00     0.058 A 
ATOM     96  C   UNL A   1      43.725  27.648  36.648  1.00  0.00     0.135 A 
ATOM     97  C   UNL A   1      45.338  29.133  35.653  1.00  0.00     0.135 A 
ATOM     98  F   UNL A   1      42.460  27.239  36.831  1.00  0.00    -0.206 F 
ATOM     99  C   UNL A   1      44.740  26.984  37.326  1.00  0.00     0.059 A 
ATOM    100  C   UNL A   1      46.372  28.467  36.302  1.00  0.00     0.059 A 
ATOM    101  F   UNL A   1      45.651  30.163  34.850  1.00  0.00    -0.206 F 
ATOM    102  C   UNL A   1      46.060  27.400  37.144  1.00  0.00     0.060 A 
BRANCH 102 103
ATOM    103  S   UNL A   1      47.371  26.503  38.000  1.00  0.00     0.124 S 
ATOM    104  O   UNL A   1      47.077  25.124  37.624  1.00  0.00    -0.237 OA
ATOM    105  O   UNL A   1      48.578  27.078  37.414  1.00  0.00    -0.237 OA
ATOM    106  O   UNL A   1      47.146  26.832  39.405  1.00  0.00    -0.744 OA
ENDBRANCH 102 103
ENDBRANCH  70  95
ENDBRANCH  44  45
ENDBRANCH  37  39
ENDBRANCH  36  37
ENDBRANCH  35  36
ENDBRANCH   1  35
TORSDOF 20
ENDMDL
MODEL 3
REMARK VINA RESULT:     -12.0      1.015      3.681
REMARK SMILES CCCCN1C(=O)[C@H]2[C@H](CCC(=O)OCCOC(=O)c3ccc(-c4c5nc(c(-c6c(F)cc(S(=O)(=O)[O-])cc6F)c6ccc([nH]6)c(-c6c(F)cc(S(=O)(=O)[O-])cc6F)c6nc(c(-c7c(F)cc(S(=O)(=O)[O-])cc7F)c7ccc4[nH]7)C=C6)C=C5)cc3)[NH2+][C@@]3(C(=O)Nc4c(CC)cccc43)[C@H]2C1=O
REMARK SMILES IDX 15 1 14 2 12 3 13 4 11 5 10 6 9 7 5 8 6 9 100 10 8 11 7 12
REMARK SMILES IDX 99 13 101 14 87 15 86 16 88 17 98 18 90 21 89 22 91 23 97 24
REMARK SMILES IDX 92 26 96 27 95 28 4 29 3 30 2 31 1 32 93 33 94 34 16 35
REMARK SMILES IDX 17 36 18 37 19 38 20 39 21 40 85 41 22 42 84 43 23 44 24 45
REMARK SMILES IDX 25 46 78 47 26 48 83 49 77 50 79 51 27 52 82 53 76 54 75 55
REMARK SMILES IDX 28 57 62 58 41 59 61 60 42 61 45 62 60 63 80 64 43 65 44 66
REMARK SMILES IDX 59 68 81 69 46 70 29 71 30 72 39 73 31 74 32 75 38 76 40 77
REMARK SMILES IDX 33 78 34 79 35 80 36 81 37 82 63 83 64 84 73 85 65 86 66 87
REMARK SMILES IDX 72 88 74 89 67 90 68 91 69 92 70 93 71 94 47 95 48 96 57 97
REMARK SMILES IDX 49 98 50 99 56 100 58 101 51 102 52 103 53 104 54 105 55 106
REMARK H PARENT 86 19 86 20 90 25 79 56 45 67
REMARK Flexibility Score: inf
ROOT
ATOM      1  C   UNL A   1      35.001  32.233  28.501  1.00  0.00     0.274 C 
ENDROOT
BRANCH   1   2
ATOM      2  O   UNL A   1      34.632  30.851  28.327  1.00  0.00    -0.462 OA
BRANCH   2   3
ATOM      3  C   UNL A   1      33.749  30.581  27.333  1.00  0.00     0.306 C 
ATOM      4  O   UNL A   1      32.646  31.098  27.216  1.00  0.00    -0.252 OA
BRANCH   3   5
ATOM      5  C   UNL A   1      34.260  29.516  26.393  1.00  0.00     0.129 C 
BRANCH   5   6
ATOM      6  C   UNL A   1      33.901  28.073  26.755  1.00  0.00     0.077 C 
BRANCH   6   7
ATOM      7  C   UNL A   1      32.821  27.457  25.854  1.00  0.00     0.197 C 
ATOM      8  N   UNL A   1      31.059  28.649  23.064  1.00  0.00    -0.282 N 
ATOM      9  C   UNL A   1      31.477  28.815  24.344  1.00  0.00     0.239 C 
ATOM     10  C   UNL A   1      31.603  27.502  22.530  1.00  0.00     0.240 C 
ATOM     11  C   UNL A   1      32.776  28.098  24.487  1.00  0.00     0.157 C 
ATOM     12  O   UNL A   1      30.919  29.395  25.261  1.00  0.00    -0.274 OA
ATOM     13  C   UNL A   1      32.706  26.994  23.429  1.00  0.00     0.174 C 
ATOM     14  O   UNL A   1      31.280  26.967  21.479  1.00  0.00    -0.274 OA
ATOM     15  C   UNL A   1      32.506  25.720  24.230  1.00  0.00     0.216 C 
ATOM     16  N   UNL A   1      33.128  26.084  25.533  1.00  0.00    -0.326 N 
ATOM     17  C   UNL A   1      31.051  25.232  24.492  1.00  0.00     0.291 C 
ATOM     18  C   UNL A   1      33.174  24.414  23.852  1.00  0.00     0.047 A 
ATOM     19  H   UNL A   1      32.761  25.475  26.265  1.00  0.00     0.347 HD
ATOM     20  H   UNL A   1      34.139  25.971  25.467  1.00  0.00     0.347 HD
ATOM     21  N   UNL A   1      31.121  23.848  24.652  1.00  0.00    -0.320 N 
ATOM     22  O   UNL A   1      30.054  25.917  24.648  1.00  0.00    -0.267 OA
ATOM     23  C   UNL A   1      32.382  23.349  24.330  1.00  0.00     0.054 A 
ATOM     24  C   UNL A   1      34.467  24.198  23.404  1.00  0.00     0.013 A 
ATOM     25  H   UNL A   1      30.369  23.290  24.955  1.00  0.00     0.170 HD
ATOM     26  C   UNL A   1      32.895  22.068  24.502  1.00  0.00    -0.024 A 
ATOM     27  C   UNL A   1      34.977  22.905  23.477  1.00  0.00     0.001 A 
ATOM     28  C   UNL A   1      34.212  21.865  24.032  1.00  0.00     0.006 A 
BRANCH   8  29
ATOM     29  C   UNL A   1      30.053  29.447  22.378  1.00  0.00     0.128 C 
BRANCH  29  30
ATOM     30  C   UNL A   1      28.565  29.133  22.617  1.00  0.00     0.022 C 
BRANCH  30  31
ATOM     31  C   UNL A   1      27.554  30.294  22.634  1.00  0.00    -0.002 C 
ATOM     32  C   UNL A   1      27.777  31.340  23.707  1.00  0.00     0.004 C 
ENDBRANCH  30  31
ENDBRANCH  29  30
ENDBRANCH   8  29
BRANCH  26  33
ATOM     33  C   UNL A   1      32.263  20.908  25.236  1.00  0.00     0.034 C 
ATOM     34  C   UNL A   1      33.149  19.770  25.718  1.00  0.00     0.009 C 
ENDBRANCH  26  33
ENDBRANCH   6   7
ENDBRANCH   5   6
ENDBRANCH   3   5
ENDBRANCH   2   3
ENDBRANCH   1   2
BRANCH   1  35
ATOM     35  C   UNL A   1      35.358  32.518  29.962  1.00  0.00     0.275 C 
BRANCH  35  36
ATOM     36  O   UNL A   1      36.646  31.971  30.255  1.00  0.00    -0.458 OA
BRANCH  36  37
ATOM     37  C   UNL A   1      36.712  30.852  31.020  1.00  0.00     0.338 C 
ATOM     38  O   UNL A   1      36.059  30.506  31.964  1.00  0.00    -0.246 OA
BRANCH  37  39
ATOM     39  C   UNL A   1      37.843  30.114  30.459  1.00  0.00     0.060 A 
ATOM     40  C   UNL A   1      38.805  29.633  31.346  1.00  0.00     0.016 A 
ATOM     41  C   UNL A   1      38.027  30.088  29.074  1.00  0.00     0.016 A 
ATOM     42  C   UNL A   1      40.022  29.215  30.836  1.00  0.00     0.010 A 
ATOM     43  C   UNL A   1      39.242  29.652  28.567  1.00  0.00     0.010 A 
ATOM     44  C   UNL A   1      40.255  29.264  29.453  1.00  0.00    -0.014 A 
BRANCH  44  45
ATOM     45  C   UNL A   1      41.595  28.934  28.941  1.00  0.00     0.031 A 
ATOM     46  C   UNL A   1      42.660  29.990  28.902  1.00  0.00     0.074 A 
ATOM     47  C   UNL A   1      41.825  27.670  28.552  1.00  0.00     0.049 A 
ATOM     48  N   UNL A   1      43.912  29.874  28.551  1.00  0.00    -0.248 NA
ATOM     49  C   UNL A   1      42.273  31.354  29.304  1.00  0.00     0.031 C 
ATOM     50  C   UNL A   1      40.822  26.602  28.541  1.00  0.00     0.029 A 
ATOM     51  N   UNL A   1      42.963  27.070  28.095  1.00  0.00    -0.354 N 
ATOM     52  C   UNL A   1      44.466  31.140  28.697  1.00  0.00     0.074 A 
ATOM     53  C   UNL A   1      43.408  32.021  29.136  1.00  0.00     0.031 C 
ATOM     54  C   UNL A   1      41.395  25.470  28.105  1.00  0.00     0.029 A 
ATOM     55  C   UNL A   1      42.794  25.741  27.791  1.00  0.00     0.049 A 
ATOM     56  H   UNL A   1      43.821  27.542  27.993  1.00  0.00     0.167 HD
ATOM     57  C   UNL A   1      45.749  31.516  28.490  1.00  0.00     0.037 A 
ATOM     58  C   UNL A   1      43.677  24.849  27.308  1.00  0.00     0.037 A 
ATOM     59  C   UNL A   1      46.780  30.607  28.059  1.00  0.00     0.049 A 
ATOM     60  C   UNL A   1      45.093  25.296  27.094  1.00  0.00     0.074 A 
ATOM     61  C   UNL A   1      48.125  30.862  27.860  1.00  0.00     0.029 A 
ATOM     62  N   UNL A   1      46.577  29.267  27.759  1.00  0.00    -0.354 N 
ATOM     63  N   UNL A   1      45.619  26.482  27.293  1.00  0.00    -0.248 NA
ATOM     64  C   UNL A   1      46.041  24.290  26.600  1.00  0.00     0.031 C 
ATOM     65  C   UNL A   1      48.727  29.685  27.403  1.00  0.00     0.029 A 
ATOM     66  C   UNL A   1      47.767  28.686  27.357  1.00  0.00     0.049 A 
ATOM     67  H   UNL A   1      45.713  28.799  27.822  1.00  0.00     0.167 HD
ATOM     68  C   UNL A   1      46.961  26.364  26.959  1.00  0.00     0.074 A 
ATOM     69  C   UNL A   1      47.170  24.983  26.566  1.00  0.00     0.031 C 
ATOM     70  C   UNL A   1      47.933  27.308  26.969  1.00  0.00     0.037 A 
BRANCH  57  71
ATOM     71  C   UNL A   1      46.128  32.949  28.731  1.00  0.00     0.058 A 
ATOM     72  C   UNL A   1      46.612  33.377  29.978  1.00  0.00     0.135 A 
ATOM     73  C   UNL A   1      46.119  33.879  27.679  1.00  0.00     0.135 A 
ATOM     74  F   UNL A   1      46.627  32.534  31.023  1.00  0.00    -0.206 F 
ATOM     75  C   UNL A   1      47.085  34.671  30.169  1.00  0.00     0.059 A 
ATOM     76  C   UNL A   1      46.604  35.175  27.843  1.00  0.00     0.059 A 
ATOM     77  F   UNL A   1      45.659  33.524  26.469  1.00  0.00    -0.206 F 
ATOM     78  C   UNL A   1      47.089  35.560  29.092  1.00  0.00     0.060 A 
BRANCH  78  79
ATOM     79  S   UNL A   1      47.779  37.211  29.341  1.00  0.00     0.124 S 
ATOM     80  O   UNL A   1      47.972  37.659  27.964  1.00  0.00    -0.237 OA
ATOM     81  O   UNL A   1      46.717  37.882  30.082  1.00  0.00    -0.237 OA
ATOM     82  O   UNL A   1      49.004  36.960  30.095  1.00  0.00    -0.744 OA
ENDBRANCH  78  79
ENDBRANCH  57  71
BRANCH  58  83
ATOM     83  C   UNL A   1      43.237  23.463  27.015  1.00  0.00     0.058 A 
ATOM     84  C   UNL A   1      43.020  23.032  25.699  1.00  0.00     0.135 A 
ATOM     85  C   UNL A   1      43.062  22.529  28.049  1.00  0.00     0.135 A 
ATOM     86  F   UNL A   1      43.182  23.887  24.679  1.00  0.00    -0.206 F 
ATOM     87  C   UNL A   1      42.628  21.728  25.418  1.00  0.00     0.059 A 
ATOM     88  C   UNL A   1      42.692  21.214  27.791  1.00  0.00     0.059 A 
ATOM     89  F   UNL A   1      43.281  22.888  29.324  1.00  0.00    -0.206 F 
ATOM     90  C   UNL A   1      42.466  20.826  26.472  1.00  0.00     0.060 A 
BRANCH  90  91
ATOM     91  S   UNL A   1      41.994  19.125  26.092  1.00  0.00     0.124 S 
ATOM     92  O   UNL A   1      42.339  18.441  27.333  1.00  0.00    -0.237 OA
ATOM     93  O   UNL A   1      40.568  19.257  25.809  1.00  0.00    -0.237 OA
ATOM     94  O   UNL A   1      42.825  18.797  24.937  1.00  0.00    -0.744 OA
ENDBRANCH  90  91
ENDBRANCH  58  83
BRANCH  70  95
ATOM     95  C   UNL A   1      49.304  26.877  26.542  1.00  0.00     0.058 A 
ATOM     96  C   UNL A   1      50.163  26.205  27.426  1.00  0.00     0.135 A 
ATOM     97  C   UNL A   1      49.739  27.082  25.224  1.00  0.00     0.135 A 
ATOM     98  F   UNL A   1      49.791  25.994  28.699  1.00  0.00    -0.206 F 
ATOM     99  C   UNL A   1      51.416  25.765  27.021  1.00  0.00     0.059 A 
ATOM    100  C   UNL A   1      50.979  26.628  24.790  1.00  0.00     0.059 A 
ATOM    101  F   UNL A   1      48.948  27.711  24.340  1.00  0.00    -0.206 F 
ATOM    102  C   UNL A   1      51.814  25.979  25.700  1.00  0.00     0.060 A 
BRANCH 102 103
ATOM    103  S   UNL A   1      53.429  25.368  25.177  1.00  0.00     0.124 S 
ATOM    104  O   UNL A   1      54.328  26.229  25.938  1.00  0.00    -0.237 OA
ATOM    105  O   UNL A   1      53.384  23.970  25.595  1.00  0.00    -0.237 OA
ATOM    106  O   UNL A   1      53.424  25.584  23.733  1.00  0.00    -0.744 OA
ENDBRANCH 102 103
ENDBRANCH  70  95
ENDBRANCH  44  45
ENDBRANCH  37  39
ENDBRANCH  36  37
ENDBRANCH  35  36
ENDBRANCH   1  35
TORSDOF 20
ENDMDL
