MODEL 1
REMARK VINA RESULT:     -17.1      0.000      0.000
REMARK SMILES O=C(OCCOC(=O)[C@H]1CC2(CC[NH+](C(=O)C3CC3)CC2)CN1C(=O)CCn1cccn1)c1ccc(-c2c3nc(c(-c4c(F)cc(S(=O)(=O)[O-])cc4F)c4ccc([nH]4)c(-c4c(F)cc(S(=O)(=O)[O-])cc4F)c4nc(c(-c5c(F)cc(S(=O)(=O)[O-])cc5F)c5ccc2[nH]5)C=C4)C=C3)cc1
REMARK SMILES IDX 5 1 4 2 3 3 2 4 1 5 33 6 34 7 98 8 35 9 97 10 36 11 37 12
REMARK SMILES IDX 38 13 91 14 39 15 96 16 90 17 92 18 40 19 95 20 89 21 88 22
REMARK SMILES IDX 41 24 75 25 54 26 74 27 55 28 58 29 73 30 93 31 56 32 57 33
REMARK SMILES IDX 72 35 94 36 59 37 42 38 43 39 52 40 44 41 45 42 51 43 53 44
REMARK SMILES IDX 46 45 47 46 48 47 49 48 50 49 76 50 77 51 86 52 78 53 79 54
REMARK SMILES IDX 85 55 87 56 80 57 81 58 82 59 83 60 84 61 60 62 61 63 70 64
REMARK SMILES IDX 62 65 63 66 69 67 71 68 64 69 65 70 66 71 67 72 68 73 6 74
REMARK SMILES IDX 7 75 8 76 9 77 10 78 23 79 11 80 22 81 12 82 21 83 13 84
REMARK SMILES IDX 20 85 14 86 24 88 25 89 26 90 27 91 28 92 29 93 32 94 30 95
REMARK SMILES IDX 31 96 15 97 16 98 17 99 18 100 19 101
REMARK H PARENT 92 23 58 34 14 87
REMARK Flexibility Score: inf
ROOT
ATOM      1  C   UNL A   1      33.410  31.134  26.984  1.00  0.00     0.274 C 
ENDROOT
BRANCH   1   2
ATOM      2  C   UNL A   1      32.693  32.833  27.570  1.00  0.00     0.275 C 
BRANCH   2   3
ATOM      3  O   UNL A   1      33.478  33.554  29.091  1.00  0.00    -0.458 OA
BRANCH   3   4
ATOM      4  C   UNL A   1      34.712  32.697  30.105  1.00  0.00     0.338 C 
ATOM      5  O   UNL A   1      34.250  32.919  31.265  1.00  0.00    -0.246 OA
BRANCH   4   6
ATOM      6  C   UNL A   1      36.082  31.378  29.341  1.00  0.00     0.060 A 
ATOM      7  C   UNL A   1      36.396  29.932  29.382  1.00  0.00     0.016 A 
ATOM      8  C   UNL A   1      37.412  31.687  28.939  1.00  0.00     0.016 A 
ATOM      9  C   UNL A   1      37.658  29.331  29.734  1.00  0.00     0.010 A 
ATOM     10  C   UNL A   1      38.496  31.489  29.756  1.00  0.00     0.010 A 
ATOM     11  C   UNL A   1      38.706  30.176  30.036  1.00  0.00    -0.014 A 
BRANCH  11  12
ATOM     12  C   UNL A   1      40.124  29.843  29.996  1.00  0.00     0.031 A 
ATOM     13  C   UNL A   1      40.639  29.540  31.381  1.00  0.00     0.074 A 
ATOM     14  C   UNL A   1      40.696  29.274  28.916  1.00  0.00     0.049 A 
ATOM     15  N   UNL A   1      41.198  30.364  32.212  1.00  0.00    -0.248 NA
ATOM     16  C   UNL A   1      40.161  28.297  32.052  1.00  0.00     0.031 C 
ATOM     17  C   UNL A   1      40.097  28.977  27.613  1.00  0.00     0.029 A 
ATOM     18  N   UNL A   1      41.926  28.711  28.823  1.00  0.00    -0.354 N 
ATOM     19  C   UNL A   1      41.393  29.596  33.361  1.00  0.00     0.074 A 
ATOM     20  C   UNL A   1      40.355  28.619  33.331  1.00  0.00     0.031 C 
ATOM     21  C   UNL A   1      40.915  28.142  26.929  1.00  0.00     0.029 A 
ATOM     22  C   UNL A   1      42.129  27.918  27.700  1.00  0.00     0.049 A 
ATOM     23  H   UNL A   1      42.625  28.853  29.502  1.00  0.00     0.167 HD
ATOM     24  C   UNL A   1      42.620  29.475  33.952  1.00  0.00     0.037 A 
ATOM     25  C   UNL A   1      43.193  27.101  27.482  1.00  0.00     0.037 A 
ATOM     26  C   UNL A   1      43.530  30.459  33.399  1.00  0.00     0.049 A 
ATOM     27  C   UNL A   1      44.253  27.499  28.456  1.00  0.00     0.074 A 
ATOM     28  C   UNL A   1      43.469  31.823  33.175  1.00  0.00     0.029 A 
ATOM     29  N   UNL A   1      44.537  29.994  32.583  1.00  0.00    -0.354 N 
ATOM     30  N   UNL A   1      44.866  28.652  28.443  1.00  0.00    -0.248 NA
ATOM     31  C   UNL A   1      44.316  26.786  29.726  1.00  0.00     0.031 C 
ATOM     32  C   UNL A   1      44.086  32.015  31.903  1.00  0.00     0.029 A 
ATOM     33  C   UNL A   1      44.581  30.786  31.467  1.00  0.00     0.049 A 
ATOM     34  H   UNL A   1      45.123  29.225  32.769  1.00  0.00     0.167 HD
ATOM     35  C   UNL A   1      45.003  29.002  29.779  1.00  0.00     0.074 A 
ATOM     36  C   UNL A   1      44.753  27.768  30.520  1.00  0.00     0.031 C 
ATOM     37  C   UNL A   1      44.996  30.316  30.161  1.00  0.00     0.037 A 
BRANCH  24  38
ATOM     38  C   UNL A   1      43.143  28.215  34.655  1.00  0.00     0.058 A 
ATOM     39  C   UNL A   1      43.623  28.358  35.976  1.00  0.00     0.135 A 
ATOM     40  C   UNL A   1      43.450  26.970  34.053  1.00  0.00     0.135 A 
ATOM     41  F   UNL A   1      43.348  29.465  36.685  1.00  0.00    -0.206 F 
ATOM     42  C   UNL A   1      44.468  27.426  36.578  1.00  0.00     0.059 A 
ATOM     43  C   UNL A   1      44.255  26.008  34.653  1.00  0.00     0.059 A 
ATOM     44  F   UNL A   1      43.055  26.613  32.830  1.00  0.00    -0.206 F 
ATOM     45  C   UNL A   1      44.805  26.268  35.891  1.00  0.00     0.060 A 
BRANCH  45  46
ATOM     46  S   UNL A   1      46.000  25.126  36.598  1.00  0.00     0.124 S 
ATOM     47  O   UNL A   1      45.982  25.532  37.998  1.00  0.00    -0.237 OA
ATOM     48  O   UNL A   1      45.394  23.835  36.293  1.00  0.00    -0.237 OA
ATOM     49  O   UNL A   1      47.226  25.429  35.865  1.00  0.00    -0.744 OA
ENDBRANCH  45  46
ENDBRANCH  24  38
BRANCH  25  50
ATOM     50  C   UNL A   1      43.286  25.840  26.693  1.00  0.00     0.058 A 
ATOM     51  C   UNL A   1      44.094  25.765  25.542  1.00  0.00     0.135 A 
ATOM     52  C   UNL A   1      42.807  24.612  27.187  1.00  0.00     0.135 A 
ATOM     53  F   UNL A   1      44.608  26.882  25.002  1.00  0.00    -0.206 F 
ATOM     54  C   UNL A   1      44.454  24.546  24.955  1.00  0.00     0.059 A 
ATOM     55  C   UNL A   1      43.138  23.385  26.610  1.00  0.00     0.059 A 
ATOM     56  F   UNL A   1      42.072  24.555  28.306  1.00  0.00    -0.206 F 
ATOM     57  C   UNL A   1      43.988  23.357  25.510  1.00  0.00     0.060 A 
BRANCH  57  58
ATOM     58  S   UNL A   1      44.596  21.777  24.872  1.00  0.00     0.124 S 
ATOM     59  O   UNL A   1      44.692  22.046  23.441  1.00  0.00    -0.237 OA
ATOM     60  O   UNL A   1      45.865  21.626  25.577  1.00  0.00    -0.237 OA
ATOM     61  O   UNL A   1      43.555  20.830  25.260  1.00  0.00    -0.744 OA
ENDBRANCH  57  58
ENDBRANCH  25  50
BRANCH  37  62
ATOM     62  C   UNL A   1      45.225  31.368  29.107  1.00  0.00     0.058 A 
ATOM     63  C   UNL A   1      46.479  31.727  28.582  1.00  0.00     0.135 A 
ATOM     64  C   UNL A   1      44.095  31.946  28.507  1.00  0.00     0.135 A 
ATOM     65  F   UNL A   1      47.604  31.140  29.009  1.00  0.00    -0.206 F 
ATOM     66  C   UNL A   1      46.607  32.658  27.549  1.00  0.00     0.059 A 
ATOM     67  C   UNL A   1      44.195  32.846  27.451  1.00  0.00     0.059 A 
ATOM     68  F   UNL A   1      42.864  31.596  28.915  1.00  0.00    -0.206 F 
ATOM     69  C   UNL A   1      45.457  33.212  26.990  1.00  0.00     0.060 A 
BRANCH  69  70
ATOM     70  S   UNL A   1      45.622  34.365  25.611  1.00  0.00     0.124 S 
ATOM     71  O   UNL A   1      44.797  33.737  24.586  1.00  0.00    -0.237 OA
ATOM     72  O   UNL A   1      45.101  35.607  26.174  1.00  0.00    -0.237 OA
ATOM     73  O   UNL A   1      47.058  34.369  25.341  1.00  0.00    -0.744 OA
ENDBRANCH  69  70
ENDBRANCH  37  62
ENDBRANCH  11  12
ENDBRANCH   4   6
ENDBRANCH   3   4
ENDBRANCH   2   3
ENDBRANCH   1   2
BRANCH   1  74
ATOM     74  O   UNL A   1      32.702  29.522  27.610  1.00  0.00    -0.461 OA
BRANCH  74  75
ATOM     75  C   UNL A   1      31.814  28.259  27.271  1.00  0.00     0.328 C 
ATOM     76  O   UNL A   1      30.889  28.072  28.083  1.00  0.00    -0.250 OA
BRANCH  75  77
ATOM     77  C   UNL A   1      31.917  26.998  25.865  1.00  0.00     0.195 C 
ATOM     78  C   UNL A   1      32.072  25.501  26.197  1.00  0.00     0.046 C 
ATOM     79  N   UNL A   1      31.495  26.686  24.148  1.00  0.00    -0.328 N 
ATOM     80  C   UNL A   1      32.768  24.829  24.921  1.00  0.00     0.001 C 
ATOM     81  C   UNL A   1      32.389  25.666  23.658  1.00  0.00     0.128 C 
ATOM     82  C   UNL A   1      32.249  23.402  24.640  1.00  0.00     0.071 C 
ATOM     83  C   UNL A   1      34.306  24.760  25.166  1.00  0.00     0.071 C 
ATOM     84  C   UNL A   1      32.618  22.448  25.759  1.00  0.00     0.270 C 
ATOM     85  C   UNL A   1      34.690  23.670  26.187  1.00  0.00     0.270 C 
ATOM     86  N   UNL A   1      34.065  22.390  25.852  1.00  0.00    -0.272 N 
ATOM     87  H   UNL A   1      34.359  23.321  25.979  1.00  0.00     0.356 HD
BRANCH  79  88
ATOM     88  C   UNL A   1      30.341  27.387  23.065  1.00  0.00     0.225 C 
ATOM     89  O   UNL A   1      30.722  28.045  22.093  1.00  0.00    -0.275 OA
BRANCH  88  90
ATOM     90  C   UNL A   1      28.446  27.195  23.511  1.00  0.00     0.124 C 
BRANCH  90  91
ATOM     91  C   UNL A   1      27.177  28.696  23.073  1.00  0.00     0.154 C 
BRANCH  91  92
ATOM     92  N   UNL A   1      27.782  30.559  22.782  1.00  0.00    -0.272 N 
ATOM     93  C   UNL A   1      28.618  31.652  23.482  1.00  0.00     0.108 A 
ATOM     94  N   UNL A   1      27.824  31.216  21.479  1.00  0.00    -0.182 NA
ATOM     95  C   UNL A   1      28.700  32.809  22.753  1.00  0.00     0.042 A 
ATOM     96  C   UNL A   1      28.156  32.484  21.547  1.00  0.00     0.135 A 
ENDBRANCH  91  92
ENDBRANCH  90  91
ENDBRANCH  88  90
ENDBRANCH  79  88
BRANCH  86  97
ATOM     97  C   UNL A   1      34.877  21.304  25.555  1.00  0.00     0.315 C 
ATOM     98  O   UNL A   1      34.409  20.192  25.317  1.00  0.00    -0.231 OA
BRANCH  97  99
ATOM     99  C   UNL A   1      36.364  21.418  25.443  1.00  0.00     0.119 C 
ATOM    100  C   UNL A   1      37.383  20.723  24.576  1.00  0.00     0.019 C 
ATOM    101  C   UNL A   1      36.879  22.063  24.163  1.00  0.00     0.019 C 
ENDBRANCH  97  99
ENDBRANCH  86  97
ENDBRANCH  75  77
ENDBRANCH  74  75
ENDBRANCH   1  74
TORSDOF 20
ENDMDL
MODEL 2
REMARK VINA RESULT:     -16.3      2.897     10.092
REMARK SMILES O=C(OCCOC(=O)[C@H]1CC2(CC[NH+](C(=O)C3CC3)CC2)CN1C(=O)CCn1cccn1)c1ccc(-c2c3nc(c(-c4c(F)cc(S(=O)(=O)[O-])cc4F)c4ccc([nH]4)c(-c4c(F)cc(S(=O)(=O)[O-])cc4F)c4nc(c(-c5c(F)cc(S(=O)(=O)[O-])cc5F)c5ccc2[nH]5)C=C4)C=C3)cc1
REMARK SMILES IDX 5 1 4 2 3 3 2 4 1 5 33 6 34 7 98 8 35 9 97 10 36 11 37 12
REMARK SMILES IDX 38 13 91 14 39 15 96 16 90 17 92 18 40 19 95 20 89 21 88 22
REMARK SMILES IDX 41 24 75 25 54 26 74 27 55 28 58 29 73 30 93 31 56 32 57 33
REMARK SMILES IDX 72 35 94 36 59 37 42 38 43 39 52 40 44 41 45 42 51 43 53 44
REMARK SMILES IDX 46 45 47 46 48 47 49 48 50 49 76 50 77 51 86 52 78 53 79 54
REMARK SMILES IDX 85 55 87 56 80 57 81 58 82 59 83 60 84 61 60 62 61 63 70 64
REMARK SMILES IDX 62 65 63 66 69 67 71 68 64 69 65 70 66 71 67 72 68 73 6 74
REMARK SMILES IDX 7 75 8 76 9 77 10 78 23 79 11 80 22 81 12 82 21 83 13 84
REMARK SMILES IDX 20 85 14 86 24 88 25 89 26 90 27 91 28 92 29 93 32 94 30 95
REMARK SMILES IDX 31 96 15 97 16 98 17 99 18 100 19 101
REMARK H PARENT 92 23 58 34 14 87
REMARK Flexibility Score: inf
ROOT
ATOM      1  C   UNL A   1      37.368  22.447  24.536  1.00  0.00     0.274 C 
ENDROOT
BRANCH   1   2
ATOM      2  C   UNL A   1      37.913  20.674  25.085  1.00  0.00     0.275 C 
BRANCH   2   3
ATOM      3  O   UNL A   1      39.622  20.547  25.801  1.00  0.00    -0.458 OA
BRANCH   3   4
ATOM      4  C   UNL A   1      40.676  21.970  26.185  1.00  0.00     0.338 C 
ATOM      5  O   UNL A   1      41.753  21.620  25.614  1.00  0.00    -0.246 OA
BRANCH   4   6
ATOM      6  C   UNL A   1      39.953  23.749  26.902  1.00  0.00     0.060 A 
ATOM      7  C   UNL A   1      39.596  25.099  26.410  1.00  0.00     0.016 A 
ATOM      8  C   UNL A   1      40.089  24.235  28.233  1.00  0.00     0.016 A 
ATOM      9  C   UNL A   1      40.081  26.359  26.916  1.00  0.00     0.010 A 
ATOM     10  C   UNL A   1      41.073  25.118  28.600  1.00  0.00     0.010 A 
ATOM     11  C   UNL A   1      40.943  26.326  27.992  1.00  0.00    -0.014 A 
BRANCH  11  12
ATOM     12  C   UNL A   1      41.214  27.420  28.917  1.00  0.00     0.031 A 
ATOM     13  C   UNL A   1      42.307  28.310  28.383  1.00  0.00     0.074 A 
ATOM     14  C   UNL A   1      40.263  27.920  29.731  1.00  0.00     0.049 A 
ATOM     15  N   UNL A   1      43.579  28.232  28.629  1.00  0.00    -0.248 NA
ATOM     16  C   UNL A   1      42.015  29.137  27.178  1.00  0.00     0.031 C 
ATOM     17  C   UNL A   1      38.889  27.455  29.928  1.00  0.00     0.029 A 
ATOM     18  N   UNL A   1      40.308  29.062  30.463  1.00  0.00    -0.354 N 
ATOM     19  C   UNL A   1      44.136  29.223  27.820  1.00  0.00     0.074 A 
ATOM     20  C   UNL A   1      43.248  29.334  26.710  1.00  0.00     0.031 C 
ATOM     21  C   UNL A   1      38.190  28.406  30.593  1.00  0.00     0.029 A 
ATOM     22  C   UNL A   1      39.082  29.499  30.948  1.00  0.00     0.049 A 
ATOM     23  H   UNL A   1      41.148  29.545  30.636  1.00  0.00     0.167 HD
ATOM     24  C   UNL A   1      44.946  30.202  28.326  1.00  0.00     0.037 A 
ATOM     25  C   UNL A   1      38.839  30.703  31.533  1.00  0.00     0.037 A 
ATOM     26  C   UNL A   1      45.339  29.860  29.680  1.00  0.00     0.049 A 
ATOM     27  C   UNL A   1      40.165  31.284  31.898  1.00  0.00     0.074 A 
ATOM     28  C   UNL A   1      45.864  28.733  30.286  1.00  0.00     0.029 A 
ATOM     29  N   UNL A   1      44.796  30.610  30.699  1.00  0.00    -0.354 N 
ATOM     30  N   UNL A   1      40.970  30.774  32.791  1.00  0.00    -0.248 NA
ATOM     31  C   UNL A   1      40.801  32.185  30.944  1.00  0.00     0.031 C 
ATOM     32  C   UNL A   1      45.180  28.634  31.534  1.00  0.00     0.029 A 
ATOM     33  C   UNL A   1      44.359  29.752  31.672  1.00  0.00     0.049 A 
ATOM     34  H   UNL A   1      44.733  31.592  30.724  1.00  0.00     0.167 HD
ATOM     35  C   UNL A   1      42.243  30.930  32.261  1.00  0.00     0.074 A 
ATOM     36  C   UNL A   1      42.085  31.904  31.184  1.00  0.00     0.031 C 
ATOM     37  C   UNL A   1      43.231  30.026  32.540  1.00  0.00     0.037 A 
BRANCH  24  38
ATOM     38  C   UNL A   1      45.006  31.650  27.822  1.00  0.00     0.058 A 
ATOM     39  C   UNL A   1      46.235  32.106  27.297  1.00  0.00     0.135 A 
ATOM     40  C   UNL A   1      44.055  32.673  28.058  1.00  0.00     0.135 A 
ATOM     41  F   UNL A   1      47.202  31.233  26.968  1.00  0.00    -0.206 F 
ATOM     42  C   UNL A   1      46.550  33.460  27.177  1.00  0.00     0.059 A 
ATOM     43  C   UNL A   1      44.333  34.027  27.903  1.00  0.00     0.059 A 
ATOM     44  F   UNL A   1      42.819  32.456  28.510  1.00  0.00    -0.206 F 
ATOM     45  C   UNL A   1      45.600  34.413  27.517  1.00  0.00     0.060 A 
BRANCH  45  46
ATOM     46  S   UNL A   1      46.038  36.156  27.498  1.00  0.00     0.124 S 
ATOM     47  O   UNL A   1      46.783  36.245  26.248  1.00  0.00    -0.237 OA
ATOM     48  O   UNL A   1      44.726  36.793  27.513  1.00  0.00    -0.237 OA
ATOM     49  O   UNL A   1      46.824  36.317  28.718  1.00  0.00    -0.744 OA
ENDBRANCH  45  46
ENDBRANCH  24  38
BRANCH  25  50
ATOM     50  C   UNL A   1      37.590  31.514  31.569  1.00  0.00     0.058 A 
ATOM     51  C   UNL A   1      36.847  31.647  32.758  1.00  0.00     0.135 A 
ATOM     52  C   UNL A   1      37.237  32.392  30.525  1.00  0.00     0.135 A 
ATOM     53  F   UNL A   1      37.116  30.862  33.814  1.00  0.00    -0.206 F 
ATOM     54  C   UNL A   1      35.860  32.626  32.923  1.00  0.00     0.059 A 
ATOM     55  C   UNL A   1      36.246  33.366  30.659  1.00  0.00     0.059 A 
ATOM     56  F   UNL A   1      37.909  32.393  29.365  1.00  0.00    -0.206 F 
ATOM     57  C   UNL A   1      35.582  33.497  31.873  1.00  0.00     0.060 A 
BRANCH  57  58
ATOM     58  S   UNL A   1      34.444  34.879  32.139  1.00  0.00     0.124 S 
ATOM     59  O   UNL A   1      34.149  35.296  30.772  1.00  0.00    -0.237 OA
ATOM     60  O   UNL A   1      33.347  34.241  32.860  1.00  0.00    -0.237 OA
ATOM     61  O   UNL A   1      35.233  35.823  32.924  1.00  0.00    -0.744 OA
ENDBRANCH  57  58
ENDBRANCH  25  50
BRANCH  37  62
ATOM     62  C   UNL A   1      43.040  29.097  33.711  1.00  0.00     0.058 A 
ATOM     63  C   UNL A   1      43.309  29.422  35.053  1.00  0.00     0.135 A 
ATOM     64  C   UNL A   1      42.427  27.858  33.467  1.00  0.00     0.135 A 
ATOM     65  F   UNL A   1      43.783  30.627  35.393  1.00  0.00    -0.206 F 
ATOM     66  C   UNL A   1      43.034  28.536  36.095  1.00  0.00     0.059 A 
ATOM     67  C   UNL A   1      42.108  26.975  34.493  1.00  0.00     0.059 A 
ATOM     68  F   UNL A   1      42.081  27.514  32.216  1.00  0.00    -0.206 F 
ATOM     69  C   UNL A   1      42.432  27.313  35.805  1.00  0.00     0.060 A 
BRANCH  69  70
ATOM     70  S   UNL A   1      42.018  26.197  37.160  1.00  0.00     0.124 S 
ATOM     71  O   UNL A   1      40.681  26.645  37.529  1.00  0.00    -0.237 OA
ATOM     72  O   UNL A   1      42.096  24.884  36.524  1.00  0.00    -0.237 OA
ATOM     73  O   UNL A   1      43.060  26.461  38.150  1.00  0.00    -0.744 OA
ENDBRANCH  69  70
ENDBRANCH  37  62
ENDBRANCH  11  12
ENDBRANCH   4   6
ENDBRANCH   3   4
ENDBRANCH   2   3
ENDBRANCH   1   2
BRANCH   1  74
ATOM     74  O   UNL A   1      35.706  23.142  25.037  1.00  0.00    -0.461 OA
BRANCH  74  75
ATOM     75  C   UNL A   1      34.851  24.448  25.285  1.00  0.00     0.328 C 
ATOM     76  O   UNL A   1      35.538  25.437  25.600  1.00  0.00    -0.250 OA
BRANCH  75  77
ATOM     77  C   UNL A   1      32.988  24.760  25.193  1.00  0.00     0.195 C 
ATOM     78  C   UNL A   1      32.443  25.822  24.218  1.00  0.00     0.046 C 
ATOM     79  N   UNL A   1      31.369  24.039  25.486  1.00  0.00    -0.328 N 
ATOM     80  C   UNL A   1      31.037  26.299  24.816  1.00  0.00     0.001 C 
ATOM     81  C   UNL A   1      30.433  25.124  25.649  1.00  0.00     0.128 C 
ATOM     82  C   UNL A   1      29.993  26.606  23.719  1.00  0.00     0.071 C 
ATOM     83  C   UNL A   1      31.263  27.590  25.662  1.00  0.00     0.071 C 
ATOM     84  C   UNL A   1      30.412  27.791  22.871  1.00  0.00     0.270 C 
ATOM     85  C   UNL A   1      31.526  28.829  24.783  1.00  0.00     0.270 C 
ATOM     86  N   UNL A   1      30.514  28.955  23.732  1.00  0.00    -0.272 N 
ATOM     87  H   UNL A   1      31.146  28.702  24.444  1.00  0.00     0.356 HD
BRANCH  79  88
ATOM     88  C   UNL A   1      30.810  22.410  25.652  1.00  0.00     0.225 C 
ATOM     89  O   UNL A   1      29.895  22.145  26.437  1.00  0.00    -0.275 OA
BRANCH  88  90
ATOM     90  C   UNL A   1      31.755  21.020  24.652  1.00  0.00     0.124 C 
BRANCH  90  91
ATOM     91  C   UNL A   1      33.225  19.985  25.558  1.00  0.00     0.154 C 
BRANCH  91  92
ATOM     92  N   UNL A   1      33.420  18.022  25.379  1.00  0.00    -0.272 N 
ATOM     93  C   UNL A   1      32.605  16.730  25.598  1.00  0.00     0.108 A 
ATOM     94  N   UNL A   1      34.429  17.369  24.550  1.00  0.00    -0.182 NA
ATOM     95  C   UNL A   1      33.305  15.596  25.276  1.00  0.00     0.042 A 
ATOM     96  C   UNL A   1      34.436  16.062  24.673  1.00  0.00     0.135 A 
ENDBRANCH  91  92
ENDBRANCH  90  91
ENDBRANCH  88  90
ENDBRANCH  79  88
BRANCH  86  97
ATOM     97  C   UNL A   1      29.699  30.078  23.717  1.00  0.00     0.315 C 
ATOM     98  O   UNL A   1      29.948  31.068  24.403  1.00  0.00    -0.231 OA
BRANCH  97  99
ATOM     99  C   UNL A   1      28.502  30.191  22.828  1.00  0.00     0.119 C 
ATOM    100  C   UNL A   1      27.780  31.370  22.226  1.00  0.00     0.019 C 
ATOM    101  C   UNL A   1      28.784  30.640  21.400  1.00  0.00     0.019 C 
ENDBRANCH  97  99
ENDBRANCH  86  97
ENDBRANCH  75  77
ENDBRANCH  74  75
ENDBRANCH   1  74
TORSDOF 20
ENDMDL
MODEL 3
REMARK VINA RESULT:     -15.1      3.987      5.891
REMARK SMILES O=C(OCCOC(=O)[C@H]1CC2(CC[NH+](C(=O)C3CC3)CC2)CN1C(=O)CCn1cccn1)c1ccc(-c2c3nc(c(-c4c(F)cc(S(=O)(=O)[O-])cc4F)c4ccc([nH]4)c(-c4c(F)cc(S(=O)(=O)[O-])cc4F)c4nc(c(-c5c(F)cc(S(=O)(=O)[O-])cc5F)c5ccc2[nH]5)C=C4)C=C3)cc1
REMARK SMILES IDX 5 1 4 2 3 3 2 4 1 5 33 6 34 7 98 8 35 9 97 10 36 11 37 12
REMARK SMILES IDX 38 13 91 14 39 15 96 16 90 17 92 18 40 19 95 20 89 21 88 22
REMARK SMILES IDX 41 24 75 25 54 26 74 27 55 28 58 29 73 30 93 31 56 32 57 33
REMARK SMILES IDX 72 35 94 36 59 37 42 38 43 39 52 40 44 41 45 42 51 43 53 44
REMARK SMILES IDX 46 45 47 46 48 47 49 48 50 49 76 50 77 51 86 52 78 53 79 54
REMARK SMILES IDX 85 55 87 56 80 57 81 58 82 59 83 60 84 61 60 62 61 63 70 64
REMARK SMILES IDX 62 65 63 66 69 67 71 68 64 69 65 70 66 71 67 72 68 73 6 74
REMARK SMILES IDX 7 75 8 76 9 77 10 78 23 79 11 80 22 81 12 82 21 83 13 84
REMARK SMILES IDX 20 85 14 86 24 88 25 89 26 90 27 91 28 92 29 93 32 94 30 95
REMARK SMILES IDX 31 96 15 97 16 98 17 99 18 100 19 101
REMARK H PARENT 92 23 58 34 14 87
REMARK Flexibility Score: inf
ROOT
ATOM      1  C   UNL A   1      33.587  31.200  27.322  1.00  0.00     0.274 C 
ENDROOT
BRANCH   1   2
ATOM      2  C   UNL A   1      32.173  32.516  27.428  1.00  0.00     0.275 C 
BRANCH   2   3
ATOM      3  O   UNL A   1      32.652  34.152  28.163  1.00  0.00    -0.458 OA
BRANCH   3   4
ATOM      4  C   UNL A   1      33.579  34.344  29.709  1.00  0.00     0.338 C 
ATOM      5  O   UNL A   1      32.848  35.187  30.312  1.00  0.00    -0.246 OA
BRANCH   4   6
ATOM      6  C   UNL A   1      35.069  33.066  30.297  1.00  0.00     0.060 A 
ATOM      7  C   UNL A   1      35.275  31.927  31.221  1.00  0.00     0.016 A 
ATOM      8  C   UNL A   1      36.467  33.333  30.264  1.00  0.00     0.016 A 
ATOM      9  C   UNL A   1      36.288  31.814  32.241  1.00  0.00     0.010 A 
ATOM     10  C   UNL A   1      37.162  33.770  31.363  1.00  0.00     0.010 A 
ATOM     11  C   UNL A   1      37.190  32.851  32.363  1.00  0.00    -0.014 A 
BRANCH  11  12
ATOM     12  C   UNL A   1      38.505  32.783  32.988  1.00  0.00     0.031 A 
ATOM     13  C   UNL A   1      38.466  33.377  34.374  1.00  0.00     0.074 A 
ATOM     14  C   UNL A   1      39.393  31.816  32.684  1.00  0.00     0.049 A 
ATOM     15  N   UNL A   1      38.735  34.599  34.717  1.00  0.00    -0.248 NA
ATOM     16  C   UNL A   1      37.707  32.648  35.430  1.00  0.00     0.031 C 
ATOM     17  C   UNL A   1      39.288  30.762  31.674  1.00  0.00     0.029 A 
ATOM     18  N   UNL A   1      40.539  31.501  33.338  1.00  0.00    -0.354 N 
ATOM     19  C   UNL A   1      38.458  34.630  36.084  1.00  0.00     0.074 A 
ATOM     20  C   UNL A   1      37.444  33.645  36.276  1.00  0.00     0.031 C 
ATOM     21  C   UNL A   1      40.248  29.833  31.900  1.00  0.00     0.029 A 
ATOM     22  C   UNL A   1      41.086  30.267  33.008  1.00  0.00     0.049 A 
ATOM     23  H   UNL A   1      40.953  32.102  33.998  1.00  0.00     0.167 HD
ATOM     24  C   UNL A   1      39.379  35.051  37.002  1.00  0.00     0.037 A 
ATOM     25  C   UNL A   1      42.108  29.648  33.657  1.00  0.00     0.037 A 
ATOM     26  C   UNL A   1      40.484  35.702  36.323  1.00  0.00     0.049 A 
ATOM     27  C   UNL A   1      42.766  30.679  34.513  1.00  0.00     0.074 A 
ATOM     28  C   UNL A   1      40.588  36.689  35.360  1.00  0.00     0.029 A 
ATOM     29  N   UNL A   1      41.688  35.035  36.303  1.00  0.00    -0.354 N 
ATOM     30  N   UNL A   1      43.409  31.717  34.050  1.00  0.00    -0.248 NA
ATOM     31  C   UNL A   1      42.325  30.800  35.897  1.00  0.00     0.031 C 
ATOM     32  C   UNL A   1      41.632  36.249  34.493  1.00  0.00     0.029 A 
ATOM     33  C   UNL A   1      42.178  35.081  35.025  1.00  0.00     0.049 A 
ATOM     34  H   UNL A   1      42.122  34.600  37.072  1.00  0.00     0.167 HD
ATOM     35  C   UNL A   1      43.075  32.759  34.904  1.00  0.00     0.074 A 
ATOM     36  C   UNL A   1      42.503  32.112  36.082  1.00  0.00     0.031 C 
ATOM     37  C   UNL A   1      43.008  34.045  34.443  1.00  0.00     0.037 A 
BRANCH  24  38
ATOM     38  C   UNL A   1      39.539  34.487  38.420  1.00  0.00     0.058 A 
ATOM     39  C   UNL A   1      39.514  35.405  39.493  1.00  0.00     0.135 A 
ATOM     40  C   UNL A   1      39.971  33.185  38.774  1.00  0.00     0.135 A 
ATOM     41  F   UNL A   1      39.064  36.657  39.308  1.00  0.00    -0.206 F 
ATOM     42  C   UNL A   1      40.029  35.107  40.755  1.00  0.00     0.059 A 
ATOM     43  C   UNL A   1      40.447  32.854  40.038  1.00  0.00     0.059 A 
ATOM     44  F   UNL A   1      40.027  32.158  37.924  1.00  0.00    -0.206 F 
ATOM     45  C   UNL A   1      40.525  33.835  41.004  1.00  0.00     0.060 A 
BRANCH  45  46
ATOM     46  S   UNL A   1      41.314  33.479  42.580  1.00  0.00     0.124 S 
ATOM     47  O   UNL A   1      41.326  34.801  43.194  1.00  0.00    -0.237 OA
ATOM     48  O   UNL A   1      40.395  32.507  43.161  1.00  0.00    -0.237 OA
ATOM     49  O   UNL A   1      42.617  32.949  42.189  1.00  0.00    -0.744 OA
ENDBRANCH  45  46
ENDBRANCH  24  38
BRANCH  25  50
ATOM     50  C   UNL A   1      42.405  28.196  33.809  1.00  0.00     0.058 A 
ATOM     51  C   UNL A   1      43.328  27.553  32.960  1.00  0.00     0.135 A 
ATOM     52  C   UNL A   1      42.004  27.465  34.944  1.00  0.00     0.135 A 
ATOM     53  F   UNL A   1      43.778  28.174  31.858  1.00  0.00    -0.206 F 
ATOM     54  C   UNL A   1      43.865  26.294  33.251  1.00  0.00     0.059 A 
ATOM     55  C   UNL A   1      42.512  26.200  35.246  1.00  0.00     0.059 A 
ATOM     56  F   UNL A   1      41.169  27.994  35.849  1.00  0.00    -0.206 F 
ATOM     57  C   UNL A   1      43.466  25.633  34.410  1.00  0.00     0.060 A 
BRANCH  57  58
ATOM     58  S   UNL A   1      44.290  24.093  34.886  1.00  0.00     0.124 S 
ATOM     59  O   UNL A   1      43.588  23.110  34.067  1.00  0.00    -0.237 OA
ATOM     60  O   UNL A   1      45.676  24.357  34.514  1.00  0.00    -0.237 OA
ATOM     61  O   UNL A   1      44.040  24.004  36.321  1.00  0.00    -0.744 OA
ENDBRANCH  57  58
ENDBRANCH  25  50
BRANCH  37  62
ATOM     62  C   UNL A   1      43.663  34.367  33.125  1.00  0.00     0.058 A 
ATOM     63  C   UNL A   1      45.040  34.587  32.938  1.00  0.00     0.135 A 
ATOM     64  C   UNL A   1      42.865  34.319  31.971  1.00  0.00     0.135 A 
ATOM     65  F   UNL A   1      45.896  34.532  33.966  1.00  0.00    -0.206 F 
ATOM     66  C   UNL A   1      45.586  34.804  31.672  1.00  0.00     0.059 A 
ATOM     67  C   UNL A   1      43.393  34.494  30.696  1.00  0.00     0.059 A 
ATOM     68  F   UNL A   1      41.553  34.047  32.072  1.00  0.00    -0.206 F 
ATOM     69  C   UNL A   1      44.754  34.755  30.557  1.00  0.00     0.060 A 
BRANCH  69  70
ATOM     70  S   UNL A   1      45.474  34.972  28.916  1.00  0.00     0.124 S 
ATOM     71  O   UNL A   1      46.868  34.611  29.144  1.00  0.00    -0.237 OA
ATOM     72  O   UNL A   1      44.700  34.036  28.105  1.00  0.00    -0.237 OA
ATOM     73  O   UNL A   1      45.233  36.382  28.622  1.00  0.00    -0.744 OA
ENDBRANCH  69  70
ENDBRANCH  37  62
ENDBRANCH  11  12
ENDBRANCH   4   6
ENDBRANCH   3   4
ENDBRANCH   2   3
ENDBRANCH   1   2
BRANCH   1  74
ATOM     74  O   UNL A   1      33.210  29.371  27.397  1.00  0.00    -0.461 OA
BRANCH  74  75
ATOM     75  C   UNL A   1      32.154  28.236  27.091  1.00  0.00     0.328 C 
ATOM     76  O   UNL A   1      31.206  28.212  27.897  1.00  0.00    -0.250 OA
BRANCH  75  77
ATOM     77  C   UNL A   1      32.090  26.921  25.734  1.00  0.00     0.195 C 
ATOM     78  C   UNL A   1      32.264  25.435  26.105  1.00  0.00     0.046 C 
ATOM     79  N   UNL A   1      31.478  26.549  24.086  1.00  0.00    -0.328 N 
ATOM     80  C   UNL A   1      32.809  24.705  24.789  1.00  0.00     0.001 C 
ATOM     81  C   UNL A   1      32.302  25.498  23.542  1.00  0.00     0.128 C 
ATOM     82  C   UNL A   1      32.248  23.275  24.622  1.00  0.00     0.071 C 
ATOM     83  C   UNL A   1      34.364  24.623  24.866  1.00  0.00     0.071 C 
ATOM     84  C   UNL A   1      32.727  22.359  25.731  1.00  0.00     0.270 C 
ATOM     85  C   UNL A   1      34.846  23.567  25.881  1.00  0.00     0.270 C 
ATOM     86  N   UNL A   1      34.175  22.284  25.667  1.00  0.00    -0.272 N 
ATOM     87  H   UNL A   1      34.491  23.215  25.724  1.00  0.00     0.356 HD
BRANCH  79  88
ATOM     88  C   UNL A   1      30.220  27.225  23.109  1.00  0.00     0.225 C 
ATOM     89  O   UNL A   1      30.500  27.879  22.101  1.00  0.00    -0.275 OA
BRANCH  88  90
ATOM     90  C   UNL A   1      28.377  27.014  23.730  1.00  0.00     0.124 C 
BRANCH  90  91
ATOM     91  C   UNL A   1      27.052  28.493  23.397  1.00  0.00     0.154 C 
BRANCH  91  92
ATOM     92  N   UNL A   1      27.544  30.189  22.500  1.00  0.00    -0.272 N 
ATOM     93  C   UNL A   1      27.846  31.663  22.846  1.00  0.00     0.108 A 
ATOM     94  N   UNL A   1      28.133  30.273  21.167  1.00  0.00    -0.182 NA
ATOM     95  C   UNL A   1      28.151  32.417  21.744  1.00  0.00     0.042 A 
ATOM     96  C   UNL A   1      28.272  31.506  20.738  1.00  0.00     0.135 A 
ENDBRANCH  91  92
ENDBRANCH  90  91
ENDBRANCH  88  90
ENDBRANCH  79  88
BRANCH  86  97
ATOM     97  C   UNL A   1      34.939  21.176  25.326  1.00  0.00     0.315 C 
ATOM     98  O   UNL A   1      34.435  20.173  24.824  1.00  0.00    -0.231 OA
BRANCH  97  99
ATOM     99  C   UNL A   1      36.425  21.142  25.485  1.00  0.00     0.119 C 
ATOM    100  C   UNL A   1      37.500  20.269  24.889  1.00  0.00     0.019 C 
ATOM    101  C   UNL A   1      37.226  21.598  24.272  1.00  0.00     0.019 C 
ENDBRANCH  97  99
ENDBRANCH  86  97
ENDBRANCH  75  77
ENDBRANCH  74  75
ENDBRANCH   1  74
TORSDOF 20
ENDMDL
