MODEL 1
REMARK VINA RESULT:     -14.0      0.000      0.000
REMARK SMILES Cc1cc(N2CC[NH+]([C@@H](C(=O)OCCOC(=O)c3ccc(-c4c5nc(c(-c6c(F)cc(S(=O)(=O)[O-])cc6F)c6ccc([nH]6)c(-c6c(F)cc(S(=O)(=O)[O-])cc6F)c6nc(c(-c7c(F)cc(S(=O)(=O)[O-])cc7F)c7ccc4[nH]7)C=C6)C=C5)cc3)c3c[nH]c4ccccc34)CC2)nc2ccccc12
REMARK SMILES IDX 14 1 13 2 12 3 10 4 11 5 9 6 8 7 5 8 6 9 94 10 7 11 93 12
REMARK SMILES IDX 4 14 1 15 2 16 3 17 101 18 96 19 100 20 95 21 97 22 99 23
REMARK SMILES IDX 98 24 84 25 85 26 92 27 86 28 87 29 91 30 88 32 90 33 89 34
REMARK SMILES IDX 15 35 16 36 17 37 18 38 19 39 83 40 20 41 82 42 21 43 22 44
REMARK SMILES IDX 23 45 76 46 24 47 81 48 75 49 77 50 25 51 80 52 74 53 73 54
REMARK SMILES IDX 26 56 60 57 39 58 59 59 40 60 43 61 58 62 78 63 41 64 42 65
REMARK SMILES IDX 57 67 79 68 44 69 27 70 28 71 37 72 29 73 30 74 36 75 38 76
REMARK SMILES IDX 31 77 32 78 33 79 34 80 35 81 61 82 62 83 71 84 63 85 64 86
REMARK SMILES IDX 70 87 72 88 65 89 66 90 67 91 68 92 69 93 45 94 46 95 55 96
REMARK SMILES IDX 47 97 48 98 54 99 56 100 49 101 50 102 51 103 52 104 53 105
REMARK H PARENT 8 13 86 31 77 55 43 66
REMARK Flexibility Score: inf
ROOT
ATOM      1  C   UNL A   1      34.148  29.864  27.482  1.00  0.00     0.275 C 
ENDROOT
BRANCH   1   2
ATOM      2  C   UNL A   1      34.051  28.967  26.256  1.00  0.00     0.274 C 
BRANCH   2   3
ATOM      3  O   UNL A   1      33.066  27.923  26.452  1.00  0.00    -0.457 OA
BRANCH   3   4
ATOM      4  C   UNL A   1      32.870  27.071  25.414  1.00  0.00     0.370 C 
ATOM      5  O   UNL A   1      33.793  26.468  24.862  1.00  0.00    -0.245 OA
BRANCH   4   6
ATOM      6  C   UNL A   1      31.453  27.059  24.837  1.00  0.00     0.328 C 
BRANCH   6   7
ATOM      7  N   UNL A   1      30.689  25.762  24.926  1.00  0.00    -0.316 N 
ATOM      8  N   UNL A   1      32.486  23.475  24.876  1.00  0.00    -0.345 N 
ATOM      9  C   UNL A   1      32.161  24.193  23.649  1.00  0.00     0.179 C 
ATOM     10  C   UNL A   1      31.721  23.674  26.103  1.00  0.00     0.179 C 
ATOM     11  C   UNL A   1      30.796  24.862  23.771  1.00  0.00     0.285 C 
ATOM     12  C   UNL A   1      30.896  25.000  26.166  1.00  0.00     0.285 C 
ATOM     13  H   UNL A   1      29.735  26.122  24.927  1.00  0.00     0.349 HD
BRANCH   8  14
ATOM     14  C   UNL A   1      33.191  22.316  24.626  1.00  0.00     0.129 A 
ATOM     15  C   UNL A   1      36.701  21.061  25.187  1.00  0.00     0.045 C 
ATOM     16  C   UNL A   1      35.237  21.065  24.853  1.00  0.00    -0.038 A 
ATOM     17  C   UNL A   1      34.562  22.286  24.832  1.00  0.00     0.051 A 
ATOM     18  C   UNL A   1      34.506  19.881  24.617  1.00  0.00     0.003 A 
ATOM     19  C   UNL A   1      33.116  20.010  24.395  1.00  0.00     0.073 A 
ATOM     20  C   UNL A   1      35.082  18.591  24.615  1.00  0.00     0.010 A 
ATOM     21  N   UNL A   1      32.484  21.192  24.406  1.00  0.00    -0.231 NA
ATOM     22  C   UNL A   1      32.362  18.863  24.186  1.00  0.00     0.029 A 
ATOM     23  C   UNL A   1      34.304  17.455  24.398  1.00  0.00     0.001 A 
ATOM     24  C   UNL A   1      32.939  17.591  24.185  1.00  0.00     0.002 A 
ENDBRANCH   8  14
ENDBRANCH   6   7
BRANCH   6  25
ATOM     25  C   UNL A   1      31.116  27.785  23.540  1.00  0.00     0.046 A 
ATOM     26  C   UNL A   1      32.114  28.340  22.745  1.00  0.00     0.094 A 
ATOM     27  C   UNL A   1      29.874  28.311  23.018  1.00  0.00     0.009 A 
ATOM     28  N   UNL A   1      31.574  29.370  22.031  1.00  0.00    -0.361 N 
ATOM     29  C   UNL A   1      30.222  29.433  22.255  1.00  0.00     0.046 A 
ATOM     30  C   UNL A   1      28.496  28.089  23.231  1.00  0.00     0.011 A 
ATOM     31  H   UNL A   1      32.078  29.977  21.444  1.00  0.00     0.166 HD
ATOM     32  C   UNL A   1      29.303  30.415  21.862  1.00  0.00     0.026 A 
ATOM     33  C   UNL A   1      27.550  29.015  22.759  1.00  0.00     0.001 A 
ATOM     34  C   UNL A   1      27.956  30.188  22.133  1.00  0.00     0.002 A 
ENDBRANCH   6  25
ENDBRANCH   4   6
ENDBRANCH   3   4
ENDBRANCH   2   3
ENDBRANCH   1   2
BRANCH   1  35
ATOM     35  O   UNL A   1      35.246  29.393  28.277  1.00  0.00    -0.458 OA
BRANCH  35  36
ATOM     36  C   UNL A   1      35.966  30.350  28.895  1.00  0.00     0.338 C 
ATOM     37  O   UNL A   1      35.519  31.272  29.574  1.00  0.00    -0.246 OA
BRANCH  36  38
ATOM     38  C   UNL A   1      37.413  30.069  28.768  1.00  0.00     0.060 A 
ATOM     39  C   UNL A   1      38.010  29.890  27.517  1.00  0.00     0.016 A 
ATOM     40  C   UNL A   1      38.155  29.825  29.925  1.00  0.00     0.016 A 
ATOM     41  C   UNL A   1      39.293  29.362  27.415  1.00  0.00     0.010 A 
ATOM     42  C   UNL A   1      39.479  29.395  29.824  1.00  0.00     0.010 A 
ATOM     43  C   UNL A   1      40.051  29.133  28.568  1.00  0.00    -0.014 A 
BRANCH  43  44
ATOM     44  C   UNL A   1      41.465  28.696  28.474  1.00  0.00     0.031 A 
ATOM     45  C   UNL A   1      42.585  29.692  28.536  1.00  0.00     0.074 A 
ATOM     46  C   UNL A   1      41.729  27.394  28.265  1.00  0.00     0.049 A 
ATOM     47  N   UNL A   1      43.847  29.535  28.226  1.00  0.00    -0.248 NA
ATOM     48  C   UNL A   1      42.243  31.045  28.998  1.00  0.00     0.031 C 
ATOM     49  C   UNL A   1      40.726  26.327  28.216  1.00  0.00     0.029 A 
ATOM     50  N   UNL A   1      42.915  26.748  28.028  1.00  0.00    -0.354 N 
ATOM     51  C   UNL A   1      44.443  30.777  28.408  1.00  0.00     0.074 A 
ATOM     52  C   UNL A   1      43.403  31.676  28.868  1.00  0.00     0.031 C 
ATOM     53  C   UNL A   1      41.335  25.164  27.962  1.00  0.00     0.029 A 
ATOM     54  C   UNL A   1      42.755  25.414  27.743  1.00  0.00     0.049 A 
ATOM     55  H   UNL A   1      43.792  27.195  28.059  1.00  0.00     0.167 HD
ATOM     56  C   UNL A   1      45.735  31.128  28.196  1.00  0.00     0.037 A 
ATOM     57  C   UNL A   1      43.632  24.500  27.291  1.00  0.00     0.037 A 
ATOM     58  C   UNL A   1      46.760  30.209  27.758  1.00  0.00     0.049 A 
ATOM     59  C   UNL A   1      45.051  24.905  27.059  1.00  0.00     0.074 A 
ATOM     60  C   UNL A   1      48.103  30.458  27.524  1.00  0.00     0.029 A 
ATOM     61  N   UNL A   1      46.559  28.860  27.494  1.00  0.00    -0.354 N 
ATOM     62  N   UNL A   1      45.592  26.095  27.168  1.00  0.00    -0.248 NA
ATOM     63  C   UNL A   1      45.979  23.848  26.646  1.00  0.00     0.031 C 
ATOM     64  C   UNL A   1      48.705  29.269  27.091  1.00  0.00     0.029 A 
ATOM     65  C   UNL A   1      47.749  28.266  27.098  1.00  0.00     0.049 A 
ATOM     66  H   UNL A   1      45.696  28.393  27.575  1.00  0.00     0.167 HD
ATOM     67  C   UNL A   1      46.930  25.934  26.836  1.00  0.00     0.074 A 
ATOM     68  C   UNL A   1      47.117  24.524  26.545  1.00  0.00     0.031 C 
ATOM     69  C   UNL A   1      47.913  26.867  26.779  1.00  0.00     0.037 A 
BRANCH  56  70
ATOM     70  C   UNL A   1      46.110  32.574  28.391  1.00  0.00     0.058 A 
ATOM     71  C   UNL A   1      46.575  33.069  29.621  1.00  0.00     0.135 A 
ATOM     72  C   UNL A   1      46.032  33.476  27.316  1.00  0.00     0.135 A 
ATOM     73  F   UNL A   1      46.657  32.259  30.687  1.00  0.00    -0.206 F 
ATOM     74  C   UNL A   1      46.923  34.408  29.783  1.00  0.00     0.059 A 
ATOM     75  C   UNL A   1      46.398  34.813  27.449  1.00  0.00     0.059 A 
ATOM     76  F   UNL A   1      45.597  33.060  26.115  1.00  0.00    -0.206 F 
ATOM     77  C   UNL A   1      46.826  35.274  28.692  1.00  0.00     0.060 A 
BRANCH  77  78
ATOM     78  S   UNL A   1      47.275  37.009  28.916  1.00  0.00     0.124 S 
ATOM     79  O   UNL A   1      48.185  36.928  30.055  1.00  0.00    -0.237 OA
ATOM     80  O   UNL A   1      47.893  37.343  27.636  1.00  0.00    -0.237 OA
ATOM     81  O   UNL A   1      45.996  37.660  29.179  1.00  0.00    -0.744 OA
ENDBRANCH  77  78
ENDBRANCH  56  70
BRANCH  57  82
ATOM     82  C   UNL A   1      43.136  23.130  27.009  1.00  0.00     0.058 A 
ATOM     83  C   UNL A   1      43.038  22.655  25.697  1.00  0.00     0.135 A 
ATOM     84  C   UNL A   1      42.910  22.224  28.059  1.00  0.00     0.135 A 
ATOM     85  F   UNL A   1      43.239  23.489  24.664  1.00  0.00    -0.206 F 
ATOM     86  C   UNL A   1      42.770  21.317  25.429  1.00  0.00     0.059 A 
ATOM     87  C   UNL A   1      42.666  20.878  27.817  1.00  0.00     0.059 A 
ATOM     88  F   UNL A   1      43.014  22.633  29.334  1.00  0.00    -0.206 F 
ATOM     89  C   UNL A   1      42.608  20.432  26.498  1.00  0.00     0.060 A 
BRANCH  89  90
ATOM     90  S   UNL A   1      42.434  18.668  26.147  1.00  0.00     0.124 S 
ATOM     91  O   UNL A   1      42.809  18.075  27.426  1.00  0.00    -0.237 OA
ATOM     92  O   UNL A   1      41.024  18.562  25.784  1.00  0.00    -0.237 OA
ATOM     93  O   UNL A   1      43.371  18.452  25.049  1.00  0.00    -0.744 OA
ENDBRANCH  89  90
ENDBRANCH  57  82
BRANCH  69  94
ATOM     94  C   UNL A   1      49.280  26.372  26.400  1.00  0.00     0.058 A 
ATOM     95  C   UNL A   1      50.107  25.716  27.325  1.00  0.00     0.135 A 
ATOM     96  C   UNL A   1      49.782  26.594  25.108  1.00  0.00     0.135 A 
ATOM     97  F   UNL A   1      49.675  25.487  28.575  1.00  0.00    -0.206 F 
ATOM     98  C   UNL A   1      51.408  25.345  26.997  1.00  0.00     0.059 A 
ATOM     99  C   UNL A   1      51.071  26.210  24.752  1.00  0.00     0.059 A 
ATOM    100  F   UNL A   1      49.027  27.209  24.184  1.00  0.00    -0.206 F 
ATOM    101  C   UNL A   1      51.885  25.610  25.713  1.00  0.00     0.060 A 
BRANCH 101 102
ATOM    102  S   UNL A   1      53.589  25.169  25.308  1.00  0.00     0.124 S 
ATOM    103  O   UNL A   1      54.329  25.899  26.332  1.00  0.00    -0.237 OA
ATOM    104  O   UNL A   1      53.581  23.716  25.446  1.00  0.00    -0.237 OA
ATOM    105  O   UNL A   1      53.750  25.662  23.943  1.00  0.00    -0.744 OA
ENDBRANCH 101 102
ENDBRANCH  69  94
ENDBRANCH  43  44
ENDBRANCH  36  38
ENDBRANCH  35  36
ENDBRANCH   1  35
TORSDOF 17
ENDMDL
MODEL 2
REMARK VINA RESULT:     -13.7      4.728     10.840
REMARK SMILES Cc1cc(N2CC[NH+]([C@@H](C(=O)OCCOC(=O)c3ccc(-c4c5nc(c(-c6c(F)cc(S(=O)(=O)[O-])cc6F)c6ccc([nH]6)c(-c6c(F)cc(S(=O)(=O)[O-])cc6F)c6nc(c(-c7c(F)cc(S(=O)(=O)[O-])cc7F)c7ccc4[nH]7)C=C6)C=C5)cc3)c3c[nH]c4ccccc34)CC2)nc2ccccc12
REMARK SMILES IDX 14 1 13 2 12 3 10 4 11 5 9 6 8 7 5 8 6 9 94 10 7 11 93 12
REMARK SMILES IDX 4 14 1 15 2 16 3 17 101 18 96 19 100 20 95 21 97 22 99 23
REMARK SMILES IDX 98 24 84 25 85 26 92 27 86 28 87 29 91 30 88 32 90 33 89 34
REMARK SMILES IDX 15 35 16 36 17 37 18 38 19 39 83 40 20 41 82 42 21 43 22 44
REMARK SMILES IDX 23 45 76 46 24 47 81 48 75 49 77 50 25 51 80 52 74 53 73 54
REMARK SMILES IDX 26 56 60 57 39 58 59 59 40 60 43 61 58 62 78 63 41 64 42 65
REMARK SMILES IDX 57 67 79 68 44 69 27 70 28 71 37 72 29 73 30 74 36 75 38 76
REMARK SMILES IDX 31 77 32 78 33 79 34 80 35 81 61 82 62 83 71 84 63 85 64 86
REMARK SMILES IDX 70 87 72 88 65 89 66 90 67 91 68 92 69 93 45 94 46 95 55 96
REMARK SMILES IDX 47 97 48 98 54 99 56 100 49 101 50 102 51 103 52 104 53 105
REMARK H PARENT 8 13 86 31 77 55 43 66
REMARK Flexibility Score: inf
ROOT
ATOM      1  C   UNL A   1      36.969  22.467  24.380  1.00  0.00     0.275 C 
ENDROOT
BRANCH   1   2
ATOM      2  C   UNL A   1      36.114  23.236  23.381  1.00  0.00     0.274 C 
BRANCH   2   3
ATOM      3  O   UNL A   1      34.754  23.375  23.860  1.00  0.00    -0.457 OA
BRANCH   3   4
ATOM      4  C   UNL A   1      33.767  23.098  22.970  1.00  0.00     0.370 C 
ATOM      5  O   UNL A   1      33.713  23.614  21.851  1.00  0.00    -0.245 OA
BRANCH   4   6
ATOM      6  C   UNL A   1      32.610  22.260  23.518  1.00  0.00     0.328 C 
BRANCH   6   7
ATOM      7  N   UNL A   1      31.450  23.008  24.121  1.00  0.00    -0.316 N 
ATOM      8  N   UNL A   1      32.012  25.856  24.308  1.00  0.00    -0.345 N 
ATOM      9  C   UNL A   1      32.589  24.919  25.266  1.00  0.00     0.179 C 
ATOM     10  C   UNL A   1      30.924  25.465  23.417  1.00  0.00     0.179 C 
ATOM     11  C   UNL A   1      31.702  23.684  25.399  1.00  0.00     0.285 C 
ATOM     12  C   UNL A   1      30.755  23.926  23.206  1.00  0.00     0.285 C 
ATOM     13  H   UNL A   1      30.826  22.226  24.324  1.00  0.00     0.349 HD
BRANCH   8  14
ATOM     14  C   UNL A   1      32.234  27.167  24.670  1.00  0.00     0.129 A 
ATOM     15  C   UNL A   1      30.332  30.420  24.520  1.00  0.00     0.045 C 
ATOM     16  C   UNL A   1      31.391  29.416  24.874  1.00  0.00    -0.038 A 
ATOM     17  C   UNL A   1      31.332  28.150  24.290  1.00  0.00     0.051 A 
ATOM     18  C   UNL A   1      32.409  29.680  25.817  1.00  0.00     0.003 A 
ATOM     19  C   UNL A   1      33.296  28.626  26.127  1.00  0.00     0.073 A 
ATOM     20  C   UNL A   1      32.565  30.922  26.472  1.00  0.00     0.010 A 
ATOM     21  N   UNL A   1      33.204  27.409  25.572  1.00  0.00    -0.231 NA
ATOM     22  C   UNL A   1      34.292  28.845  27.069  1.00  0.00     0.029 A 
ATOM     23  C   UNL A   1      33.577  31.118  27.411  1.00  0.00     0.001 A 
ATOM     24  C   UNL A   1      34.442  30.075  27.713  1.00  0.00     0.002 A 
ENDBRANCH   8  14
ENDBRANCH   6   7
BRANCH   6  25
ATOM     25  C   UNL A   1      32.859  20.963  24.279  1.00  0.00     0.046 A 
ATOM     26  C   UNL A   1      33.446  20.969  25.540  1.00  0.00     0.094 A 
ATOM     27  C   UNL A   1      32.870  19.579  23.858  1.00  0.00     0.009 A 
ATOM     28  N   UNL A   1      34.069  19.770  25.732  1.00  0.00    -0.361 N 
ATOM     29  C   UNL A   1      33.811  18.937  24.673  1.00  0.00     0.046 A 
ATOM     30  C   UNL A   1      32.338  18.827  22.787  1.00  0.00     0.011 A 
ATOM     31  H   UNL A   1      34.621  19.537  26.513  1.00  0.00     0.166 HD
ATOM     32  C   UNL A   1      34.367  17.686  24.374  1.00  0.00     0.026 A 
ATOM     33  C   UNL A   1      32.814  17.532  22.528  1.00  0.00     0.001 A 
ATOM     34  C   UNL A   1      33.854  16.993  23.279  1.00  0.00     0.002 A 
ENDBRANCH   6  25
ENDBRANCH   4   6
ENDBRANCH   3   4
ENDBRANCH   2   3
ENDBRANCH   1   2
BRANCH   1  35
ATOM     35  O   UNL A   1      37.589  23.426  25.248  1.00  0.00    -0.458 OA
BRANCH  35  36
ATOM     36  C   UNL A   1      38.695  22.998  25.888  1.00  0.00     0.338 C 
ATOM     37  O   UNL A   1      39.245  21.908  25.741  1.00  0.00    -0.246 OA
BRANCH  36  38
ATOM     38  C   UNL A   1      39.265  24.083  26.717  1.00  0.00     0.060 A 
ATOM     39  C   UNL A   1      38.895  24.244  28.056  1.00  0.00     0.016 A 
ATOM     40  C   UNL A   1      40.060  25.051  26.103  1.00  0.00     0.016 A 
ATOM     41  C   UNL A   1      39.215  25.411  28.742  1.00  0.00     0.010 A 
ATOM     42  C   UNL A   1      40.470  26.173  26.824  1.00  0.00     0.010 A 
ATOM     43  C   UNL A   1      40.029  26.377  28.141  1.00  0.00    -0.014 A 
BRANCH  43  44
ATOM     44  C   UNL A   1      40.489  27.563  28.904  1.00  0.00     0.031 A 
ATOM     45  C   UNL A   1      41.779  27.535  29.669  1.00  0.00     0.074 A 
ATOM     46  C   UNL A   1      39.697  28.649  28.953  1.00  0.00     0.049 A 
ATOM     47  N   UNL A   1      42.216  28.367  30.580  1.00  0.00    -0.248 NA
ATOM     48  C   UNL A   1      42.694  26.421  29.382  1.00  0.00     0.031 C 
ATOM     49  C   UNL A   1      38.435  28.807  28.226  1.00  0.00     0.029 A 
ATOM     50  N   UNL A   1      39.821  29.815  29.663  1.00  0.00    -0.354 N 
ATOM     51  C   UNL A   1      43.434  27.856  31.011  1.00  0.00     0.074 A 
ATOM     52  C   UNL A   1      43.671  26.645  30.251  1.00  0.00     0.031 C 
ATOM     53  C   UNL A   1      37.899  29.994  28.529  1.00  0.00     0.029 A 
ATOM     54  C   UNL A   1      38.732  30.643  29.535  1.00  0.00     0.049 A 
ATOM     55  H   UNL A   1      40.609  30.037  30.209  1.00  0.00     0.167 HD
ATOM     56  C   UNL A   1      44.263  28.351  31.962  1.00  0.00     0.037 A 
ATOM     57  C   UNL A   1      38.398  31.765  30.196  1.00  0.00     0.037 A 
ATOM     58  C   UNL A   1      44.016  29.574  32.692  1.00  0.00     0.049 A 
ATOM     59  C   UNL A   1      39.322  32.296  31.244  1.00  0.00     0.074 A 
ATOM     60  C   UNL A   1      44.797  30.172  33.667  1.00  0.00     0.029 A 
ATOM     61  N   UNL A   1      42.906  30.391  32.521  1.00  0.00    -0.354 N 
ATOM     62  N   UNL A   1      40.437  31.772  31.694  1.00  0.00    -0.248 NA
ATOM     63  C   UNL A   1      38.947  33.566  31.872  1.00  0.00     0.031 C 
ATOM     64  C   UNL A   1      44.146  31.332  34.106  1.00  0.00     0.029 A 
ATOM     65  C   UNL A   1      42.980  31.484  33.373  1.00  0.00     0.049 A 
ATOM     66  H   UNL A   1      42.172  30.220  31.888  1.00  0.00     0.167 HD
ATOM     67  C   UNL A   1      40.903  32.649  32.663  1.00  0.00     0.074 A 
ATOM     68  C   UNL A   1      39.955  33.748  32.715  1.00  0.00     0.031 C 
ATOM     69  C   UNL A   1      42.013  32.554  33.437  1.00  0.00     0.037 A 
BRANCH  56  70
ATOM     70  C   UNL A   1      45.494  27.553  32.303  1.00  0.00     0.058 A 
ATOM     71  C   UNL A   1      45.478  26.519  33.253  1.00  0.00     0.135 A 
ATOM     72  C   UNL A   1      46.708  27.807  31.642  1.00  0.00     0.135 A 
ATOM     73  F   UNL A   1      44.351  26.239  33.928  1.00  0.00    -0.206 F 
ATOM     74  C   UNL A   1      46.623  25.785  33.553  1.00  0.00     0.059 A 
ATOM     75  C   UNL A   1      47.860  27.071  31.908  1.00  0.00     0.059 A 
ATOM     76  F   UNL A   1      46.784  28.782  30.721  1.00  0.00    -0.206 F 
ATOM     77  C   UNL A   1      47.812  26.073  32.879  1.00  0.00     0.060 A 
BRANCH  77  78
ATOM     78  S   UNL A   1      49.293  25.119  33.280  1.00  0.00     0.124 S 
ATOM     79  O   UNL A   1      48.720  23.981  33.992  1.00  0.00    -0.237 OA
ATOM     80  O   UNL A   1      49.846  24.827  31.962  1.00  0.00    -0.237 OA
ATOM     81  O   UNL A   1      50.079  26.040  34.096  1.00  0.00    -0.744 OA
ENDBRANCH  77  78
ENDBRANCH  56  70
BRANCH  57  82
ATOM     82  C   UNL A   1      37.101  32.410  29.874  1.00  0.00     0.058 A 
ATOM     83  C   UNL A   1      35.939  32.082  30.580  1.00  0.00     0.135 A 
ATOM     84  C   UNL A   1      37.044  33.482  28.967  1.00  0.00     0.135 A 
ATOM     85  F   UNL A   1      35.948  31.061  31.451  1.00  0.00    -0.206 F 
ATOM     86  C   UNL A   1      34.768  32.818  30.429  1.00  0.00     0.059 A 
ATOM     87  C   UNL A   1      35.893  34.247  28.818  1.00  0.00     0.059 A 
ATOM     88  F   UNL A   1      38.141  33.844  28.284  1.00  0.00    -0.206 F 
ATOM     89  C   UNL A   1      34.763  33.913  29.561  1.00  0.00     0.060 A 
BRANCH  89  90
ATOM     90  S   UNL A   1      33.297  34.967  29.500  1.00  0.00     0.124 S 
ATOM     91  O   UNL A   1      32.504  34.308  28.468  1.00  0.00    -0.237 OA
ATOM     92  O   UNL A   1      32.783  34.863  30.862  1.00  0.00    -0.237 OA
ATOM     93  O   UNL A   1      33.840  36.274  29.144  1.00  0.00    -0.744 OA
ENDBRANCH  89  90
ENDBRANCH  57  82
BRANCH  69  94
ATOM     94  C   UNL A   1      42.257  33.687  34.393  1.00  0.00     0.058 A 
ATOM     95  C   UNL A   1      43.039  34.796  34.034  1.00  0.00     0.135 A 
ATOM     96  C   UNL A   1      41.737  33.642  35.696  1.00  0.00     0.135 A 
ATOM     97  F   UNL A   1      43.565  34.883  32.802  1.00  0.00    -0.206 F 
ATOM     98  C   UNL A   1      43.342  35.798  34.953  1.00  0.00     0.059 A 
ATOM     99  C   UNL A   1      42.007  34.643  36.623  1.00  0.00     0.059 A 
ATOM    100  F   UNL A   1      40.974  32.608  36.085  1.00  0.00    -0.206 F 
ATOM    101  C   UNL A   1      42.833  35.704  36.249  1.00  0.00     0.060 A 
BRANCH 101 102
ATOM    102  S   UNL A   1      43.268  36.980  37.449  1.00  0.00     0.124 S 
ATOM    103  O   UNL A   1      44.324  36.319  38.208  1.00  0.00    -0.237 OA
ATOM    104  O   UNL A   1      43.696  38.084  36.597  1.00  0.00    -0.237 OA
ATOM    105  O   UNL A   1      42.019  37.203  38.172  1.00  0.00    -0.744 OA
ENDBRANCH 101 102
ENDBRANCH  69  94
ENDBRANCH  43  44
ENDBRANCH  36  38
ENDBRANCH  35  36
ENDBRANCH   1  35
TORSDOF 17
ENDMDL
MODEL 3
REMARK VINA RESULT:     -13.3      2.327      3.247
REMARK SMILES Cc1cc(N2CC[NH+]([C@@H](C(=O)OCCOC(=O)c3ccc(-c4c5nc(c(-c6c(F)cc(S(=O)(=O)[O-])cc6F)c6ccc([nH]6)c(-c6c(F)cc(S(=O)(=O)[O-])cc6F)c6nc(c(-c7c(F)cc(S(=O)(=O)[O-])cc7F)c7ccc4[nH]7)C=C6)C=C5)cc3)c3c[nH]c4ccccc34)CC2)nc2ccccc12
REMARK SMILES IDX 14 1 13 2 12 3 10 4 11 5 9 6 8 7 5 8 6 9 94 10 7 11 93 12
REMARK SMILES IDX 4 14 1 15 2 16 3 17 101 18 96 19 100 20 95 21 97 22 99 23
REMARK SMILES IDX 98 24 84 25 85 26 92 27 86 28 87 29 91 30 88 32 90 33 89 34
REMARK SMILES IDX 15 35 16 36 17 37 18 38 19 39 83 40 20 41 82 42 21 43 22 44
REMARK SMILES IDX 23 45 76 46 24 47 81 48 75 49 77 50 25 51 80 52 74 53 73 54
REMARK SMILES IDX 26 56 60 57 39 58 59 59 40 60 43 61 58 62 78 63 41 64 42 65
REMARK SMILES IDX 57 67 79 68 44 69 27 70 28 71 37 72 29 73 30 74 36 75 38 76
REMARK SMILES IDX 31 77 32 78 33 79 34 80 35 81 61 82 62 83 71 84 63 85 64 86
REMARK SMILES IDX 70 87 72 88 65 89 66 90 67 91 68 92 69 93 45 94 46 95 55 96
REMARK SMILES IDX 47 97 48 98 54 99 56 100 49 101 50 102 51 103 52 104 53 105
REMARK H PARENT 8 13 86 31 77 55 43 66
REMARK Flexibility Score: inf
ROOT
ATOM      1  C   UNL A   1      32.989  29.165  26.366  1.00  0.00     0.275 C 
ENDROOT
BRANCH   1   2
ATOM      2  C   UNL A   1      33.546  27.761  26.558  1.00  0.00     0.274 C 
BRANCH   2   3
ATOM      3  O   UNL A   1      32.621  26.763  26.060  1.00  0.00    -0.457 OA
BRANCH   3   4
ATOM      4  C   UNL A   1      31.307  26.963  26.337  1.00  0.00     0.370 C 
ATOM      5  O   UNL A   1      30.901  27.287  27.455  1.00  0.00    -0.245 OA
BRANCH   4   6
ATOM      6  C   UNL A   1      30.338  26.562  25.223  1.00  0.00     0.328 C 
BRANCH   6   7
ATOM      7  N   UNL A   1      30.086  25.088  25.032  1.00  0.00    -0.316 N 
ATOM      8  N   UNL A   1      32.451  23.522  25.675  1.00  0.00    -0.345 N 
ATOM      9  C   UNL A   1      32.355  24.239  24.409  1.00  0.00     0.179 C 
ATOM     10  C   UNL A   1      31.285  23.317  26.528  1.00  0.00     0.179 C 
ATOM     11  C   UNL A   1      30.893  24.415  24.008  1.00  0.00     0.285 C 
ATOM     12  C   UNL A   1      30.090  24.290  26.268  1.00  0.00     0.285 C 
ATOM     13  H   UNL A   1      29.130  25.120  24.676  1.00  0.00     0.349 HD
BRANCH   8  14
ATOM     14  C   UNL A   1      33.550  22.690  25.715  1.00  0.00     0.129 A 
ATOM     15  C   UNL A   1      34.388  19.188  24.598  1.00  0.00     0.045 C 
ATOM     16  C   UNL A   1      34.562  20.589  25.109  1.00  0.00    -0.038 A 
ATOM     17  C   UNL A   1      33.423  21.361  25.339  1.00  0.00     0.051 A 
ATOM     18  C   UNL A   1      35.830  21.175  25.312  1.00  0.00     0.003 A 
ATOM     19  C   UNL A   1      35.863  22.528  25.715  1.00  0.00     0.073 A 
ATOM     20  C   UNL A   1      37.050  20.491  25.110  1.00  0.00     0.010 A 
ATOM     21  N   UNL A   1      34.755  23.259  25.904  1.00  0.00    -0.231 NA
ATOM     22  C   UNL A   1      37.095  23.143  25.897  1.00  0.00     0.029 A 
ATOM     23  C   UNL A   1      38.274  21.129  25.304  1.00  0.00     0.001 A 
ATOM     24  C   UNL A   1      38.298  22.461  25.697  1.00  0.00     0.002 A 
ENDBRANCH   8  14
ENDBRANCH   6   7
BRANCH   6  25
ATOM     25  C   UNL A   1      30.332  27.279  23.877  1.00  0.00     0.046 A 
ATOM     26  C   UNL A   1      31.513  27.503  23.175  1.00  0.00     0.094 A 
ATOM     27  C   UNL A   1      29.333  28.088  23.214  1.00  0.00     0.009 A 
ATOM     28  N   UNL A   1      31.340  28.599  22.380  1.00  0.00    -0.361 N 
ATOM     29  C   UNL A   1      30.041  29.032  22.460  1.00  0.00     0.046 A 
ATOM     30  C   UNL A   1      27.933  28.253  23.288  1.00  0.00     0.011 A 
ATOM     31  H   UNL A   1      32.043  29.015  21.832  1.00  0.00     0.166 HD
ATOM     32  C   UNL A   1      29.464  30.200  21.945  1.00  0.00     0.026 A 
ATOM     33  C   UNL A   1      27.321  29.370  22.694  1.00  0.00     0.001 A 
ATOM     34  C   UNL A   1      28.086  30.356  22.081  1.00  0.00     0.002 A 
ENDBRANCH   6  25
ENDBRANCH   4   6
ENDBRANCH   3   4
ENDBRANCH   2   3
ENDBRANCH   1   2
BRANCH   1  35
ATOM     35  O   UNL A   1      34.096  30.076  26.388  1.00  0.00    -0.458 OA
BRANCH  35  36
ATOM     36  C   UNL A   1      34.448  30.532  27.606  1.00  0.00     0.338 C 
ATOM     37  O   UNL A   1      33.742  31.186  28.370  1.00  0.00    -0.246 OA
BRANCH  36  38
ATOM     38  C   UNL A   1      35.783  30.016  27.985  1.00  0.00     0.060 A 
ATOM     39  C   UNL A   1      36.071  29.649  29.303  1.00  0.00     0.016 A 
ATOM     40  C   UNL A   1      36.809  30.049  27.040  1.00  0.00     0.016 A 
ATOM     41  C   UNL A   1      37.385  29.431  29.704  1.00  0.00     0.010 A 
ATOM     42  C   UNL A   1      38.113  29.727  27.419  1.00  0.00     0.010 A 
ATOM     43  C   UNL A   1      38.417  29.442  28.760  1.00  0.00    -0.014 A 
BRANCH  43  44
ATOM     44  C   UNL A   1      39.803  29.081  29.146  1.00  0.00     0.031 A 
ATOM     45  C   UNL A   1      40.726  30.100  29.746  1.00  0.00     0.074 A 
ATOM     46  C   UNL A   1      40.245  27.836  28.889  1.00  0.00     0.049 A 
ATOM     47  N   UNL A   1      42.023  30.041  29.913  1.00  0.00    -0.248 NA
ATOM     48  C   UNL A   1      40.115  31.352  30.213  1.00  0.00     0.031 C 
ATOM     49  C   UNL A   1      39.432  26.750  28.336  1.00  0.00     0.029 A 
ATOM     50  N   UNL A   1      41.490  27.281  29.033  1.00  0.00    -0.354 N 
ATOM     51  C   UNL A   1      42.394  31.264  30.459  1.00  0.00     0.074 A 
ATOM     52  C   UNL A   1      41.179  32.041  30.606  1.00  0.00     0.031 C 
ATOM     53  C   UNL A   1      40.197  25.663  28.183  1.00  0.00     0.029 A 
ATOM     54  C   UNL A   1      41.569  26.000  28.544  1.00  0.00     0.049 A 
ATOM     55  H   UNL A   1      42.250  27.752  29.445  1.00  0.00     0.167 HD
ATOM     56  C   UNL A   1      43.636  31.694  30.790  1.00  0.00     0.037 A 
ATOM     57  C   UNL A   1      42.631  25.200  28.341  1.00  0.00     0.037 A 
ATOM     58  C   UNL A   1      44.831  30.893  30.654  1.00  0.00     0.049 A 
ATOM     59  C   UNL A   1      43.994  25.692  28.709  1.00  0.00     0.074 A 
ATOM     60  C   UNL A   1      46.137  31.227  30.972  1.00  0.00     0.029 A 
ATOM     61  N   UNL A   1      44.865  29.592  30.167  1.00  0.00    -0.354 N 
ATOM     62  N   UNL A   1      44.345  26.872  29.160  1.00  0.00    -0.248 NA
ATOM     63  C   UNL A   1      45.102  24.747  28.543  1.00  0.00     0.031 C 
ATOM     64  C   UNL A   1      46.963  30.142  30.650  1.00  0.00     0.029 A 
ATOM     65  C   UNL A   1      46.167  29.113  30.173  1.00  0.00     0.049 A 
ATOM     66  H   UNL A   1      44.080  29.085  29.861  1.00  0.00     0.167 HD
ATOM     67  C   UNL A   1      45.720  26.816  29.334  1.00  0.00     0.074 A 
ATOM     68  C   UNL A   1      46.130  25.475  28.959  1.00  0.00     0.031 C 
ATOM     69  C   UNL A   1      46.565  27.786  29.766  1.00  0.00     0.037 A 
BRANCH  56  70
ATOM     70  C   UNL A   1      43.778  33.108  31.290  1.00  0.00     0.058 A 
ATOM     71  C   UNL A   1      43.880  34.205  30.419  1.00  0.00     0.135 A 
ATOM     72  C   UNL A   1      43.779  33.373  32.670  1.00  0.00     0.135 A 
ATOM     73  F   UNL A   1      43.899  34.013  29.091  1.00  0.00    -0.206 F 
ATOM     74  C   UNL A   1      44.004  35.507  30.897  1.00  0.00     0.059 A 
ATOM     75  C   UNL A   1      43.878  34.669  33.171  1.00  0.00     0.059 A 
ATOM     76  F   UNL A   1      43.681  32.365  33.552  1.00  0.00    -0.206 F 
ATOM     77  C   UNL A   1      44.008  35.729  32.276  1.00  0.00     0.060 A 
BRANCH  77  78
ATOM     78  S   UNL A   1      44.176  37.421  32.885  1.00  0.00     0.124 S 
ATOM     79  O   UNL A   1      44.110  38.184  31.642  1.00  0.00    -0.237 OA
ATOM     80  O   UNL A   1      43.022  37.554  33.769  1.00  0.00    -0.237 OA
ATOM     81  O   UNL A   1      45.474  37.415  33.552  1.00  0.00    -0.744 OA
ENDBRANCH  77  78
ENDBRANCH  56  70
BRANCH  57  82
ATOM     82  C   UNL A   1      42.401  23.870  27.725  1.00  0.00     0.058 A 
ATOM     83  C   UNL A   1      42.414  23.708  26.335  1.00  0.00     0.135 A 
ATOM     84  C   UNL A   1      42.328  22.717  28.525  1.00  0.00     0.135 A 
ATOM     85  F   UNL A   1      42.476  24.783  25.534  1.00  0.00    -0.206 F 
ATOM     86  C   UNL A   1      42.403  22.445  25.754  1.00  0.00     0.059 A 
ATOM     87  C   UNL A   1      42.341  21.444  27.968  1.00  0.00     0.059 A 
ATOM     88  F   UNL A   1      42.334  22.826  29.863  1.00  0.00    -0.206 F 
ATOM     89  C   UNL A   1      42.389  21.318  26.581  1.00  0.00     0.060 A 
BRANCH  89  90
ATOM     90  S   UNL A   1      42.548  19.684  25.826  1.00  0.00     0.124 S 
ATOM     91  O   UNL A   1      41.188  19.441  25.361  1.00  0.00    -0.237 OA
ATOM     92  O   UNL A   1      43.546  19.919  24.787  1.00  0.00    -0.237 OA
ATOM     93  O   UNL A   1      42.998  18.848  26.935  1.00  0.00    -0.744 OA
ENDBRANCH  89  90
ENDBRANCH  57  82
BRANCH  69  94
ATOM     94  C   UNL A   1      48.016  27.409  29.866  1.00  0.00     0.058 A 
ATOM     95  C   UNL A   1      48.550  26.839  31.032  1.00  0.00     0.135 A 
ATOM     96  C   UNL A   1      48.890  27.658  28.796  1.00  0.00     0.135 A 
ATOM     97  F   UNL A   1      47.757  26.586  32.085  1.00  0.00    -0.206 F 
ATOM     98  C   UNL A   1      49.912  26.579  31.155  1.00  0.00     0.059 A 
ATOM     99  C   UNL A   1      50.251  27.385  28.888  1.00  0.00     0.059 A 
ATOM    100  F   UNL A   1      48.428  28.193  27.655  1.00  0.00    -0.206 F 
ATOM    101  C   UNL A   1      50.756  26.870  30.082  1.00  0.00     0.060 A 
BRANCH 101 102
ATOM    102  S   UNL A   1      52.528  26.576  30.263  1.00  0.00     0.124 S 
ATOM    103  O   UNL A   1      52.989  27.871  30.752  1.00  0.00    -0.237 OA
ATOM    104  O   UNL A   1      52.570  25.482  31.229  1.00  0.00    -0.237 OA
ATOM    105  O   UNL A   1      52.952  26.226  28.911  1.00  0.00    -0.744 OA
ENDBRANCH 101 102
ENDBRANCH  69  94
ENDBRANCH  43  44
ENDBRANCH  36  38
ENDBRANCH  35  36
ENDBRANCH   1  35
TORSDOF 17
ENDMDL
