MODEL 1
REMARK VINA RESULT:     -10.8      0.000      0.000
REMARK SMILES Nc1nc(N)nc(N/C=C/C(=O)OCCOC(=O)c2ccc(-c3c4nc(c(-c5c(F)cc(S(=O)(=O)[O-])cc5F)c5ccc([nH]5)c(-c5c(F)cc(S(=O)(=O)[O-])cc5F)c5nc(c(-c6c(F)cc(S(=O)(=O)[O-])cc6F)c6ccc3[nH]6)C=C5)C=C4)cc2)n1
REMARK SMILES IDX 14 1 13 2 11 3 12 4 10 5 9 6 8 7 7 9 2 10 3 11 85 12 4 13
REMARK SMILES IDX 6 14 1 15 5 18 15 21 16 22 17 23 18 24 19 25 20 26 84 27
REMARK SMILES IDX 21 28 83 29 22 30 23 31 24 32 77 33 25 34 82 35 76 36 78 37
REMARK SMILES IDX 26 38 81 39 75 40 74 41 27 43 61 44 40 45 60 46 41 47 44 48
REMARK SMILES IDX 59 49 79 50 42 51 43 52 58 54 80 55 45 56 28 57 29 58 38 59
REMARK SMILES IDX 30 60 31 61 37 62 39 63 32 64 33 65 34 66 35 67 36 68 62 69
REMARK SMILES IDX 63 70 72 71 64 72 65 73 71 74 73 75 66 76 67 77 68 78 69 79
REMARK SMILES IDX 70 80 46 81 47 82 56 83 48 84 49 85 55 86 57 87 50 88 51 89
REMARK SMILES IDX 52 90 53 91 54 92
REMARK H PARENT 8 8 1 16 1 17 5 19 5 20 78 42 44 53
REMARK Flexibility Score: inf
ROOT
ATOM      1  C   UNL A   1      37.031  31.511  33.119  1.00  0.00     0.275 C 
ENDROOT
BRANCH   1   2
ATOM      2  O   UNL A   1      36.520  32.122  34.318  1.00  0.00    -0.459 OA
BRANCH   2   3
ATOM      3  C   UNL A   1      36.654  33.468  34.389  1.00  0.00     0.332 C 
ATOM      4  O   UNL A   1      37.655  34.075  34.739  1.00  0.00    -0.247 OA
BRANCH   3   5
ATOM      5  C   UNL A   1      35.460  34.184  33.904  1.00  0.00     0.111 C 
ATOM      6  C   UNL A   1      34.297  33.617  33.562  1.00  0.00     0.093 C 
BRANCH   6   7
ATOM      7  N   UNL A   1      33.197  34.281  33.091  1.00  0.00    -0.330 N 
ATOM      8  H   UNL A   1      32.324  33.894  33.327  1.00  0.00     0.169 HD
BRANCH   7   9
ATOM      9  C   UNL A   1      33.163  35.439  32.317  1.00  0.00     0.233 A 
ATOM     10  C   UNL A   1      32.890  36.358  30.292  1.00  0.00     0.226 A 
ATOM     11  N   UNL A   1      33.236  37.560  30.720  1.00  0.00    -0.177 NA
ATOM     12  N   UNL A   1      32.842  35.270  31.040  1.00  0.00    -0.177 NA
ATOM     13  C   UNL A   1      33.531  37.626  32.006  1.00  0.00     0.226 A 
ATOM     14  N   UNL A   1      33.506  36.608  32.847  1.00  0.00    -0.177 NA
BRANCH  10  15
ATOM     15  N   UNL A   1      32.572  36.226  28.969  1.00  0.00    -0.368 N 
ATOM     16  H   UNL A   1      31.985  35.494  28.676  1.00  0.00     0.159 HD
ATOM     17  H   UNL A   1      32.931  36.864  28.312  1.00  0.00     0.159 HD
ENDBRANCH  10  15
BRANCH  13  18
ATOM     18  N   UNL A   1      33.921  38.836  32.506  1.00  0.00    -0.368 N 
ATOM     19  H   UNL A   1      33.971  38.974  33.480  1.00  0.00     0.159 HD
ATOM     20  H   UNL A   1      34.151  39.572  31.893  1.00  0.00     0.159 HD
ENDBRANCH  13  18
ENDBRANCH   7   9
ENDBRANCH   6   7
ENDBRANCH   3   5
ENDBRANCH   2   3
ENDBRANCH   1   2
BRANCH   1  21
ATOM     21  C   UNL A   1      35.902  31.101  32.166  1.00  0.00     0.275 C 
BRANCH  21  22
ATOM     22  O   UNL A   1      36.292  30.025  31.292  1.00  0.00    -0.458 OA
BRANCH  22  23
ATOM     23  C   UNL A   1      36.510  30.383  30.002  1.00  0.00     0.338 C 
ATOM     24  O   UNL A   1      35.807  31.104  29.315  1.00  0.00    -0.246 OA
BRANCH  23  25
ATOM     25  C   UNL A   1      37.819  29.876  29.550  1.00  0.00     0.060 A 
ATOM     26  C   UNL A   1      38.746  29.502  30.528  1.00  0.00     0.016 A 
ATOM     27  C   UNL A   1      38.160  29.826  28.197  1.00  0.00     0.016 A 
ATOM     28  C   UNL A   1      40.018  29.074  30.157  1.00  0.00     0.010 A 
ATOM     29  C   UNL A   1      39.442  29.404  27.826  1.00  0.00     0.010 A 
ATOM     30  C   UNL A   1      40.382  29.033  28.805  1.00  0.00    -0.014 A 
BRANCH  30  31
ATOM     31  C   UNL A   1      41.762  28.645  28.429  1.00  0.00     0.031 A 
ATOM     32  C   UNL A   1      42.851  29.680  28.405  1.00  0.00     0.074 A 
ATOM     33  C   UNL A   1      42.040  27.361  28.137  1.00  0.00     0.049 A 
ATOM     34  N   UNL A   1      44.110  29.548  28.076  1.00  0.00    -0.248 NA
ATOM     35  C   UNL A   1      42.474  31.045  28.806  1.00  0.00     0.031 C 
ATOM     36  C   UNL A   1      41.073  26.264  28.155  1.00  0.00     0.029 A 
ATOM     37  N   UNL A   1      43.218  26.762  27.767  1.00  0.00    -0.354 N 
ATOM     38  C   UNL A   1      44.675  30.809  28.219  1.00  0.00     0.074 A 
ATOM     39  C   UNL A   1      43.617  31.699  28.648  1.00  0.00     0.031 C 
ATOM     40  C   UNL A   1      41.696  25.125  27.808  1.00  0.00     0.029 A 
ATOM     41  C   UNL A   1      43.097  25.416  27.511  1.00  0.00     0.049 A 
ATOM     42  H   UNL A   1      44.071  27.250  27.691  1.00  0.00     0.167 HD
ATOM     43  C   UNL A   1      45.961  31.187  28.019  1.00  0.00     0.037 A 
ATOM     44  C   UNL A   1      44.006  24.526  27.069  1.00  0.00     0.037 A 
ATOM     45  C   UNL A   1      47.012  30.295  27.600  1.00  0.00     0.049 A 
ATOM     46  C   UNL A   1      45.417  24.982  26.810  1.00  0.00     0.074 A 
ATOM     47  C   UNL A   1      48.348  30.581  27.385  1.00  0.00     0.029 A 
ATOM     48  N   UNL A   1      46.845  28.944  27.334  1.00  0.00    -0.354 N 
ATOM     49  N   UNL A   1      45.940  26.176  26.963  1.00  0.00    -0.248 NA
ATOM     50  C   UNL A   1      46.364  23.970  26.316  1.00  0.00     0.031 C 
ATOM     51  C   UNL A   1      48.984  29.412  26.952  1.00  0.00     0.029 A 
ATOM     52  C   UNL A   1      48.050  28.388  26.938  1.00  0.00     0.049 A 
ATOM     53  H   UNL A   1      45.995  28.452  27.414  1.00  0.00     0.167 HD
ATOM     54  C   UNL A   1      47.278  26.054  26.606  1.00  0.00     0.074 A 
ATOM     55  C   UNL A   1      47.489  24.668  26.240  1.00  0.00     0.031 C 
ATOM     56  C   UNL A   1      48.245  27.003  26.585  1.00  0.00     0.037 A 
BRANCH  43  57
ATOM     57  C   UNL A   1      46.303  32.635  28.227  1.00  0.00     0.058 A 
ATOM     58  C   UNL A   1      46.195  33.575  27.191  1.00  0.00     0.135 A 
ATOM     59  C   UNL A   1      46.699  33.097  29.493  1.00  0.00     0.135 A 
ATOM     60  F   UNL A   1      45.835  33.182  25.958  1.00  0.00    -0.206 F 
ATOM     61  C   UNL A   1      46.484  34.920  27.396  1.00  0.00     0.059 A 
ATOM     62  C   UNL A   1      46.973  34.442  29.727  1.00  0.00     0.059 A 
ATOM     63  F   UNL A   1      46.821  32.239  30.517  1.00  0.00    -0.206 F 
ATOM     64  C   UNL A   1      46.873  35.344  28.669  1.00  0.00     0.060 A 
BRANCH  64  65
ATOM     65  S   UNL A   1      47.233  37.094  28.925  1.00  0.00     0.124 S 
ATOM     66  O   UNL A   1      48.642  37.049  29.307  1.00  0.00    -0.237 OA
ATOM     67  O   UNL A   1      46.952  37.668  27.613  1.00  0.00    -0.237 OA
ATOM     68  O   UNL A   1      46.308  37.481  29.986  1.00  0.00    -0.744 OA
ENDBRANCH  64  65
ENDBRANCH  43  57
BRANCH  44  69
ATOM     69  C   UNL A   1      43.607  23.116  26.826  1.00  0.00     0.058 A 
ATOM     70  C   UNL A   1      43.490  22.607  25.524  1.00  0.00     0.135 A 
ATOM     71  C   UNL A   1      43.328  22.248  27.894  1.00  0.00     0.135 A 
ATOM     72  F   UNL A   1      43.735  23.401  24.470  1.00  0.00    -0.206 F 
ATOM     73  C   UNL A   1      43.096  21.294  25.288  1.00  0.00     0.059 A 
ATOM     74  C   UNL A   1      42.956  20.925  27.685  1.00  0.00     0.059 A 
ATOM     75  F   UNL A   1      43.435  22.684  29.159  1.00  0.00    -0.206 F 
ATOM     76  C   UNL A   1      42.830  20.460  26.375  1.00  0.00     0.060 A 
BRANCH  76  77
ATOM     77  S   UNL A   1      42.356  18.745  26.063  1.00  0.00     0.124 S 
ATOM     78  O   UNL A   1      40.958  18.893  25.679  1.00  0.00    -0.237 OA
ATOM     79  O   UNL A   1      43.275  18.360  24.996  1.00  0.00    -0.237 OA
ATOM     80  O   UNL A   1      42.594  18.094  27.348  1.00  0.00    -0.744 OA
ENDBRANCH  76  77
ENDBRANCH  44  69
BRANCH  56  81
ATOM     81  C   UNL A   1      49.627  26.573  26.181  1.00  0.00     0.058 A 
ATOM     82  C   UNL A   1      50.089  26.720  24.864  1.00  0.00     0.135 A 
ATOM     83  C   UNL A   1      50.517  26.053  27.135  1.00  0.00     0.135 A 
ATOM     84  F   UNL A   1      49.275  27.206  23.913  1.00  0.00    -0.206 F 
ATOM     85  C   UNL A   1      51.381  26.350  24.502  1.00  0.00     0.059 A 
ATOM     86  C   UNL A   1      51.819  25.697  26.800  1.00  0.00     0.059 A 
ATOM     87  F   UNL A   1      50.128  25.901  28.411  1.00  0.00    -0.206 F 
ATOM     88  C   UNL A   1      52.239  25.838  25.478  1.00  0.00     0.060 A 
BRANCH  88  89
ATOM     89  S   UNL A   1      53.923  25.392  25.005  1.00  0.00     0.124 S 
ATOM     90  O   UNL A   1      53.814  23.946  24.857  1.00  0.00    -0.237 OA
ATOM     91  O   UNL A   1      54.113  26.144  23.768  1.00  0.00    -0.237 OA
ATOM     92  O   UNL A   1      54.725  25.850  26.137  1.00  0.00    -0.744 OA
ENDBRANCH  88  89
ENDBRANCH  56  81
ENDBRANCH  30  31
ENDBRANCH  23  25
ENDBRANCH  22  23
ENDBRANCH  21  22
ENDBRANCH   1  21
TORSDOF 18
ENDMDL
MODEL 2
REMARK VINA RESULT:     -10.7      6.869     14.847
REMARK SMILES Nc1nc(N)nc(N/C=C/C(=O)OCCOC(=O)c2ccc(-c3c4nc(c(-c5c(F)cc(S(=O)(=O)[O-])cc5F)c5ccc([nH]5)c(-c5c(F)cc(S(=O)(=O)[O-])cc5F)c5nc(c(-c6c(F)cc(S(=O)(=O)[O-])cc6F)c6ccc3[nH]6)C=C5)C=C4)cc2)n1
REMARK SMILES IDX 14 1 13 2 11 3 12 4 10 5 9 6 8 7 7 9 2 10 3 11 85 12 4 13
REMARK SMILES IDX 6 14 1 15 5 18 15 21 16 22 17 23 18 24 19 25 20 26 84 27
REMARK SMILES IDX 21 28 83 29 22 30 23 31 24 32 77 33 25 34 82 35 76 36 78 37
REMARK SMILES IDX 26 38 81 39 75 40 74 41 27 43 61 44 40 45 60 46 41 47 44 48
REMARK SMILES IDX 59 49 79 50 42 51 43 52 58 54 80 55 45 56 28 57 29 58 38 59
REMARK SMILES IDX 30 60 31 61 37 62 39 63 32 64 33 65 34 66 35 67 36 68 62 69
REMARK SMILES IDX 63 70 72 71 64 72 65 73 71 74 73 75 66 76 67 77 68 78 69 79
REMARK SMILES IDX 70 80 46 81 47 82 56 83 48 84 49 85 55 86 57 87 50 88 51 89
REMARK SMILES IDX 52 90 53 91 54 92
REMARK H PARENT 8 8 1 16 1 17 5 19 5 20 78 42 44 53
REMARK Flexibility Score: inf
ROOT
ATOM      1  C   UNL A   1      42.257  22.490  27.652  1.00  0.00     0.275 C 
ENDROOT
BRANCH   1   2
ATOM      2  O   UNL A   1      40.944  21.952  27.896  1.00  0.00    -0.459 OA
BRANCH   2   3
ATOM      3  C   UNL A   1      40.345  21.371  26.829  1.00  0.00     0.332 C 
ATOM      4  O   UNL A   1      39.269  21.689  26.344  1.00  0.00    -0.247 OA
BRANCH   3   5
ATOM      5  C   UNL A   1      41.178  20.323  26.211  1.00  0.00     0.111 C 
ATOM      6  C   UNL A   1      41.643  19.231  26.832  1.00  0.00     0.093 C 
BRANCH   6   7
ATOM      7  N   UNL A   1      42.435  18.271  26.263  1.00  0.00    -0.330 N 
ATOM      8  H   UNL A   1      42.143  17.340  26.389  1.00  0.00     0.169 HD
BRANCH   7   9
ATOM      9  C   UNL A   1      43.605  18.450  25.528  1.00  0.00     0.233 A 
ATOM     10  C   UNL A   1      45.845  18.449  25.502  1.00  0.00     0.226 A 
ATOM     11  N   UNL A   1      45.895  18.926  24.270  1.00  0.00    -0.177 NA
ATOM     12  N   UNL A   1      44.737  18.200  26.177  1.00  0.00    -0.177 NA
ATOM     13  C   UNL A   1      44.717  19.136  23.710  1.00  0.00     0.226 A 
ATOM     14  N   UNL A   1      43.549  18.912  24.284  1.00  0.00    -0.177 NA
BRANCH  10  15
ATOM     15  N   UNL A   1      47.033  18.211  26.135  1.00  0.00    -0.368 N 
ATOM     16  H   UNL A   1      47.881  18.411  25.680  1.00  0.00     0.159 HD
ATOM     17  H   UNL A   1      47.038  17.840  27.047  1.00  0.00     0.159 HD
ENDBRANCH  10  15
BRANCH  13  18
ATOM     18  N   UNL A   1      44.699  19.652  22.445  1.00  0.00    -0.368 N 
ATOM     19  H   UNL A   1      43.855  19.982  22.059  1.00  0.00     0.159 HD
ATOM     20  H   UNL A   1      45.530  19.693  21.918  1.00  0.00     0.159 HD
ENDBRANCH  13  18
ENDBRANCH   7   9
ENDBRANCH   6   7
ENDBRANCH   3   5
ENDBRANCH   2   3
ENDBRANCH   1   2
BRANCH   1  21
ATOM     21  C   UNL A   1      42.341  23.182  26.287  1.00  0.00     0.275 C 
BRANCH  21  22
ATOM     22  O   UNL A   1      41.380  24.246  26.156  1.00  0.00    -0.458 OA
BRANCH  22  23
ATOM     23  C   UNL A   1      41.911  25.479  25.962  1.00  0.00     0.338 C 
ATOM     24  O   UNL A   1      42.507  25.871  24.973  1.00  0.00    -0.246 OA
BRANCH  23  25
ATOM     25  C   UNL A   1      41.555  26.366  27.085  1.00  0.00     0.060 A 
ATOM     26  C   UNL A   1      42.240  27.578  27.201  1.00  0.00     0.016 A 
ATOM     27  C   UNL A   1      40.613  25.992  28.046  1.00  0.00     0.016 A 
ATOM     28  C   UNL A   1      41.987  28.425  28.277  1.00  0.00     0.010 A 
ATOM     29  C   UNL A   1      40.364  26.840  29.132  1.00  0.00     0.010 A 
ATOM     30  C   UNL A   1      41.056  28.058  29.258  1.00  0.00    -0.014 A 
BRANCH  30  31
ATOM     31  C   UNL A   1      40.848  28.935  30.435  1.00  0.00     0.031 A 
ATOM     32  C   UNL A   1      41.727  28.786  31.644  1.00  0.00     0.074 A 
ATOM     33  C   UNL A   1      39.889  29.879  30.405  1.00  0.00     0.049 A 
ATOM     34  N   UNL A   1      41.687  29.433  32.780  1.00  0.00    -0.248 NA
ATOM     35  C   UNL A   1      42.795  27.776  31.565  1.00  0.00     0.031 C 
ATOM     36  C   UNL A   1      38.994  30.137  29.277  1.00  0.00     0.029 A 
ATOM     37  N   UNL A   1      39.508  30.797  31.351  1.00  0.00    -0.354 N 
ATOM     38  C   UNL A   1      42.714  28.906  33.555  1.00  0.00     0.074 A 
ATOM     39  C   UNL A   1      43.348  27.872  32.766  1.00  0.00     0.031 C 
ATOM     40  C   UNL A   1      38.165  31.144  29.597  1.00  0.00     0.029 A 
ATOM     41  C   UNL A   1      38.447  31.581  30.963  1.00  0.00     0.049 A 
ATOM     42  H   UNL A   1      39.952  30.887  32.226  1.00  0.00     0.167 HD
ATOM     43  C   UNL A   1      43.094  29.259  34.806  1.00  0.00     0.037 A 
ATOM     44  C   UNL A   1      37.767  32.528  31.639  1.00  0.00     0.037 A 
ATOM     45  C   UNL A   1      42.464  30.296  35.583  1.00  0.00     0.049 A 
ATOM     46  C   UNL A   1      38.182  32.869  33.045  1.00  0.00     0.074 A 
ATOM     47  C   UNL A   1      42.788  30.736  36.855  1.00  0.00     0.029 A 
ATOM     48  N   UNL A   1      41.381  31.053  35.163  1.00  0.00    -0.354 N 
ATOM     49  N   UNL A   1      39.164  32.371  33.760  1.00  0.00    -0.248 NA
ATOM     50  C   UNL A   1      37.397  33.901  33.739  1.00  0.00     0.031 C 
ATOM     51  C   UNL A   1      41.879  31.735  37.218  1.00  0.00     0.029 A 
ATOM     52  C   UNL A   1      41.013  31.945  36.157  1.00  0.00     0.049 A 
ATOM     53  H   UNL A   1      40.938  30.970  34.287  1.00  0.00     0.167 HD
ATOM     54  C   UNL A   1      39.127  33.043  34.977  1.00  0.00     0.074 A 
ATOM     55  C   UNL A   1      38.035  33.990  34.899  1.00  0.00     0.031 C 
ATOM     56  C   UNL A   1      39.927  32.889  36.060  1.00  0.00     0.037 A 
BRANCH  43  57
ATOM     57  C   UNL A   1      44.235  28.504  35.427  1.00  0.00     0.058 A 
ATOM     58  C   UNL A   1      44.025  27.337  36.178  1.00  0.00     0.135 A 
ATOM     59  C   UNL A   1      45.559  28.927  35.229  1.00  0.00     0.135 A 
ATOM     60  F   UNL A   1      42.777  26.899  36.410  1.00  0.00    -0.206 F 
ATOM     61  C   UNL A   1      45.086  26.625  36.726  1.00  0.00     0.059 A 
ATOM     62  C   UNL A   1      46.638  28.218  35.750  1.00  0.00     0.059 A 
ATOM     63  F   UNL A   1      45.815  30.037  34.521  1.00  0.00    -0.206 F 
ATOM     64  C   UNL A   1      46.391  27.073  36.507  1.00  0.00     0.060 A 
BRANCH  64  65
ATOM     65  S   UNL A   1      47.760  26.132  37.213  1.00  0.00     0.124 S 
ATOM     66  O   UNL A   1      47.236  25.804  38.536  1.00  0.00    -0.237 OA
ATOM     67  O   UNL A   1      47.883  25.013  36.285  1.00  0.00    -0.237 OA
ATOM     68  O   UNL A   1      48.870  27.081  37.196  1.00  0.00    -0.744 OA
ENDBRANCH  64  65
ENDBRANCH  43  57
BRANCH  44  69
ATOM     69  C   UNL A   1      36.612  33.210  31.001  1.00  0.00     0.058 A 
ATOM     70  C   UNL A   1      35.295  32.924  31.390  1.00  0.00     0.135 A 
ATOM     71  C   UNL A   1      36.803  34.159  29.985  1.00  0.00     0.135 A 
ATOM     72  F   UNL A   1      35.060  32.016  32.349  1.00  0.00    -0.206 F 
ATOM     73  C   UNL A   1      34.206  33.543  30.783  1.00  0.00     0.059 A 
ATOM     74  C   UNL A   1      35.732  34.808  29.380  1.00  0.00     0.059 A 
ATOM     75  F   UNL A   1      38.044  34.474  29.584  1.00  0.00    -0.206 F 
ATOM     76  C   UNL A   1      34.435  34.484  29.778  1.00  0.00     0.060 A 
BRANCH  76  77
ATOM     77  S   UNL A   1      33.020  35.312  29.020  1.00  0.00     0.124 S 
ATOM     78  O   UNL A   1      32.558  34.299  28.078  1.00  0.00    -0.237 OA
ATOM     79  O   UNL A   1      32.154  35.558  30.169  1.00  0.00    -0.237 OA
ATOM     80  O   UNL A   1      33.611  36.507  28.425  1.00  0.00    -0.744 OA
ENDBRANCH  76  77
ENDBRANCH  44  69
BRANCH  56  81
ATOM     81  C   UNL A   1      39.672  33.785  37.240  1.00  0.00     0.058 A 
ATOM     82  C   UNL A   1      38.831  33.395  38.292  1.00  0.00     0.135 A 
ATOM     83  C   UNL A   1      40.319  35.027  37.341  1.00  0.00     0.135 A 
ATOM     84  F   UNL A   1      38.185  32.219  38.240  1.00  0.00    -0.206 F 
ATOM     85  C   UNL A   1      38.623  34.214  39.398  1.00  0.00     0.059 A 
ATOM     86  C   UNL A   1      40.144  35.853  38.447  1.00  0.00     0.059 A 
ATOM     87  F   UNL A   1      41.142  35.443  36.365  1.00  0.00    -0.206 F 
ATOM     88  C   UNL A   1      39.284  35.443  39.465  1.00  0.00     0.060 A 
BRANCH  88  89
ATOM     89  S   UNL A   1      39.034  36.483  40.920  1.00  0.00     0.124 S 
ATOM     90  O   UNL A   1      38.007  35.740  41.640  1.00  0.00    -0.237 OA
ATOM     91  O   UNL A   1      40.359  36.492  41.534  1.00  0.00    -0.237 OA
ATOM     92  O   UNL A   1      38.607  37.760  40.353  1.00  0.00    -0.744 OA
ENDBRANCH  88  89
ENDBRANCH  56  81
ENDBRANCH  30  31
ENDBRANCH  23  25
ENDBRANCH  22  23
ENDBRANCH  21  22
ENDBRANCH   1  21
TORSDOF 18
ENDMDL
MODEL 3
REMARK VINA RESULT:     -10.6      0.823      2.084
REMARK SMILES Nc1nc(N)nc(N/C=C/C(=O)OCCOC(=O)c2ccc(-c3c4nc(c(-c5c(F)cc(S(=O)(=O)[O-])cc5F)c5ccc([nH]5)c(-c5c(F)cc(S(=O)(=O)[O-])cc5F)c5nc(c(-c6c(F)cc(S(=O)(=O)[O-])cc6F)c6ccc3[nH]6)C=C5)C=C4)cc2)n1
REMARK SMILES IDX 14 1 13 2 11 3 12 4 10 5 9 6 8 7 7 9 2 10 3 11 85 12 4 13
REMARK SMILES IDX 6 14 1 15 5 18 15 21 16 22 17 23 18 24 19 25 20 26 84 27
REMARK SMILES IDX 21 28 83 29 22 30 23 31 24 32 77 33 25 34 82 35 76 36 78 37
REMARK SMILES IDX 26 38 81 39 75 40 74 41 27 43 61 44 40 45 60 46 41 47 44 48
REMARK SMILES IDX 59 49 79 50 42 51 43 52 58 54 80 55 45 56 28 57 29 58 38 59
REMARK SMILES IDX 30 60 31 61 37 62 39 63 32 64 33 65 34 66 35 67 36 68 62 69
REMARK SMILES IDX 63 70 72 71 64 72 65 73 71 74 73 75 66 76 67 77 68 78 69 79
REMARK SMILES IDX 70 80 46 81 47 82 56 83 48 84 49 85 55 86 57 87 50 88 51 89
REMARK SMILES IDX 52 90 53 91 54 92
REMARK H PARENT 8 8 1 16 1 17 5 19 5 20 78 42 44 53
REMARK Flexibility Score: inf
ROOT
ATOM      1  C   UNL A   1      37.009  31.811  33.628  1.00  0.00     0.275 C 
ENDROOT
BRANCH   1   2
ATOM      2  O   UNL A   1      36.237  32.713  34.441  1.00  0.00    -0.459 OA
BRANCH   2   3
ATOM      3  C   UNL A   1      36.493  34.030  34.254  1.00  0.00     0.332 C 
ATOM      4  O   UNL A   1      37.448  34.649  34.700  1.00  0.00    -0.247 OA
BRANCH   3   5
ATOM      5  C   UNL A   1      35.523  34.675  33.351  1.00  0.00     0.111 C 
ATOM      6  C   UNL A   1      34.228  34.353  33.241  1.00  0.00     0.093 C 
BRANCH   6   7
ATOM      7  N   UNL A   1      33.333  34.938  32.386  1.00  0.00    -0.330 N 
ATOM      8  H   UNL A   1      32.479  35.223  32.782  1.00  0.00     0.169 HD
BRANCH   7   9
ATOM      9  C   UNL A   1      33.484  35.178  31.022  1.00  0.00     0.233 A 
ATOM     10  C   UNL A   1      33.420  36.656  29.339  1.00  0.00     0.226 A 
ATOM     11  N   UNL A   1      33.585  35.717  28.423  1.00  0.00    -0.177 NA
ATOM     12  N   UNL A   1      33.357  36.444  30.642  1.00  0.00    -0.177 NA
ATOM     13  C   UNL A   1      33.707  34.492  28.903  1.00  0.00     0.226 A 
ATOM     14  N   UNL A   1      33.672  34.166  30.182  1.00  0.00    -0.177 NA
BRANCH  10  15
ATOM     15  N   UNL A   1      33.287  37.945  28.905  1.00  0.00    -0.368 N 
ATOM     16  H   UNL A   1      32.747  38.142  28.107  1.00  0.00     0.159 HD
ATOM     17  H   UNL A   1      33.732  38.675  29.393  1.00  0.00     0.159 HD
ENDBRANCH  10  15
BRANCH  13  18
ATOM     18  N   UNL A   1      33.856  33.472  28.005  1.00  0.00    -0.368 N 
ATOM     19  H   UNL A   1      33.505  32.576  28.216  1.00  0.00     0.159 HD
ATOM     20  H   UNL A   1      34.314  33.632  27.148  1.00  0.00     0.159 HD
ENDBRANCH  13  18
ENDBRANCH   7   9
ENDBRANCH   6   7
ENDBRANCH   3   5
ENDBRANCH   2   3
ENDBRANCH   1   2
BRANCH   1  21
ATOM     21  C   UNL A   1      36.239  31.375  32.376  1.00  0.00     0.275 C 
BRANCH  21  22
ATOM     22  O   UNL A   1      36.768  31.971  31.177  1.00  0.00    -0.458 OA
BRANCH  22  23
ATOM     23  C   UNL A   1      36.615  31.231  30.051  1.00  0.00     0.338 C 
ATOM     24  O   UNL A   1      35.605  31.130  29.374  1.00  0.00    -0.246 OA
BRANCH  23  25
ATOM     25  C   UNL A   1      37.905  30.637  29.656  1.00  0.00     0.060 A 
ATOM     26  C   UNL A   1      38.899  30.528  30.633  1.00  0.00     0.016 A 
ATOM     27  C   UNL A   1      38.164  30.251  28.339  1.00  0.00     0.016 A 
ATOM     28  C   UNL A   1      40.157  30.031  30.299  1.00  0.00     0.010 A 
ATOM     29  C   UNL A   1      39.431  29.759  28.002  1.00  0.00     0.010 A 
ATOM     30  C   UNL A   1      40.437  29.654  28.978  1.00  0.00    -0.014 A 
BRANCH  30  31
ATOM     31  C   UNL A   1      41.801  29.195  28.622  1.00  0.00     0.031 A 
ATOM     32  C   UNL A   1      42.944  30.171  28.622  1.00  0.00     0.074 A 
ATOM     33  C   UNL A   1      42.015  27.899  28.326  1.00  0.00     0.049 A 
ATOM     34  N   UNL A   1      44.199  29.974  28.312  1.00  0.00    -0.248 NA
ATOM     35  C   UNL A   1      42.633  31.552  29.025  1.00  0.00     0.031 C 
ATOM     36  C   UNL A   1      40.990  26.855  28.322  1.00  0.00     0.029 A 
ATOM     37  N   UNL A   1      43.165  27.241  27.971  1.00  0.00    -0.354 N 
ATOM     38  C   UNL A   1      44.828  31.202  28.472  1.00  0.00     0.074 A 
ATOM     39  C   UNL A   1      43.812  32.144  28.889  1.00  0.00     0.031 C 
ATOM     40  C   UNL A   1      41.557  25.687  27.978  1.00  0.00     0.029 A 
ATOM     41  C   UNL A   1      42.976  25.905  27.705  1.00  0.00     0.049 A 
ATOM     42  H   UNL A   1      44.043  27.683  27.912  1.00  0.00     0.167 HD
ATOM     43  C   UNL A   1      46.135  31.511  28.294  1.00  0.00     0.037 A 
ATOM     44  C   UNL A   1      43.844  24.970  27.272  1.00  0.00     0.037 A 
ATOM     45  C   UNL A   1      47.144  30.566  27.887  1.00  0.00     0.049 A 
ATOM     46  C   UNL A   1      45.281  25.351  27.038  1.00  0.00     0.074 A 
ATOM     47  C   UNL A   1      48.497  30.783  27.694  1.00  0.00     0.029 A 
ATOM     48  N   UNL A   1      46.909  29.229  27.609  1.00  0.00    -0.354 N 
ATOM     49  N   UNL A   1      45.864  26.514  27.207  1.00  0.00    -0.248 NA
ATOM     50  C   UNL A   1      46.180  24.293  26.553  1.00  0.00     0.031 C 
ATOM     51  C   UNL A   1      49.076  29.583  27.264  1.00  0.00     0.029 A 
ATOM     52  C   UNL A   1      48.089  28.610  27.229  1.00  0.00     0.049 A 
ATOM     53  H   UNL A   1      46.034  28.782  27.672  1.00  0.00     0.167 HD
ATOM     54  C   UNL A   1      47.199  26.323  26.870  1.00  0.00     0.074 A 
ATOM     55  C   UNL A   1      47.342  24.930  26.499  1.00  0.00     0.031 C 
ATOM     56  C   UNL A   1      48.216  27.220  26.870  1.00  0.00     0.037 A 
BRANCH  43  57
ATOM     57  C   UNL A   1      46.551  32.938  28.517  1.00  0.00     0.058 A 
ATOM     58  C   UNL A   1      47.039  33.378  29.757  1.00  0.00     0.135 A 
ATOM     59  C   UNL A   1      46.503  33.866  27.464  1.00  0.00     0.135 A 
ATOM     60  F   UNL A   1      47.090  32.535  30.801  1.00  0.00    -0.206 F 
ATOM     61  C   UNL A   1      47.450  34.693  29.950  1.00  0.00     0.059 A 
ATOM     62  C   UNL A   1      46.929  35.180  27.629  1.00  0.00     0.059 A 
ATOM     63  F   UNL A   1      46.042  33.497  26.259  1.00  0.00    -0.206 F 
ATOM     64  C   UNL A   1      47.391  35.588  28.880  1.00  0.00     0.060 A 
BRANCH  64  65
ATOM     65  S   UNL A   1      47.940  37.287  29.141  1.00  0.00     0.124 S 
ATOM     66  O   UNL A   1      49.349  37.091  29.468  1.00  0.00    -0.237 OA
ATOM     67  O   UNL A   1      47.671  37.907  27.847  1.00  0.00    -0.237 OA
ATOM     68  O   UNL A   1      47.099  37.752  30.241  1.00  0.00    -0.744 OA
ENDBRANCH  64  65
ENDBRANCH  43  57
BRANCH  44  69
ATOM     69  C   UNL A   1      43.373  23.584  27.014  1.00  0.00     0.058 A 
ATOM     70  C   UNL A   1      43.139  22.688  28.067  1.00  0.00     0.135 A 
ATOM     71  C   UNL A   1      43.155  23.126  25.705  1.00  0.00     0.135 A 
ATOM     72  F   UNL A   1      43.345  23.076  29.335  1.00  0.00    -0.206 F 
ATOM     73  C   UNL A   1      42.719  21.383  27.833  1.00  0.00     0.059 A 
ATOM     74  C   UNL A   1      42.712  21.833  25.446  1.00  0.00     0.059 A 
ATOM     75  F   UNL A   1      43.355  23.948  24.663  1.00  0.00    -0.206 F 
ATOM     76  C   UNL A   1      42.509  20.964  26.518  1.00  0.00     0.060 A 
BRANCH  76  77
ATOM     77  S   UNL A   1      41.927  19.280  26.222  1.00  0.00     0.124 S 
ATOM     78  O   UNL A   1      42.714  18.898  25.056  1.00  0.00    -0.237 OA
ATOM     79  O   UNL A   1      42.271  18.609  27.473  1.00  0.00    -0.237 OA
ATOM     80  O   UNL A   1      40.496  19.456  25.990  1.00  0.00    -0.744 OA
ENDBRANCH  76  77
ENDBRANCH  44  69
BRANCH  56  81
ATOM     81  C   UNL A   1      49.579  26.718  26.485  1.00  0.00     0.058 A 
ATOM     82  C   UNL A   1      50.446  26.144  27.427  1.00  0.00     0.135 A 
ATOM     83  C   UNL A   1      50.003  26.768  25.147  1.00  0.00     0.135 A 
ATOM     84  F   UNL A   1      50.090  26.078  28.720  1.00  0.00    -0.206 F 
ATOM     85  C   UNL A   1      51.695  25.652  27.060  1.00  0.00     0.059 A 
ATOM     86  C   UNL A   1      51.238  26.262  24.754  1.00  0.00     0.059 A 
ATOM     87  F   UNL A   1      49.208  27.299  24.205  1.00  0.00    -0.206 F 
ATOM     88  C   UNL A   1      52.082  25.716  25.720  1.00  0.00     0.060 A 
BRANCH  88  89
ATOM     89  S   UNL A   1      53.691  25.044  25.249  1.00  0.00     0.124 S 
ATOM     90  O   UNL A   1      53.936  25.729  23.984  1.00  0.00    -0.237 OA
ATOM     91  O   UNL A   1      54.541  25.449  26.364  1.00  0.00    -0.237 OA
ATOM     92  O   UNL A   1      53.441  23.609  25.149  1.00  0.00    -0.744 OA
ENDBRANCH  88  89
ENDBRANCH  56  81
ENDBRANCH  30  31
ENDBRANCH  23  25
ENDBRANCH  22  23
ENDBRANCH  21  22
ENDBRANCH   1  21
TORSDOF 18
ENDMDL
