MODEL 1
REMARK VINA RESULT:     -12.3      0.000      0.000
REMARK SMILES Cc1c(C[NH2+]C[C@@H]2CCCO2)c(C(=O)OCCOC(=O)c2ccc(-c3c4nc(c(-c5c(F)cc(S(=O)(=O)[O-])cc5F)c5ccc([nH]5)c(-c5c(F)cc(S(=O)(=O)[O-])cc5F)c5nc(c(-c6c(F)cc(S(=O)(=O)[O-])cc6F)c6ccc3[nH]6)C=C5)C=C4)cc2)c(C)n1Cc1ccc(F)cc1
REMARK SMILES IDX 16 1 15 2 13 3 14 4 12 5 1 6 2 7 3 8 89 9 87 10 88 11 4 12
REMARK SMILES IDX 5 13 6 16 7 17 8 18 11 19 9 20 10 21 90 22 91 23 92 24 97 25
REMARK SMILES IDX 93 26 96 27 94 28 95 29 17 30 18 31 19 32 20 33 21 34 22 35
REMARK SMILES IDX 86 36 23 37 85 38 24 39 25 40 26 41 79 42 27 43 84 44 78 45
REMARK SMILES IDX 80 46 28 47 83 48 77 49 76 50 29 52 63 53 42 54 62 55 43 56
REMARK SMILES IDX 46 57 61 58 81 59 44 60 45 61 60 63 82 64 47 65 30 66 31 67
REMARK SMILES IDX 40 68 32 69 33 70 39 71 41 72 34 73 35 74 36 75 37 76 38 77
REMARK SMILES IDX 64 78 65 79 74 80 66 81 67 82 73 83 75 84 68 85 69 86 70 87
REMARK SMILES IDX 71 88 72 89 48 90 49 91 58 92 50 93 51 94 57 95 59 96 52 97
REMARK SMILES IDX 53 98 54 99 55 100 56 101
REMARK H PARENT 5 14 5 15 80 51 46 62
REMARK Flexibility Score: inf
ROOT
ATOM      1  C   UNL A   1      38.104  21.847  25.435  1.00  0.00     0.275 C 
ENDROOT
BRANCH   1   2
ATOM      2  O   UNL A   1      37.328  23.047  25.198  1.00  0.00    -0.458 OA
BRANCH   2   3
ATOM      3  C   UNL A   1      36.285  22.920  24.322  1.00  0.00     0.340 C 
ATOM      4  O   UNL A   1      36.413  22.564  23.139  1.00  0.00    -0.246 OA
BRANCH   3   5
ATOM      5  C   UNL A   1      35.004  23.355  24.885  1.00  0.00     0.089 A 
ATOM      6  C   UNL A   1      32.048  23.184  27.172  1.00  0.00     0.065 C 
ATOM      7  C   UNL A   1      33.130  23.475  26.182  1.00  0.00     0.025 A 
ATOM      8  C   UNL A   1      34.293  22.737  25.963  1.00  0.00     0.042 A 
ATOM      9  N   UNL A   1      33.139  24.551  25.301  1.00  0.00    -0.343 N 
ATOM     10  C   UNL A   1      34.178  24.364  24.393  1.00  0.00     0.030 A 
ATOM     11  C   UNL A   1      34.369  25.149  23.139  1.00  0.00     0.065 C 
BRANCH   8  12
ATOM     12  C   UNL A   1      34.712  21.449  26.625  1.00  0.00     0.300 C 
BRANCH  12  13
ATOM     13  N   UNL A   1      33.785  20.430  26.125  1.00  0.00    -0.340 N 
ATOM     14  H   UNL A   1      32.850  20.836  26.090  1.00  0.00     0.346 HD
ATOM     15  H   UNL A   1      33.847  19.637  26.765  1.00  0.00     0.346 HD
BRANCH  13  16
ATOM     16  C   UNL A   1      34.116  19.921  24.792  1.00  0.00     0.293 C 
BRANCH  16  17
ATOM     17  C   UNL A   1      33.701  18.478  24.427  1.00  0.00     0.173 C 
ATOM     18  C   UNL A   1      32.749  17.763  25.377  1.00  0.00     0.040 C 
ATOM     19  O   UNL A   1      34.867  17.651  24.290  1.00  0.00    -0.372 OA
ATOM     20  C   UNL A   1      33.156  16.316  25.237  1.00  0.00     0.031 C 
ATOM     21  C   UNL A   1      34.635  16.396  24.928  1.00  0.00     0.161 C 
ENDBRANCH  16  17
ENDBRANCH  13  16
ENDBRANCH  12  13
ENDBRANCH   8  12
BRANCH   9  22
ATOM     22  C   UNL A   1      32.126  25.615  25.231  1.00  0.00     0.157 C 
BRANCH  22  23
ATOM     23  C   UNL A   1      32.474  26.885  25.985  1.00  0.00    -0.028 A 
ATOM     24  C   UNL A   1      31.545  27.471  26.866  1.00  0.00     0.008 A 
ATOM     25  C   UNL A   1      33.683  27.564  25.759  1.00  0.00     0.008 A 
ATOM     26  C   UNL A   1      31.817  28.697  27.484  1.00  0.00     0.039 A 
ATOM     27  C   UNL A   1      33.958  28.786  26.380  1.00  0.00     0.039 A 
ATOM     28  C   UNL A   1      33.020  29.345  27.233  1.00  0.00     0.123 A 
ATOM     29  F   UNL A   1      33.269  30.531  27.803  1.00  0.00    -0.207 F 
ENDBRANCH  22  23
ENDBRANCH   9  22
ENDBRANCH   3   5
ENDBRANCH   2   3
ENDBRANCH   1   2
BRANCH   1  30
ATOM     30  C   UNL A   1      39.446  22.171  26.133  1.00  0.00     0.275 C 
BRANCH  30  31
ATOM     31  O   UNL A   1      40.327  21.016  26.358  1.00  0.00    -0.458 OA
BRANCH  31  32
ATOM     32  C   UNL A   1      41.669  21.246  26.160  1.00  0.00     0.338 C 
ATOM     33  O   UNL A   1      42.397  20.518  25.534  1.00  0.00    -0.246 OA
BRANCH  32  34
ATOM     34  C   UNL A   1      42.192  22.496  26.848  1.00  0.00     0.060 A 
ATOM     35  C   UNL A   1      42.051  22.662  28.222  1.00  0.00     0.016 A 
ATOM     36  C   UNL A   1      42.546  23.639  26.106  1.00  0.00     0.016 A 
ATOM     37  C   UNL A   1      42.242  23.944  28.825  1.00  0.00     0.010 A 
ATOM     38  C   UNL A   1      42.708  24.939  26.712  1.00  0.00     0.010 A 
ATOM     39  C   UNL A   1      42.527  25.144  28.092  1.00  0.00    -0.014 A 
BRANCH  39  40
ATOM     40  C   UNL A   1      42.010  26.486  28.705  1.00  0.00     0.031 A 
ATOM     41  C   UNL A   1      43.240  27.302  28.930  1.00  0.00     0.074 A 
ATOM     42  C   UNL A   1      40.831  27.096  29.103  1.00  0.00     0.049 A 
ATOM     43  N   UNL A   1      44.281  26.868  29.586  1.00  0.00    -0.248 NA
ATOM     44  C   UNL A   1      43.472  28.521  28.148  1.00  0.00     0.031 C 
ATOM     45  C   UNL A   1      39.466  26.561  29.045  1.00  0.00     0.029 A 
ATOM     46  N   UNL A   1      40.580  28.383  29.653  1.00  0.00    -0.354 N 
ATOM     47  C   UNL A   1      45.147  27.931  29.608  1.00  0.00     0.074 A 
ATOM     48  C   UNL A   1      44.730  28.780  28.505  1.00  0.00     0.031 C 
ATOM     49  C   UNL A   1      38.549  27.504  29.410  1.00  0.00     0.029 A 
ATOM     50  C   UNL A   1      39.208  28.743  29.820  1.00  0.00     0.049 A 
ATOM     51  H   UNL A   1      41.312  28.992  29.904  1.00  0.00     0.167 HD
ATOM     52  C   UNL A   1      45.666  28.322  30.805  1.00  0.00     0.037 A 
ATOM     53  C   UNL A   1      38.632  29.910  30.298  1.00  0.00     0.037 A 
ATOM     54  C   UNL A   1      45.267  29.645  31.204  1.00  0.00     0.049 A 
ATOM     55  C   UNL A   1      39.660  30.673  31.027  1.00  0.00     0.074 A 
ATOM     56  C   UNL A   1      45.146  30.870  30.579  1.00  0.00     0.029 A 
ATOM     57  N   UNL A   1      44.504  29.721  32.350  1.00  0.00    -0.354 N 
ATOM     58  N   UNL A   1      40.062  30.343  32.214  1.00  0.00    -0.248 NA
ATOM     59  C   UNL A   1      40.193  31.934  30.515  1.00  0.00     0.031 C 
ATOM     60  C   UNL A   1      43.955  31.442  31.101  1.00  0.00     0.029 A 
ATOM     61  C   UNL A   1      43.511  30.657  32.158  1.00  0.00     0.049 A 
ATOM     62  H   UNL A   1      44.646  29.195  33.169  1.00  0.00     0.167 HD
ATOM     63  C   UNL A   1      41.180  31.092  32.409  1.00  0.00     0.074 A 
ATOM     64  C   UNL A   1      41.075  32.198  31.481  1.00  0.00     0.031 C 
ATOM     65  C   UNL A   1      42.278  30.459  32.886  1.00  0.00     0.037 A 
BRANCH  52  66
ATOM     66  C   UNL A   1      45.959  27.239  31.801  1.00  0.00     0.058 A 
ATOM     67  C   UNL A   1      47.276  27.049  32.229  1.00  0.00     0.135 A 
ATOM     68  C   UNL A   1      44.967  26.393  32.339  1.00  0.00     0.135 A 
ATOM     69  F   UNL A   1      48.252  27.865  31.797  1.00  0.00    -0.206 F 
ATOM     70  C   UNL A   1      47.609  26.025  33.111  1.00  0.00     0.059 A 
ATOM     71  C   UNL A   1      45.280  25.344  33.195  1.00  0.00     0.059 A 
ATOM     72  F   UNL A   1      43.672  26.609  32.061  1.00  0.00    -0.206 F 
ATOM     73  C   UNL A   1      46.609  25.162  33.568  1.00  0.00     0.060 A 
BRANCH  73  74
ATOM     74  S   UNL A   1      47.092  23.763  34.603  1.00  0.00     0.124 S 
ATOM     75  O   UNL A   1      46.094  22.755  34.248  1.00  0.00    -0.237 OA
ATOM     76  O   UNL A   1      48.442  23.490  34.123  1.00  0.00    -0.237 OA
ATOM     77  O   UNL A   1      46.978  24.284  35.960  1.00  0.00    -0.744 OA
ENDBRANCH  73  74
ENDBRANCH  52  66
BRANCH  53  78
ATOM     78  C   UNL A   1      37.279  30.636  30.411  1.00  0.00     0.058 A 
ATOM     79  C   UNL A   1      36.541  30.592  31.639  1.00  0.00     0.135 A 
ATOM     80  C   UNL A   1      36.908  31.686  29.562  1.00  0.00     0.135 A 
ATOM     81  F   UNL A   1      36.746  29.613  32.532  1.00  0.00    -0.206 F 
ATOM     82  C   UNL A   1      35.645  31.585  32.056  1.00  0.00     0.059 A 
ATOM     83  C   UNL A   1      35.970  32.680  29.944  1.00  0.00     0.059 A 
ATOM     84  F   UNL A   1      37.520  31.838  28.379  1.00  0.00    -0.206 F 
ATOM     85  C   UNL A   1      35.390  32.654  31.215  1.00  0.00     0.060 A 
BRANCH  85  86
ATOM     86  S   UNL A   1      34.401  34.037  31.860  1.00  0.00     0.124 S 
ATOM     87  O   UNL A   1      33.606  33.402  32.904  1.00  0.00    -0.237 OA
ATOM     88  O   UNL A   1      35.433  34.962  32.325  1.00  0.00    -0.237 OA
ATOM     89  O   UNL A   1      33.652  34.491  30.692  1.00  0.00    -0.744 OA
ENDBRANCH  85  86
ENDBRANCH  53  78
BRANCH  65  90
ATOM     90  C   UNL A   1      42.067  29.405  33.965  1.00  0.00     0.058 A 
ATOM     91  C   UNL A   1      42.263  29.557  35.358  1.00  0.00     0.135 A 
ATOM     92  C   UNL A   1      41.680  28.124  33.538  1.00  0.00     0.135 A 
ATOM     93  F   UNL A   1      42.486  30.755  35.918  1.00  0.00    -0.206 F 
ATOM     94  C   UNL A   1      42.203  28.476  36.242  1.00  0.00     0.059 A 
ATOM     95  C   UNL A   1      41.552  27.045  34.411  1.00  0.00     0.059 A 
ATOM     96  F   UNL A   1      41.411  27.907  32.238  1.00  0.00    -0.206 F 
ATOM     97  C   UNL A   1      41.865  27.218  35.755  1.00  0.00     0.060 A 
BRANCH  97  98
ATOM     98  S   UNL A   1      41.831  25.814  36.892  1.00  0.00     0.124 S 
ATOM     99  O   UNL A   1      42.513  24.784  36.114  1.00  0.00    -0.237 OA
ATOM    100  O   UNL A   1      42.567  26.314  38.049  1.00  0.00    -0.237 OA
ATOM    101  O   UNL A   1      40.404  25.584  37.101  1.00  0.00    -0.744 OA
ENDBRANCH  97  98
ENDBRANCH  65  90
ENDBRANCH  39  40
ENDBRANCH  32  34
ENDBRANCH  31  32
ENDBRANCH  30  31
ENDBRANCH   1  30
TORSDOF 20
ENDMDL
MODEL 2
REMARK VINA RESULT:     -11.9      1.949      4.155
REMARK SMILES Cc1c(C[NH2+]C[C@@H]2CCCO2)c(C(=O)OCCOC(=O)c2ccc(-c3c4nc(c(-c5c(F)cc(S(=O)(=O)[O-])cc5F)c5ccc([nH]5)c(-c5c(F)cc(S(=O)(=O)[O-])cc5F)c5nc(c(-c6c(F)cc(S(=O)(=O)[O-])cc6F)c6ccc3[nH]6)C=C5)C=C4)cc2)c(C)n1Cc1ccc(F)cc1
REMARK SMILES IDX 16 1 15 2 13 3 14 4 12 5 1 6 2 7 3 8 89 9 87 10 88 11 4 12
REMARK SMILES IDX 5 13 6 16 7 17 8 18 11 19 9 20 10 21 90 22 91 23 92 24 97 25
REMARK SMILES IDX 93 26 96 27 94 28 95 29 17 30 18 31 19 32 20 33 21 34 22 35
REMARK SMILES IDX 86 36 23 37 85 38 24 39 25 40 26 41 79 42 27 43 84 44 78 45
REMARK SMILES IDX 80 46 28 47 83 48 77 49 76 50 29 52 63 53 42 54 62 55 43 56
REMARK SMILES IDX 46 57 61 58 81 59 44 60 45 61 60 63 82 64 47 65 30 66 31 67
REMARK SMILES IDX 40 68 32 69 33 70 39 71 41 72 34 73 35 74 36 75 37 76 38 77
REMARK SMILES IDX 64 78 65 79 74 80 66 81 67 82 73 83 75 84 68 85 69 86 70 87
REMARK SMILES IDX 71 88 72 89 48 90 49 91 58 92 50 93 51 94 57 95 59 96 52 97
REMARK SMILES IDX 53 98 54 99 55 100 56 101
REMARK H PARENT 5 14 5 15 80 51 46 62
REMARK Flexibility Score: inf
ROOT
ATOM      1  C   UNL A   1      38.027  22.913  25.828  1.00  0.00     0.275 C 
ENDROOT
BRANCH   1   2
ATOM      2  O   UNL A   1      37.072  23.007  24.743  1.00  0.00    -0.458 OA
BRANCH   2   3
ATOM      3  C   UNL A   1      35.864  23.566  25.059  1.00  0.00     0.340 C 
ATOM      4  O   UNL A   1      35.735  24.633  25.682  1.00  0.00    -0.246 OA
BRANCH   3   5
ATOM      5  C   UNL A   1      34.724  22.722  24.687  1.00  0.00     0.089 A 
ATOM      6  C   UNL A   1      31.900  21.561  22.526  1.00  0.00     0.065 C 
ATOM      7  C   UNL A   1      32.974  21.821  23.534  1.00  0.00     0.025 A 
ATOM      8  C   UNL A   1      33.951  22.816  23.487  1.00  0.00     0.042 A 
ATOM      9  N   UNL A   1      33.165  21.095  24.705  1.00  0.00    -0.343 N 
ATOM     10  C   UNL A   1      34.102  21.765  25.486  1.00  0.00     0.030 A 
ATOM     11  C   UNL A   1      34.394  21.463  26.918  1.00  0.00     0.065 C 
BRANCH   8  12
ATOM     12  C   UNL A   1      34.125  23.895  22.449  1.00  0.00     0.300 C 
BRANCH  12  13
ATOM     13  N   UNL A   1      33.670  25.133  23.087  1.00  0.00    -0.340 N 
ATOM     14  H   UNL A   1      34.217  25.907  22.711  1.00  0.00     0.346 HD
ATOM     15  H   UNL A   1      33.800  25.010  24.092  1.00  0.00     0.346 HD
BRANCH  13  16
ATOM     16  C   UNL A   1      32.250  25.427  22.878  1.00  0.00     0.293 C 
BRANCH  16  17
ATOM     17  C   UNL A   1      31.347  25.627  24.115  1.00  0.00     0.173 C 
ATOM     18  C   UNL A   1      31.329  27.011  24.752  1.00  0.00     0.040 C 
ATOM     19  O   UNL A   1      31.705  24.690  25.142  1.00  0.00    -0.372 OA
ATOM     20  C   UNL A   1      31.079  26.709  26.210  1.00  0.00     0.031 C 
ATOM     21  C   UNL A   1      31.728  25.356  26.404  1.00  0.00     0.161 C 
ENDBRANCH  16  17
ENDBRANCH  13  16
ENDBRANCH  12  13
ENDBRANCH   8  12
BRANCH   9  22
ATOM     22  C   UNL A   1      32.388  19.919  25.124  1.00  0.00     0.157 C 
BRANCH  22  23
ATOM     23  C   UNL A   1      33.130  18.598  25.044  1.00  0.00    -0.028 A 
ATOM     24  C   UNL A   1      32.627  17.454  25.694  1.00  0.00     0.008 A 
ATOM     25  C   UNL A   1      34.379  18.495  24.408  1.00  0.00     0.008 A 
ATOM     26  C   UNL A   1      33.357  16.260  25.713  1.00  0.00     0.039 A 
ATOM     27  C   UNL A   1      35.107  17.302  24.423  1.00  0.00     0.039 A 
ATOM     28  C   UNL A   1      34.592  16.196  25.081  1.00  0.00     0.123 A 
ATOM     29  F   UNL A   1      35.303  15.061  25.122  1.00  0.00    -0.207 F 
ENDBRANCH  22  23
ENDBRANCH   9  22
ENDBRANCH   3   5
ENDBRANCH   2   3
ENDBRANCH   1   2
BRANCH   1  30
ATOM     30  C   UNL A   1      38.776  21.559  25.805  1.00  0.00     0.275 C 
BRANCH  30  31
ATOM     31  O   UNL A   1      39.789  21.389  26.856  1.00  0.00    -0.458 OA
BRANCH  31  32
ATOM     32  C   UNL A   1      41.092  21.589  26.462  1.00  0.00     0.338 C 
ATOM     33  O   UNL A   1      41.731  20.803  25.808  1.00  0.00    -0.246 OA
BRANCH  32  34
ATOM     34  C   UNL A   1      41.700  22.888  26.964  1.00  0.00     0.060 A 
ATOM     35  C   UNL A   1      41.845  23.123  28.327  1.00  0.00     0.016 A 
ATOM     36  C   UNL A   1      41.847  23.999  26.110  1.00  0.00     0.016 A 
ATOM     37  C   UNL A   1      42.110  24.441  28.815  1.00  0.00     0.010 A 
ATOM     38  C   UNL A   1      42.084  25.333  26.607  1.00  0.00     0.010 A 
ATOM     39  C   UNL A   1      42.189  25.607  27.983  1.00  0.00    -0.014 A 
BRANCH  39  40
ATOM     40  C   UNL A   1      41.761  26.965  28.628  1.00  0.00     0.031 A 
ATOM     41  C   UNL A   1      43.043  27.688  28.880  1.00  0.00     0.074 A 
ATOM     42  C   UNL A   1      40.626  27.645  29.035  1.00  0.00     0.049 A 
ATOM     43  N   UNL A   1      44.048  27.166  29.531  1.00  0.00    -0.248 NA
ATOM     44  C   UNL A   1      43.365  28.908  28.132  1.00  0.00     0.031 C 
ATOM     45  C   UNL A   1      39.226  27.208  28.956  1.00  0.00     0.029 A 
ATOM     46  N   UNL A   1      40.460  28.932  29.617  1.00  0.00    -0.354 N 
ATOM     47  C   UNL A   1      44.984  28.165  29.585  1.00  0.00     0.074 A 
ATOM     48  C   UNL A   1      44.636  29.069  28.503  1.00  0.00     0.031 C 
ATOM     49  C   UNL A   1      38.375  28.204  29.340  1.00  0.00     0.029 A 
ATOM     50  C   UNL A   1      39.115  29.383  29.787  1.00  0.00     0.049 A 
ATOM     51  H   UNL A   1      41.230  29.482  29.888  1.00  0.00     0.167 HD
ATOM     52  C   UNL A   1      45.521  28.489  30.795  1.00  0.00     0.037 A 
ATOM     53  C   UNL A   1      38.618  30.574  30.291  1.00  0.00     0.037 A 
ATOM     54  C   UNL A   1      45.212  29.825  31.225  1.00  0.00     0.049 A 
ATOM     55  C   UNL A   1      39.692  31.245  31.046  1.00  0.00     0.074 A 
ATOM     56  C   UNL A   1      45.180  31.071  30.633  1.00  0.00     0.029 A 
ATOM     57  N   UNL A   1      44.448  29.925  32.370  1.00  0.00    -0.354 N 
ATOM     58  N   UNL A   1      40.061  30.858  32.225  1.00  0.00    -0.248 NA
ATOM     59  C   UNL A   1      40.314  32.479  30.569  1.00  0.00     0.031 C 
ATOM     60  C   UNL A   1      44.029  31.711  31.163  1.00  0.00     0.029 A 
ATOM     61  C   UNL A   1      43.524  30.932  32.196  1.00  0.00     0.049 A 
ATOM     62  H   UNL A   1      44.547  29.369  33.175  1.00  0.00     0.167 HD
ATOM     63  C   UNL A   1      41.226  31.522  32.446  1.00  0.00     0.074 A 
ATOM     64  C   UNL A   1      41.205  32.656  31.547  1.00  0.00     0.031 C 
ATOM     65  C   UNL A   1      42.274  30.802  32.912  1.00  0.00     0.037 A 
BRANCH  52  66
ATOM     66  C   UNL A   1      45.731  27.363  31.764  1.00  0.00     0.058 A 
ATOM     67  C   UNL A   1      47.031  27.054  32.174  1.00  0.00     0.135 A 
ATOM     68  C   UNL A   1      44.677  26.590  32.293  1.00  0.00     0.135 A 
ATOM     69  F   UNL A   1      48.068  27.796  31.750  1.00  0.00    -0.206 F 
ATOM     70  C   UNL A   1      47.285  25.986  33.030  1.00  0.00     0.059 A 
ATOM     71  C   UNL A   1      44.908  25.499  33.123  1.00  0.00     0.059 A 
ATOM     72  F   UNL A   1      43.401  26.919  32.033  1.00  0.00    -0.206 F 
ATOM     73  C   UNL A   1      46.221  25.199  33.478  1.00  0.00     0.060 A 
BRANCH  73  74
ATOM     74  S   UNL A   1      46.593  23.742  34.478  1.00  0.00     0.124 S 
ATOM     75  O   UNL A   1      45.807  22.701  33.816  1.00  0.00    -0.237 OA
ATOM     76  O   UNL A   1      48.037  23.626  34.306  1.00  0.00    -0.237 OA
ATOM     77  O   UNL A   1      46.124  24.108  35.808  1.00  0.00    -0.744 OA
ENDBRANCH  73  74
ENDBRANCH  52  66
BRANCH  53  78
ATOM     78  C   UNL A   1      37.318  31.389  30.416  1.00  0.00     0.058 A 
ATOM     79  C   UNL A   1      36.462  31.206  31.551  1.00  0.00     0.135 A 
ATOM     80  C   UNL A   1      37.111  32.597  29.737  1.00  0.00     0.135 A 
ATOM     81  F   UNL A   1      36.504  30.077  32.271  1.00  0.00    -0.206 F 
ATOM     82  C   UNL A   1      35.604  32.191  32.059  1.00  0.00     0.059 A 
ATOM     83  C   UNL A   1      36.216  33.592  30.207  1.00  0.00     0.059 A 
ATOM     84  F   UNL A   1      37.847  32.890  28.655  1.00  0.00    -0.206 F 
ATOM     85  C   UNL A   1      35.513  33.405  31.400  1.00  0.00     0.060 A 
BRANCH  85  86
ATOM     86  S   UNL A   1      34.571  34.743  32.193  1.00  0.00     0.124 S 
ATOM     87  O   UNL A   1      33.973  35.431  31.053  1.00  0.00    -0.237 OA
ATOM     88  O   UNL A   1      33.642  34.003  33.044  1.00  0.00    -0.237 OA
ATOM     89  O   UNL A   1      35.595  35.498  32.911  1.00  0.00    -0.744 OA
ENDBRANCH  85  86
ENDBRANCH  53  78
BRANCH  65  90
ATOM     90  C   UNL A   1      41.983  29.738  33.963  1.00  0.00     0.058 A 
ATOM     91  C   UNL A   1      42.110  29.865  35.366  1.00  0.00     0.135 A 
ATOM     92  C   UNL A   1      41.590  28.473  33.495  1.00  0.00     0.135 A 
ATOM     93  F   UNL A   1      42.331  31.049  35.956  1.00  0.00    -0.206 F 
ATOM     94  C   UNL A   1      41.979  28.774  36.228  1.00  0.00     0.059 A 
ATOM     95  C   UNL A   1      41.390  27.384  34.344  1.00  0.00     0.059 A 
ATOM     96  F   UNL A   1      41.384  28.282  32.181  1.00  0.00    -0.206 F 
ATOM     97  C   UNL A   1      41.638  27.531  35.705  1.00  0.00     0.060 A 
BRANCH  97  98
ATOM     98  S   UNL A   1      41.512  26.112  36.817  1.00  0.00     0.124 S 
ATOM     99  O   UNL A   1      42.870  26.029  37.348  1.00  0.00    -0.237 OA
ATOM    100  O   UNL A   1      40.491  26.535  37.770  1.00  0.00    -0.237 OA
ATOM    101  O   UNL A   1      41.132  25.019  35.925  1.00  0.00    -0.744 OA
ENDBRANCH  97  98
ENDBRANCH  65  90
ENDBRANCH  39  40
ENDBRANCH  32  34
ENDBRANCH  31  32
ENDBRANCH  30  31
ENDBRANCH   1  30
TORSDOF 20
ENDMDL
MODEL 3
REMARK VINA RESULT:     -11.8      2.147      2.759
REMARK SMILES Cc1c(C[NH2+]C[C@@H]2CCCO2)c(C(=O)OCCOC(=O)c2ccc(-c3c4nc(c(-c5c(F)cc(S(=O)(=O)[O-])cc5F)c5ccc([nH]5)c(-c5c(F)cc(S(=O)(=O)[O-])cc5F)c5nc(c(-c6c(F)cc(S(=O)(=O)[O-])cc6F)c6ccc3[nH]6)C=C5)C=C4)cc2)c(C)n1Cc1ccc(F)cc1
REMARK SMILES IDX 16 1 15 2 13 3 14 4 12 5 1 6 2 7 3 8 89 9 87 10 88 11 4 12
REMARK SMILES IDX 5 13 6 16 7 17 8 18 11 19 9 20 10 21 90 22 91 23 92 24 97 25
REMARK SMILES IDX 93 26 96 27 94 28 95 29 17 30 18 31 19 32 20 33 21 34 22 35
REMARK SMILES IDX 86 36 23 37 85 38 24 39 25 40 26 41 79 42 27 43 84 44 78 45
REMARK SMILES IDX 80 46 28 47 83 48 77 49 76 50 29 52 63 53 42 54 62 55 43 56
REMARK SMILES IDX 46 57 61 58 81 59 44 60 45 61 60 63 82 64 47 65 30 66 31 67
REMARK SMILES IDX 40 68 32 69 33 70 39 71 41 72 34 73 35 74 36 75 37 76 38 77
REMARK SMILES IDX 64 78 65 79 74 80 66 81 67 82 73 83 75 84 68 85 69 86 70 87
REMARK SMILES IDX 71 88 72 89 48 90 49 91 58 92 50 93 51 94 57 95 59 96 52 97
REMARK SMILES IDX 53 98 54 99 55 100 56 101
REMARK H PARENT 5 14 5 15 80 51 46 62
REMARK Flexibility Score: inf
ROOT
ATOM      1  C   UNL A   1      36.679  21.428  24.834  1.00  0.00     0.275 C 
ENDROOT
BRANCH   1   2
ATOM      2  O   UNL A   1      36.252  22.811  24.879  1.00  0.00    -0.458 OA
BRANCH   2   3
ATOM      3  C   UNL A   1      35.184  23.132  24.086  1.00  0.00     0.340 C 
ATOM      4  O   UNL A   1      35.215  23.126  22.845  1.00  0.00    -0.246 OA
BRANCH   3   5
ATOM      5  C   UNL A   1      34.020  23.596  24.848  1.00  0.00     0.089 A 
ATOM      6  C   UNL A   1      30.924  23.221  26.913  1.00  0.00     0.065 C 
ATOM      7  C   UNL A   1      32.134  23.621  26.131  1.00  0.00     0.025 A 
ATOM      8  C   UNL A   1      33.069  22.776  25.533  1.00  0.00     0.042 A 
ATOM      9  N   UNL A   1      32.520  24.931  25.870  1.00  0.00    -0.343 N 
ATOM     10  C   UNL A   1      33.551  24.905  24.935  1.00  0.00     0.030 A 
ATOM     11  C   UNL A   1      34.068  26.095  24.198  1.00  0.00     0.065 C 
BRANCH   8  12
ATOM     12  C   UNL A   1      33.056  21.269  25.482  1.00  0.00     0.300 C 
BRANCH  12  13
ATOM     13  N   UNL A   1      32.259  20.922  24.302  1.00  0.00    -0.340 N 
ATOM     14  H   UNL A   1      32.493  21.573  23.554  1.00  0.00     0.346 HD
ATOM     15  H   UNL A   1      31.280  20.979  24.583  1.00  0.00     0.346 HD
BRANCH  13  16
ATOM     16  C   UNL A   1      32.477  19.558  23.812  1.00  0.00     0.293 C 
BRANCH  16  17
ATOM     17  C   UNL A   1      33.152  18.534  24.751  1.00  0.00     0.173 C 
ATOM     18  C   UNL A   1      34.241  17.650  24.155  1.00  0.00     0.040 C 
ATOM     19  O   UNL A   1      32.162  17.664  25.322  1.00  0.00    -0.372 OA
ATOM     20  C   UNL A   1      34.113  16.374  24.951  1.00  0.00     0.031 C 
ATOM     21  C   UNL A   1      32.640  16.320  25.294  1.00  0.00     0.161 C 
ENDBRANCH  16  17
ENDBRANCH  13  16
ENDBRANCH  12  13
ENDBRANCH   8  12
BRANCH   9  22
ATOM     22  C   UNL A   1      31.844  26.141  26.361  1.00  0.00     0.157 C 
BRANCH  22  23
ATOM     23  C   UNL A   1      30.972  26.849  25.341  1.00  0.00    -0.028 A 
ATOM     24  C   UNL A   1      29.919  26.165  24.703  1.00  0.00     0.008 A 
ATOM     25  C   UNL A   1      31.244  28.165  24.930  1.00  0.00     0.008 A 
ATOM     26  C   UNL A   1      29.177  26.778  23.686  1.00  0.00     0.039 A 
ATOM     27  C   UNL A   1      30.500  28.779  23.918  1.00  0.00     0.039 A 
ATOM     28  C   UNL A   1      29.477  28.078  23.300  1.00  0.00     0.123 A 
ATOM     29  F   UNL A   1      28.786  28.655  22.308  1.00  0.00    -0.207 F 
ENDBRANCH  22  23
ENDBRANCH   9  22
ENDBRANCH   3   5
ENDBRANCH   2   3
ENDBRANCH   1   2
BRANCH   1  30
ATOM     30  C   UNL A   1      38.089  21.252  25.446  1.00  0.00     0.275 C 
BRANCH  30  31
ATOM     31  O   UNL A   1      38.834  22.499  25.667  1.00  0.00    -0.458 OA
BRANCH  31  32
ATOM     32  C   UNL A   1      39.788  22.452  26.657  1.00  0.00     0.338 C 
ATOM     33  O   UNL A   1      40.107  21.450  27.246  1.00  0.00    -0.246 OA
BRANCH  32  34
ATOM     34  C   UNL A   1      40.397  23.802  26.996  1.00  0.00     0.060 A 
ATOM     35  C   UNL A   1      40.523  24.212  28.320  1.00  0.00     0.016 A 
ATOM     36  C   UNL A   1      40.563  24.793  26.009  1.00  0.00     0.016 A 
ATOM     37  C   UNL A   1      40.788  25.581  28.637  1.00  0.00     0.010 A 
ATOM     38  C   UNL A   1      40.800  26.179  26.332  1.00  0.00     0.010 A 
ATOM     39  C   UNL A   1      40.887  26.628  27.663  1.00  0.00    -0.014 A 
BRANCH  39  40
ATOM     40  C   UNL A   1      40.458  28.061  28.121  1.00  0.00     0.031 A 
ATOM     41  C   UNL A   1      41.677  28.903  27.933  1.00  0.00     0.074 A 
ATOM     42  C   UNL A   1      39.365  28.735  28.640  1.00  0.00     0.049 A 
ATOM     43  N   UNL A   1      42.847  28.593  28.424  1.00  0.00    -0.248 NA
ATOM     44  C   UNL A   1      41.699  29.958  26.915  1.00  0.00     0.031 C 
ATOM     45  C   UNL A   1      38.037  28.201  28.965  1.00  0.00     0.029 A 
ATOM     46  N   UNL A   1      39.185  30.101  28.991  1.00  0.00    -0.354 N 
ATOM     47  C   UNL A   1      43.659  29.641  28.074  1.00  0.00     0.074 A 
ATOM     48  C   UNL A   1      42.993  30.275  26.949  1.00  0.00     0.031 C 
ATOM     49  C   UNL A   1      37.181  29.197  29.339  1.00  0.00     0.029 A 
ATOM     50  C   UNL A   1      37.865  30.488  29.375  1.00  0.00     0.049 A 
ATOM     51  H   UNL A   1      39.930  30.745  28.971  1.00  0.00     0.167 HD
ATOM     52  C   UNL A   1      44.399  30.244  29.046  1.00  0.00     0.037 A 
ATOM     53  C   UNL A   1      37.357  31.724  29.745  1.00  0.00     0.037 A 
ATOM     54  C   UNL A   1      44.042  31.617  29.276  1.00  0.00     0.049 A 
ATOM     55  C   UNL A   1      38.485  32.606  30.095  1.00  0.00     0.074 A 
ATOM     56  C   UNL A   1      43.750  32.708  28.482  1.00  0.00     0.029 A 
ATOM     57  N   UNL A   1      43.529  31.903  30.524  1.00  0.00    -0.354 N 
ATOM     58  N   UNL A   1      39.134  32.498  31.211  1.00  0.00    -0.248 NA
ATOM     59  C   UNL A   1      38.855  33.751  29.265  1.00  0.00     0.031 C 
ATOM     60  C   UNL A   1      42.672  33.368  29.130  1.00  0.00     0.029 A 
ATOM     61  C   UNL A   1      42.485  32.789  30.380  1.00  0.00     0.049 A 
ATOM     62  H   UNL A   1      43.856  31.535  31.376  1.00  0.00     0.167 HD
ATOM     63  C   UNL A   1      40.241  33.267  31.031  1.00  0.00     0.074 A 
ATOM     64  C   UNL A   1      39.906  34.186  29.963  1.00  0.00     0.031 C 
ATOM     65  C   UNL A   1      41.435  32.731  31.373  1.00  0.00     0.037 A 
BRANCH  52  66
ATOM     66  C   UNL A   1      44.930  29.360  30.136  1.00  0.00     0.058 A 
ATOM     67  C   UNL A   1      46.311  29.274  30.327  1.00  0.00     0.135 A 
ATOM     68  C   UNL A   1      44.102  28.604  30.992  1.00  0.00     0.135 A 
ATOM     69  F   UNL A   1      47.145  30.018  29.581  1.00  0.00    -0.206 F 
ATOM     70  C   UNL A   1      46.858  28.429  31.288  1.00  0.00     0.059 A 
ATOM     71  C   UNL A   1      44.625  27.730  31.938  1.00  0.00     0.059 A 
ATOM     72  F   UNL A   1      42.768  28.744  30.938  1.00  0.00    -0.206 F 
ATOM     73  C   UNL A   1      46.008  27.642  32.071  1.00  0.00     0.060 A 
BRANCH  73  74
ATOM     74  S   UNL A   1      46.749  26.459  33.217  1.00  0.00     0.124 S 
ATOM     75  O   UNL A   1      46.067  26.772  34.472  1.00  0.00    -0.237 OA
ATOM     76  O   UNL A   1      46.373  25.185  32.612  1.00  0.00    -0.237 OA
ATOM     77  O   UNL A   1      48.167  26.796  33.191  1.00  0.00    -0.744 OA
ENDBRANCH  73  74
ENDBRANCH  52  66
BRANCH  53  78
ATOM     78  C   UNL A   1      36.031  32.460  30.007  1.00  0.00     0.058 A 
ATOM     79  C   UNL A   1      35.559  32.632  31.349  1.00  0.00     0.135 A 
ATOM     80  C   UNL A   1      35.461  33.348  29.085  1.00  0.00     0.135 A 
ATOM     81  F   UNL A   1      35.972  31.824  32.335  1.00  0.00    -0.206 F 
ATOM     82  C   UNL A   1      34.731  33.685  31.765  1.00  0.00     0.059 A 
ATOM     83  C   UNL A   1      34.586  34.394  29.475  1.00  0.00     0.059 A 
ATOM     84  F   UNL A   1      35.817  33.290  27.794  1.00  0.00    -0.206 F 
ATOM     85  C   UNL A   1      34.275  34.591  30.824  1.00  0.00     0.060 A 
BRANCH  85  86
ATOM     86  S   UNL A   1      33.391  36.067  31.410  1.00  0.00     0.124 S 
ATOM     87  O   UNL A   1      34.302  36.608  32.413  1.00  0.00    -0.237 OA
ATOM     88  O   UNL A   1      33.259  36.854  30.186  1.00  0.00    -0.237 OA
ATOM     89  O   UNL A   1      32.138  35.527  31.931  1.00  0.00    -0.744 OA
ENDBRANCH  85  86
ENDBRANCH  53  78
BRANCH  65  90
ATOM     90  C   UNL A   1      41.490  31.891  32.643  1.00  0.00     0.058 A 
ATOM     91  C   UNL A   1      41.893  32.316  33.931  1.00  0.00     0.135 A 
ATOM     92  C   UNL A   1      41.149  30.534  32.525  1.00  0.00     0.135 A 
ATOM     93  F   UNL A   1      42.102  33.609  34.220  1.00  0.00    -0.206 F 
ATOM     94  C   UNL A   1      42.067  31.422  34.990  1.00  0.00     0.059 A 
ATOM     95  C   UNL A   1      41.253  29.635  33.586  1.00  0.00     0.059 A 
ATOM     96  F   UNL A   1      40.694  30.060  31.352  1.00  0.00    -0.206 F 
ATOM     97  C   UNL A   1      41.763  30.078  34.803  1.00  0.00     0.060 A 
BRANCH  97  98
ATOM     98  S   UNL A   1      42.030  28.916  36.161  1.00  0.00     0.124 S 
ATOM     99  O   UNL A   1      42.612  29.782  37.183  1.00  0.00    -0.237 OA
ATOM    100  O   UNL A   1      40.683  28.431  36.443  1.00  0.00    -0.237 OA
ATOM    101  O   UNL A   1      42.949  27.936  35.589  1.00  0.00    -0.744 OA
ENDBRANCH  97  98
ENDBRANCH  65  90
ENDBRANCH  39  40
ENDBRANCH  32  34
ENDBRANCH  31  32
ENDBRANCH  30  31
ENDBRANCH   1  30
TORSDOF 20
ENDMDL
