MODEL 1
REMARK VINA RESULT:     -11.3      0.000      0.000
REMARK SMILES O=C(OCCOC(=O)[C@H]1CCCCN1C(=O)c1nc(C2CC2)n[nH]1)c1ccc(-c2c3nc(c(-c4c(F)cc(S(=O)(=O)[O-])cc4F)c4ccc([nH]4)c(-c4c(F)cc(S(=O)(=O)[O-])cc4F)c4nc(c(-c5c(F)cc(S(=O)(=O)[O-])cc5F)c5ccc2[nH]5)C=C4)C=C3)cc1
REMARK SMILES IDX 4 1 3 2 2 3 1 4 25 5 26 6 90 7 27 8 89 9 28 10 29 11 30 12
REMARK SMILES IDX 83 13 31 14 88 15 82 16 84 17 32 18 87 19 81 20 80 21 33 23
REMARK SMILES IDX 67 24 46 25 66 26 47 27 50 28 65 29 85 30 48 31 49 32 64 34
REMARK SMILES IDX 86 35 51 36 34 37 35 38 44 39 36 40 37 41 43 42 45 43 38 44
REMARK SMILES IDX 39 45 40 46 41 47 42 48 68 49 69 50 78 51 70 52 71 53 77 54
REMARK SMILES IDX 79 55 72 56 73 57 74 58 75 59 76 60 52 61 53 62 62 63 54 64
REMARK SMILES IDX 55 65 61 66 63 67 56 68 57 69 58 70 59 71 60 72 5 73 6 74
REMARK SMILES IDX 7 75 8 76 9 77 10 78 14 79 11 80 13 81 12 82 15 83 16 84
REMARK SMILES IDX 17 85 18 86 24 87 19 88 23 89 20 91 21 92 22 93
REMARK H PARENT 84 22 50 33 24 90
REMARK Flexibility Score: inf
ROOT
ATOM      1  C   UNL A   1      32.276  29.594  27.267  1.00  0.00     0.275 C 
ENDROOT
BRANCH   1   2
ATOM      2  O   UNL A   1      33.671  29.365  27.521  1.00  0.00    -0.458 OA
BRANCH   2   3
ATOM      3  C   UNL A   1      34.565  30.257  28.013  1.00  0.00     0.338 C 
ATOM      4  O   UNL A   1      34.282  31.450  28.062  1.00  0.00    -0.246 OA
BRANCH   3   5
ATOM      5  C   UNL A   1      35.964  29.847  28.309  1.00  0.00     0.060 A 
ATOM      6  C   UNL A   1      36.419  29.399  29.553  1.00  0.00     0.016 A 
ATOM      7  C   UNL A   1      36.895  30.029  27.281  1.00  0.00     0.016 A 
ATOM      8  C   UNL A   1      37.764  29.049  29.738  1.00  0.00     0.010 A 
ATOM      9  C   UNL A   1      38.241  29.706  27.477  1.00  0.00     0.010 A 
ATOM     10  C   UNL A   1      38.688  29.199  28.700  1.00  0.00    -0.014 A 
BRANCH  10  11
ATOM     11  C   UNL A   1      40.135  28.956  28.927  1.00  0.00     0.031 A 
ATOM     12  C   UNL A   1      40.720  27.617  28.566  1.00  0.00     0.074 A 
ATOM     13  C   UNL A   1      40.919  29.911  29.464  1.00  0.00     0.049 A 
ATOM     14  N   UNL A   1      41.962  27.213  28.631  1.00  0.00    -0.248 NA
ATOM     15  C   UNL A   1      39.778  26.591  28.093  1.00  0.00     0.031 C 
ATOM     16  C   UNL A   1      40.462  31.219  29.936  1.00  0.00     0.029 A 
ATOM     17  N   UNL A   1      42.271  29.926  29.704  1.00  0.00    -0.354 N 
ATOM     18  C   UNL A   1      41.948  25.887  28.216  1.00  0.00     0.074 A 
ATOM     19  C   UNL A   1      40.567  25.538  27.961  1.00  0.00     0.031 C 
ATOM     20  C   UNL A   1      41.519  31.916  30.390  1.00  0.00     0.029 A 
ATOM     21  C   UNL A   1      42.726  31.109  30.237  1.00  0.00     0.049 A 
ATOM     22  H   UNL A   1      42.860  29.160  29.512  1.00  0.00     0.167 HD
ATOM     23  C   UNL A   1      42.989  25.041  28.026  1.00  0.00     0.037 A 
ATOM     24  C   UNL A   1      43.979  31.501  30.543  1.00  0.00     0.037 A 
ATOM     25  C   UNL A   1      44.363  25.394  28.247  1.00  0.00     0.049 A 
ATOM     26  C   UNL A   1      45.131  30.574  30.258  1.00  0.00     0.074 A 
ATOM     27  C   UNL A   1      45.497  24.629  28.046  1.00  0.00     0.029 A 
ATOM     28  N   UNL A   1      44.788  26.629  28.714  1.00  0.00    -0.354 N 
ATOM     29  N   UNL A   1      45.108  29.352  29.781  1.00  0.00    -0.248 NA
ATOM     30  C   UNL A   1      46.483  31.086  30.530  1.00  0.00     0.031 C 
ATOM     31  C   UNL A   1      46.611  25.403  28.393  1.00  0.00     0.029 A 
ATOM     32  C   UNL A   1      46.168  26.654  28.794  1.00  0.00     0.049 A 
ATOM     33  H   UNL A   1      44.194  27.377  28.952  1.00  0.00     0.167 HD
ATOM     34  C   UNL A   1      46.439  28.963  29.664  1.00  0.00     0.074 A 
ATOM     35  C   UNL A   1      47.243  30.078  30.119  1.00  0.00     0.031 C 
ATOM     36  C   UNL A   1      46.947  27.789  29.219  1.00  0.00     0.037 A 
BRANCH  23  37
ATOM     37  C   UNL A   1      42.651  23.667  27.530  1.00  0.00     0.058 A 
ATOM     38  C   UNL A   1      42.435  22.607  28.427  1.00  0.00     0.135 A 
ATOM     39  C   UNL A   1      42.611  23.385  26.156  1.00  0.00     0.135 A 
ATOM     40  F   UNL A   1      42.482  22.823  29.751  1.00  0.00    -0.206 F 
ATOM     41  C   UNL A   1      42.252  21.303  27.980  1.00  0.00     0.059 A 
ATOM     42  C   UNL A   1      42.407  22.091  25.686  1.00  0.00     0.059 A 
ATOM     43  F   UNL A   1      42.809  24.364  25.259  1.00  0.00    -0.206 F 
ATOM     44  C   UNL A   1      42.259  21.053  26.607  1.00  0.00     0.060 A 
BRANCH  44  45
ATOM     45  S   UNL A   1      42.098  19.349  26.033  1.00  0.00     0.124 S 
ATOM     46  O   UNL A   1      42.508  18.606  27.221  1.00  0.00    -0.237 OA
ATOM     47  O   UNL A   1      40.682  19.259  25.690  1.00  0.00    -0.237 OA
ATOM     48  O   UNL A   1      43.018  19.288  24.902  1.00  0.00    -0.744 OA
ENDBRANCH  44  45
ENDBRANCH  23  37
BRANCH  24  49
ATOM     49  C   UNL A   1      44.228  32.861  31.089  1.00  0.00     0.058 A 
ATOM     50  C   UNL A   1      44.287  33.079  32.474  1.00  0.00     0.135 A 
ATOM     51  C   UNL A   1      44.391  33.968  30.245  1.00  0.00     0.135 A 
ATOM     52  F   UNL A   1      44.131  32.049  33.320  1.00  0.00    -0.206 F 
ATOM     53  C   UNL A   1      44.476  34.350  33.005  1.00  0.00     0.059 A 
ATOM     54  C   UNL A   1      44.597  35.249  30.754  1.00  0.00     0.059 A 
ATOM     55  F   UNL A   1      44.354  33.811  28.913  1.00  0.00    -0.206 F 
ATOM     56  C   UNL A   1      44.626  35.431  32.136  1.00  0.00     0.060 A 
BRANCH  56  57
ATOM     57  S   UNL A   1      44.896  37.075  32.834  1.00  0.00     0.124 S 
ATOM     58  O   UNL A   1      44.656  36.835  34.252  1.00  0.00    -0.237 OA
ATOM     59  O   UNL A   1      46.281  37.348  32.457  1.00  0.00    -0.237 OA
ATOM     60  O   UNL A   1      43.898  37.895  32.152  1.00  0.00    -0.744 OA
ENDBRANCH  56  57
ENDBRANCH  24  49
BRANCH  36  61
ATOM     61  C   UNL A   1      48.441  27.660  29.154  1.00  0.00     0.058 A 
ATOM     62  C   UNL A   1      49.160  26.975  30.143  1.00  0.00     0.135 A 
ATOM     63  C   UNL A   1      49.146  28.156  28.047  1.00  0.00     0.135 A 
ATOM     64  F   UNL A   1      48.529  26.489  31.223  1.00  0.00    -0.206 F 
ATOM     65  C   UNL A   1      50.534  26.785  30.038  1.00  0.00     0.059 A 
ATOM     66  C   UNL A   1      50.517  27.965  27.913  1.00  0.00     0.059 A 
ATOM     67  F   UNL A   1      48.498  28.815  27.072  1.00  0.00    -0.206 F 
ATOM     68  C   UNL A   1      51.203  27.281  28.916  1.00  0.00     0.060 A 
BRANCH  68  69
ATOM     69  S   UNL A   1      52.974  26.969  28.748  1.00  0.00     0.124 S 
ATOM     70  O   UNL A   1      52.991  25.919  27.734  1.00  0.00    -0.237 OA
ATOM     71  O   UNL A   1      53.487  28.268  28.325  1.00  0.00    -0.237 OA
ATOM     72  O   UNL A   1      53.371  26.555  30.091  1.00  0.00    -0.744 OA
ENDBRANCH  68  69
ENDBRANCH  36  61
ENDBRANCH  10  11
ENDBRANCH   3   5
ENDBRANCH   2   3
ENDBRANCH   1   2
BRANCH   1  73
ATOM     73  C   UNL A   1      31.391  28.361  27.436  1.00  0.00     0.274 C 
BRANCH  73  74
ATOM     74  O   UNL A   1      32.038  27.122  27.108  1.00  0.00    -0.461 OA
BRANCH  74  75
ATOM     75  C   UNL A   1      31.359  26.348  26.207  1.00  0.00     0.328 C 
ATOM     76  O   UNL A   1      30.733  25.340  26.516  1.00  0.00    -0.250 OA
BRANCH  75  77
ATOM     77  C   UNL A   1      31.553  26.859  24.763  1.00  0.00     0.195 C 
ATOM     78  C   UNL A   1      32.881  26.310  24.218  1.00  0.00     0.037 C 
ATOM     79  N   UNL A   1      30.485  26.492  23.816  1.00  0.00    -0.322 N 
ATOM     80  C   UNL A   1      32.796  24.809  23.893  1.00  0.00     0.005 C 
ATOM     81  C   UNL A   1      30.262  25.060  23.643  1.00  0.00     0.121 C 
ATOM     82  C   UNL A   1      31.544  24.434  23.087  1.00  0.00     0.022 C 
BRANCH  79  83
ATOM     83  C   UNL A   1      30.188  27.392  22.781  1.00  0.00     0.291 C 
ATOM     84  O   UNL A   1      30.775  27.321  21.698  1.00  0.00    -0.265 OA
BRANCH  83  85
ATOM     85  C   UNL A   1      29.178  28.401  23.008  1.00  0.00     0.214 A 
ATOM     86  N   UNL A   1      29.377  29.700  23.158  1.00  0.00    -0.207 NA
ATOM     87  N   UNL A   1      27.835  28.174  22.931  1.00  0.00    -0.255 N 
ATOM     88  C   UNL A   1      28.105  30.215  23.188  1.00  0.00     0.154 A 
ATOM     89  N   UNL A   1      27.133  29.298  23.156  1.00  0.00    -0.158 NA
ATOM     90  H   UNL A   1      27.431  27.297  22.734  1.00  0.00     0.192 HD
BRANCH  88  91
ATOM     91  C   UNL A   1      27.805  31.705  23.197  1.00  0.00     0.060 C 
ATOM     92  C   UNL A   1      28.914  32.693  22.906  1.00  0.00     0.012 C 
ATOM     93  C   UNL A   1      27.864  32.449  21.877  1.00  0.00     0.012 C 
ENDBRANCH  88  91
ENDBRANCH  83  85
ENDBRANCH  79  83
ENDBRANCH  75  77
ENDBRANCH  74  75
ENDBRANCH  73  74
ENDBRANCH   1  73
TORSDOF 17
ENDMDL
MODEL 2
REMARK VINA RESULT:     -11.2      4.170      8.724
REMARK SMILES O=C(OCCOC(=O)[C@H]1CCCCN1C(=O)c1nc(C2CC2)n[nH]1)c1ccc(-c2c3nc(c(-c4c(F)cc(S(=O)(=O)[O-])cc4F)c4ccc([nH]4)c(-c4c(F)cc(S(=O)(=O)[O-])cc4F)c4nc(c(-c5c(F)cc(S(=O)(=O)[O-])cc5F)c5ccc2[nH]5)C=C4)C=C3)cc1
REMARK SMILES IDX 4 1 3 2 2 3 1 4 25 5 26 6 90 7 27 8 89 9 28 10 29 11 30 12
REMARK SMILES IDX 83 13 31 14 88 15 82 16 84 17 32 18 87 19 81 20 80 21 33 23
REMARK SMILES IDX 67 24 46 25 66 26 47 27 50 28 65 29 85 30 48 31 49 32 64 34
REMARK SMILES IDX 86 35 51 36 34 37 35 38 44 39 36 40 37 41 43 42 45 43 38 44
REMARK SMILES IDX 39 45 40 46 41 47 42 48 68 49 69 50 78 51 70 52 71 53 77 54
REMARK SMILES IDX 79 55 72 56 73 57 74 58 75 59 76 60 52 61 53 62 62 63 54 64
REMARK SMILES IDX 55 65 61 66 63 67 56 68 57 69 58 70 59 71 60 72 5 73 6 74
REMARK SMILES IDX 7 75 8 76 9 77 10 78 14 79 11 80 13 81 12 82 15 83 16 84
REMARK SMILES IDX 17 85 18 86 24 87 19 88 23 89 20 91 21 92 22 93
REMARK H PARENT 84 22 50 33 24 90
REMARK Flexibility Score: inf
ROOT
ATOM      1  C   UNL A   1      38.959  19.932  25.396  1.00  0.00     0.275 C 
ENDROOT
BRANCH   1   2
ATOM      2  O   UNL A   1      40.027  19.580  26.289  1.00  0.00    -0.458 OA
BRANCH   2   3
ATOM      3  C   UNL A   1      41.352  19.788  26.095  1.00  0.00     0.338 C 
ATOM      4  O   UNL A   1      42.077  18.862  25.743  1.00  0.00    -0.246 OA
BRANCH   3   5
ATOM      5  C   UNL A   1      41.986  21.073  26.495  1.00  0.00     0.060 A 
ATOM      6  C   UNL A   1      42.239  21.463  27.813  1.00  0.00     0.016 A 
ATOM      7  C   UNL A   1      42.243  21.985  25.465  1.00  0.00     0.016 A 
ATOM      8  C   UNL A   1      42.828  22.705  28.090  1.00  0.00     0.010 A 
ATOM      9  C   UNL A   1      42.804  23.233  25.748  1.00  0.00     0.010 A 
ATOM     10  C   UNL A   1      43.117  23.602  27.058  1.00  0.00    -0.014 A 
BRANCH  10  11
ATOM     11  C   UNL A   1      43.618  24.968  27.354  1.00  0.00     0.031 A 
ATOM     12  C   UNL A   1      45.068  25.288  27.111  1.00  0.00     0.074 A 
ATOM     13  C   UNL A   1      42.794  25.912  27.850  1.00  0.00     0.049 A 
ATOM     14  N   UNL A   1      45.699  26.425  27.249  1.00  0.00    -0.248 NA
ATOM     15  C   UNL A   1      45.925  24.173  26.679  1.00  0.00     0.031 C 
ATOM     16  C   UNL A   1      41.390  25.710  28.212  1.00  0.00     0.029 A 
ATOM     17  N   UNL A   1      43.022  27.235  28.137  1.00  0.00    -0.354 N 
ATOM     18  C   UNL A   1      47.025  26.160  26.929  1.00  0.00     0.074 A 
ATOM     19  C   UNL A   1      47.119  24.743  26.650  1.00  0.00     0.031 C 
ATOM     20  C   UNL A   1      40.878  26.873  28.652  1.00  0.00     0.029 A 
ATOM     21  C   UNL A   1      41.913  27.902  28.601  1.00  0.00     0.049 A 
ATOM     22  H   UNL A   1      43.900  27.667  28.022  1.00  0.00     0.167 HD
ATOM     23  C   UNL A   1      48.068  27.020  26.838  1.00  0.00     0.037 A 
ATOM     24  C   UNL A   1      41.748  29.200  28.924  1.00  0.00     0.037 A 
ATOM     25  C   UNL A   1      47.972  28.431  27.083  1.00  0.00     0.049 A 
ATOM     26  C   UNL A   1      42.901  30.155  28.747  1.00  0.00     0.074 A 
ATOM     27  C   UNL A   1      48.956  29.397  26.978  1.00  0.00     0.029 A 
ATOM     28  N   UNL A   1      46.811  29.079  27.476  1.00  0.00    -0.354 N 
ATOM     29  N   UNL A   1      44.128  29.903  28.357  1.00  0.00    -0.248 NA
ATOM     30  C   UNL A   1      42.641  31.574  29.030  1.00  0.00     0.031 C 
ATOM     31  C   UNL A   1      48.387  30.633  27.309  1.00  0.00     0.029 A 
ATOM     32  C   UNL A   1      47.047  30.435  27.604  1.00  0.00     0.049 A 
ATOM     33  H   UNL A   1      45.945  28.638  27.639  1.00  0.00     0.167 HD
ATOM     34  C   UNL A   1      44.774  31.134  28.317  1.00  0.00     0.074 A 
ATOM     35  C   UNL A   1      43.805  32.131  28.720  1.00  0.00     0.031 C 
ATOM     36  C   UNL A   1      46.056  31.412  27.975  1.00  0.00     0.037 A 
BRANCH  23  37
ATOM     37  C   UNL A   1      49.385  26.430  26.429  1.00  0.00     0.058 A 
ATOM     38  C   UNL A   1      50.293  25.952  27.389  1.00  0.00     0.135 A 
ATOM     39  C   UNL A   1      49.776  26.403  25.082  1.00  0.00     0.135 A 
ATOM     40  F   UNL A   1      49.972  25.974  28.692  1.00  0.00    -0.206 F 
ATOM     41  C   UNL A   1      51.568  25.526  27.034  1.00  0.00     0.059 A 
ATOM     42  C   UNL A   1      51.040  25.959  24.702  1.00  0.00     0.059 A 
ATOM     43  F   UNL A   1      48.944  26.845  24.127  1.00  0.00    -0.206 F 
ATOM     44  C   UNL A   1      51.938  25.552  25.689  1.00  0.00     0.060 A 
BRANCH  44  45
ATOM     45  S   UNL A   1      53.619  25.070  25.241  1.00  0.00     0.124 S 
ATOM     46  O   UNL A   1      53.708  25.572  23.873  1.00  0.00    -0.237 OA
ATOM     47  O   UNL A   1      54.430  25.781  26.226  1.00  0.00    -0.237 OA
ATOM     48  O   UNL A   1      53.601  23.618  25.381  1.00  0.00    -0.744 OA
ENDBRANCH  44  45
ENDBRANCH  23  37
BRANCH  24  49
ATOM     49  C   UNL A   1      40.425  29.699  29.380  1.00  0.00     0.058 A 
ATOM     50  C   UNL A   1      40.194  29.986  30.734  1.00  0.00     0.135 A 
ATOM     51  C   UNL A   1      39.363  29.878  28.483  1.00  0.00     0.135 A 
ATOM     52  F   UNL A   1      41.180  29.824  31.629  1.00  0.00    -0.206 F 
ATOM     53  C   UNL A   1      38.950  30.413  31.188  1.00  0.00     0.059 A 
ATOM     54  C   UNL A   1      38.112  30.320  28.911  1.00  0.00     0.059 A 
ATOM     55  F   UNL A   1      39.536  29.628  27.176  1.00  0.00    -0.206 F 
ATOM     56  C   UNL A   1      37.913  30.572  30.268  1.00  0.00     0.060 A 
BRANCH  56  57
ATOM     57  S   UNL A   1      36.308  31.150  30.862  1.00  0.00     0.124 S 
ATOM     58  O   UNL A   1      35.553  31.249  29.618  1.00  0.00    -0.237 OA
ATOM     59  O   UNL A   1      35.907  30.077  31.768  1.00  0.00    -0.237 OA
ATOM     60  O   UNL A   1      36.629  32.418  31.510  1.00  0.00    -0.744 OA
ENDBRANCH  56  57
ENDBRANCH  24  49
BRANCH  36  61
ATOM     61  C   UNL A   1      46.476  32.852  27.973  1.00  0.00     0.058 A 
ATOM     62  C   UNL A   1      46.235  33.684  26.871  1.00  0.00     0.135 A 
ATOM     63  C   UNL A   1      47.049  33.423  29.120  1.00  0.00     0.135 A 
ATOM     64  F   UNL A   1      45.694  33.181  25.750  1.00  0.00    -0.206 F 
ATOM     65  C   UNL A   1      46.548  35.039  26.904  1.00  0.00     0.059 A 
ATOM     66  C   UNL A   1      47.358  34.778  29.181  1.00  0.00     0.059 A 
ATOM     67  F   UNL A   1      47.293  32.666  30.202  1.00  0.00    -0.206 F 
ATOM     68  C   UNL A   1      47.107  35.577  28.066  1.00  0.00     0.060 A 
BRANCH  68  69
ATOM     69  S   UNL A   1      47.446  37.350  28.131  1.00  0.00     0.124 S 
ATOM     70  O   UNL A   1      48.898  37.376  27.993  1.00  0.00    -0.237 OA
ATOM     71  O   UNL A   1      46.692  37.860  26.990  1.00  0.00    -0.237 OA
ATOM     72  O   UNL A   1      46.929  37.743  29.439  1.00  0.00    -0.744 OA
ENDBRANCH  68  69
ENDBRANCH  36  61
ENDBRANCH  10  11
ENDBRANCH   3   5
ENDBRANCH   2   3
ENDBRANCH   1   2
BRANCH   1  73
ATOM     73  C   UNL A   1      38.582  21.412  25.413  1.00  0.00     0.274 C 
BRANCH  73  74
ATOM     74  O   UNL A   1      37.205  21.665  25.735  1.00  0.00    -0.461 OA
BRANCH  74  75
ATOM     75  C   UNL A   1      36.425  22.008  24.666  1.00  0.00     0.328 C 
ATOM     76  O   UNL A   1      36.873  22.276  23.557  1.00  0.00    -0.250 OA
BRANCH  75  77
ATOM     77  C   UNL A   1      34.933  22.092  25.059  1.00  0.00     0.195 C 
ATOM     78  C   UNL A   1      34.749  23.246  26.058  1.00  0.00     0.037 C 
ATOM     79  N   UNL A   1      33.998  22.304  23.940  1.00  0.00    -0.322 N 
ATOM     80  C   UNL A   1      34.859  24.622  25.378  1.00  0.00     0.005 C 
ATOM     81  C   UNL A   1      34.214  23.520  23.160  1.00  0.00     0.121 C 
ATOM     82  C   UNL A   1      34.035  24.726  24.087  1.00  0.00     0.022 C 
BRANCH  79  83
ATOM     83  C   UNL A   1      32.719  21.735  24.036  1.00  0.00     0.291 C 
ATOM     84  O   UNL A   1      31.712  22.410  23.805  1.00  0.00    -0.265 OA
BRANCH  83  85
ATOM     85  C   UNL A   1      32.605  20.343  24.410  1.00  0.00     0.214 A 
ATOM     86  N   UNL A   1      32.995  19.299  23.699  1.00  0.00    -0.207 NA
ATOM     87  N   UNL A   1      32.226  19.910  25.647  1.00  0.00    -0.255 N 
ATOM     88  C   UNL A   1      32.807  18.244  24.557  1.00  0.00     0.154 A 
ATOM     89  N   UNL A   1      32.240  18.568  25.723  1.00  0.00    -0.158 NA
ATOM     90  H   UNL A   1      31.975  20.506  26.390  1.00  0.00     0.192 HD
BRANCH  88  91
ATOM     91  C   UNL A   1      33.255  16.824  24.249  1.00  0.00     0.060 C 
ATOM     92  C   UNL A   1      34.240  16.578  23.125  1.00  0.00     0.012 C 
ATOM     93  C   UNL A   1      34.698  16.457  24.538  1.00  0.00     0.012 C 
ENDBRANCH  88  91
ENDBRANCH  83  85
ENDBRANCH  79  83
ENDBRANCH  75  77
ENDBRANCH  74  75
ENDBRANCH  73  74
ENDBRANCH   1  73
TORSDOF 17
ENDMDL
MODEL 3
REMARK VINA RESULT:     -11.2      5.073     10.701
REMARK SMILES O=C(OCCOC(=O)[C@H]1CCCCN1C(=O)c1nc(C2CC2)n[nH]1)c1ccc(-c2c3nc(c(-c4c(F)cc(S(=O)(=O)[O-])cc4F)c4ccc([nH]4)c(-c4c(F)cc(S(=O)(=O)[O-])cc4F)c4nc(c(-c5c(F)cc(S(=O)(=O)[O-])cc5F)c5ccc2[nH]5)C=C4)C=C3)cc1
REMARK SMILES IDX 4 1 3 2 2 3 1 4 25 5 26 6 90 7 27 8 89 9 28 10 29 11 30 12
REMARK SMILES IDX 83 13 31 14 88 15 82 16 84 17 32 18 87 19 81 20 80 21 33 23
REMARK SMILES IDX 67 24 46 25 66 26 47 27 50 28 65 29 85 30 48 31 49 32 64 34
REMARK SMILES IDX 86 35 51 36 34 37 35 38 44 39 36 40 37 41 43 42 45 43 38 44
REMARK SMILES IDX 39 45 40 46 41 47 42 48 68 49 69 50 78 51 70 52 71 53 77 54
REMARK SMILES IDX 79 55 72 56 73 57 74 58 75 59 76 60 52 61 53 62 62 63 54 64
REMARK SMILES IDX 55 65 61 66 63 67 56 68 57 69 58 70 59 71 60 72 5 73 6 74
REMARK SMILES IDX 7 75 8 76 9 77 10 78 14 79 11 80 13 81 12 82 15 83 16 84
REMARK SMILES IDX 17 85 18 86 24 87 19 88 23 89 20 91 21 92 22 93
REMARK H PARENT 84 22 50 33 24 90
REMARK Flexibility Score: inf
ROOT
ATOM      1  C   UNL A   1      34.721  32.997  28.063  1.00  0.00     0.275 C 
ENDROOT
BRANCH   1   2
ATOM      2  O   UNL A   1      34.001  31.837  27.616  1.00  0.00    -0.458 OA
BRANCH   2   3
ATOM      3  C   UNL A   1      34.522  30.623  27.314  1.00  0.00     0.338 C 
ATOM      4  O   UNL A   1      33.903  29.849  26.590  1.00  0.00    -0.246 OA
BRANCH   3   5
ATOM      5  C   UNL A   1      35.740  30.125  28.008  1.00  0.00     0.060 A 
ATOM      6  C   UNL A   1      35.787  29.712  29.343  1.00  0.00     0.016 A 
ATOM      7  C   UNL A   1      36.934  30.181  27.282  1.00  0.00     0.016 A 
ATOM      8  C   UNL A   1      36.990  29.272  29.913  1.00  0.00     0.010 A 
ATOM      9  C   UNL A   1      38.137  29.769  27.862  1.00  0.00     0.010 A 
ATOM     10  C   UNL A   1      38.177  29.296  29.176  1.00  0.00    -0.014 A 
BRANCH  10  11
ATOM     11  C   UNL A   1      39.475  28.957  29.812  1.00  0.00     0.031 A 
ATOM     12  C   UNL A   1      39.895  29.686  31.060  1.00  0.00     0.074 A 
ATOM     13  C   UNL A   1      40.282  28.020  29.277  1.00  0.00     0.049 A 
ATOM     14  N   UNL A   1      40.956  29.512  31.804  1.00  0.00    -0.248 NA
ATOM     15  C   UNL A   1      39.014  30.774  31.516  1.00  0.00     0.031 C 
ATOM     16  C   UNL A   1      40.036  27.301  28.026  1.00  0.00     0.029 A 
ATOM     17  N   UNL A   1      41.479  27.512  29.720  1.00  0.00    -0.354 N 
ATOM     18  C   UNL A   1      40.874  30.469  32.807  1.00  0.00     0.074 A 
ATOM     19  C   UNL A   1      39.692  31.261  32.542  1.00  0.00     0.031 C 
ATOM     20  C   UNL A   1      41.039  26.431  27.814  1.00  0.00     0.029 A 
ATOM     21  C   UNL A   1      41.996  26.527  28.913  1.00  0.00     0.049 A 
ATOM     22  H   UNL A   1      41.925  27.826  30.541  1.00  0.00     0.167 HD
ATOM     23  C   UNL A   1      41.684  30.655  33.877  1.00  0.00     0.037 A 
ATOM     24  C   UNL A   1      43.103  25.773  29.060  1.00  0.00     0.037 A 
ATOM     25  C   UNL A   1      42.840  29.851  34.161  1.00  0.00     0.049 A 
ATOM     26  C   UNL A   1      43.953  25.945  30.293  1.00  0.00     0.074 A 
ATOM     27  C   UNL A   1      43.703  29.927  35.238  1.00  0.00     0.029 A 
ATOM     28  N   UNL A   1      43.285  28.811  33.359  1.00  0.00    -0.354 N 
ATOM     29  N   UNL A   1      43.811  26.797  31.280  1.00  0.00    -0.248 NA
ATOM     30  C   UNL A   1      45.100  25.036  30.445  1.00  0.00     0.031 C 
ATOM     31  C   UNL A   1      44.675  28.930  35.086  1.00  0.00     0.029 A 
ATOM     32  C   UNL A   1      44.404  28.226  33.922  1.00  0.00     0.049 A 
ATOM     33  H   UNL A   1      42.865  28.531  32.513  1.00  0.00     0.167 HD
ATOM     34  C   UNL A   1      44.828  26.506  32.184  1.00  0.00     0.074 A 
ATOM     35  C   UNL A   1      45.578  25.398  31.628  1.00  0.00     0.031 C 
ATOM     36  C   UNL A   1      45.113  27.102  33.367  1.00  0.00     0.037 A 
BRANCH  23  37
ATOM     37  C   UNL A   1      41.307  31.762  34.816  1.00  0.00     0.058 A 
ATOM     38  C   UNL A   1      40.285  31.589  35.763  1.00  0.00     0.135 A 
ATOM     39  C   UNL A   1      41.917  33.023  34.727  1.00  0.00     0.135 A 
ATOM     40  F   UNL A   1      39.659  30.407  35.874  1.00  0.00    -0.206 F 
ATOM     41  C   UNL A   1      39.836  32.646  36.548  1.00  0.00     0.059 A 
ATOM     42  C   UNL A   1      41.498  34.089  35.518  1.00  0.00     0.059 A 
ATOM     43  F   UNL A   1      42.900  33.238  33.839  1.00  0.00    -0.206 F 
ATOM     44  C   UNL A   1      40.437  33.897  36.403  1.00  0.00     0.060 A 
BRANCH  44  45
ATOM     45  S   UNL A   1      39.800  35.283  37.369  1.00  0.00     0.124 S 
ATOM     46  O   UNL A   1      40.951  35.603  38.208  1.00  0.00    -0.237 OA
ATOM     47  O   UNL A   1      39.477  36.268  36.340  1.00  0.00    -0.237 OA
ATOM     48  O   UNL A   1      38.652  34.709  38.063  1.00  0.00    -0.744 OA
ENDBRANCH  44  45
ENDBRANCH  23  37
BRANCH  24  49
ATOM     49  C   UNL A   1      43.443  24.733  28.054  1.00  0.00     0.058 A 
ATOM     50  C   UNL A   1      42.939  23.429  28.171  1.00  0.00     0.135 A 
ATOM     51  C   UNL A   1      44.289  25.013  26.972  1.00  0.00     0.135 A 
ATOM     52  F   UNL A   1      42.130  23.115  29.194  1.00  0.00    -0.206 F 
ATOM     53  C   UNL A   1      43.279  22.432  27.264  1.00  0.00     0.059 A 
ATOM     54  C   UNL A   1      44.632  24.034  26.041  1.00  0.00     0.059 A 
ATOM     55  F   UNL A   1      44.788  26.248  26.809  1.00  0.00    -0.206 F 
ATOM     56  C   UNL A   1      44.132  22.742  26.204  1.00  0.00     0.060 A 
BRANCH  56  57
ATOM     57  S   UNL A   1      44.549  21.447  25.016  1.00  0.00     0.124 S 
ATOM     58  O   UNL A   1      45.905  21.100  25.425  1.00  0.00    -0.237 OA
ATOM     59  O   UNL A   1      43.524  20.441  25.282  1.00  0.00    -0.237 OA
ATOM     60  O   UNL A   1      44.429  22.125  23.728  1.00  0.00    -0.744 OA
ENDBRANCH  56  57
ENDBRANCH  24  49
BRANCH  36  61
ATOM     61  C   UNL A   1      46.252  26.544  34.168  1.00  0.00     0.058 A 
ATOM     62  C   UNL A   1      47.538  27.097  34.095  1.00  0.00     0.135 A 
ATOM     63  C   UNL A   1      46.031  25.499  35.078  1.00  0.00     0.135 A 
ATOM     64  F   UNL A   1      47.797  28.093  33.234  1.00  0.00    -0.206 F 
ATOM     65  C   UNL A   1      48.572  26.632  34.900  1.00  0.00     0.059 A 
ATOM     66  C   UNL A   1      47.047  25.028  35.904  1.00  0.00     0.059 A 
ATOM     67  F   UNL A   1      44.814  24.942  35.186  1.00  0.00    -0.206 F 
ATOM     68  C   UNL A   1      48.315  25.599  35.805  1.00  0.00     0.060 A 
BRANCH  68  69
ATOM     69  S   UNL A   1      49.642  25.047  36.900  1.00  0.00     0.124 S 
ATOM     70  O   UNL A   1      50.749  25.894  36.467  1.00  0.00    -0.237 OA
ATOM     71  O   UNL A   1      49.103  25.338  38.224  1.00  0.00    -0.237 OA
ATOM     72  O   UNL A   1      49.771  23.628  36.582  1.00  0.00    -0.744 OA
ENDBRANCH  68  69
ENDBRANCH  36  61
ENDBRANCH  10  11
ENDBRANCH   3   5
ENDBRANCH   2   3
ENDBRANCH   1   2
BRANCH   1  73
ATOM     73  C   UNL A   1      33.837  34.147  28.539  1.00  0.00     0.274 C 
BRANCH  73  74
ATOM     74  O   UNL A   1      34.469  35.023  29.486  1.00  0.00    -0.461 OA
BRANCH  74  75
ATOM     75  C   UNL A   1      33.944  34.970  30.748  1.00  0.00     0.328 C 
ATOM     76  O   UNL A   1      32.741  34.931  30.980  1.00  0.00    -0.250 OA
BRANCH  75  77
ATOM     77  C   UNL A   1      35.049  35.049  31.824  1.00  0.00     0.195 C 
ATOM     78  C   UNL A   1      34.434  34.707  33.190  1.00  0.00     0.037 C 
ATOM     79  N   UNL A   1      36.203  34.159  31.608  1.00  0.00    -0.322 N 
ATOM     80  C   UNL A   1      34.124  33.207  33.325  1.00  0.00     0.005 C 
ATOM     81  C   UNL A   1      35.895  32.733  31.540  1.00  0.00     0.121 C 
ATOM     82  C   UNL A   1      35.285  32.306  32.878  1.00  0.00     0.022 C 
BRANCH  79  83
ATOM     83  C   UNL A   1      37.462  34.597  32.047  1.00  0.00     0.291 C 
ATOM     84  O   UNL A   1      37.642  34.914  33.225  1.00  0.00    -0.265 OA
BRANCH  83  85
ATOM     85  C   UNL A   1      38.544  34.668  31.090  1.00  0.00     0.214 A 
ATOM     86  N   UNL A   1      39.813  34.367  31.307  1.00  0.00    -0.207 NA
ATOM     87  N   UNL A   1      38.374  34.899  29.756  1.00  0.00    -0.255 N 
ATOM     88  C   UNL A   1      40.378  34.453  30.059  1.00  0.00     0.154 A 
ATOM     89  N   UNL A   1      39.548  34.879  29.101  1.00  0.00    -0.158 NA
ATOM     90  H   UNL A   1      37.501  35.059  29.328  1.00  0.00     0.192 HD
BRANCH  88  91
ATOM     91  C   UNL A   1      41.811  34.048  29.758  1.00  0.00     0.060 C 
ATOM     92  C   UNL A   1      42.863  34.160  30.841  1.00  0.00     0.012 C 
ATOM     93  C   UNL A   1      42.359  32.813  30.449  1.00  0.00     0.012 C 
ENDBRANCH  88  91
ENDBRANCH  83  85
ENDBRANCH  79  83
ENDBRANCH  75  77
ENDBRANCH  74  75
ENDBRANCH  73  74
ENDBRANCH   1  73
TORSDOF 17
ENDMDL
