MODEL 1
REMARK VINA RESULT:     -11.2      0.000      0.000
REMARK SMILES Cc1c(Cl)cccc1NC(=O)C[C@H](C(=O)OCCOC(=O)c1ccc(-c2c3nc(c(-c4c(F)cc(S(=O)(=O)[O-])cc4F)c4ccc([nH]4)c(-c4c(F)cc(S(=O)(=O)[O-])cc4F)c4nc(c(-c5c(F)cc(S(=O)(=O)[O-])cc5F)c5ccc2[nH]5)C=C4)C=C3)cc1)[C@H](C)c1ccccc1
REMARK SMILES IDX 17 1 16 2 14 3 15 4 13 5 12 6 10 7 9 8 11 10 8 11 1 12 2 13
REMARK SMILES IDX 3 14 4 15 5 16 7 17 6 18 88 19 89 20 90 21 91 22 95 23 92 24
REMARK SMILES IDX 94 25 93 26 18 27 19 28 20 29 21 30 22 31 23 32 87 33 24 34
REMARK SMILES IDX 86 35 25 36 26 37 27 38 80 39 28 40 85 41 79 42 81 43 29 44
REMARK SMILES IDX 84 45 78 46 77 47 30 49 64 50 43 51 63 52 44 53 47 54 62 55
REMARK SMILES IDX 82 56 45 57 46 58 61 60 83 61 48 62 31 63 32 64 41 65 33 66
REMARK SMILES IDX 34 67 40 68 42 69 35 70 36 71 37 72 38 73 39 74 65 75 66 76
REMARK SMILES IDX 75 77 67 78 68 79 74 80 76 81 69 82 70 83 71 84 72 85 73 86
REMARK SMILES IDX 49 87 50 88 59 89 51 90 52 91 58 92 60 93 53 94 54 95 55 96
REMARK SMILES IDX 56 97 57 98
REMARK H PARENT 9 9 81 48 47 59
REMARK Flexibility Score: inf
ROOT
ATOM      1  C   UNL A   1      32.888  28.952  25.534  1.00  0.00     0.274 C 
ENDROOT
BRANCH   1   2
ATOM      2  O   UNL A   1      33.844  27.905  25.258  1.00  0.00    -0.462 OA
BRANCH   2   3
ATOM      3  C   UNL A   1      33.633  27.160  24.139  1.00  0.00     0.310 C 
ATOM      4  O   UNL A   1      33.675  27.603  22.999  1.00  0.00    -0.252 OA
BRANCH   3   5
ATOM      5  C   UNL A   1      33.301  25.698  24.461  1.00  0.00     0.116 C 
BRANCH   5   6
ATOM      6  C   UNL A   1      31.795  25.592  24.797  1.00  0.00     0.116 C 
BRANCH   6   7
ATOM      7  C   UNL A   1      31.287  25.362  26.196  1.00  0.00     0.225 C 
ATOM      8  N   UNL A   1      31.508  24.219  26.907  1.00  0.00    -0.326 N 
ATOM      9  H   UNL A   1      30.981  24.151  27.736  1.00  0.00     0.169 HD
ATOM     10  O   UNL A   1      30.664  26.262  26.772  1.00  0.00    -0.275 OA
BRANCH   8  11
ATOM     11  C   UNL A   1      32.353  23.120  26.668  1.00  0.00     0.045 A 
ATOM     12  C   UNL A   1      30.906  22.488  24.638  1.00  0.00     0.048 C 
ATOM     13  C   UNL A   1      32.042  22.239  25.603  1.00  0.00    -0.009 A 
ATOM     14  C   UNL A   1      32.746  21.018  25.524  1.00  0.00     0.046 A 
ATOM     15  Cl  UNL A   1      32.334  19.802  24.361  1.00  0.00    -0.084 Cl
ATOM     16  C   UNL A   1      33.774  20.715  26.417  1.00  0.00     0.021 A 
ATOM     17  C   UNL A   1      33.450  22.845  27.488  1.00  0.00     0.026 A 
ATOM     18  C   UNL A   1      34.150  21.645  27.375  1.00  0.00     0.004 A 
ENDBRANCH   8  11
ENDBRANCH   6   7
ENDBRANCH   5   6
BRANCH   5  19
ATOM     19  C   UNL A   1      34.077  24.838  23.422  1.00  0.00     0.031 C 
ATOM     20  C   UNL A   1      33.308  23.948  22.456  1.00  0.00     0.013 C 
BRANCH  19  21
ATOM     21  C   UNL A   1      35.142  23.994  24.132  1.00  0.00    -0.044 A 
ATOM     22  C   UNL A   1      35.724  24.461  25.321  1.00  0.00     0.004 A 
ATOM     23  C   UNL A   1      35.552  22.747  23.630  1.00  0.00     0.004 A 
ATOM     24  C   UNL A   1      36.718  23.724  25.965  1.00  0.00     0.000 A 
ATOM     25  C   UNL A   1      36.553  22.017  24.270  1.00  0.00     0.000 A 
ATOM     26  C   UNL A   1      37.141  22.507  25.433  1.00  0.00     0.000 A 
ENDBRANCH  19  21
ENDBRANCH   5  19
ENDBRANCH   3   5
ENDBRANCH   2   3
ENDBRANCH   1   2
BRANCH   1  27
ATOM     27  C   UNL A   1      32.633  29.072  27.037  1.00  0.00     0.275 C 
BRANCH  27  28
ATOM     28  O   UNL A   1      33.878  28.991  27.747  1.00  0.00    -0.458 OA
BRANCH  28  29
ATOM     29  C   UNL A   1      34.475  30.168  28.041  1.00  0.00     0.338 C 
ATOM     30  O   UNL A   1      33.953  31.262  28.150  1.00  0.00    -0.246 OA
BRANCH  29  31
ATOM     31  C   UNL A   1      35.889  29.896  28.327  1.00  0.00     0.060 A 
ATOM     32  C   UNL A   1      36.817  30.044  27.294  1.00  0.00     0.016 A 
ATOM     33  C   UNL A   1      36.289  29.462  29.588  1.00  0.00     0.016 A 
ATOM     34  C   UNL A   1      38.154  29.737  27.505  1.00  0.00     0.010 A 
ATOM     35  C   UNL A   1      37.643  29.193  29.812  1.00  0.00     0.010 A 
ATOM     36  C   UNL A   1      38.579  29.320  28.768  1.00  0.00    -0.014 A 
BRANCH  36  37
ATOM     37  C   UNL A   1      40.002  28.987  28.990  1.00  0.00     0.031 A 
ATOM     38  C   UNL A   1      40.931  30.036  29.526  1.00  0.00     0.074 A 
ATOM     39  C   UNL A   1      40.448  27.748  28.714  1.00  0.00     0.049 A 
ATOM     40  N   UNL A   1      42.229  30.001  29.654  1.00  0.00    -0.248 NA
ATOM     41  C   UNL A   1      40.311  31.296  29.969  1.00  0.00     0.031 C 
ATOM     42  C   UNL A   1      39.617  26.636  28.245  1.00  0.00     0.029 A 
ATOM     43  N   UNL A   1      41.710  27.216  28.778  1.00  0.00    -0.354 N 
ATOM     44  C   UNL A   1      42.590  31.243  30.163  1.00  0.00     0.074 A 
ATOM     45  C   UNL A   1      41.373  32.012  30.309  1.00  0.00     0.031 C 
ATOM     46  C   UNL A   1      40.393  25.557  28.058  1.00  0.00     0.029 A 
ATOM     47  C   UNL A   1      41.779  25.916  28.340  1.00  0.00     0.049 A 
ATOM     48  H   UNL A   1      42.490  27.719  29.106  1.00  0.00     0.167 HD
ATOM     49  C   UNL A   1      43.828  31.694  30.475  1.00  0.00     0.037 A 
ATOM     50  C   UNL A   1      42.847  25.119  28.151  1.00  0.00     0.037 A 
ATOM     51  C   UNL A   1      45.025  30.906  30.339  1.00  0.00     0.049 A 
ATOM     52  C   UNL A   1      44.217  25.659  28.455  1.00  0.00     0.074 A 
ATOM     53  C   UNL A   1      46.329  31.260  30.628  1.00  0.00     0.029 A 
ATOM     54  N   UNL A   1      45.059  29.597  29.876  1.00  0.00    -0.354 N 
ATOM     55  N   UNL A   1      44.552  26.844  28.907  1.00  0.00    -0.248 NA
ATOM     56  C   UNL A   1      45.353  24.761  28.217  1.00  0.00     0.031 C 
ATOM     57  C   UNL A   1      47.158  30.178  30.306  1.00  0.00     0.029 A 
ATOM     58  C   UNL A   1      46.364  29.134  29.855  1.00  0.00     0.049 A 
ATOM     59  H   UNL A   1      44.271  29.074  29.601  1.00  0.00     0.167 HD
ATOM     60  C   UNL A   1      45.937  26.830  29.023  1.00  0.00     0.074 A 
ATOM     61  C   UNL A   1      46.375  25.513  28.605  1.00  0.00     0.031 C 
ATOM     62  C   UNL A   1      46.772  27.816  29.435  1.00  0.00     0.037 A 
BRANCH  49  63
ATOM     63  C   UNL A   1      43.946  33.115  30.952  1.00  0.00     0.058 A 
ATOM     64  C   UNL A   1      43.977  34.197  30.059  1.00  0.00     0.135 A 
ATOM     65  C   UNL A   1      44.026  33.396  32.325  1.00  0.00     0.135 A 
ATOM     66  F   UNL A   1      43.924  33.984  28.735  1.00  0.00    -0.206 F 
ATOM     67  C   UNL A   1      44.115  35.507  30.509  1.00  0.00     0.059 A 
ATOM     68  C   UNL A   1      44.140  34.699  32.799  1.00  0.00     0.059 A 
ATOM     69  F   UNL A   1      44.006  32.397  33.222  1.00  0.00    -0.206 F 
ATOM     70  C   UNL A   1      44.202  35.747  31.882  1.00  0.00     0.060 A 
BRANCH  70  71
ATOM     71  S   UNL A   1      44.394  37.449  32.454  1.00  0.00     0.124 S 
ATOM     72  O   UNL A   1      44.428  38.178  31.190  1.00  0.00    -0.237 OA
ATOM     73  O   UNL A   1      43.197  37.646  33.266  1.00  0.00    -0.237 OA
ATOM     74  O   UNL A   1      45.651  37.418  33.195  1.00  0.00    -0.744 OA
ENDBRANCH  70  71
ENDBRANCH  49  63
BRANCH  50  75
ATOM     75  C   UNL A   1      42.659  23.743  27.621  1.00  0.00     0.058 A 
ATOM     76  C   UNL A   1      42.707  23.485  26.244  1.00  0.00     0.135 A 
ATOM     77  C   UNL A   1      42.454  22.654  28.484  1.00  0.00     0.135 A 
ATOM     78  F   UNL A   1      42.889  24.493  25.379  1.00  0.00    -0.206 F 
ATOM     79  C   UNL A   1      42.555  22.197  25.739  1.00  0.00     0.059 A 
ATOM     80  C   UNL A   1      42.323  21.354  28.004  1.00  0.00     0.059 A 
ATOM     81  F   UNL A   1      42.412  22.846  29.811  1.00  0.00    -0.206 F 
ATOM     82  C   UNL A   1      42.367  21.137  26.628  1.00  0.00     0.060 A 
BRANCH  82  83
ATOM     83  S   UNL A   1      42.230  19.461  25.968  1.00  0.00     0.124 S 
ATOM     84  O   UNL A   1      40.790  19.336  25.782  1.00  0.00    -0.237 OA
ATOM     85  O   UNL A   1      43.026  19.545  24.747  1.00  0.00    -0.237 OA
ATOM     86  O   UNL A   1      42.806  18.636  27.026  1.00  0.00    -0.744 OA
ENDBRANCH  82  83
ENDBRANCH  50  75
BRANCH  62  87
ATOM     87  C   UNL A   1      48.238  27.495  29.480  1.00  0.00     0.058 A 
ATOM     88  C   UNL A   1      49.096  27.830  28.422  1.00  0.00     0.135 A 
ATOM     89  C   UNL A   1      48.798  26.890  30.617  1.00  0.00     0.135 A 
ATOM     90  F   UNL A   1      48.606  28.402  27.310  1.00  0.00    -0.206 F 
ATOM     91  C   UNL A   1      50.458  27.557  28.480  1.00  0.00     0.059 A 
ATOM     92  C   UNL A   1      50.161  26.630  30.707  1.00  0.00     0.059 A 
ATOM     93  F   UNL A   1      48.020  26.560  31.660  1.00  0.00    -0.206 F 
ATOM     94  C   UNL A   1      50.982  26.957  29.627  1.00  0.00     0.060 A 
BRANCH  94  95
ATOM     95  S   UNL A   1      52.757  26.639  29.707  1.00  0.00     0.124 S 
ATOM     96  O   UNL A   1      53.288  27.985  29.887  1.00  0.00    -0.237 OA
ATOM     97  O   UNL A   1      52.865  25.752  30.861  1.00  0.00    -0.237 OA
ATOM     98  O   UNL A   1      53.047  26.016  28.418  1.00  0.00    -0.744 OA
ENDBRANCH  94  95
ENDBRANCH  62  87
ENDBRANCH  36  37
ENDBRANCH  29  31
ENDBRANCH  28  29
ENDBRANCH  27  28
ENDBRANCH   1  27
TORSDOF 19
ENDMDL
MODEL 2
REMARK VINA RESULT:     -10.9      1.182      2.287
REMARK SMILES Cc1c(Cl)cccc1NC(=O)C[C@H](C(=O)OCCOC(=O)c1ccc(-c2c3nc(c(-c4c(F)cc(S(=O)(=O)[O-])cc4F)c4ccc([nH]4)c(-c4c(F)cc(S(=O)(=O)[O-])cc4F)c4nc(c(-c5c(F)cc(S(=O)(=O)[O-])cc5F)c5ccc2[nH]5)C=C4)C=C3)cc1)[C@H](C)c1ccccc1
REMARK SMILES IDX 17 1 16 2 14 3 15 4 13 5 12 6 10 7 9 8 11 10 8 11 1 12 2 13
REMARK SMILES IDX 3 14 4 15 5 16 7 17 6 18 88 19 89 20 90 21 91 22 95 23 92 24
REMARK SMILES IDX 94 25 93 26 18 27 19 28 20 29 21 30 22 31 23 32 87 33 24 34
REMARK SMILES IDX 86 35 25 36 26 37 27 38 80 39 28 40 85 41 79 42 81 43 29 44
REMARK SMILES IDX 84 45 78 46 77 47 30 49 64 50 43 51 63 52 44 53 47 54 62 55
REMARK SMILES IDX 82 56 45 57 46 58 61 60 83 61 48 62 31 63 32 64 41 65 33 66
REMARK SMILES IDX 34 67 40 68 42 69 35 70 36 71 37 72 38 73 39 74 65 75 66 76
REMARK SMILES IDX 75 77 67 78 68 79 74 80 76 81 69 82 70 83 71 84 72 85 73 86
REMARK SMILES IDX 49 87 50 88 59 89 51 90 52 91 58 92 60 93 53 94 54 95 55 96
REMARK SMILES IDX 56 97 57 98
REMARK H PARENT 9 9 81 48 47 59
REMARK Flexibility Score: inf
ROOT
ATOM      1  C   UNL A   1      32.082  29.390  25.600  1.00  0.00     0.274 C 
ENDROOT
BRANCH   1   2
ATOM      2  O   UNL A   1      31.150  28.428  25.059  1.00  0.00    -0.462 OA
BRANCH   2   3
ATOM      3  C   UNL A   1      31.536  27.763  23.936  1.00  0.00     0.310 C 
ATOM      4  O   UNL A   1      31.698  28.292  22.844  1.00  0.00    -0.252 OA
BRANCH   3   5
ATOM      5  C   UNL A   1      31.718  26.260  24.177  1.00  0.00     0.116 C 
BRANCH   5   6
ATOM      6  C   UNL A   1      31.705  25.531  22.812  1.00  0.00     0.116 C 
BRANCH   6   7
ATOM      7  C   UNL A   1      32.959  25.252  22.027  1.00  0.00     0.225 C 
ATOM      8  N   UNL A   1      33.778  24.185  22.255  1.00  0.00    -0.326 N 
ATOM      9  H   UNL A   1      34.637  24.225  21.776  1.00  0.00     0.169 HD
ATOM     10  O   UNL A   1      33.267  25.998  21.089  1.00  0.00    -0.275 OA
BRANCH   8  11
ATOM     11  C   UNL A   1      33.615  23.038  23.053  1.00  0.00     0.045 A 
ATOM     12  C   UNL A   1      36.084  23.209  23.750  1.00  0.00     0.048 C 
ATOM     13  C   UNL A   1      34.740  22.520  23.741  1.00  0.00    -0.009 A 
ATOM     14  C   UNL A   1      34.626  21.244  24.335  1.00  0.00     0.046 A 
ATOM     15  Cl  UNL A   1      35.985  20.451  25.059  1.00  0.00    -0.084 Cl
ATOM     16  C   UNL A   1      33.420  20.542  24.317  1.00  0.00     0.021 A 
ATOM     17  C   UNL A   1      32.392  22.367  23.133  1.00  0.00     0.026 A 
ATOM     18  C   UNL A   1      32.295  21.121  23.749  1.00  0.00     0.004 A 
ENDBRANCH   8  11
ENDBRANCH   6   7
ENDBRANCH   5   6
BRANCH   5  19
ATOM     19  C   UNL A   1      32.804  26.126  25.284  1.00  0.00     0.031 C 
ATOM     20  C   UNL A   1      34.272  26.307  24.924  1.00  0.00     0.013 C 
BRANCH  19  21
ATOM     21  C   UNL A   1      32.635  24.795  26.025  1.00  0.00    -0.044 A 
ATOM     22  C   UNL A   1      31.355  24.242  26.182  1.00  0.00     0.004 A 
ATOM     23  C   UNL A   1      33.736  24.097  26.549  1.00  0.00     0.004 A 
ATOM     24  C   UNL A   1      31.176  23.047  26.882  1.00  0.00     0.000 A 
ATOM     25  C   UNL A   1      33.554  22.909  27.257  1.00  0.00     0.000 A 
ATOM     26  C   UNL A   1      32.275  22.387  27.429  1.00  0.00     0.000 A 
ENDBRANCH  19  21
ENDBRANCH   5  19
ENDBRANCH   3   5
ENDBRANCH   2   3
ENDBRANCH   1   2
BRANCH   1  27
ATOM     27  C   UNL A   1      32.352  29.111  27.079  1.00  0.00     0.275 C 
BRANCH  27  28
ATOM     28  O   UNL A   1      33.768  29.103  27.319  1.00  0.00    -0.458 OA
BRANCH  28  29
ATOM     29  C   UNL A   1      34.303  30.258  27.774  1.00  0.00     0.338 C 
ATOM     30  O   UNL A   1      33.743  31.325  27.938  1.00  0.00    -0.246 OA
BRANCH  29  31
ATOM     31  C   UNL A   1      35.694  29.989  28.159  1.00  0.00     0.060 A 
ATOM     32  C   UNL A   1      36.687  30.098  27.184  1.00  0.00     0.016 A 
ATOM     33  C   UNL A   1      36.010  29.594  29.457  1.00  0.00     0.016 A 
ATOM     34  C   UNL A   1      38.006  29.791  27.489  1.00  0.00     0.010 A 
ATOM     35  C   UNL A   1      37.344  29.326  29.775  1.00  0.00     0.010 A 
ATOM     36  C   UNL A   1      38.346  29.414  28.790  1.00  0.00    -0.014 A 
BRANCH  36  37
ATOM     37  C   UNL A   1      39.750  29.082  29.113  1.00  0.00     0.031 A 
ATOM     38  C   UNL A   1      40.624  30.117  29.757  1.00  0.00     0.074 A 
ATOM     39  C   UNL A   1      40.226  27.855  28.831  1.00  0.00     0.049 A 
ATOM     40  N   UNL A   1      41.909  30.085  29.988  1.00  0.00    -0.248 NA
ATOM     41  C   UNL A   1      39.961  31.357  30.192  1.00  0.00     0.031 C 
ATOM     42  C   UNL A   1      39.445  26.755  28.260  1.00  0.00     0.029 A 
ATOM     43  N   UNL A   1      41.484  27.329  28.978  1.00  0.00    -0.354 N 
ATOM     44  C   UNL A   1      42.218  31.310  30.566  1.00  0.00     0.074 A 
ATOM     45  C   UNL A   1      40.986  32.067  30.640  1.00  0.00     0.031 C 
ATOM     46  C   UNL A   1      40.243  25.688  28.099  1.00  0.00     0.029 A 
ATOM     47  C   UNL A   1      41.598  26.045  28.503  1.00  0.00     0.049 A 
ATOM     48  H   UNL A   1      42.231  27.824  29.385  1.00  0.00     0.167 HD
ATOM     49  C   UNL A   1      43.423  31.757  30.991  1.00  0.00     0.037 A 
ATOM     50  C   UNL A   1      42.685  25.261  28.373  1.00  0.00     0.037 A 
ATOM     51  C   UNL A   1      44.633  30.980  30.924  1.00  0.00     0.049 A 
ATOM     52  C   UNL A   1      44.022  25.798  28.804  1.00  0.00     0.074 A 
ATOM     53  C   UNL A   1      45.908  31.332  31.328  1.00  0.00     0.029 A 
ATOM     54  N   UNL A   1      44.715  29.689  30.420  1.00  0.00    -0.354 N 
ATOM     55  N   UNL A   1      44.310  26.968  29.321  1.00  0.00    -0.248 NA
ATOM     56  C   UNL A   1      45.181  24.914  28.626  1.00  0.00     0.031 C 
ATOM     57  C   UNL A   1      46.768  30.267  31.037  1.00  0.00     0.029 A 
ATOM     58  C   UNL A   1      46.021  29.235  30.488  1.00  0.00     0.049 A 
ATOM     59  H   UNL A   1      43.956  29.171  30.066  1.00  0.00     0.167 HD
ATOM     60  C   UNL A   1      45.681  26.958  29.546  1.00  0.00     0.074 A 
ATOM     61  C   UNL A   1      46.162  25.658  29.120  1.00  0.00     0.031 C 
ATOM     62  C   UNL A   1      46.472  27.934  30.058  1.00  0.00     0.037 A 
BRANCH  49  63
ATOM     63  C   UNL A   1      43.491  33.161  31.523  1.00  0.00     0.058 A 
ATOM     64  C   UNL A   1      43.703  34.264  30.683  1.00  0.00     0.135 A 
ATOM     65  C   UNL A   1      43.337  33.404  32.897  1.00  0.00     0.135 A 
ATOM     66  F   UNL A   1      43.877  34.087  29.363  1.00  0.00    -0.206 F 
ATOM     67  C   UNL A   1      43.793  35.558  31.190  1.00  0.00     0.059 A 
ATOM     68  C   UNL A   1      43.398  34.691  33.423  1.00  0.00     0.059 A 
ATOM     69  F   UNL A   1      43.136  32.384  33.747  1.00  0.00    -0.206 F 
ATOM     70  C   UNL A   1      43.644  35.760  32.564  1.00  0.00     0.060 A 
BRANCH  70  71
ATOM     71  S   UNL A   1      43.775  37.440  33.211  1.00  0.00     0.124 S 
ATOM     72  O   UNL A   1      43.794  38.225  31.981  1.00  0.00    -0.237 OA
ATOM     73  O   UNL A   1      42.567  37.561  34.021  1.00  0.00    -0.237 OA
ATOM     74  O   UNL A   1      45.028  37.418  33.960  1.00  0.00    -0.744 OA
ENDBRANCH  70  71
ENDBRANCH  49  63
BRANCH  50  75
ATOM     75  C   UNL A   1      42.551  23.903  27.783  1.00  0.00     0.058 A 
ATOM     76  C   UNL A   1      42.554  23.714  26.394  1.00  0.00     0.135 A 
ATOM     77  C   UNL A   1      42.445  22.764  28.598  1.00  0.00     0.135 A 
ATOM     78  F   UNL A   1      42.643  24.771  25.574  1.00  0.00    -0.206 F 
ATOM     79  C   UNL A   1      42.453  22.445  25.832  1.00  0.00     0.059 A 
ATOM     80  C   UNL A   1      42.366  21.483  28.060  1.00  0.00     0.059 A 
ATOM     81  F   UNL A   1      42.448  22.890  29.934  1.00  0.00    -0.206 F 
ATOM     82  C   UNL A   1      42.363  21.334  26.674  1.00  0.00     0.060 A 
BRANCH  82  83
ATOM     83  S   UNL A   1      42.291  19.687  25.937  1.00  0.00     0.124 S 
ATOM     84  O   UNL A   1      43.281  19.799  24.873  1.00  0.00    -0.237 OA
ATOM     85  O   UNL A   1      42.657  18.830  27.061  1.00  0.00    -0.237 OA
ATOM     86  O   UNL A   1      40.902  19.575  25.501  1.00  0.00    -0.744 OA
ENDBRANCH  82  83
ENDBRANCH  50  75
BRANCH  62  87
ATOM     87  C   UNL A   1      47.933  27.620  30.209  1.00  0.00     0.058 A 
ATOM     88  C   UNL A   1      48.453  27.102  31.404  1.00  0.00     0.135 A 
ATOM     89  C   UNL A   1      48.812  27.794  29.127  1.00  0.00     0.135 A 
ATOM     90  F   UNL A   1      47.654  26.926  32.469  1.00  0.00    -0.206 F 
ATOM     91  C   UNL A   1      49.801  26.785  31.530  1.00  0.00     0.059 A 
ATOM     92  C   UNL A   1      50.159  27.462  29.224  1.00  0.00     0.059 A 
ATOM     93  F   UNL A   1      48.360  28.277  27.960  1.00  0.00    -0.206 F 
ATOM     94  C   UNL A   1      50.646  26.968  30.434  1.00  0.00     0.060 A 
BRANCH  94  95
ATOM     95  S   UNL A   1      52.388  26.522  30.597  1.00  0.00     0.124 S 
ATOM     96  O   UNL A   1      52.773  26.331  29.204  1.00  0.00    -0.237 OA
ATOM     97  O   UNL A   1      52.952  27.694  31.258  1.00  0.00    -0.237 OA
ATOM     98  O   UNL A   1      52.352  25.310  31.411  1.00  0.00    -0.744 OA
ENDBRANCH  94  95
ENDBRANCH  62  87
ENDBRANCH  36  37
ENDBRANCH  29  31
ENDBRANCH  28  29
ENDBRANCH  27  28
ENDBRANCH   1  27
TORSDOF 19
ENDMDL
MODEL 3
REMARK VINA RESULT:     -10.7      3.398      9.218
REMARK SMILES Cc1c(Cl)cccc1NC(=O)C[C@H](C(=O)OCCOC(=O)c1ccc(-c2c3nc(c(-c4c(F)cc(S(=O)(=O)[O-])cc4F)c4ccc([nH]4)c(-c4c(F)cc(S(=O)(=O)[O-])cc4F)c4nc(c(-c5c(F)cc(S(=O)(=O)[O-])cc5F)c5ccc2[nH]5)C=C4)C=C3)cc1)[C@H](C)c1ccccc1
REMARK SMILES IDX 17 1 16 2 14 3 15 4 13 5 12 6 10 7 9 8 11 10 8 11 1 12 2 13
REMARK SMILES IDX 3 14 4 15 5 16 7 17 6 18 88 19 89 20 90 21 91 22 95 23 92 24
REMARK SMILES IDX 94 25 93 26 18 27 19 28 20 29 21 30 22 31 23 32 87 33 24 34
REMARK SMILES IDX 86 35 25 36 26 37 27 38 80 39 28 40 85 41 79 42 81 43 29 44
REMARK SMILES IDX 84 45 78 46 77 47 30 49 64 50 43 51 63 52 44 53 47 54 62 55
REMARK SMILES IDX 82 56 45 57 46 58 61 60 83 61 48 62 31 63 32 64 41 65 33 66
REMARK SMILES IDX 34 67 40 68 42 69 35 70 36 71 37 72 38 73 39 74 65 75 66 76
REMARK SMILES IDX 75 77 67 78 68 79 74 80 76 81 69 82 70 83 71 84 72 85 73 86
REMARK SMILES IDX 49 87 50 88 59 89 51 90 52 91 58 92 60 93 53 94 54 95 55 96
REMARK SMILES IDX 56 97 57 98
REMARK H PARENT 9 9 81 48 47 59
REMARK Flexibility Score: inf
ROOT
ATOM      1  C   UNL A   1      35.341  23.919  26.350  1.00  0.00     0.274 C 
ENDROOT
BRANCH   1   2
ATOM      2  O   UNL A   1      33.996  23.397  26.314  1.00  0.00    -0.462 OA
BRANCH   2   3
ATOM      3  C   UNL A   1      33.354  23.435  25.114  1.00  0.00     0.310 C 
ATOM      4  O   UNL A   1      33.565  24.272  24.247  1.00  0.00    -0.252 OA
BRANCH   3   5
ATOM      5  C   UNL A   1      32.304  22.326  24.975  1.00  0.00     0.116 C 
BRANCH   5   6
ATOM      6  C   UNL A   1      30.901  22.938  25.203  1.00  0.00     0.116 C 
BRANCH   6   7
ATOM      7  C   UNL A   1      30.548  23.727  26.437  1.00  0.00     0.225 C 
ATOM      8  N   UNL A   1      30.489  25.089  26.478  1.00  0.00    -0.326 N 
ATOM      9  H   UNL A   1      30.406  25.463  27.385  1.00  0.00     0.169 HD
ATOM     10  O   UNL A   1      30.253  23.127  27.477  1.00  0.00    -0.275 OA
BRANCH   8  11
ATOM     11  C   UNL A   1      30.524  26.056  25.456  1.00  0.00     0.045 A 
ATOM     12  C   UNL A   1      32.762  26.914  26.388  1.00  0.00     0.048 C 
ATOM     13  C   UNL A   1      31.595  26.984  25.433  1.00  0.00    -0.009 A 
ATOM     14  C   UNL A   1      31.494  28.090  24.561  1.00  0.00     0.046 A 
ATOM     15  Cl  UNL A   1      32.666  29.366  24.570  1.00  0.00    -0.084 Cl
ATOM     16  C   UNL A   1      30.414  28.231  23.689  1.00  0.00     0.021 A 
ATOM     17  C   UNL A   1      29.505  26.159  24.507  1.00  0.00     0.026 A 
ATOM     18  C   UNL A   1      29.440  27.245  23.636  1.00  0.00     0.004 A 
ENDBRANCH   8  11
ENDBRANCH   6   7
ENDBRANCH   5   6
BRANCH   5  19
ATOM     19  C   UNL A   1      32.745  21.459  23.761  1.00  0.00     0.031 C 
ATOM     20  C   UNL A   1      32.061  21.645  22.414  1.00  0.00     0.013 C 
BRANCH  19  21
ATOM     21  C   UNL A   1      32.706  19.973  24.137  1.00  0.00    -0.044 A 
ATOM     22  C   UNL A   1      32.505  19.007  23.139  1.00  0.00     0.004 A 
ATOM     23  C   UNL A   1      32.876  19.543  25.463  1.00  0.00     0.004 A 
ATOM     24  C   UNL A   1      32.433  17.652  23.465  1.00  0.00     0.000 A 
ATOM     25  C   UNL A   1      32.792  18.189  25.788  1.00  0.00     0.000 A 
ATOM     26  C   UNL A   1      32.565  17.244  24.791  1.00  0.00     0.000 A 
ENDBRANCH  19  21
ENDBRANCH   5  19
ENDBRANCH   3   5
ENDBRANCH   2   3
ENDBRANCH   1   2
BRANCH   1  27
ATOM     27  C   UNL A   1      36.339  22.883  25.830  1.00  0.00     0.275 C 
BRANCH  27  28
ATOM     28  O   UNL A   1      37.524  23.545  25.362  1.00  0.00    -0.458 OA
BRANCH  28  29
ATOM     29  C   UNL A   1      38.689  23.156  25.929  1.00  0.00     0.338 C 
ATOM     30  O   UNL A   1      39.278  22.103  25.774  1.00  0.00    -0.246 OA
BRANCH  29  31
ATOM     31  C   UNL A   1      39.210  24.286  26.706  1.00  0.00     0.060 A 
ATOM     32  C   UNL A   1      38.825  24.408  28.043  1.00  0.00     0.016 A 
ATOM     33  C   UNL A   1      40.036  25.238  26.113  1.00  0.00     0.016 A 
ATOM     34  C   UNL A   1      39.244  25.495  28.797  1.00  0.00     0.010 A 
ATOM     35  C   UNL A   1      40.492  26.311  26.884  1.00  0.00     0.010 A 
ATOM     36  C   UNL A   1      40.091  26.449  28.226  1.00  0.00    -0.014 A 
BRANCH  36  37
ATOM     37  C   UNL A   1      40.531  27.611  29.028  1.00  0.00     0.031 A 
ATOM     38  C   UNL A   1      41.856  27.564  29.728  1.00  0.00     0.074 A 
ATOM     39  C   UNL A   1      39.743  28.698  29.115  1.00  0.00     0.049 A 
ATOM     40  N   UNL A   1      42.364  28.402  30.591  1.00  0.00    -0.248 NA
ATOM     41  C   UNL A   1      42.721  26.413  29.420  1.00  0.00     0.031 C 
ATOM     42  C   UNL A   1      38.462  28.872  28.425  1.00  0.00     0.029 A 
ATOM     43  N   UNL A   1      39.897  29.859  29.828  1.00  0.00    -0.354 N 
ATOM     44  C   UNL A   1      43.594  27.867  30.956  1.00  0.00     0.074 A 
ATOM     45  C   UNL A   1      43.750  26.626  30.228  1.00  0.00     0.031 C 
ATOM     46  C   UNL A   1      37.945  30.066  28.754  1.00  0.00     0.029 A 
ATOM     47  C   UNL A   1      38.828  30.715  29.717  1.00  0.00     0.049 A 
ATOM     48  H   UNL A   1      40.696  30.058  30.366  1.00  0.00     0.167 HD
ATOM     49  C   UNL A   1      44.504  28.370  31.823  1.00  0.00     0.037 A 
ATOM     50  C   UNL A   1      38.574  31.874  30.353  1.00  0.00     0.037 A 
ATOM     51  C   UNL A   1      44.337  29.617  32.524  1.00  0.00     0.049 A 
ATOM     52  C   UNL A   1      39.576  32.388  31.349  1.00  0.00     0.074 A 
ATOM     53  C   UNL A   1      45.195  30.224  33.422  1.00  0.00     0.029 A 
ATOM     54  N   UNL A   1      43.233  30.450  32.400  1.00  0.00    -0.354 N 
ATOM     55  N   UNL A   1      40.722  31.862  31.711  1.00  0.00    -0.248 NA
ATOM     56  C   UNL A   1      39.248  33.647  32.032  1.00  0.00     0.031 C 
ATOM     57  C   UNL A   1      44.595  31.407  33.868  1.00  0.00     0.029 A 
ATOM     58  C   UNL A   1      43.380  31.558  33.217  1.00  0.00     0.049 A 
ATOM     59  H   UNL A   1      42.458  30.278  31.816  1.00  0.00     0.167 HD
ATOM     60  C   UNL A   1      41.261  32.731  32.651  1.00  0.00     0.074 A 
ATOM     61  C   UNL A   1      40.320  33.825  32.793  1.00  0.00     0.031 C 
ATOM     62  C   UNL A   1      42.427  32.634  33.337  1.00  0.00     0.037 A 
BRANCH  49  63
ATOM     63  C   UNL A   1      45.735  27.549  32.087  1.00  0.00     0.058 A 
ATOM     64  C   UNL A   1      45.758  26.537  33.059  1.00  0.00     0.135 A 
ATOM     65  C   UNL A   1      46.909  27.778  31.352  1.00  0.00     0.135 A 
ATOM     66  F   UNL A   1      44.669  26.290  33.804  1.00  0.00    -0.206 F 
ATOM     67  C   UNL A   1      46.911  25.801  33.315  1.00  0.00     0.059 A 
ATOM     68  C   UNL A   1      48.066  27.039  31.574  1.00  0.00     0.059 A 
ATOM     69  F   UNL A   1      46.943  28.738  30.413  1.00  0.00    -0.206 F 
ATOM     70  C   UNL A   1      48.063  26.065  32.570  1.00  0.00     0.060 A 
BRANCH  70  71
ATOM     71  S   UNL A   1      49.557  25.113  32.921  1.00  0.00     0.124 S 
ATOM     72  O   UNL A   1      49.988  24.743  31.576  1.00  0.00    -0.237 OA
ATOM     73  O   UNL A   1      50.398  26.088  33.608  1.00  0.00    -0.237 OA
ATOM     74  O   UNL A   1      49.073  24.014  33.750  1.00  0.00    -0.744 OA
ENDBRANCH  70  71
ENDBRANCH  49  63
BRANCH  50  75
ATOM     75  C   UNL A   1      37.307  32.604  30.083  1.00  0.00     0.058 A 
ATOM     76  C   UNL A   1      37.269  33.679  29.184  1.00  0.00     0.135 A 
ATOM     77  C   UNL A   1      36.104  32.224  30.700  1.00  0.00     0.135 A 
ATOM     78  F   UNL A   1      38.393  34.086  28.578  1.00  0.00    -0.206 F 
ATOM     79  C   UNL A   1      36.084  34.354  28.907  1.00  0.00     0.059 A 
ATOM     80  C   UNL A   1      34.903  32.868  30.421  1.00  0.00     0.059 A 
ATOM     81  F   UNL A   1      36.085  31.194  31.560  1.00  0.00    -0.206 F 
ATOM     82  C   UNL A   1      34.904  33.938  29.528  1.00  0.00     0.060 A 
BRANCH  82  83
ATOM     83  S   UNL A   1      33.361  34.782  29.118  1.00  0.00     0.124 S 
ATOM     84  O   UNL A   1      32.747  34.926  30.433  1.00  0.00    -0.237 OA
ATOM     85  O   UNL A   1      33.839  36.015  28.499  1.00  0.00    -0.237 OA
ATOM     86  O   UNL A   1      32.700  33.849  28.210  1.00  0.00    -0.744 OA
ENDBRANCH  82  83
ENDBRANCH  50  75
BRANCH  62  87
ATOM     87  C   UNL A   1      42.760  33.755  34.279  1.00  0.00     0.058 A 
ATOM     88  C   UNL A   1      42.507  33.656  35.656  1.00  0.00     0.135 A 
ATOM     89  C   UNL A   1      43.385  34.919  33.804  1.00  0.00     0.135 A 
ATOM     90  F   UNL A   1      41.904  32.567  36.156  1.00  0.00    -0.206 F 
ATOM     91  C   UNL A   1      42.844  34.685  36.529  1.00  0.00     0.059 A 
ATOM     92  C   UNL A   1      43.751  35.951  34.663  1.00  0.00     0.059 A 
ATOM     93  F   UNL A   1      43.656  35.057  32.497  1.00  0.00    -0.206 F 
ATOM     94  C   UNL A   1      43.466  35.828  36.023  1.00  0.00     0.060 A 
BRANCH  94  95
ATOM     95  S   UNL A   1      43.930  37.143  37.170  1.00  0.00     0.124 S 
ATOM     96  O   UNL A   1      45.015  36.514  37.914  1.00  0.00    -0.237 OA
ATOM     97  O   UNL A   1      44.321  38.223  36.268  1.00  0.00    -0.237 OA
ATOM     98  O   UNL A   1      42.704  37.381  37.927  1.00  0.00    -0.744 OA
ENDBRANCH  94  95
ENDBRANCH  62  87
ENDBRANCH  36  37
ENDBRANCH  29  31
ENDBRANCH  28  29
ENDBRANCH  27  28
ENDBRANCH   1  27
TORSDOF 19
ENDMDL
