MODEL 1
REMARK VINA RESULT:     -10.6      0.000      0.000
REMARK SMILES CCCc1cc(OC(F)(F)F)cc2c1O[C@@H](C(F)(F)F)C(C(=O)OCCOC(=O)c1ccc(-c3c4nc(c(-c5c(F)cc(S(=O)(=O)[O-])cc5F)c5ccc([nH]5)c(-c5c(F)cc(S(=O)(=O)[O-])cc5F)c5nc(c(-c6c(F)cc(S(=O)(=O)[O-])cc6F)c6ccc3[nH]6)C=C5)C=C4)cc1)=C2
REMARK SMILES IDX 26 1 25 2 24 3 22 4 23 5 21 6 4 7 5 8 14 9 6 10 13 11 15 12
REMARK SMILES IDX 12 13 96 14 16 15 3 16 2 17 1 18 7 19 8 20 9 21 10 22 11 23
REMARK SMILES IDX 17 24 18 25 19 26 20 27 27 28 28 29 29 30 30 31 31 32 95 33
REMARK SMILES IDX 32 34 94 35 33 36 34 37 35 38 88 39 36 40 93 41 87 42 89 43
REMARK SMILES IDX 37 44 92 45 86 46 85 47 38 49 72 50 51 51 71 52 52 53 55 54
REMARK SMILES IDX 70 55 90 56 53 57 54 58 69 60 91 61 56 62 39 63 40 64 49 65
REMARK SMILES IDX 41 66 42 67 48 68 50 69 43 70 44 71 45 72 46 73 47 74 73 75
REMARK SMILES IDX 74 76 83 77 75 78 76 79 82 80 84 81 77 82 78 83 79 84 80 85
REMARK SMILES IDX 81 86 57 87 58 88 67 89 59 90 60 91 66 92 68 93 61 94 62 95
REMARK SMILES IDX 63 96 64 97 65 98
REMARK H PARENT 89 48 55 59
REMARK Flexibility Score: inf
ROOT
ATOM      1  C   UNL A   1      32.410  29.075  27.222  1.00  0.00     0.275 C 
ENDROOT
BRANCH   1   2
ATOM      2  C   UNL A   1      32.217  28.770  25.733  1.00  0.00     0.275 C 
BRANCH   2   3
ATOM      3  O   UNL A   1      33.162  27.788  25.255  1.00  0.00    -0.459 OA
BRANCH   3   4
ATOM      4  C   UNL A   1      32.677  26.893  24.354  1.00  0.00     0.338 C 
ATOM      5  O   UNL A   1      31.940  27.166  23.427  1.00  0.00    -0.246 OA
BRANCH   4   6
ATOM      6  C   UNL A   1      33.170  25.517  24.612  1.00  0.00     0.087 C 
ATOM      7  C   UNL A   1      34.390  21.629  25.642  1.00  0.00    -0.002 A 
ATOM      8  C   UNL A   1      35.759  21.331  25.631  1.00  0.00     0.054 A 
ATOM      9  C   UNL A   1      34.006  22.947  25.349  1.00  0.00     0.131 A 
ATOM     10  C   UNL A   1      36.711  22.273  25.232  1.00  0.00     0.130 A 
ATOM     11  C   UNL A   1      34.937  23.904  24.924  1.00  0.00     0.021 A 
ATOM     12  O   UNL A   1      32.711  23.297  25.615  1.00  0.00    -0.475 OA
ATOM     13  C   UNL A   1      36.289  23.550  24.850  1.00  0.00     0.058 A 
ATOM     14  C   UNL A   1      34.491  25.267  24.635  1.00  0.00     0.027 C 
ATOM     15  C   UNL A   1      32.163  24.404  24.853  1.00  0.00     0.316 C 
BRANCH   7  16
ATOM     16  C   UNL A   1      33.373  20.571  26.024  1.00  0.00     0.039 C 
BRANCH  16  17
ATOM     17  C   UNL A   1      32.682  19.827  24.865  1.00  0.00     0.001 C 
ATOM     18  C   UNL A   1      32.681  18.307  24.969  1.00  0.00     0.004 C 
ENDBRANCH  16  17
ENDBRANCH   7  16
BRANCH  10  19
ATOM     19  O   UNL A   1      38.063  22.071  25.189  1.00  0.00    -0.406 OA
BRANCH  19  20
ATOM     20  C   UNL A   1      38.843  22.631  26.235  1.00  0.00     0.573 C 
ATOM     21  F   UNL A   1      39.396  21.668  27.005  1.00  0.00    -0.132 F 
ATOM     22  F   UNL A   1      39.814  23.432  25.747  1.00  0.00    -0.132 F 
ATOM     23  F   UNL A   1      38.040  23.380  27.023  1.00  0.00    -0.132 F 
ENDBRANCH  19  20
ENDBRANCH  10  19
BRANCH  15  24
ATOM     24  C   UNL A   1      30.803  24.753  25.492  1.00  0.00     0.430 C 
ATOM     25  F   UNL A   1      29.883  25.112  24.571  1.00  0.00    -0.167 F 
ATOM     26  F   UNL A   1      30.288  23.658  26.114  1.00  0.00    -0.167 F 
ATOM     27  F   UNL A   1      30.903  25.725  26.423  1.00  0.00    -0.167 F 
ENDBRANCH  15  24
ENDBRANCH   4   6
ENDBRANCH   3   4
ENDBRANCH   2   3
ENDBRANCH   1   2
BRANCH   1  28
ATOM     28  O   UNL A   1      33.778  28.905  27.635  1.00  0.00    -0.458 OA
BRANCH  28  29
ATOM     29  C   UNL A   1      34.437  30.056  27.911  1.00  0.00     0.338 C 
ATOM     30  O   UNL A   1      33.943  31.167  28.031  1.00  0.00    -0.246 OA
BRANCH  29  31
ATOM     31  C   UNL A   1      35.841  29.765  28.262  1.00  0.00     0.060 A 
ATOM     32  C   UNL A   1      36.776  29.867  27.229  1.00  0.00     0.016 A 
ATOM     33  C   UNL A   1      36.252  29.389  29.541  1.00  0.00     0.016 A 
ATOM     34  C   UNL A   1      38.135  29.688  27.478  1.00  0.00     0.010 A 
ATOM     35  C   UNL A   1      37.612  29.143  29.779  1.00  0.00     0.010 A 
ATOM     36  C   UNL A   1      38.562  29.309  28.754  1.00  0.00    -0.014 A 
BRANCH  36  37
ATOM     37  C   UNL A   1      39.986  28.961  28.973  1.00  0.00     0.031 A 
ATOM     38  C   UNL A   1      40.909  30.008  29.523  1.00  0.00     0.074 A 
ATOM     39  C   UNL A   1      40.443  27.721  28.717  1.00  0.00     0.049 A 
ATOM     40  N   UNL A   1      42.202  29.957  29.712  1.00  0.00    -0.248 NA
ATOM     41  C   UNL A   1      40.288  31.280  29.926  1.00  0.00     0.031 C 
ATOM     42  C   UNL A   1      39.624  26.592  28.280  1.00  0.00     0.029 A 
ATOM     43  N   UNL A   1      41.715  27.207  28.784  1.00  0.00    -0.354 N 
ATOM     44  C   UNL A   1      42.552  31.189  30.253  1.00  0.00     0.074 A 
ATOM     45  C   UNL A   1      41.337  31.969  30.351  1.00  0.00     0.031 C 
ATOM     46  C   UNL A   1      40.420  25.524  28.090  1.00  0.00     0.029 A 
ATOM     47  C   UNL A   1      41.807  25.905  28.348  1.00  0.00     0.049 A 
ATOM     48  H   UNL A   1      42.487  27.722  29.111  1.00  0.00     0.167 HD
ATOM     49  C   UNL A   1      43.776  31.628  30.625  1.00  0.00     0.037 A 
ATOM     50  C   UNL A   1      42.892  25.128  28.147  1.00  0.00     0.037 A 
ATOM     51  C   UNL A   1      44.983  30.853  30.496  1.00  0.00     0.049 A 
ATOM     52  C   UNL A   1      44.264  25.685  28.447  1.00  0.00     0.074 A 
ATOM     53  C   UNL A   1      46.278  31.222  30.813  1.00  0.00     0.029 A 
ATOM     54  N   UNL A   1      45.045  29.560  29.998  1.00  0.00    -0.354 N 
ATOM     55  N   UNL A   1      44.589  26.859  28.938  1.00  0.00    -0.248 NA
ATOM     56  C   UNL A   1      45.417  24.818  28.163  1.00  0.00     0.031 C 
ATOM     57  C   UNL A   1      47.130  30.174  30.452  1.00  0.00     0.029 A 
ATOM     58  C   UNL A   1      46.360  29.125  29.975  1.00  0.00     0.049 A 
ATOM     59  H   UNL A   1      44.270  29.030  29.703  1.00  0.00     0.167 HD
ATOM     60  C   UNL A   1      45.976  26.851  29.062  1.00  0.00     0.074 A 
ATOM     61  C   UNL A   1      46.429  25.560  28.591  1.00  0.00     0.031 C 
ATOM     62  C   UNL A   1      46.797  27.824  29.532  1.00  0.00     0.037 A 
BRANCH  49  63
ATOM     63  C   UNL A   1      43.878  33.030  31.157  1.00  0.00     0.058 A 
ATOM     64  C   UNL A   1      43.813  33.310  32.531  1.00  0.00     0.135 A 
ATOM     65  C   UNL A   1      44.068  34.108  30.277  1.00  0.00     0.135 A 
ATOM     66  F   UNL A   1      43.610  32.319  33.415  1.00  0.00    -0.206 F 
ATOM     67  C   UNL A   1      43.908  34.611  33.012  1.00  0.00     0.059 A 
ATOM     68  C   UNL A   1      44.196  35.414  30.738  1.00  0.00     0.059 A 
ATOM     69  F   UNL A   1      44.133  33.897  28.952  1.00  0.00    -0.206 F 
ATOM     70  C   UNL A   1      44.100  35.657  32.107  1.00  0.00     0.060 A 
BRANCH  70  71
ATOM     71  S   UNL A   1      44.219  37.340  32.747  1.00  0.00     0.124 S 
ATOM     72  O   UNL A   1      45.535  37.319  33.380  1.00  0.00    -0.237 OA
ATOM     73  O   UNL A   1      44.113  38.143  31.532  1.00  0.00    -0.237 OA
ATOM     74  O   UNL A   1      43.086  37.439  33.662  1.00  0.00    -0.744 OA
ENDBRANCH  70  71
ENDBRANCH  49  63
BRANCH  50  75
ATOM     75  C   UNL A   1      42.741  23.751  27.596  1.00  0.00     0.058 A 
ATOM     76  C   UNL A   1      42.490  22.655  28.434  1.00  0.00     0.135 A 
ATOM     77  C   UNL A   1      42.877  23.500  26.221  1.00  0.00     0.135 A 
ATOM     78  F   UNL A   1      42.370  22.836  29.759  1.00  0.00    -0.206 F 
ATOM     79  C   UNL A   1      42.399  21.358  27.934  1.00  0.00     0.059 A 
ATOM     80  C   UNL A   1      42.761  22.218  25.693  1.00  0.00     0.059 A 
ATOM     81  F   UNL A   1      43.117  24.512  25.372  1.00  0.00    -0.206 F 
ATOM     82  C   UNL A   1      42.535  21.150  26.561  1.00  0.00     0.060 A 
BRANCH  82  83
ATOM     83  S   UNL A   1      42.391  19.467  25.920  1.00  0.00     0.124 S 
ATOM     84  O   UNL A   1      43.304  19.505  24.784  1.00  0.00    -0.237 OA
ATOM     85  O   UNL A   1      42.823  18.667  27.060  1.00  0.00    -0.237 OA
ATOM     86  O   UNL A   1      40.974  19.354  25.584  1.00  0.00    -0.744 OA
ENDBRANCH  82  83
ENDBRANCH  50  75
BRANCH  62  87
ATOM     87  C   UNL A   1      48.270  27.522  29.633  1.00  0.00     0.058 A 
ATOM     88  C   UNL A   1      49.186  27.934  28.655  1.00  0.00     0.135 A 
ATOM     89  C   UNL A   1      48.779  26.897  30.785  1.00  0.00     0.135 A 
ATOM     90  F   UNL A   1      48.755  28.530  27.532  1.00  0.00    -0.206 F 
ATOM     91  C   UNL A   1      50.555  27.732  28.811  1.00  0.00     0.059 A 
ATOM     92  C   UNL A   1      50.144  26.712  30.976  1.00  0.00     0.059 A 
ATOM     93  F   UNL A   1      47.946  26.491  31.758  1.00  0.00    -0.206 F 
ATOM     94  C   UNL A   1      51.025  27.130  29.981  1.00  0.00     0.060 A 
BRANCH  94  95
ATOM     95  S   UNL A   1      52.807  26.941  30.202  1.00  0.00     0.124 S 
ATOM     96  O   UNL A   1      52.874  26.197  31.455  1.00  0.00    -0.237 OA
ATOM     97  O   UNL A   1      53.193  26.201  29.004  1.00  0.00    -0.237 OA
ATOM     98  O   UNL A   1      53.292  28.317  30.264  1.00  0.00    -0.744 OA
ENDBRANCH  94  95
ENDBRANCH  62  87
ENDBRANCH  36  37
ENDBRANCH  29  31
ENDBRANCH  28  29
ENDBRANCH   1  28
TORSDOF 19
ENDMDL
MODEL 2
REMARK VINA RESULT:     -10.5      4.938     10.544
REMARK SMILES CCCc1cc(OC(F)(F)F)cc2c1O[C@@H](C(F)(F)F)C(C(=O)OCCOC(=O)c1ccc(-c3c4nc(c(-c5c(F)cc(S(=O)(=O)[O-])cc5F)c5ccc([nH]5)c(-c5c(F)cc(S(=O)(=O)[O-])cc5F)c5nc(c(-c6c(F)cc(S(=O)(=O)[O-])cc6F)c6ccc3[nH]6)C=C5)C=C4)cc1)=C2
REMARK SMILES IDX 26 1 25 2 24 3 22 4 23 5 21 6 4 7 5 8 14 9 6 10 13 11 15 12
REMARK SMILES IDX 12 13 96 14 16 15 3 16 2 17 1 18 7 19 8 20 9 21 10 22 11 23
REMARK SMILES IDX 17 24 18 25 19 26 20 27 27 28 28 29 29 30 30 31 31 32 95 33
REMARK SMILES IDX 32 34 94 35 33 36 34 37 35 38 88 39 36 40 93 41 87 42 89 43
REMARK SMILES IDX 37 44 92 45 86 46 85 47 38 49 72 50 51 51 71 52 52 53 55 54
REMARK SMILES IDX 70 55 90 56 53 57 54 58 69 60 91 61 56 62 39 63 40 64 49 65
REMARK SMILES IDX 41 66 42 67 48 68 50 69 43 70 44 71 45 72 46 73 47 74 73 75
REMARK SMILES IDX 74 76 83 77 75 78 76 79 82 80 84 81 77 82 78 83 79 84 80 85
REMARK SMILES IDX 81 86 57 87 58 88 67 89 59 90 60 91 66 92 68 93 61 94 62 95
REMARK SMILES IDX 63 96 64 97 65 98
REMARK H PARENT 89 48 55 59
REMARK Flexibility Score: inf
ROOT
ATOM      1  C   UNL A   1      38.263  23.117  26.104  1.00  0.00     0.275 C 
ENDROOT
BRANCH   1   2
ATOM      2  C   UNL A   1      36.935  23.071  25.341  1.00  0.00     0.275 C 
BRANCH   2   3
ATOM      3  O   UNL A   1      36.045  24.136  25.739  1.00  0.00    -0.459 OA
BRANCH   3   4
ATOM      4  C   UNL A   1      34.727  23.933  25.476  1.00  0.00     0.338 C 
ATOM      5  O   UNL A   1      34.192  22.845  25.397  1.00  0.00    -0.246 OA
BRANCH   4   6
ATOM      6  C   UNL A   1      33.986  25.208  25.311  1.00  0.00     0.087 C 
ATOM      7  C   UNL A   1      32.029  28.844  24.529  1.00  0.00    -0.002 A 
ATOM      8  C   UNL A   1      32.171  29.893  25.448  1.00  0.00     0.054 A 
ATOM      9  C   UNL A   1      32.734  27.657  24.779  1.00  0.00     0.131 A 
ATOM     10  C   UNL A   1      32.893  29.736  26.633  1.00  0.00     0.130 A 
ATOM     11  C   UNL A   1      33.446  27.466  25.970  1.00  0.00     0.021 A 
ATOM     12  O   UNL A   1      32.806  26.744  23.764  1.00  0.00    -0.475 OA
ATOM     13  C   UNL A   1      33.504  28.508  26.902  1.00  0.00     0.058 A 
ATOM     14  C   UNL A   1      34.172  26.213  26.185  1.00  0.00     0.027 C 
ATOM     15  C   UNL A   1      33.026  25.360  24.143  1.00  0.00     0.316 C 
BRANCH   7  16
ATOM     16  C   UNL A   1      31.191  29.023  23.277  1.00  0.00     0.039 C 
BRANCH  16  17
ATOM     17  C   UNL A   1      29.864  29.788  23.438  1.00  0.00     0.001 C 
ATOM     18  C   UNL A   1      28.761  29.403  22.459  1.00  0.00     0.004 C 
ENDBRANCH  16  17
ENDBRANCH   7  16
BRANCH  10  19
ATOM     19  O   UNL A   1      33.083  30.701  27.583  1.00  0.00    -0.406 OA
BRANCH  19  20
ATOM     20  C   UNL A   1      34.405  31.181  27.777  1.00  0.00     0.573 C 
ATOM     21  F   UNL A   1      35.316  30.352  27.221  1.00  0.00    -0.132 F 
ATOM     22  F   UNL A   1      34.555  32.423  27.269  1.00  0.00    -0.132 F 
ATOM     23  F   UNL A   1      34.657  31.239  29.104  1.00  0.00    -0.132 F 
ENDBRANCH  19  20
ENDBRANCH  10  19
BRANCH  15  24
ATOM     24  C   UNL A   1      33.303  24.581  22.840  1.00  0.00     0.430 C 
ATOM     25  F   UNL A   1      32.961  25.287  21.741  1.00  0.00    -0.167 F 
ATOM     26  F   UNL A   1      34.635  24.340  22.719  1.00  0.00    -0.167 F 
ATOM     27  F   UNL A   1      32.680  23.385  22.811  1.00  0.00    -0.167 F 
ENDBRANCH  15  24
ENDBRANCH   4   6
ENDBRANCH   3   4
ENDBRANCH   2   3
ENDBRANCH   1   2
BRANCH   1  28
ATOM     28  O   UNL A   1      38.739  24.464  26.277  1.00  0.00    -0.458 OA
BRANCH  28  29
ATOM     29  C   UNL A   1      40.030  24.566  26.674  1.00  0.00     0.338 C 
ATOM     30  O   UNL A   1      40.990  23.993  26.182  1.00  0.00    -0.246 OA
BRANCH  29  31
ATOM     31  C   UNL A   1      40.170  25.641  27.676  1.00  0.00     0.060 A 
ATOM     32  C   UNL A   1      39.210  25.676  28.691  1.00  0.00     0.016 A 
ATOM     33  C   UNL A   1      41.182  26.599  27.639  1.00  0.00     0.016 A 
ATOM     34  C   UNL A   1      39.302  26.603  29.726  1.00  0.00     0.010 A 
ATOM     35  C   UNL A   1      41.238  27.576  28.643  1.00  0.00     0.010 A 
ATOM     36  C   UNL A   1      40.310  27.572  29.701  1.00  0.00    -0.014 A 
BRANCH  36  37
ATOM     37  C   UNL A   1      40.305  28.655  30.713  1.00  0.00     0.031 A 
ATOM     38  C   UNL A   1      41.267  28.575  31.862  1.00  0.00     0.074 A 
ATOM     39  C   UNL A   1      39.479  29.712  30.593  1.00  0.00     0.049 A 
ATOM     40  N   UNL A   1      41.381  29.355  32.904  1.00  0.00    -0.248 NA
ATOM     41  C   UNL A   1      42.241  27.472  31.822  1.00  0.00     0.031 C 
ATOM     42  C   UNL A   1      38.575  29.955  29.470  1.00  0.00     0.029 A 
ATOM     43  N   UNL A   1      39.265  30.777  31.433  1.00  0.00    -0.354 N 
ATOM     44  C   UNL A   1      42.435  28.838  33.648  1.00  0.00     0.074 A 
ATOM     45  C   UNL A   1      42.920  27.672  32.942  1.00  0.00     0.031 C 
ATOM     46  C   UNL A   1      37.881  31.083  29.705  1.00  0.00     0.029 A 
ATOM     47  C   UNL A   1      38.260  31.617  31.013  1.00  0.00     0.049 A 
ATOM     48  H   UNL A   1      39.781  30.924  32.259  1.00  0.00     0.167 HD
ATOM     49  C   UNL A   1      42.945  29.294  34.816  1.00  0.00     0.037 A 
ATOM     50  C   UNL A   1      37.689  32.672  31.632  1.00  0.00     0.037 A 
ATOM     51  C   UNL A   1      42.435  30.439  35.525  1.00  0.00     0.049 A 
ATOM     52  C   UNL A   1      38.188  33.084  32.997  1.00  0.00     0.074 A 
ATOM     53  C   UNL A   1      42.861  30.960  36.733  1.00  0.00     0.029 A 
ATOM     54  N   UNL A   1      41.380  31.231  35.097  1.00  0.00    -0.354 N 
ATOM     55  N   UNL A   1      39.172  32.577  33.705  1.00  0.00    -0.248 NA
ATOM     56  C   UNL A   1      37.500  34.206  33.653  1.00  0.00     0.031 C 
ATOM     57  C   UNL A   1      42.026  32.031  37.065  1.00  0.00     0.029 A 
ATOM     58  C   UNL A   1      41.125  32.221  36.030  1.00  0.00     0.049 A 
ATOM     59  H   UNL A   1      40.885  31.107  34.255  1.00  0.00     0.167 HD
ATOM     60  C   UNL A   1      39.247  33.346  34.863  1.00  0.00     0.074 A 
ATOM     61  C   UNL A   1      38.208  34.349  34.765  1.00  0.00     0.031 C 
ATOM     62  C   UNL A   1      40.105  33.235  35.908  1.00  0.00     0.037 A 
BRANCH  49  63
ATOM     63  C   UNL A   1      44.078  28.518  35.427  1.00  0.00     0.058 A 
ATOM     64  C   UNL A   1      43.857  27.472  36.337  1.00  0.00     0.135 A 
ATOM     65  C   UNL A   1      45.406  28.813  35.077  1.00  0.00     0.135 A 
ATOM     66  F   UNL A   1      42.608  27.164  36.724  1.00  0.00    -0.206 F 
ATOM     67  C   UNL A   1      44.914  26.762  36.897  1.00  0.00     0.059 A 
ATOM     68  C   UNL A   1      46.477  28.096  35.601  1.00  0.00     0.059 A 
ATOM     69  F   UNL A   1      45.674  29.807  34.215  1.00  0.00    -0.206 F 
ATOM     70  C   UNL A   1      46.221  27.081  36.522  1.00  0.00     0.060 A 
BRANCH  70  71
ATOM     71  S   UNL A   1      47.580  26.152  37.259  1.00  0.00     0.124 S 
ATOM     72  O   UNL A   1      47.129  24.776  37.070  1.00  0.00    -0.237 OA
ATOM     73  O   UNL A   1      48.717  26.563  36.442  1.00  0.00    -0.237 OA
ATOM     74  O   UNL A   1      47.603  26.618  38.642  1.00  0.00    -0.744 OA
ENDBRANCH  70  71
ENDBRANCH  49  63
BRANCH  50  75
ATOM     75  C   UNL A   1      36.552  33.395  30.994  1.00  0.00     0.058 A 
ATOM     76  C   UNL A   1      35.250  33.303  31.508  1.00  0.00     0.135 A 
ATOM     77  C   UNL A   1      36.741  34.169  29.837  1.00  0.00     0.135 A 
ATOM     78  F   UNL A   1      35.010  32.562  32.601  1.00  0.00    -0.206 F 
ATOM     79  C   UNL A   1      34.174  33.934  30.889  1.00  0.00     0.059 A 
ATOM     80  C   UNL A   1      35.687  34.832  29.217  1.00  0.00     0.059 A 
ATOM     81  F   UNL A   1      37.966  34.292  29.302  1.00  0.00    -0.206 F 
ATOM     82  C   UNL A   1      34.403  34.698  29.744  1.00  0.00     0.060 A 
BRANCH  82  83
ATOM     83  S   UNL A   1      33.003  35.531  28.962  1.00  0.00     0.124 S 
ATOM     84  O   UNL A   1      32.492  34.487  28.083  1.00  0.00    -0.237 OA
ATOM     85  O   UNL A   1      32.167  35.866  30.110  1.00  0.00    -0.237 OA
ATOM     86  O   UNL A   1      33.622  36.671  28.291  1.00  0.00    -0.744 OA
ENDBRANCH  82  83
ENDBRANCH  50  75
BRANCH  62  87
ATOM     87  C   UNL A   1      40.018  34.259  37.010  1.00  0.00     0.058 A 
ATOM     88  C   UNL A   1      40.562  35.544  36.881  1.00  0.00     0.135 A 
ATOM     89  C   UNL A   1      39.284  33.972  38.175  1.00  0.00     0.135 A 
ATOM     90  F   UNL A   1      41.278  35.870  35.792  1.00  0.00    -0.206 F 
ATOM     91  C   UNL A   1      40.389  36.509  37.870  1.00  0.00     0.059 A 
ATOM     92  C   UNL A   1      39.073  34.930  39.162  1.00  0.00     0.059 A 
ATOM     93  F   UNL A   1      38.733  32.760  38.346  1.00  0.00    -0.206 F 
ATOM     94  C   UNL A   1      39.633  36.196  39.002  1.00  0.00     0.060 A 
BRANCH  94  95
ATOM     95  S   UNL A   1      39.355  37.479  40.241  1.00  0.00     0.124 S 
ATOM     96  O   UNL A   1      38.478  38.399  39.525  1.00  0.00    -0.237 OA
ATOM     97  O   UNL A   1      38.735  36.731  41.331  1.00  0.00    -0.237 OA
ATOM     98  O   UNL A   1      40.697  37.982  40.520  1.00  0.00    -0.744 OA
ENDBRANCH  94  95
ENDBRANCH  62  87
ENDBRANCH  36  37
ENDBRANCH  29  31
ENDBRANCH  28  29
ENDBRANCH   1  28
TORSDOF 19
ENDMDL
MODEL 3
REMARK VINA RESULT:     -10.4      3.369      9.532
REMARK SMILES CCCc1cc(OC(F)(F)F)cc2c1O[C@@H](C(F)(F)F)C(C(=O)OCCOC(=O)c1ccc(-c3c4nc(c(-c5c(F)cc(S(=O)(=O)[O-])cc5F)c5ccc([nH]5)c(-c5c(F)cc(S(=O)(=O)[O-])cc5F)c5nc(c(-c6c(F)cc(S(=O)(=O)[O-])cc6F)c6ccc3[nH]6)C=C5)C=C4)cc1)=C2
REMARK SMILES IDX 26 1 25 2 24 3 22 4 23 5 21 6 4 7 5 8 14 9 6 10 13 11 15 12
REMARK SMILES IDX 12 13 96 14 16 15 3 16 2 17 1 18 7 19 8 20 9 21 10 22 11 23
REMARK SMILES IDX 17 24 18 25 19 26 20 27 27 28 28 29 29 30 30 31 31 32 95 33
REMARK SMILES IDX 32 34 94 35 33 36 34 37 35 38 88 39 36 40 93 41 87 42 89 43
REMARK SMILES IDX 37 44 92 45 86 46 85 47 38 49 72 50 51 51 71 52 52 53 55 54
REMARK SMILES IDX 70 55 90 56 53 57 54 58 69 60 91 61 56 62 39 63 40 64 49 65
REMARK SMILES IDX 41 66 42 67 48 68 50 69 43 70 44 71 45 72 46 73 47 74 73 75
REMARK SMILES IDX 74 76 83 77 75 78 76 79 82 80 84 81 77 82 78 83 79 84 80 85
REMARK SMILES IDX 81 86 57 87 58 88 67 89 59 90 60 91 66 92 68 93 61 94 62 95
REMARK SMILES IDX 63 96 64 97 65 98
REMARK H PARENT 89 48 55 59
REMARK Flexibility Score: inf
ROOT
ATOM      1  C   UNL A   1      37.107  22.660  24.387  1.00  0.00     0.275 C 
ENDROOT
BRANCH   1   2
ATOM      2  C   UNL A   1      35.576  22.709  24.346  1.00  0.00     0.275 C 
BRANCH   2   3
ATOM      3  O   UNL A   1      35.047  23.792  25.142  1.00  0.00    -0.459 OA
BRANCH   3   4
ATOM      4  C   UNL A   1      33.700  23.783  25.330  1.00  0.00     0.338 C 
ATOM      5  O   UNL A   1      33.041  22.799  25.601  1.00  0.00    -0.246 OA
BRANCH   4   6
ATOM      6  C   UNL A   1      33.107  25.136  25.186  1.00  0.00     0.087 C 
ATOM      7  C   UNL A   1      31.560  28.975  24.462  1.00  0.00    -0.002 A 
ATOM      8  C   UNL A   1      31.844  29.997  25.379  1.00  0.00     0.054 A 
ATOM      9  C   UNL A   1      32.130  27.714  24.692  1.00  0.00     0.131 A 
ATOM     10  C   UNL A   1      32.573  29.752  26.545  1.00  0.00     0.130 A 
ATOM     11  C   UNL A   1      32.846  27.437  25.864  1.00  0.00     0.021 A 
ATOM     12  O   UNL A   1      32.071  26.804  23.673  1.00  0.00    -0.475 OA
ATOM     13  C   UNL A   1      33.046  28.461  26.796  1.00  0.00     0.058 A 
ATOM     14  C   UNL A   1      33.428  26.108  26.058  1.00  0.00     0.027 C 
ATOM     15  C   UNL A   1      32.141  25.402  24.044  1.00  0.00     0.316 C 
BRANCH   7  16
ATOM     16  C   UNL A   1      30.717  29.255  23.232  1.00  0.00     0.039 C 
BRANCH  16  17
ATOM     17  C   UNL A   1      29.314  28.618  23.197  1.00  0.00     0.001 C 
ATOM     18  C   UNL A   1      28.246  29.423  22.468  1.00  0.00     0.004 C 
ENDBRANCH  16  17
ENDBRANCH   7  16
BRANCH  10  19
ATOM     19  O   UNL A   1      32.896  30.684  27.492  1.00  0.00    -0.406 OA
BRANCH  19  20
ATOM     20  C   UNL A   1      34.268  31.019  27.642  1.00  0.00     0.573 C 
ATOM     21  F   UNL A   1      34.659  30.923  28.932  1.00  0.00    -0.132 F 
ATOM     22  F   UNL A   1      35.051  30.234  26.873  1.00  0.00    -0.132 F 
ATOM     23  F   UNL A   1      34.447  32.301  27.250  1.00  0.00    -0.132 F 
ENDBRANCH  19  20
ENDBRANCH  10  19
BRANCH  15  24
ATOM     24  C   UNL A   1      32.295  24.603  22.733  1.00  0.00     0.430 C 
ATOM     25  F   UNL A   1      31.686  25.209  21.691  1.00  0.00    -0.167 F 
ATOM     26  F   UNL A   1      33.608  24.521  22.390  1.00  0.00    -0.167 F 
ATOM     27  F   UNL A   1      31.834  23.339  22.842  1.00  0.00    -0.167 F 
ENDBRANCH  15  24
ENDBRANCH   4   6
ENDBRANCH   3   4
ENDBRANCH   2   3
ENDBRANCH   1   2
BRANCH   1  28
ATOM     28  O   UNL A   1      37.659  23.729  25.177  1.00  0.00    -0.458 OA
BRANCH  28  29
ATOM     29  C   UNL A   1      38.559  23.339  26.111  1.00  0.00     0.338 C 
ATOM     30  O   UNL A   1      39.021  22.217  26.254  1.00  0.00    -0.246 OA
BRANCH  29  31
ATOM     31  C   UNL A   1      39.085  24.516  26.831  1.00  0.00     0.060 A 
ATOM     32  C   UNL A   1      38.673  24.672  28.157  1.00  0.00     0.016 A 
ATOM     33  C   UNL A   1      39.937  25.456  26.250  1.00  0.00     0.016 A 
ATOM     34  C   UNL A   1      39.176  25.707  28.942  1.00  0.00     0.010 A 
ATOM     35  C   UNL A   1      40.392  26.537  27.018  1.00  0.00     0.010 A 
ATOM     36  C   UNL A   1      40.029  26.657  28.372  1.00  0.00    -0.014 A 
BRANCH  36  37
ATOM     37  C   UNL A   1      40.428  27.845  29.165  1.00  0.00     0.031 A 
ATOM     38  C   UNL A   1      41.762  27.839  29.852  1.00  0.00     0.074 A 
ATOM     39  C   UNL A   1      39.630  28.926  29.243  1.00  0.00     0.049 A 
ATOM     40  N   UNL A   1      42.281  28.723  30.662  1.00  0.00    -0.248 NA
ATOM     41  C   UNL A   1      42.635  26.686  29.575  1.00  0.00     0.031 C 
ATOM     42  C   UNL A   1      38.361  29.092  28.537  1.00  0.00     0.029 A 
ATOM     43  N   UNL A   1      39.770  30.088  29.961  1.00  0.00    -0.354 N 
ATOM     44  C   UNL A   1      43.538  28.234  30.998  1.00  0.00     0.074 A 
ATOM     45  C   UNL A   1      43.699  26.971  30.310  1.00  0.00     0.031 C 
ATOM     46  C   UNL A   1      37.823  30.277  28.881  1.00  0.00     0.029 A 
ATOM     47  C   UNL A   1      38.687  30.931  29.863  1.00  0.00     0.049 A 
ATOM     48  H   UNL A   1      40.569  30.298  30.497  1.00  0.00     0.167 HD
ATOM     49  C   UNL A   1      44.468  28.788  31.811  1.00  0.00     0.037 A 
ATOM     50  C   UNL A   1      38.412  32.078  30.518  1.00  0.00     0.037 A 
ATOM     51  C   UNL A   1      44.285  30.031  32.514  1.00  0.00     0.049 A 
ATOM     52  C   UNL A   1      39.409  32.611  31.520  1.00  0.00     0.074 A 
ATOM     53  C   UNL A   1      45.154  30.659  33.388  1.00  0.00     0.029 A 
ATOM     54  N   UNL A   1      43.153  30.829  32.433  1.00  0.00    -0.354 N 
ATOM     55  N   UNL A   1      40.587  32.132  31.849  1.00  0.00    -0.248 NA
ATOM     56  C   UNL A   1      39.041  33.836  32.246  1.00  0.00     0.031 C 
ATOM     57  C   UNL A   1      44.524  31.805  33.881  1.00  0.00     0.029 A 
ATOM     58  C   UNL A   1      43.291  31.929  33.261  1.00  0.00     0.049 A 
ATOM     59  H   UNL A   1      42.367  30.639  31.871  1.00  0.00     0.167 HD
ATOM     60  C   UNL A   1      41.115  33.020  32.782  1.00  0.00     0.074 A 
ATOM     61  C   UNL A   1      40.129  34.062  32.971  1.00  0.00     0.031 C 
ATOM     62  C   UNL A   1      42.313  32.979  33.418  1.00  0.00     0.037 A 
BRANCH  49  63
ATOM     63  C   UNL A   1      45.744  28.023  32.027  1.00  0.00     0.058 A 
ATOM     64  C   UNL A   1      46.853  28.175  31.181  1.00  0.00     0.135 A 
ATOM     65  C   UNL A   1      45.865  27.142  33.115  1.00  0.00     0.135 A 
ATOM     66  F   UNL A   1      46.783  28.986  30.113  1.00  0.00    -0.206 F 
ATOM     67  C   UNL A   1      48.029  27.461  31.389  1.00  0.00     0.059 A 
ATOM     68  C   UNL A   1      47.041  26.441  33.361  1.00  0.00     0.059 A 
ATOM     69  F   UNL A   1      44.832  26.956  33.953  1.00  0.00    -0.206 F 
ATOM     70  C   UNL A   1      48.113  26.597  32.483  1.00  0.00     0.060 A 
BRANCH  70  71
ATOM     71  S   UNL A   1      49.644  25.677  32.739  1.00  0.00     0.124 S 
ATOM     72  O   UNL A   1      50.350  26.543  33.680  1.00  0.00    -0.237 OA
ATOM     73  O   UNL A   1      49.160  24.412  33.283  1.00  0.00    -0.237 OA
ATOM     74  O   UNL A   1      50.225  25.602  31.402  1.00  0.00    -0.744 OA
ENDBRANCH  70  71
ENDBRANCH  49  63
BRANCH  50  75
ATOM     75  C   UNL A   1      37.122  32.789  30.286  1.00  0.00     0.058 A 
ATOM     76  C   UNL A   1      36.936  33.615  29.167  1.00  0.00     0.135 A 
ATOM     77  C   UNL A   1      36.059  32.680  31.197  1.00  0.00     0.135 A 
ATOM     78  F   UNL A   1      37.927  33.769  28.274  1.00  0.00    -0.206 F 
ATOM     79  C   UNL A   1      35.753  34.323  28.970  1.00  0.00     0.059 A 
ATOM     80  C   UNL A   1      34.857  33.354  31.007  1.00  0.00     0.059 A 
ATOM     81  F   UNL A   1      36.182  31.903  32.285  1.00  0.00    -0.206 F 
ATOM     82  C   UNL A   1      34.718  34.184  29.896  1.00  0.00     0.060 A 
BRANCH  82  83
ATOM     83  S   UNL A   1      33.179  35.088  29.617  1.00  0.00     0.124 S 
ATOM     84  O   UNL A   1      33.676  36.390  29.187  1.00  0.00    -0.237 OA
ATOM     85  O   UNL A   1      32.531  34.281  28.590  1.00  0.00    -0.237 OA
ATOM     86  O   UNL A   1      32.532  35.064  30.926  1.00  0.00    -0.744 OA
ENDBRANCH  82  83
ENDBRANCH  50  75
BRANCH  62  87
ATOM     87  C   UNL A   1      42.672  34.121  34.331  1.00  0.00     0.058 A 
ATOM     88  C   UNL A   1      42.388  34.100  35.704  1.00  0.00     0.135 A 
ATOM     89  C   UNL A   1      43.405  35.213  33.832  1.00  0.00     0.135 A 
ATOM     90  F   UNL A   1      41.685  33.085  36.233  1.00  0.00    -0.206 F 
ATOM     91  C   UNL A   1      42.813  35.121  36.551  1.00  0.00     0.059 A 
ATOM     92  C   UNL A   1      43.865  36.228  34.664  1.00  0.00     0.059 A 
ATOM     93  F   UNL A   1      43.713  35.279  32.527  1.00  0.00    -0.206 F 
ATOM     94  C   UNL A   1      43.561  36.176  36.022  1.00  0.00     0.060 A 
BRANCH  94  95
ATOM     95  S   UNL A   1      44.167  37.455  37.143  1.00  0.00     0.124 S 
ATOM     96  O   UNL A   1      43.040  37.608  38.056  1.00  0.00    -0.237 OA
ATOM     97  O   UNL A   1      45.361  36.832  37.709  1.00  0.00    -0.237 OA
ATOM     98  O   UNL A   1      44.419  38.591  36.262  1.00  0.00    -0.744 OA
ENDBRANCH  94  95
ENDBRANCH  62  87
ENDBRANCH  36  37
ENDBRANCH  29  31
ENDBRANCH  28  29
ENDBRANCH   1  28
TORSDOF 19
ENDMDL
