MODEL 1
REMARK VINA RESULT:     -11.4      0.000      0.000
REMARK SMILES O=C(OCCOC(=O)c1ccc(NC(=O)c2ccc([N+](=O)[O-])cc2Cl)cc1Cl)c1ccc(-c2c3nc(c(-c4c(F)cc(S(=O)(=O)[O-])cc4F)c4ccc([nH]4)c(-c4c(F)cc(S(=O)(=O)[O-])cc4F)c4nc(c(-c5c(F)cc(S(=O)(=O)[O-])cc5F)c5ccc2[nH]5)C=C4)C=C3)cc1
REMARK SMILES IDX 4 1 3 2 2 3 1 4 29 5 30 6 94 7 31 8 93 9 32 10 33 11 34 12
REMARK SMILES IDX 87 13 35 14 92 15 86 16 88 17 36 18 91 19 85 20 84 21 37 23
REMARK SMILES IDX 71 24 50 25 70 26 51 27 54 28 69 29 89 30 52 31 53 32 68 34
REMARK SMILES IDX 90 35 55 36 38 37 39 38 48 39 40 40 41 41 47 42 49 43 42 44
REMARK SMILES IDX 43 45 44 46 45 47 46 48 72 49 73 50 82 51 74 52 75 53 81 54
REMARK SMILES IDX 83 55 76 56 77 57 78 58 79 59 80 60 56 61 57 62 66 63 58 64
REMARK SMILES IDX 59 65 65 66 67 67 60 68 61 69 62 70 63 71 64 72 5 73 6 74
REMARK SMILES IDX 7 75 8 76 9 77 10 78 27 79 11 80 26 81 28 82 12 83 13 84
REMARK SMILES IDX 14 85 15 87 16 88 17 89 24 90 18 91 23 92 25 93 19 94 20 95
REMARK SMILES IDX 21 96 22 97
REMARK H PARENT 88 22 54 33 13 86
REMARK Flexibility Score: inf
ROOT
ATOM      1  C   UNL A   1      32.261  29.876  27.072  1.00  0.00     0.275 C 
ENDROOT
BRANCH   1   2
ATOM      2  O   UNL A   1      33.620  29.618  27.449  1.00  0.00    -0.458 OA
BRANCH   2   3
ATOM      3  C   UNL A   1      34.534  30.449  27.995  1.00  0.00     0.338 C 
ATOM      4  O   UNL A   1      34.258  31.648  28.042  1.00  0.00    -0.246 OA
BRANCH   3   5
ATOM      5  C   UNL A   1      35.912  30.037  28.433  1.00  0.00     0.060 A 
ATOM      6  C   UNL A   1      36.339  29.667  29.716  1.00  0.00     0.016 A 
ATOM      7  C   UNL A   1      36.862  29.979  27.405  1.00  0.00     0.016 A 
ATOM      8  C   UNL A   1      37.638  29.188  29.958  1.00  0.00     0.010 A 
ATOM      9  C   UNL A   1      38.138  29.478  27.640  1.00  0.00     0.010 A 
ATOM     10  C   UNL A   1      38.549  29.085  28.917  1.00  0.00    -0.014 A 
BRANCH  10  11
ATOM     11  C   UNL A   1      39.974  28.735  29.124  1.00  0.00     0.031 A 
ATOM     12  C   UNL A   1      40.929  29.848  29.437  1.00  0.00     0.074 A 
ATOM     13  C   UNL A   1      40.429  27.480  28.951  1.00  0.00     0.049 A 
ATOM     14  N   UNL A   1      42.230  29.820  29.526  1.00  0.00    -0.248 NA
ATOM     15  C   UNL A   1      40.330  31.170  29.688  1.00  0.00     0.031 C 
ATOM     16  C   UNL A   1      39.597  26.306  28.719  1.00  0.00     0.029 A 
ATOM     17  N   UNL A   1      41.710  26.991  28.886  1.00  0.00    -0.354 N 
ATOM     18  C   UNL A   1      42.603  31.115  29.861  1.00  0.00     0.074 A 
ATOM     19  C   UNL A   1      41.403  31.920  29.867  1.00  0.00     0.031 C 
ATOM     20  C   UNL A   1      40.381  25.257  28.419  1.00  0.00     0.029 A 
ATOM     21  C   UNL A   1      41.775  25.684  28.462  1.00  0.00     0.049 A 
ATOM     22  H   UNL A   1      42.504  27.524  29.119  1.00  0.00     0.167 HD
ATOM     23  C   UNL A   1      43.832  31.578  30.187  1.00  0.00     0.037 A 
ATOM     24  C   UNL A   1      42.837  24.924  28.129  1.00  0.00     0.037 A 
ATOM     25  C   UNL A   1      45.014  30.764  30.163  1.00  0.00     0.049 A 
ATOM     26  C   UNL A   1      44.216  25.478  28.370  1.00  0.00     0.074 A 
ATOM     27  C   UNL A   1      46.305  31.105  30.517  1.00  0.00     0.029 A 
ATOM     28  N   UNL A   1      45.046  29.443  29.734  1.00  0.00    -0.354 N 
ATOM     29  N   UNL A   1      44.552  26.676  28.785  1.00  0.00    -0.248 NA
ATOM     30  C   UNL A   1      45.353  24.572  28.162  1.00  0.00     0.031 C 
ATOM     31  C   UNL A   1      47.127  30.003  30.255  1.00  0.00     0.029 A 
ATOM     32  C   UNL A   1      46.340  28.959  29.792  1.00  0.00     0.049 A 
ATOM     33  H   UNL A   1      44.264  28.928  29.432  1.00  0.00     0.167 HD
ATOM     34  C   UNL A   1      45.931  26.649  28.955  1.00  0.00     0.074 A 
ATOM     35  C   UNL A   1      46.370  25.324  28.566  1.00  0.00     0.031 C 
ATOM     36  C   UNL A   1      46.749  27.623  29.426  1.00  0.00     0.037 A 
BRANCH  23  37
ATOM     37  C   UNL A   1      43.922  33.025  30.582  1.00  0.00     0.058 A 
ATOM     38  C   UNL A   1      44.150  34.033  29.628  1.00  0.00     0.135 A 
ATOM     39  C   UNL A   1      43.860  33.403  31.931  1.00  0.00     0.135 A 
ATOM     40  F   UNL A   1      44.237  33.724  28.324  1.00  0.00    -0.206 F 
ATOM     41  C   UNL A   1      44.388  35.350  30.005  1.00  0.00     0.059 A 
ATOM     42  C   UNL A   1      44.061  34.721  32.328  1.00  0.00     0.059 A 
ATOM     43  F   UNL A   1      43.640  32.481  32.882  1.00  0.00    -0.206 F 
ATOM     44  C   UNL A   1      44.358  35.680  31.360  1.00  0.00     0.060 A 
BRANCH  44  45
ATOM     45  S   UNL A   1      44.749  37.374  31.841  1.00  0.00     0.124 S 
ATOM     46  O   UNL A   1      46.126  37.231  32.306  1.00  0.00    -0.237 OA
ATOM     47  O   UNL A   1      44.579  38.103  30.589  1.00  0.00    -0.237 OA
ATOM     48  O   UNL A   1      43.764  37.670  32.876  1.00  0.00    -0.744 OA
ENDBRANCH  44  45
ENDBRANCH  23  37
BRANCH  24  49
ATOM     49  C   UNL A   1      42.624  23.562  27.571  1.00  0.00     0.058 A 
ATOM     50  C   UNL A   1      42.635  23.324  26.190  1.00  0.00     0.135 A 
ATOM     51  C   UNL A   1      42.462  22.455  28.422  1.00  0.00     0.135 A 
ATOM     52  F   UNL A   1      42.792  24.346  25.335  1.00  0.00    -0.206 F 
ATOM     53  C   UNL A   1      42.487  22.041  25.669  1.00  0.00     0.059 A 
ATOM     54  C   UNL A   1      42.322  21.161  27.925  1.00  0.00     0.059 A 
ATOM     55  F   UNL A   1      42.482  22.623  29.754  1.00  0.00    -0.206 F 
ATOM     56  C   UNL A   1      42.338  20.964  26.546  1.00  0.00     0.060 A 
BRANCH  56  57
ATOM     57  S   UNL A   1      42.223  19.297  25.854  1.00  0.00     0.124 S 
ATOM     58  O   UNL A   1      40.799  19.196  25.557  1.00  0.00    -0.237 OA
ATOM     59  O   UNL A   1      43.111  19.392  24.700  1.00  0.00    -0.237 OA
ATOM     60  O   UNL A   1      42.703  18.449  26.939  1.00  0.00    -0.744 OA
ENDBRANCH  56  57
ENDBRANCH  24  49
BRANCH  36  61
ATOM     61  C   UNL A   1      48.199  27.288  29.629  1.00  0.00     0.058 A 
ATOM     62  C   UNL A   1      49.174  27.603  28.674  1.00  0.00     0.135 A 
ATOM     63  C   UNL A   1      48.625  26.775  30.866  1.00  0.00     0.135 A 
ATOM     64  F   UNL A   1      48.816  28.084  27.473  1.00  0.00    -0.206 F 
ATOM     65  C   UNL A   1      50.529  27.435  28.944  1.00  0.00     0.059 A 
ATOM     66  C   UNL A   1      49.974  26.624  31.167  1.00  0.00     0.059 A 
ATOM     67  F   UNL A   1      47.727  26.462  31.814  1.00  0.00    -0.206 F 
ATOM     68  C   UNL A   1      50.919  26.962  30.200  1.00  0.00     0.060 A 
BRANCH  68  69
ATOM     69  S   UNL A   1      52.681  26.858  30.577  1.00  0.00     0.124 S 
ATOM     70  O   UNL A   1      53.002  28.249  30.876  1.00  0.00    -0.237 OA
ATOM     71  O   UNL A   1      52.702  25.942  31.713  1.00  0.00    -0.237 OA
ATOM     72  O   UNL A   1      53.262  26.331  29.345  1.00  0.00    -0.744 OA
ENDBRANCH  68  69
ENDBRANCH  36  61
ENDBRANCH  10  11
ENDBRANCH   3   5
ENDBRANCH   2   3
ENDBRANCH   1   2
BRANCH   1  73
ATOM     73  C   UNL A   1      32.013  29.810  25.562  1.00  0.00     0.275 C 
BRANCH  73  74
ATOM     74  O   UNL A   1      32.403  28.558  24.970  1.00  0.00    -0.458 OA
BRANCH  74  75
ATOM     75  C   UNL A   1      31.463  27.931  24.207  1.00  0.00     0.339 C 
ATOM     76  O   UNL A   1      30.766  28.437  23.355  1.00  0.00    -0.246 OA
BRANCH  75  77
ATOM     77  C   UNL A   1      31.540  26.469  24.427  1.00  0.00     0.078 A 
ATOM     78  C   UNL A   1      31.026  25.976  25.629  1.00  0.00     0.019 A 
ATOM     79  C   UNL A   1      32.077  25.572  23.510  1.00  0.00     0.057 A 
ATOM     80  C   UNL A   1      30.939  24.591  25.857  1.00  0.00     0.027 A 
ATOM     81  C   UNL A   1      32.014  24.187  23.766  1.00  0.00     0.047 A 
ATOM     82  Cl  UNL A   1      32.854  26.105  22.063  1.00  0.00    -0.083 Cl
ATOM     83  C   UNL A   1      31.386  23.670  24.912  1.00  0.00     0.043 A 
BRANCH  83  84
ATOM     84  N   UNL A   1      31.267  22.260  24.996  1.00  0.00    -0.322 N 
ATOM     85  C   UNL A   1      32.148  21.219  25.224  1.00  0.00     0.257 C 
ATOM     86  H   UNL A   1      30.342  21.950  24.860  1.00  0.00     0.170 HD
ATOM     87  O   UNL A   1      31.779  20.049  25.149  1.00  0.00    -0.269 OA
BRANCH  85  88
ATOM     88  C   UNL A   1      33.562  21.459  25.520  1.00  0.00     0.059 A 
ATOM     89  C   UNL A   1      34.505  21.006  24.589  1.00  0.00     0.022 A 
ATOM     90  C   UNL A   1      33.964  22.163  26.660  1.00  0.00     0.060 A 
ATOM     91  C   UNL A   1      35.833  21.417  24.703  1.00  0.00     0.086 A 
ATOM     92  C   UNL A   1      35.278  22.632  26.748  1.00  0.00     0.107 A 
ATOM     93  Cl  UNL A   1      32.914  22.422  28.001  1.00  0.00    -0.083 Cl
ATOM     94  C   UNL A   1      36.192  22.286  25.745  1.00  0.00     0.270 A 
BRANCH  94  95
ATOM     95  N   UNL A   1      37.532  22.875  25.753  1.00  0.00     0.062 N 
ATOM     96  O   UNL A   1      37.626  24.082  26.014  1.00  0.00    -0.258 OA
ATOM     97  O   UNL A   1      38.487  22.118  25.537  1.00  0.00    -0.258 OA
ENDBRANCH  94  95
ENDBRANCH  85  88
ENDBRANCH  83  84
ENDBRANCH  75  77
ENDBRANCH  74  75
ENDBRANCH  73  74
ENDBRANCH   1  73
TORSDOF 17
ENDMDL
MODEL 2
REMARK VINA RESULT:     -11.3      2.339      8.599
REMARK SMILES O=C(OCCOC(=O)c1ccc(NC(=O)c2ccc([N+](=O)[O-])cc2Cl)cc1Cl)c1ccc(-c2c3nc(c(-c4c(F)cc(S(=O)(=O)[O-])cc4F)c4ccc([nH]4)c(-c4c(F)cc(S(=O)(=O)[O-])cc4F)c4nc(c(-c5c(F)cc(S(=O)(=O)[O-])cc5F)c5ccc2[nH]5)C=C4)C=C3)cc1
REMARK SMILES IDX 4 1 3 2 2 3 1 4 29 5 30 6 94 7 31 8 93 9 32 10 33 11 34 12
REMARK SMILES IDX 87 13 35 14 92 15 86 16 88 17 36 18 91 19 85 20 84 21 37 23
REMARK SMILES IDX 71 24 50 25 70 26 51 27 54 28 69 29 89 30 52 31 53 32 68 34
REMARK SMILES IDX 90 35 55 36 38 37 39 38 48 39 40 40 41 41 47 42 49 43 42 44
REMARK SMILES IDX 43 45 44 46 45 47 46 48 72 49 73 50 82 51 74 52 75 53 81 54
REMARK SMILES IDX 83 55 76 56 77 57 78 58 79 59 80 60 56 61 57 62 66 63 58 64
REMARK SMILES IDX 59 65 65 66 67 67 60 68 61 69 62 70 63 71 64 72 5 73 6 74
REMARK SMILES IDX 7 75 8 76 9 77 10 78 27 79 11 80 26 81 28 82 12 83 13 84
REMARK SMILES IDX 14 85 15 87 16 88 17 89 24 90 18 91 23 92 25 93 19 94 20 95
REMARK SMILES IDX 21 96 22 97
REMARK H PARENT 88 22 54 33 13 86
REMARK Flexibility Score: inf
ROOT
ATOM      1  C   UNL A   1      35.381  31.269  28.092  1.00  0.00     0.275 C 
ENDROOT
BRANCH   1   2
ATOM      2  O   UNL A   1      35.661  30.917  29.453  1.00  0.00    -0.458 OA
BRANCH   2   3
ATOM      3  C   UNL A   1      36.537  30.013  29.945  1.00  0.00     0.338 C 
ATOM      4  O   UNL A   1      36.267  29.487  31.024  1.00  0.00    -0.246 OA
BRANCH   3   5
ATOM      5  C   UNL A   1      37.873  29.696  29.333  1.00  0.00     0.060 A 
ATOM      6  C   UNL A   1      38.187  29.524  27.977  1.00  0.00     0.016 A 
ATOM      7  C   UNL A   1      38.931  29.610  30.247  1.00  0.00     0.016 A 
ATOM      8  C   UNL A   1      39.510  29.347  27.537  1.00  0.00     0.010 A 
ATOM      9  C   UNL A   1      40.244  29.464  29.807  1.00  0.00     0.010 A 
ATOM     10  C   UNL A   1      40.552  29.320  28.452  1.00  0.00    -0.014 A 
BRANCH  10  11
ATOM     11  C   UNL A   1      41.947  28.987  28.077  1.00  0.00     0.031 A 
ATOM     12  C   UNL A   1      42.279  27.545  27.833  1.00  0.00     0.074 A 
ATOM     13  C   UNL A   1      42.914  29.921  28.040  1.00  0.00     0.049 A 
ATOM     14  N   UNL A   1      43.441  26.988  27.627  1.00  0.00    -0.248 NA
ATOM     15  C   UNL A   1      41.143  26.608  27.814  1.00  0.00     0.031 C 
ATOM     16  C   UNL A   1      42.706  31.357  28.185  1.00  0.00     0.029 A 
ATOM     17  N   UNL A   1      44.277  29.798  27.927  1.00  0.00    -0.354 N 
ATOM     18  C   UNL A   1      43.173  25.639  27.437  1.00  0.00     0.074 A 
ATOM     19  C   UNL A   1      41.755  25.449  27.644  1.00  0.00     0.031 C 
ATOM     20  C   UNL A   1      43.898  31.973  28.272  1.00  0.00     0.029 A 
ATOM     21  C   UNL A   1      44.954  30.972  28.165  1.00  0.00     0.049 A 
ATOM     22  H   UNL A   1      44.726  28.952  27.699  1.00  0.00     0.167 HD
ATOM     23  C   UNL A   1      44.027  24.656  27.071  1.00  0.00     0.037 A 
ATOM     24  C   UNL A   1      46.274  31.209  28.300  1.00  0.00     0.037 A 
ATOM     25  C   UNL A   1      45.435  24.863  26.883  1.00  0.00     0.049 A 
ATOM     26  C   UNL A   1      47.234  30.086  28.015  1.00  0.00     0.074 A 
ATOM     27  C   UNL A   1      46.393  23.960  26.465  1.00  0.00     0.029 A 
ATOM     28  N   UNL A   1      46.089  26.065  27.126  1.00  0.00    -0.354 N 
ATOM     29  N   UNL A   1      46.964  28.832  27.736  1.00  0.00    -0.248 NA
ATOM     30  C   UNL A   1      48.667  30.410  28.001  1.00  0.00     0.031 C 
ATOM     31  C   UNL A   1      47.635  24.603  26.505  1.00  0.00     0.029 A 
ATOM     32  C   UNL A   1      47.443  25.921  26.892  1.00  0.00     0.049 A 
ATOM     33  H   UNL A   1      45.652  26.895  27.425  1.00  0.00     0.167 HD
ATOM     34  C   UNL A   1      48.183  28.234  27.444  1.00  0.00     0.074 A 
ATOM     35  C   UNL A   1      49.197  29.256  27.614  1.00  0.00     0.031 C 
ATOM     36  C   UNL A   1      48.432  26.964  27.039  1.00  0.00     0.037 A 
BRANCH  23  37
ATOM     37  C   UNL A   1      43.433  23.291  26.865  1.00  0.00     0.058 A 
ATOM     38  C   UNL A   1      43.184  22.429  27.949  1.00  0.00     0.135 A 
ATOM     39  C   UNL A   1      43.183  22.807  25.574  1.00  0.00     0.135 A 
ATOM     40  F   UNL A   1      43.423  22.836  29.207  1.00  0.00    -0.206 F 
ATOM     41  C   UNL A   1      42.781  21.114  27.753  1.00  0.00     0.059 A 
ATOM     42  C   UNL A   1      42.747  21.503  25.357  1.00  0.00     0.059 A 
ATOM     43  F   UNL A   1      43.399  23.589  24.504  1.00  0.00    -0.206 F 
ATOM     44  C   UNL A   1      42.582  20.655  26.451  1.00  0.00     0.060 A 
BRANCH  44  45
ATOM     45  S   UNL A   1      42.139  18.923  26.207  1.00  0.00     0.124 S 
ATOM     46  O   UNL A   1      42.329  18.386  27.552  1.00  0.00    -0.237 OA
ATOM     47  O   UNL A   1      40.756  19.013  25.753  1.00  0.00    -0.237 OA
ATOM     48  O   UNL A   1      43.097  18.465  25.207  1.00  0.00    -0.744 OA
ENDBRANCH  44  45
ENDBRANCH  23  37
BRANCH  24  49
ATOM     49  C   UNL A   1      46.744  32.566  28.687  1.00  0.00     0.058 A 
ATOM     50  C   UNL A   1      46.983  33.561  27.731  1.00  0.00     0.135 A 
ATOM     51  C   UNL A   1      46.907  32.909  30.041  1.00  0.00     0.135 A 
ATOM     52  F   UNL A   1      46.837  33.286  26.427  1.00  0.00    -0.206 F 
ATOM     53  C   UNL A   1      47.374  34.847  28.098  1.00  0.00     0.059 A 
ATOM     54  C   UNL A   1      47.288  34.190  30.433  1.00  0.00     0.059 A 
ATOM     55  F   UNL A   1      46.655  32.003  30.999  1.00  0.00    -0.206 F 
ATOM     56  C   UNL A   1      47.517  35.154  29.452  1.00  0.00     0.060 A 
BRANCH  56  57
ATOM     57  S   UNL A   1      47.951  36.848  29.912  1.00  0.00     0.124 S 
ATOM     58  O   UNL A   1      47.211  37.018  31.157  1.00  0.00    -0.237 OA
ATOM     59  O   UNL A   1      49.402  36.760  30.038  1.00  0.00    -0.237 OA
ATOM     60  O   UNL A   1      47.473  37.637  28.781  1.00  0.00    -0.744 OA
ENDBRANCH  56  57
ENDBRANCH  24  49
BRANCH  36  61
ATOM     61  C   UNL A   1      49.843  26.606  26.667  1.00  0.00     0.058 A 
ATOM     62  C   UNL A   1      50.714  25.987  27.572  1.00  0.00     0.135 A 
ATOM     63  C   UNL A   1      50.269  26.760  25.336  1.00  0.00     0.135 A 
ATOM     64  F   UNL A   1      50.357  25.830  28.857  1.00  0.00    -0.206 F 
ATOM     65  C   UNL A   1      51.959  25.516  27.167  1.00  0.00     0.059 A 
ATOM     66  C   UNL A   1      51.497  26.273  24.904  1.00  0.00     0.059 A 
ATOM     67  F   UNL A   1      49.466  27.343  24.432  1.00  0.00    -0.206 F 
ATOM     68  C   UNL A   1      52.333  25.648  25.827  1.00  0.00     0.060 A 
BRANCH  68  69
ATOM     69  S   UNL A   1      53.900  24.930  25.291  1.00  0.00     0.124 S 
ATOM     70  O   UNL A   1      54.170  25.685  24.073  1.00  0.00    -0.237 OA
ATOM     71  O   UNL A   1      54.776  25.216  26.424  1.00  0.00    -0.237 OA
ATOM     72  O   UNL A   1      53.579  23.518  25.097  1.00  0.00    -0.744 OA
ENDBRANCH  68  69
ENDBRANCH  36  61
ENDBRANCH  10  11
ENDBRANCH   3   5
ENDBRANCH   2   3
ENDBRANCH   1   2
BRANCH   1  73
ATOM     73  C   UNL A   1      34.002  30.812  27.605  1.00  0.00     0.275 C 
BRANCH  73  74
ATOM     74  O   UNL A   1      34.051  29.668  26.733  1.00  0.00    -0.458 OA
BRANCH  74  75
ATOM     75  C   UNL A   1      32.967  29.471  25.932  1.00  0.00     0.339 C 
ATOM     76  O   UNL A   1      32.174  30.311  25.565  1.00  0.00    -0.246 OA
BRANCH  75  77
ATOM     77  C   UNL A   1      32.990  28.092  25.393  1.00  0.00     0.078 A 
ATOM     78  C   UNL A   1      32.517  27.074  26.225  1.00  0.00     0.019 A 
ATOM     79  C   UNL A   1      33.438  27.762  24.119  1.00  0.00     0.057 A 
ATOM     80  C   UNL A   1      32.381  25.760  25.744  1.00  0.00     0.027 A 
ATOM     81  C   UNL A   1      33.327  26.434  23.660  1.00  0.00     0.047 A 
ATOM     82  Cl  UNL A   1      34.163  28.933  23.077  1.00  0.00    -0.083 Cl
ATOM     83  C   UNL A   1      32.738  25.424  24.440  1.00  0.00     0.043 A 
BRANCH  83  84
ATOM     84  N   UNL A   1      32.561  24.160  23.822  1.00  0.00    -0.322 N 
ATOM     85  C   UNL A   1      33.319  23.007  23.724  1.00  0.00     0.257 C 
ATOM     86  H   UNL A   1      31.697  24.085  23.355  1.00  0.00     0.170 HD
ATOM     87  O   UNL A   1      32.950  22.064  23.029  1.00  0.00    -0.269 OA
BRANCH  85  88
ATOM     88  C   UNL A   1      34.609  22.877  24.405  1.00  0.00     0.059 A 
ATOM     89  C   UNL A   1      35.765  22.899  23.613  1.00  0.00     0.022 A 
ATOM     90  C   UNL A   1      34.699  22.787  25.798  1.00  0.00     0.060 A 
ATOM     91  C   UNL A   1      37.012  23.019  24.225  1.00  0.00     0.086 A 
ATOM     92  C   UNL A   1      35.938  22.973  26.418  1.00  0.00     0.107 A 
ATOM     93  Cl  UNL A   1      33.343  22.393  26.785  1.00  0.00    -0.083 Cl
ATOM     94  C   UNL A   1      37.081  23.126  25.622  1.00  0.00     0.270 A 
BRANCH  94  95
ATOM     95  N   UNL A   1      38.362  23.450  26.251  1.00  0.00     0.062 N 
ATOM     96  O   UNL A   1      38.424  24.487  26.925  1.00  0.00    -0.258 OA
ATOM     97  O   UNL A   1      39.289  22.644  26.101  1.00  0.00    -0.258 OA
ENDBRANCH  94  95
ENDBRANCH  85  88
ENDBRANCH  83  84
ENDBRANCH  75  77
ENDBRANCH  74  75
ENDBRANCH  73  74
ENDBRANCH   1  73
TORSDOF 17
ENDMDL
MODEL 3
REMARK VINA RESULT:     -11.2      4.985     10.705
REMARK SMILES O=C(OCCOC(=O)c1ccc(NC(=O)c2ccc([N+](=O)[O-])cc2Cl)cc1Cl)c1ccc(-c2c3nc(c(-c4c(F)cc(S(=O)(=O)[O-])cc4F)c4ccc([nH]4)c(-c4c(F)cc(S(=O)(=O)[O-])cc4F)c4nc(c(-c5c(F)cc(S(=O)(=O)[O-])cc5F)c5ccc2[nH]5)C=C4)C=C3)cc1
REMARK SMILES IDX 4 1 3 2 2 3 1 4 29 5 30 6 94 7 31 8 93 9 32 10 33 11 34 12
REMARK SMILES IDX 87 13 35 14 92 15 86 16 88 17 36 18 91 19 85 20 84 21 37 23
REMARK SMILES IDX 71 24 50 25 70 26 51 27 54 28 69 29 89 30 52 31 53 32 68 34
REMARK SMILES IDX 90 35 55 36 38 37 39 38 48 39 40 40 41 41 47 42 49 43 42 44
REMARK SMILES IDX 43 45 44 46 45 47 46 48 72 49 73 50 82 51 74 52 75 53 81 54
REMARK SMILES IDX 83 55 76 56 77 57 78 58 79 59 80 60 56 61 57 62 66 63 58 64
REMARK SMILES IDX 59 65 65 66 67 67 60 68 61 69 62 70 63 71 64 72 5 73 6 74
REMARK SMILES IDX 7 75 8 76 9 77 10 78 27 79 11 80 26 81 28 82 12 83 13 84
REMARK SMILES IDX 14 85 15 87 16 88 17 89 24 90 18 91 23 92 25 93 19 94 20 95
REMARK SMILES IDX 21 96 22 97
REMARK H PARENT 88 22 54 33 13 86
REMARK Flexibility Score: inf
ROOT
ATOM      1  C   UNL A   1      42.878  22.706  25.475  1.00  0.00     0.275 C 
ENDROOT
BRANCH   1   2
ATOM      2  O   UNL A   1      42.970  23.920  26.231  1.00  0.00    -0.458 OA
BRANCH   2   3
ATOM      3  C   UNL A   1      42.238  25.051  26.135  1.00  0.00     0.338 C 
ATOM      4  O   UNL A   1      41.926  25.435  25.008  1.00  0.00    -0.246 OA
BRANCH   3   5
ATOM      5  C   UNL A   1      41.885  25.942  27.294  1.00  0.00     0.060 A 
ATOM      6  C   UNL A   1      40.793  25.835  28.168  1.00  0.00     0.016 A 
ATOM      7  C   UNL A   1      42.798  26.975  27.540  1.00  0.00     0.016 A 
ATOM      8  C   UNL A   1      40.651  26.674  29.287  1.00  0.00     0.010 A 
ATOM      9  C   UNL A   1      42.671  27.787  28.663  1.00  0.00     0.010 A 
ATOM     10  C   UNL A   1      41.596  27.657  29.546  1.00  0.00    -0.014 A 
BRANCH  10  11
ATOM     11  C   UNL A   1      41.431  28.671  30.614  1.00  0.00     0.031 A 
ATOM     12  C   UNL A   1      42.191  28.470  31.891  1.00  0.00     0.074 A 
ATOM     13  C   UNL A   1      40.565  29.694  30.495  1.00  0.00     0.049 A 
ATOM     14  N   UNL A   1      42.115  29.133  33.012  1.00  0.00    -0.248 NA
ATOM     15  C   UNL A   1      43.175  27.373  31.899  1.00  0.00     0.031 C 
ATOM     16  C   UNL A   1      39.828  30.038  29.285  1.00  0.00     0.029 A 
ATOM     17  N   UNL A   1      40.114  30.600  31.422  1.00  0.00    -0.354 N 
ATOM     18  C   UNL A   1      43.052  28.545  33.851  1.00  0.00     0.074 A 
ATOM     19  C   UNL A   1      43.614  27.417  33.144  1.00  0.00     0.031 C 
ATOM     20  C   UNL A   1      38.931  30.998  29.568  1.00  0.00     0.029 A 
ATOM     21  C   UNL A   1      39.050  31.352  30.978  1.00  0.00     0.049 A 
ATOM     22  H   UNL A   1      40.512  30.702  32.317  1.00  0.00     0.167 HD
ATOM     23  C   UNL A   1      43.444  28.944  35.082  1.00  0.00     0.037 A 
ATOM     24  C   UNL A   1      38.252  32.213  31.640  1.00  0.00     0.037 A 
ATOM     25  C   UNL A   1      42.863  30.060  35.773  1.00  0.00     0.049 A 
ATOM     26  C   UNL A   1      38.607  32.572  33.058  1.00  0.00     0.074 A 
ATOM     27  C   UNL A   1      43.208  30.591  37.001  1.00  0.00     0.029 A 
ATOM     28  N   UNL A   1      41.791  30.804  35.296  1.00  0.00    -0.354 N 
ATOM     29  N   UNL A   1      39.563  32.078  33.809  1.00  0.00    -0.248 NA
ATOM     30  C   UNL A   1      37.826  33.638  33.700  1.00  0.00     0.031 C 
ATOM     31  C   UNL A   1      42.311  31.626  37.288  1.00  0.00     0.029 A 
ATOM     32  C   UNL A   1      41.444  31.777  36.215  1.00  0.00     0.049 A 
ATOM     33  H   UNL A   1      41.344  30.659  34.431  1.00  0.00     0.167 HD
ATOM     34  C   UNL A   1      39.546  32.819  34.985  1.00  0.00     0.074 A 
ATOM     35  C   UNL A   1      38.462  33.773  34.858  1.00  0.00     0.031 C 
ATOM     36  C   UNL A   1      40.377  32.737  36.053  1.00  0.00     0.037 A 
BRANCH  23  37
ATOM     37  C   UNL A   1      44.543  28.149  35.729  1.00  0.00     0.058 A 
ATOM     38  C   UNL A   1      45.898  28.444  35.492  1.00  0.00     0.135 A 
ATOM     39  C   UNL A   1      44.246  27.035  36.528  1.00  0.00     0.135 A 
ATOM     40  F   UNL A   1      46.240  29.488  34.719  1.00  0.00    -0.206 F 
ATOM     41  C   UNL A   1      46.914  27.619  35.962  1.00  0.00     0.059 A 
ATOM     42  C   UNL A   1      45.249  26.216  37.036  1.00  0.00     0.059 A 
ATOM     43  F   UNL A   1      42.969  26.712  36.789  1.00  0.00    -0.206 F 
ATOM     44  C   UNL A   1      46.576  26.497  36.719  1.00  0.00     0.060 A 
BRANCH  44  45
ATOM     45  S   UNL A   1      47.899  25.391  37.252  1.00  0.00     0.124 S 
ATOM     46  O   UNL A   1      47.315  24.084  36.962  1.00  0.00    -0.237 OA
ATOM     47  O   UNL A   1      49.008  25.791  36.395  1.00  0.00    -0.237 OA
ATOM     48  O   UNL A   1      48.057  25.708  38.668  1.00  0.00    -0.744 OA
ENDBRANCH  44  45
ENDBRANCH  23  37
BRANCH  24  49
ATOM     49  C   UNL A   1      37.075  32.807  30.951  1.00  0.00     0.058 A 
ATOM     50  C   UNL A   1      35.767  32.403  31.249  1.00  0.00     0.135 A 
ATOM     51  C   UNL A   1      37.240  33.841  30.012  1.00  0.00     0.135 A 
ATOM     52  F   UNL A   1      35.556  31.424  32.142  1.00  0.00    -0.206 F 
ATOM     53  C   UNL A   1      34.663  32.995  30.641  1.00  0.00     0.059 A 
ATOM     54  C   UNL A   1      36.151  34.454  29.397  1.00  0.00     0.059 A 
ATOM     55  F   UNL A   1      38.470  34.291  29.717  1.00  0.00    -0.206 F 
ATOM     56  C   UNL A   1      34.865  34.026  29.721  1.00  0.00     0.060 A 
BRANCH  56  57
ATOM     57  S   UNL A   1      33.417  34.833  28.998  1.00  0.00     0.124 S 
ATOM     58  O   UNL A   1      33.993  36.066  28.477  1.00  0.00    -0.237 OA
ATOM     59  O   UNL A   1      32.997  33.853  28.002  1.00  0.00    -0.237 OA
ATOM     60  O   UNL A   1      32.516  34.987  30.135  1.00  0.00    -0.744 OA
ENDBRANCH  56  57
ENDBRANCH  24  49
BRANCH  36  61
ATOM     61  C   UNL A   1      40.216  33.749  37.151  1.00  0.00     0.058 A 
ATOM     62  C   UNL A   1      40.871  34.987  37.122  1.00  0.00     0.135 A 
ATOM     63  C   UNL A   1      39.276  33.521  38.171  1.00  0.00     0.135 A 
ATOM     64  F   UNL A   1      41.787  35.246  36.175  1.00  0.00    -0.206 F 
ATOM     65  C   UNL A   1      40.587  35.976  38.058  1.00  0.00     0.059 A 
ATOM     66  C   UNL A   1      38.957  34.504  39.101  1.00  0.00     0.059 A 
ATOM     67  F   UNL A   1      38.620  32.352  38.237  1.00  0.00    -0.206 F 
ATOM     68  C   UNL A   1      39.616  35.731  39.033  1.00  0.00     0.060 A 
BRANCH  68  69
ATOM     69  S   UNL A   1      39.175  37.061  40.170  1.00  0.00     0.124 S 
ATOM     70  O   UNL A   1      38.526  38.012  39.275  1.00  0.00    -0.237 OA
ATOM     71  O   UNL A   1      38.300  36.382  41.120  1.00  0.00    -0.237 OA
ATOM     72  O   UNL A   1      40.464  37.488  40.710  1.00  0.00    -0.744 OA
ENDBRANCH  68  69
ENDBRANCH  36  61
ENDBRANCH  10  11
ENDBRANCH   3   5
ENDBRANCH   2   3
ENDBRANCH   1   2
BRANCH   1  73
ATOM     73  C   UNL A   1      42.678  21.453  26.334  1.00  0.00     0.275 C 
BRANCH  73  74
ATOM     74  O   UNL A   1      41.361  21.353  26.906  1.00  0.00    -0.458 OA
BRANCH  74  75
ATOM     75  C   UNL A   1      40.428  20.695  26.161  1.00  0.00     0.339 C 
ATOM     76  O   UNL A   1      40.473  19.541  25.796  1.00  0.00    -0.246 OA
BRANCH  75  77
ATOM     77  C   UNL A   1      39.223  21.544  26.013  1.00  0.00     0.078 A 
ATOM     78  C   UNL A   1      39.280  22.832  26.551  1.00  0.00     0.019 A 
ATOM     79  C   UNL A   1      38.061  21.139  25.366  1.00  0.00     0.057 A 
ATOM     80  C   UNL A   1      38.232  23.745  26.337  1.00  0.00     0.027 A 
ATOM     81  C   UNL A   1      37.004  22.053  25.186  1.00  0.00     0.047 A 
ATOM     82  Cl  UNL A   1      37.855  19.523  24.792  1.00  0.00    -0.083 Cl
ATOM     83  C   UNL A   1      37.097  23.390  25.611  1.00  0.00     0.043 A 
BRANCH  83  84
ATOM     84  N   UNL A   1      36.026  24.249  25.258  1.00  0.00    -0.322 N 
ATOM     85  C   UNL A   1      34.686  24.069  24.967  1.00  0.00     0.257 C 
ATOM     86  H   UNL A   1      36.300  25.194  25.209  1.00  0.00     0.170 HD
ATOM     87  O   UNL A   1      33.987  25.008  24.592  1.00  0.00    -0.269 OA
BRANCH  85  88
ATOM     88  C   UNL A   1      34.053  22.752  25.049  1.00  0.00     0.059 A 
ATOM     89  C   UNL A   1      33.626  22.162  23.852  1.00  0.00     0.022 A 
ATOM     90  C   UNL A   1      33.922  22.073  26.266  1.00  0.00     0.060 A 
ATOM     91  C   UNL A   1      33.242  20.821  23.848  1.00  0.00     0.086 A 
ATOM     92  C   UNL A   1      33.600  20.714  26.261  1.00  0.00     0.107 A 
ATOM     93  Cl  UNL A   1      34.083  22.869  27.785  1.00  0.00    -0.083 Cl
ATOM     94  C   UNL A   1      33.300  20.089  25.044  1.00  0.00     0.270 A 
BRANCH  94  95
ATOM     95  N   UNL A   1      33.088  18.641  25.005  1.00  0.00     0.062 N 
ATOM     96  O   UNL A   1      31.937  18.226  25.193  1.00  0.00    -0.258 OA
ATOM     97  O   UNL A   1      34.068  17.930  24.749  1.00  0.00    -0.258 OA
ENDBRANCH  94  95
ENDBRANCH  85  88
ENDBRANCH  83  84
ENDBRANCH  75  77
ENDBRANCH  74  75
ENDBRANCH  73  74
ENDBRANCH   1  73
TORSDOF 17
ENDMDL
