MODEL 1
REMARK VINA RESULT:     -14.3      0.000      0.000
REMARK SMILES COc1ccc(CSc2ncccc2C(=O)OCCOC(=O)c2ccc(-c3c4nc(c(-c5c(F)cc(S(=O)(=O)[O-])cc5F)c5ccc([nH]5)c(-c5c(F)cc(S(=O)(=O)[O-])cc5F)c5nc(c(-c6c(F)cc(S(=O)(=O)[O-])cc6F)c6ccc3[nH]6)C=C5)C=C4)cc2)cc1
REMARK SMILES IDX 18 1 17 2 15 3 16 4 14 5 9 6 10 7 11 8 13 9 12 10 8 11 7 12
REMARK SMILES IDX 6 13 3 14 4 15 90 16 5 17 89 18 2 19 1 20 19 21 20 22 21 23
REMARK SMILES IDX 22 24 23 25 24 26 88 27 25 28 87 29 26 30 27 31 28 32 81 33
REMARK SMILES IDX 29 34 86 35 80 36 82 37 30 38 85 39 79 40 78 41 31 43 65 44
REMARK SMILES IDX 44 45 64 46 45 47 48 48 63 49 83 50 46 51 47 52 62 54 84 55
REMARK SMILES IDX 49 56 32 57 33 58 42 59 34 60 35 61 41 62 43 63 36 64 37 65
REMARK SMILES IDX 38 66 39 67 40 68 66 69 67 70 76 71 68 72 69 73 75 74 77 75
REMARK SMILES IDX 70 76 71 77 72 78 73 79 74 80 50 81 51 82 60 83 52 84 53 85
REMARK SMILES IDX 59 86 61 87 54 88 55 89 56 90 57 91 58 92
REMARK H PARENT 82 42 48 53
REMARK Flexibility Score: inf
ROOT
ATOM      1  C   UNL A   1      39.285  22.234  26.397  1.00  0.00     0.275 C 
ENDROOT
BRANCH   1   2
ATOM      2  O   UNL A   1      38.040  21.915  25.251  1.00  0.00    -0.458 OA
BRANCH   2   3
ATOM      3  C   UNL A   1      37.219  20.751  25.029  1.00  0.00     0.341 C 
ATOM      4  O   UNL A   1      37.651  19.610  24.876  1.00  0.00    -0.246 OA
BRANCH   3   5
ATOM      5  C   UNL A   1      35.707  20.973  24.881  1.00  0.00     0.092 A 
ATOM      6  C   UNL A   1      34.871  22.185  24.820  1.00  0.00     0.111 A 
ATOM      7  N   UNL A   1      33.508  22.073  24.644  1.00  0.00    -0.249 NA
ATOM      8  C   UNL A   1      32.966  20.826  24.534  1.00  0.00     0.112 A 
ATOM      9  C   UNL A   1      35.049  19.723  24.839  1.00  0.00     0.020 A 
ATOM     10  C   UNL A   1      33.674  19.643  24.658  1.00  0.00     0.021 A 
BRANCH   6  11
ATOM     11  S   UNL A   1      35.336  24.070  24.991  1.00  0.00    -0.101 SA
BRANCH  11  12
ATOM     12  C   UNL A   1      33.762  25.465  25.734  1.00  0.00     0.112 C 
BRANCH  12  13
ATOM     13  C   UNL A   1      31.830  25.114  26.033  1.00  0.00    -0.037 A 
ATOM     14  C   UNL A   1      31.734  27.591  23.831  1.00  0.00     0.118 A 
ATOM     15  C   UNL A   1      32.320  27.793  25.457  1.00  0.00     0.047 A 
ATOM     16  C   UNL A   1      30.818  26.016  23.179  1.00  0.00     0.047 A 
ATOM     17  C   UNL A   1      32.243  26.672  26.535  1.00  0.00     0.008 A 
ATOM     18  C   UNL A   1      30.687  24.715  24.530  1.00  0.00     0.008 A 
BRANCH  14  19
ATOM     19  O   UNL A   1      31.336  29.034  23.675  1.00  0.00    -0.497 OA
ATOM     20  C   UNL A   1      30.077  29.441  23.042  1.00  0.00     0.278 C 
ENDBRANCH  14  19
ENDBRANCH  12  13
ENDBRANCH  11  12
ENDBRANCH   6  11
ENDBRANCH   3   5
ENDBRANCH   2   3
ENDBRANCH   1   2
BRANCH   1  21
ATOM     21  C   UNL A   1      41.023  21.442  26.226  1.00  0.00     0.275 C 
BRANCH  21  22
ATOM     22  O   UNL A   1      42.332  22.436  25.305  1.00  0.00    -0.458 OA
BRANCH  22  23
ATOM     23  C   UNL A   1      42.734  24.357  25.360  1.00  0.00     0.338 C 
ATOM     24  O   UNL A   1      43.868  24.894  25.311  1.00  0.00    -0.246 OA
BRANCH  23  25
ATOM     25  C   UNL A   1      41.787  25.636  26.385  1.00  0.00     0.060 A 
ATOM     26  C   UNL A   1      41.068  25.212  27.543  1.00  0.00     0.016 A 
ATOM     27  C   UNL A   1      41.840  27.075  26.308  1.00  0.00     0.016 A 
ATOM     28  C   UNL A   1      40.604  26.073  28.528  1.00  0.00     0.010 A 
ATOM     29  C   UNL A   1      41.635  27.907  27.419  1.00  0.00     0.010 A 
ATOM     30  C   UNL A   1      41.083  27.364  28.565  1.00  0.00    -0.014 A 
BRANCH  30  31
ATOM     31  C   UNL A   1      40.795  28.090  29.803  1.00  0.00     0.031 A 
ATOM     32  C   UNL A   1      41.822  27.961  30.863  1.00  0.00     0.074 A 
ATOM     33  C   UNL A   1      39.824  29.029  29.810  1.00  0.00     0.049 A 
ATOM     34  N   UNL A   1      41.884  28.539  32.021  1.00  0.00    -0.248 NA
ATOM     35  C   UNL A   1      42.949  27.059  30.563  1.00  0.00     0.031 C 
ATOM     36  C   UNL A   1      38.889  29.293  28.704  1.00  0.00     0.029 A 
ATOM     37  N   UNL A   1      39.519  30.001  30.724  1.00  0.00    -0.354 N 
ATOM     38  C   UNL A   1      43.032  28.032  32.604  1.00  0.00     0.074 A 
ATOM     39  C   UNL A   1      43.616  27.078  31.697  1.00  0.00     0.031 C 
ATOM     40  C   UNL A   1      38.170  30.395  28.981  1.00  0.00     0.029 A 
ATOM     41  C   UNL A   1      38.526  30.868  30.313  1.00  0.00     0.049 A 
ATOM     42  H   UNL A   1      39.968  30.077  31.596  1.00  0.00     0.167 HD
ATOM     43  C   UNL A   1      43.552  28.365  33.798  1.00  0.00     0.037 A 
ATOM     44  C   UNL A   1      37.966  31.905  30.971  1.00  0.00     0.037 A 
ATOM     45  C   UNL A   1      42.956  29.364  34.631  1.00  0.00     0.049 A 
ATOM     46  C   UNL A   1      38.503  32.185  32.353  1.00  0.00     0.074 A 
ATOM     47  C   UNL A   1      43.316  29.754  35.901  1.00  0.00     0.029 A 
ATOM     48  N   UNL A   1      41.864  30.140  34.252  1.00  0.00    -0.354 N 
ATOM     49  N   UNL A   1      39.519  31.614  32.968  1.00  0.00    -0.248 NA
ATOM     50  C   UNL A   1      37.820  33.211  33.145  1.00  0.00     0.031 C 
ATOM     51  C   UNL A   1      42.399  30.722  36.318  1.00  0.00     0.029 A 
ATOM     52  C   UNL A   1      41.521  30.996  35.277  1.00  0.00     0.049 A 
ATOM     53  H   UNL A   1      41.406  30.085  33.383  1.00  0.00     0.167 HD
ATOM     54  C   UNL A   1      39.606  32.222  34.212  1.00  0.00     0.074 A 
ATOM     55  C   UNL A   1      38.553  33.221  34.252  1.00  0.00     0.031 C 
ATOM     56  C   UNL A   1      40.464  31.979  35.236  1.00  0.00     0.037 A 
BRANCH  43  57
ATOM     57  C   UNL A   1      44.719  27.555  34.264  1.00  0.00     0.058 A 
ATOM     58  C   UNL A   1      46.051  27.914  33.996  1.00  0.00     0.135 A 
ATOM     59  C   UNL A   1      44.483  26.329  34.901  1.00  0.00     0.135 A 
ATOM     60  F   UNL A   1      46.327  29.040  33.317  1.00  0.00    -0.206 F 
ATOM     61  C   UNL A   1      47.107  27.076  34.332  1.00  0.00     0.059 A 
ATOM     62  C   UNL A   1      45.524  25.495  35.284  1.00  0.00     0.059 A 
ATOM     63  F   UNL A   1      43.226  25.915  35.128  1.00  0.00    -0.206 F 
ATOM     64  C   UNL A   1      46.831  25.874  34.988  1.00  0.00     0.060 A 
BRANCH  64  65
ATOM     65  S   UNL A   1      48.215  24.824  35.472  1.00  0.00     0.124 S 
ATOM     66  O   UNL A   1      48.551  24.178  34.208  1.00  0.00    -0.237 OA
ATOM     67  O   UNL A   1      49.181  25.801  35.963  1.00  0.00    -0.237 OA
ATOM     68  O   UNL A   1      47.637  23.951  36.489  1.00  0.00    -0.744 OA
ENDBRANCH  64  65
ENDBRANCH  43  57
BRANCH  44  69
ATOM     69  C   UNL A   1      36.813  32.672  30.401  1.00  0.00     0.058 A 
ATOM     70  C   UNL A   1      36.978  33.672  29.428  1.00  0.00     0.135 A 
ATOM     71  C   UNL A   1      35.502  32.444  30.857  1.00  0.00     0.135 A 
ATOM     72  F   UNL A   1      38.204  33.959  28.961  1.00  0.00    -0.206 F 
ATOM     73  C   UNL A   1      35.900  34.416  28.939  1.00  0.00     0.059 A 
ATOM     74  C   UNL A   1      34.406  33.148  30.363  1.00  0.00     0.059 A 
ATOM     75  F   UNL A   1      35.269  31.512  31.796  1.00  0.00    -0.206 F 
ATOM     76  C   UNL A   1      34.615  34.141  29.410  1.00  0.00     0.060 A 
BRANCH  76  77
ATOM     77  S   UNL A   1      33.218  35.081  28.751  1.00  0.00     0.124 S 
ATOM     78  O   UNL A   1      32.632  34.127  27.816  1.00  0.00    -0.237 OA
ATOM     79  O   UNL A   1      32.441  35.356  29.955  1.00  0.00    -0.237 OA
ATOM     80  O   UNL A   1      33.853  36.247  28.143  1.00  0.00    -0.744 OA
ENDBRANCH  76  77
ENDBRANCH  44  69
BRANCH  56  81
ATOM     81  C   UNL A   1      40.329  32.849  36.449  1.00  0.00     0.058 A 
ATOM     82  C   UNL A   1      41.129  33.984  36.639  1.00  0.00     0.135 A 
ATOM     83  C   UNL A   1      39.316  32.582  37.384  1.00  0.00     0.135 A 
ATOM     84  F   UNL A   1      42.109  34.277  35.769  1.00  0.00    -0.206 F 
ATOM     85  C   UNL A   1      40.946  34.814  37.735  1.00  0.00     0.059 A 
ATOM     86  C   UNL A   1      39.088  33.422  38.462  1.00  0.00     0.059 A 
ATOM     87  F   UNL A   1      38.514  31.516  37.228  1.00  0.00    -0.206 F 
ATOM     88  C   UNL A   1      39.917  34.528  38.636  1.00  0.00     0.060 A 
BRANCH  88  89
ATOM     89  S   UNL A   1      39.664  35.640  40.031  1.00  0.00     0.124 S 
ATOM     90  O   UNL A   1      41.032  35.841  40.495  1.00  0.00    -0.237 OA
ATOM     91  O   UNL A   1      39.031  36.792  39.395  1.00  0.00    -0.237 OA
ATOM     92  O   UNL A   1      38.803  34.872  40.926  1.00  0.00    -0.744 OA
ENDBRANCH  88  89
ENDBRANCH  56  81
ENDBRANCH  30  31
ENDBRANCH  23  25
ENDBRANCH  22  23
ENDBRANCH  21  22
ENDBRANCH   1  21
TORSDOF 18
ENDMDL
MODEL 2
REMARK VINA RESULT:     -13.7      1.726      8.595
REMARK SMILES COc1ccc(CSc2ncccc2C(=O)OCCOC(=O)c2ccc(-c3c4nc(c(-c5c(F)cc(S(=O)(=O)[O-])cc5F)c5ccc([nH]5)c(-c5c(F)cc(S(=O)(=O)[O-])cc5F)c5nc(c(-c6c(F)cc(S(=O)(=O)[O-])cc6F)c6ccc3[nH]6)C=C5)C=C4)cc2)cc1
REMARK SMILES IDX 18 1 17 2 15 3 16 4 14 5 9 6 10 7 11 8 13 9 12 10 8 11 7 12
REMARK SMILES IDX 6 13 3 14 4 15 90 16 5 17 89 18 2 19 1 20 19 21 20 22 21 23
REMARK SMILES IDX 22 24 23 25 24 26 88 27 25 28 87 29 26 30 27 31 28 32 81 33
REMARK SMILES IDX 29 34 86 35 80 36 82 37 30 38 85 39 79 40 78 41 31 43 65 44
REMARK SMILES IDX 44 45 64 46 45 47 48 48 63 49 83 50 46 51 47 52 62 54 84 55
REMARK SMILES IDX 49 56 32 57 33 58 42 59 34 60 35 61 41 62 43 63 36 64 37 65
REMARK SMILES IDX 38 66 39 67 40 68 66 69 67 70 76 71 68 72 69 73 75 74 77 75
REMARK SMILES IDX 70 76 71 77 72 78 73 79 74 80 50 81 51 82 60 83 52 84 53 85
REMARK SMILES IDX 59 86 61 87 54 88 55 89 56 90 57 91 58 92
REMARK H PARENT 82 42 48 53
REMARK Flexibility Score: inf
ROOT
ATOM      1  C   UNL A   1      36.847  22.741  24.300  1.00  0.00     0.275 C 
ENDROOT
BRANCH   1   2
ATOM      2  O   UNL A   1      35.665  21.501  24.479  1.00  0.00    -0.458 OA
BRANCH   2   3
ATOM      3  C   UNL A   1      35.789  20.095  24.773  1.00  0.00     0.341 C 
ATOM      4  O   UNL A   1      36.850  19.523  25.010  1.00  0.00    -0.246 OA
BRANCH   3   5
ATOM      5  C   UNL A   1      34.515  19.243  24.689  1.00  0.00     0.092 A 
ATOM      6  C   UNL A   1      33.108  19.504  25.041  1.00  0.00     0.111 A 
ATOM      7  N   UNL A   1      32.152  18.534  24.816  1.00  0.00    -0.249 NA
ATOM      8  C   UNL A   1      32.543  17.347  24.271  1.00  0.00     0.112 A 
ATOM      9  C   UNL A   1      34.841  17.956  24.204  1.00  0.00     0.020 A 
ATOM     10  C   UNL A   1      33.854  17.002  23.986  1.00  0.00     0.021 A 
BRANCH   6  11
ATOM     11  S   UNL A   1      32.260  21.053  25.864  1.00  0.00    -0.101 SA
BRANCH  11  12
ATOM     12  C   UNL A   1      32.992  23.075  25.272  1.00  0.00     0.112 C 
BRANCH  12  13
ATOM     13  C   UNL A   1      32.624  24.831  26.125  1.00  0.00    -0.037 A 
ATOM     14  C   UNL A   1      32.823  25.665  22.923  1.00  0.00     0.118 A 
ATOM     15  C   UNL A   1      34.189  25.098  23.838  1.00  0.00     0.047 A 
ATOM     16  C   UNL A   1      31.111  26.147  23.685  1.00  0.00     0.047 A 
ATOM     17  C   UNL A   1      34.135  24.832  25.372  1.00  0.00     0.008 A 
ATOM     18  C   UNL A   1      31.110  25.877  25.546  1.00  0.00     0.008 A 
BRANCH  14  19
ATOM     19  O   UNL A   1      33.660  26.440  21.942  1.00  0.00    -0.497 OA
ATOM     20  C   UNL A   1      33.699  27.906  21.924  1.00  0.00     0.278 C 
ENDBRANCH  14  19
ENDBRANCH  12  13
ENDBRANCH  11  12
ENDBRANCH   6  11
ENDBRANCH   3   5
ENDBRANCH   2   3
ENDBRANCH   1   2
BRANCH   1  21
ATOM     21  C   UNL A   1      37.643  23.586  25.827  1.00  0.00     0.275 C 
BRANCH  21  22
ATOM     22  O   UNL A   1      39.295  22.903  26.421  1.00  0.00    -0.458 OA
BRANCH  22  23
ATOM     23  C   UNL A   1      40.782  23.802  27.334  1.00  0.00     0.338 C 
ATOM     24  O   UNL A   1      41.608  23.284  28.125  1.00  0.00    -0.246 OA
BRANCH  23  25
ATOM     25  C   UNL A   1      40.740  25.577  27.989  1.00  0.00     0.060 A 
ATOM     26  C   UNL A   1      39.743  25.949  28.941  1.00  0.00     0.016 A 
ATOM     27  C   UNL A   1      41.724  26.620  27.838  1.00  0.00     0.016 A 
ATOM     28  C   UNL A   1      39.796  27.102  29.712  1.00  0.00     0.010 A 
ATOM     29  C   UNL A   1      41.930  27.620  28.800  1.00  0.00     0.010 A 
ATOM     30  C   UNL A   1      40.983  27.796  29.793  1.00  0.00    -0.014 A 
BRANCH  30  31
ATOM     31  C   UNL A   1      41.038  28.794  30.862  1.00  0.00     0.031 A 
ATOM     32  C   UNL A   1      39.935  29.782  30.861  1.00  0.00     0.074 A 
ATOM     33  C   UNL A   1      41.864  28.594  31.913  1.00  0.00     0.049 A 
ATOM     34  N   UNL A   1      39.673  30.723  31.712  1.00  0.00    -0.248 NA
ATOM     35  C   UNL A   1      38.980  29.681  29.740  1.00  0.00     0.031 C 
ATOM     36  C   UNL A   1      42.863  27.518  32.016  1.00  0.00     0.029 A 
ATOM     37  N   UNL A   1      41.934  29.212  33.132  1.00  0.00    -0.354 N 
ATOM     38  C   UNL A   1      38.552  31.353  31.203  1.00  0.00     0.074 A 
ATOM     39  C   UNL A   1      38.203  30.720  29.957  1.00  0.00     0.031 C 
ATOM     40  C   UNL A   1      43.390  27.516  33.253  1.00  0.00     0.029 A 
ATOM     41  C   UNL A   1      42.835  28.634  34.004  1.00  0.00     0.049 A 
ATOM     42  H   UNL A   1      41.391  29.998  33.367  1.00  0.00     0.167 HD
ATOM     43  C   UNL A   1      37.869  32.371  31.757  1.00  0.00     0.037 A 
ATOM     44  C   UNL A   1      43.176  29.005  35.257  1.00  0.00     0.037 A 
ATOM     45  C   UNL A   1      38.232  32.922  33.027  1.00  0.00     0.049 A 
ATOM     46  C   UNL A   1      42.463  30.216  35.810  1.00  0.00     0.074 A 
ATOM     47  C   UNL A   1      37.691  34.005  33.681  1.00  0.00     0.029 A 
ATOM     48  N   UNL A   1      39.239  32.407  33.838  1.00  0.00    -0.354 N 
ATOM     49  N   UNL A   1      41.479  30.904  35.269  1.00  0.00    -0.248 NA
ATOM     50  C   UNL A   1      42.912  30.726  37.108  1.00  0.00     0.031 C 
ATOM     51  C   UNL A   1      38.417  34.187  34.861  1.00  0.00     0.029 A 
ATOM     52  C   UNL A   1      39.352  33.166  34.983  1.00  0.00     0.049 A 
ATOM     53  H   UNL A   1      39.788  31.618  33.625  1.00  0.00     0.167 HD
ATOM     54  C   UNL A   1      41.179  31.917  36.168  1.00  0.00     0.074 A 
ATOM     55  C   UNL A   1      42.074  31.738  37.298  1.00  0.00     0.031 C 
ATOM     56  C   UNL A   1      40.262  32.914  36.076  1.00  0.00     0.037 A 
BRANCH  43  57
ATOM     57  C   UNL A   1      36.784  32.974  30.925  1.00  0.00     0.058 A 
ATOM     58  C   UNL A   1      37.027  33.964  29.958  1.00  0.00     0.135 A 
ATOM     59  C   UNL A   1      35.453  32.621  31.187  1.00  0.00     0.135 A 
ATOM     60  F   UNL A   1      38.278  34.395  29.726  1.00  0.00    -0.206 F 
ATOM     61  C   UNL A   1      35.983  34.594  29.291  1.00  0.00     0.059 A 
ATOM     62  C   UNL A   1      34.396  33.207  30.503  1.00  0.00     0.059 A 
ATOM     63  F   UNL A   1      35.166  31.722  32.141  1.00  0.00    -0.206 F 
ATOM     64  C   UNL A   1      34.671  34.197  29.563  1.00  0.00     0.060 A 
BRANCH  64  65
ATOM     65  S   UNL A   1      33.331  34.980  28.647  1.00  0.00     0.124 S 
ATOM     66  O   UNL A   1      34.063  35.891  27.774  1.00  0.00    -0.237 OA
ATOM     67  O   UNL A   1      32.703  33.838  27.991  1.00  0.00    -0.237 OA
ATOM     68  O   UNL A   1      32.534  35.616  29.692  1.00  0.00    -0.744 OA
ENDBRANCH  64  65
ENDBRANCH  43  57
BRANCH  44  69
ATOM     69  C   UNL A   1      44.264  28.314  36.018  1.00  0.00     0.058 A 
ATOM     70  C   UNL A   1      44.011  27.243  36.893  1.00  0.00     0.135 A 
ATOM     71  C   UNL A   1      45.599  28.743  35.914  1.00  0.00     0.135 A 
ATOM     72  F   UNL A   1      42.758  26.793  37.058  1.00  0.00    -0.206 F 
ATOM     73  C   UNL A   1      45.029  26.637  37.635  1.00  0.00     0.059 A 
ATOM     74  C   UNL A   1      46.636  28.135  36.617  1.00  0.00     0.059 A 
ATOM     75  F   UNL A   1      45.914  29.769  35.106  1.00  0.00    -0.206 F 
ATOM     76  C   UNL A   1      46.342  27.088  37.485  1.00  0.00     0.060 A 
BRANCH  76  77
ATOM     77  S   UNL A   1      47.661  26.279  38.421  1.00  0.00     0.124 S 
ATOM     78  O   UNL A   1      47.184  26.421  39.792  1.00  0.00    -0.237 OA
ATOM     79  O   UNL A   1      47.638  24.927  37.872  1.00  0.00    -0.237 OA
ATOM     80  O   UNL A   1      48.844  27.065  38.083  1.00  0.00    -0.744 OA
ENDBRANCH  76  77
ENDBRANCH  44  69
BRANCH  56  81
ATOM     81  C   UNL A   1      40.148  33.837  37.251  1.00  0.00     0.058 A 
ATOM     82  C   UNL A   1      40.827  35.062  37.298  1.00  0.00     0.135 A 
ATOM     83  C   UNL A   1      39.268  33.519  38.298  1.00  0.00     0.135 A 
ATOM     84  F   UNL A   1      41.677  35.406  36.318  1.00  0.00    -0.206 F 
ATOM     85  C   UNL A   1      40.658  35.933  38.364  1.00  0.00     0.059 A 
ATOM     86  C   UNL A   1      39.051  34.395  39.351  1.00  0.00     0.059 A 
ATOM     87  F   UNL A   1      38.582  32.364  38.281  1.00  0.00    -0.206 F 
ATOM     88  C   UNL A   1      39.761  35.593  39.381  1.00  0.00     0.060 A 
BRANCH  88  89
ATOM     89  S   UNL A   1      39.520  36.755  40.737  1.00  0.00     0.124 S 
ATOM     90  O   UNL A   1      40.661  36.448  41.591  1.00  0.00    -0.237 OA
ATOM     91  O   UNL A   1      39.566  38.042  40.050  1.00  0.00    -0.237 OA
ATOM     92  O   UNL A   1      38.215  36.384  41.274  1.00  0.00    -0.744 OA
ENDBRANCH  88  89
ENDBRANCH  56  81
ENDBRANCH  30  31
ENDBRANCH  23  25
ENDBRANCH  22  23
ENDBRANCH  21  22
ENDBRANCH   1  21
TORSDOF 18
ENDMDL
MODEL 3
REMARK VINA RESULT:     -13.6      4.087      8.386
REMARK SMILES COc1ccc(CSc2ncccc2C(=O)OCCOC(=O)c2ccc(-c3c4nc(c(-c5c(F)cc(S(=O)(=O)[O-])cc5F)c5ccc([nH]5)c(-c5c(F)cc(S(=O)(=O)[O-])cc5F)c5nc(c(-c6c(F)cc(S(=O)(=O)[O-])cc6F)c6ccc3[nH]6)C=C5)C=C4)cc2)cc1
REMARK SMILES IDX 18 1 17 2 15 3 16 4 14 5 9 6 10 7 11 8 13 9 12 10 8 11 7 12
REMARK SMILES IDX 6 13 3 14 4 15 90 16 5 17 89 18 2 19 1 20 19 21 20 22 21 23
REMARK SMILES IDX 22 24 23 25 24 26 88 27 25 28 87 29 26 30 27 31 28 32 81 33
REMARK SMILES IDX 29 34 86 35 80 36 82 37 30 38 85 39 79 40 78 41 31 43 65 44
REMARK SMILES IDX 44 45 64 46 45 47 48 48 63 49 83 50 46 51 47 52 62 54 84 55
REMARK SMILES IDX 49 56 32 57 33 58 42 59 34 60 35 61 41 62 43 63 36 64 37 65
REMARK SMILES IDX 38 66 39 67 40 68 66 69 67 70 76 71 68 72 69 73 75 74 77 75
REMARK SMILES IDX 70 76 71 77 72 78 73 79 74 80 50 81 51 82 60 83 52 84 53 85
REMARK SMILES IDX 59 86 61 87 54 88 55 89 56 90 57 91 58 92
REMARK H PARENT 82 42 48 53
REMARK Flexibility Score: inf
ROOT
ATOM      1  C   UNL A   1      35.233  24.327  25.929  1.00  0.00     0.275 C 
ENDROOT
BRANCH   1   2
ATOM      2  O   UNL A   1      35.053  22.932  24.936  1.00  0.00    -0.458 OA
BRANCH   2   3
ATOM      3  C   UNL A   1      35.408  21.552  25.150  1.00  0.00     0.341 C 
ATOM      4  O   UNL A   1      36.553  21.148  25.347  1.00  0.00    -0.246 OA
BRANCH   3   5
ATOM      5  C   UNL A   1      34.289  20.509  25.030  1.00  0.00     0.092 A 
ATOM      6  C   UNL A   1      32.829  20.575  25.226  1.00  0.00     0.111 A 
ATOM      7  N   UNL A   1      32.054  19.456  25.006  1.00  0.00    -0.249 NA
ATOM      8  C   UNL A   1      32.669  18.304  24.613  1.00  0.00     0.112 A 
ATOM      9  C   UNL A   1      34.847  19.253  24.700  1.00  0.00     0.020 A 
ATOM     10  C   UNL A   1      34.038  18.144  24.482  1.00  0.00     0.021 A 
BRANCH   6  11
ATOM     11  S   UNL A   1      31.683  22.035  25.820  1.00  0.00    -0.101 SA
BRANCH  11  12
ATOM     12  C   UNL A   1      31.765  23.951  24.679  1.00  0.00     0.112 C 
BRANCH  12  13
ATOM     13  C   UNL A   1      31.967  24.225  22.722  1.00  0.00    -0.037 A 
ATOM     14  C   UNL A   1      30.865  27.192  23.710  1.00  0.00     0.118 A 
ATOM     15  C   UNL A   1      29.891  25.752  23.775  1.00  0.00     0.047 A 
ATOM     16  C   UNL A   1      32.577  27.323  22.818  1.00  0.00     0.047 A 
ATOM     17  C   UNL A   1      30.352  24.384  23.189  1.00  0.00     0.008 A 
ATOM     18  C   UNL A   1      33.065  25.670  22.067  1.00  0.00     0.008 A 
BRANCH  14  19
ATOM     19  O   UNL A   1      29.686  28.121  23.609  1.00  0.00    -0.497 OA
ATOM     20  C   UNL A   1      29.835  29.563  23.386  1.00  0.00     0.278 C 
ENDBRANCH  14  19
ENDBRANCH  12  13
ENDBRANCH  11  12
ENDBRANCH   6  11
ENDBRANCH   3   5
ENDBRANCH   2   3
ENDBRANCH   1   2
BRANCH   1  21
ATOM     21  C   UNL A   1      34.599  26.045  25.359  1.00  0.00     0.275 C 
BRANCH  21  22
ATOM     22  O   UNL A   1      33.591  27.042  26.598  1.00  0.00    -0.458 OA
BRANCH  22  23
ATOM     23  C   UNL A   1      33.914  28.825  27.351  1.00  0.00     0.338 C 
ATOM     24  O   UNL A   1      33.375  29.903  27.000  1.00  0.00    -0.246 OA
BRANCH  23  25
ATOM     25  C   UNL A   1      35.589  29.457  27.965  1.00  0.00     0.060 A 
ATOM     26  C   UNL A   1      36.017  29.135  29.288  1.00  0.00     0.016 A 
ATOM     27  C   UNL A   1      36.657  30.068  27.212  1.00  0.00     0.016 A 
ATOM     28  C   UNL A   1      37.323  29.272  29.739  1.00  0.00     0.010 A 
ATOM     29  C   UNL A   1      38.009  29.936  27.561  1.00  0.00     0.010 A 
ATOM     30  C   UNL A   1      38.330  29.453  28.816  1.00  0.00    -0.014 A 
BRANCH  30  31
ATOM     31  C   UNL A   1      39.683  29.263  29.341  1.00  0.00     0.031 A 
ATOM     32  C   UNL A   1      40.340  27.996  28.949  1.00  0.00     0.074 A 
ATOM     33  C   UNL A   1      40.344  30.318  29.867  1.00  0.00     0.049 A 
ATOM     34  N   UNL A   1      41.545  27.585  29.190  1.00  0.00    -0.248 NA
ATOM     35  C   UNL A   1      39.518  27.061  28.157  1.00  0.00     0.031 C 
ATOM     36  C   UNL A   1      39.760  31.647  30.119  1.00  0.00     0.029 A 
ATOM     37  N   UNL A   1      41.663  30.483  30.192  1.00  0.00    -0.354 N 
ATOM     38  C   UNL A   1      41.608  26.327  28.619  1.00  0.00     0.074 A 
ATOM     39  C   UNL A   1      40.319  26.022  28.053  1.00  0.00     0.031 C 
ATOM     40  C   UNL A   1      40.733  32.498  30.490  1.00  0.00     0.029 A 
ATOM     41  C   UNL A   1      41.989  31.765  30.587  1.00  0.00     0.049 A 
ATOM     42  H   UNL A   1      42.321  29.754  30.148  1.00  0.00     0.167 HD
ATOM     43  C   UNL A   1      42.676  25.511  28.565  1.00  0.00     0.037 A 
ATOM     44  C   UNL A   1      43.174  32.260  31.002  1.00  0.00     0.037 A 
ATOM     45  C   UNL A   1      43.948  25.895  29.096  1.00  0.00     0.049 A 
ATOM     46  C   UNL A   1      44.329  31.288  31.028  1.00  0.00     0.074 A 
ATOM     47  C   UNL A   1      45.101  25.149  29.190  1.00  0.00     0.029 A 
ATOM     48  N   UNL A   1      44.225  27.155  29.617  1.00  0.00    -0.354 N 
ATOM     49  N   UNL A   1      44.359  30.042  30.604  1.00  0.00    -0.248 NA
ATOM     50  C   UNL A   1      45.591  31.758  31.607  1.00  0.00     0.031 C 
ATOM     51  C   UNL A   1      46.059  25.939  29.831  1.00  0.00     0.029 A 
ATOM     52  C   UNL A   1      45.530  27.204  30.058  1.00  0.00     0.049 A 
ATOM     53  H   UNL A   1      43.583  27.900  29.664  1.00  0.00     0.167 HD
ATOM     54  C   UNL A   1      45.645  29.583  30.850  1.00  0.00     0.074 A 
ATOM     55  C   UNL A   1      46.369  30.696  31.440  1.00  0.00     0.031 C 
ATOM     56  C   UNL A   1      46.187  28.359  30.623  1.00  0.00     0.037 A 
BRANCH  43  57
ATOM     57  C   UNL A   1      42.435  24.137  28.026  1.00  0.00     0.058 A 
ATOM     58  C   UNL A   1      42.375  22.998  28.846  1.00  0.00     0.135 A 
ATOM     59  C   UNL A   1      42.373  23.955  26.638  1.00  0.00     0.135 A 
ATOM     60  F   UNL A   1      42.511  23.111  30.178  1.00  0.00    -0.206 F 
ATOM     61  C   UNL A   1      42.277  21.722  28.304  1.00  0.00     0.059 A 
ATOM     62  C   UNL A   1      42.232  22.693  26.076  1.00  0.00     0.059 A 
ATOM     63  F   UNL A   1      42.482  25.006  25.811  1.00  0.00    -0.206 F 
ATOM     64  C   UNL A   1      42.193  21.584  26.917  1.00  0.00     0.060 A 
BRANCH  64  65
ATOM     65  S   UNL A   1      42.005  19.928  26.231  1.00  0.00     0.124 S 
ATOM     66  O   UNL A   1      40.573  19.884  25.954  1.00  0.00    -0.237 OA
ATOM     67  O   UNL A   1      42.876  19.982  25.061  1.00  0.00    -0.237 OA
ATOM     68  O   UNL A   1      42.463  19.059  27.311  1.00  0.00    -0.744 OA
ENDBRANCH  64  65
ENDBRANCH  43  57
BRANCH  44  69
ATOM     69  C   UNL A   1      43.314  33.665  31.499  1.00  0.00     0.058 A 
ATOM     70  C   UNL A   1      43.730  34.722  30.671  1.00  0.00     0.135 A 
ATOM     71  C   UNL A   1      43.066  33.979  32.848  1.00  0.00     0.135 A 
ATOM     72  F   UNL A   1      44.005  34.492  29.377  1.00  0.00    -0.206 F 
ATOM     73  C   UNL A   1      43.904  36.021  31.157  1.00  0.00     0.059 A 
ATOM     74  C   UNL A   1      43.200  35.272  33.350  1.00  0.00     0.059 A 
ATOM     75  F   UNL A   1      42.677  33.018  33.701  1.00  0.00    -0.206 F 
ATOM     76  C   UNL A   1      43.630  36.286  32.501  1.00  0.00     0.060 A 
BRANCH  76  77
ATOM     77  S   UNL A   1      43.823  37.974  33.119  1.00  0.00     0.124 S 
ATOM     78  O   UNL A   1      43.715  38.755  31.892  1.00  0.00    -0.237 OA
ATOM     79  O   UNL A   1      42.704  38.087  34.049  1.00  0.00    -0.237 OA
ATOM     80  O   UNL A   1      45.145  37.958  33.739  1.00  0.00    -0.744 OA
ENDBRANCH  76  77
ENDBRANCH  44  69
BRANCH  56  81
ATOM     81  C   UNL A   1      47.637  28.189  30.960  1.00  0.00     0.058 A 
ATOM     82  C   UNL A   1      48.056  27.744  32.221  1.00  0.00     0.135 A 
ATOM     83  C   UNL A   1      48.607  28.391  29.966  1.00  0.00     0.135 A 
ATOM     84  F   UNL A   1      47.162  27.538  33.201  1.00  0.00    -0.206 F 
ATOM     85  C   UNL A   1      49.399  27.530  32.494  1.00  0.00     0.059 A 
ATOM     86  C   UNL A   1      49.950  28.141  30.204  1.00  0.00     0.059 A 
ATOM     87  F   UNL A   1      48.245  28.798  28.738  1.00  0.00    -0.206 F 
ATOM     88  C   UNL A   1      50.337  27.723  31.476  1.00  0.00     0.060 A 
BRANCH  88  89
ATOM     89  S   UNL A   1      52.072  27.399  31.834  1.00  0.00     0.124 S 
ATOM     90  O   UNL A   1      52.021  26.020  32.306  1.00  0.00    -0.237 OA
ATOM     91  O   UNL A   1      52.698  27.603  30.531  1.00  0.00    -0.237 OA
ATOM     92  O   UNL A   1      52.403  28.398  32.846  1.00  0.00    -0.744 OA
ENDBRANCH  88  89
ENDBRANCH  56  81
ENDBRANCH  30  31
ENDBRANCH  23  25
ENDBRANCH  22  23
ENDBRANCH  21  22
ENDBRANCH   1  21
TORSDOF 18
ENDMDL
