MODEL 1
REMARK VINA RESULT:     -11.1      0.000      0.000
REMARK SMILES Cc1ccc(Cl)cc1S(=O)(=O)N1CC[C@@H](C(=O)OCCOC(=O)c2ccc(-c3c4nc(c(-c5c(F)cc(S(=O)(=O)[O-])cc5F)c5ccc([nH]5)c(-c5c(F)cc(S(=O)(=O)[O-])cc5F)c5nc(c(-c6c(F)cc(S(=O)(=O)[O-])cc6F)c6ccc3[nH]6)C=C5)C=C4)cc2)[C@@H]1C
REMARK SMILES IDX 20 1 19 2 18 3 16 4 17 5 15 6 12 7 13 8 90 9 14 10 91 11
REMARK SMILES IDX 9 12 10 13 11 14 8 15 1 16 2 17 3 18 4 19 7 20 5 21 6 22
REMARK SMILES IDX 21 23 22 24 23 25 24 26 25 27 89 28 26 29 88 30 27 31 28 32
REMARK SMILES IDX 29 33 82 34 30 35 87 36 81 37 83 38 31 39 86 40 80 41 79 42
REMARK SMILES IDX 32 44 66 45 45 46 65 47 46 48 49 49 64 50 84 51 47 52 48 53
REMARK SMILES IDX 63 55 85 56 50 57 33 58 34 59 43 60 35 61 36 62 42 63 44 64
REMARK SMILES IDX 37 65 38 66 39 67 40 68 41 69 67 70 68 71 77 72 69 73 70 74
REMARK SMILES IDX 76 75 78 76 71 77 72 78 73 79 74 80 75 81 51 82 52 83 61 84
REMARK SMILES IDX 53 85 54 86 60 87 62 88 55 89 56 90 57 91 58 92 59 93
REMARK H PARENT 83 43 49 54
REMARK Flexibility Score: inf
ROOT
ATOM      1  C   UNL A   1      34.011  32.593  28.608  1.00  0.00     0.275 C 
ENDROOT
BRANCH   1   2
ATOM      2  C   UNL A   1      33.804  34.096  28.408  1.00  0.00     0.274 C 
BRANCH   2   3
ATOM      3  O   UNL A   1      33.238  34.667  29.603  1.00  0.00    -0.462 OA
BRANCH   3   4
ATOM      4  C   UNL A   1      33.221  36.017  29.729  1.00  0.00     0.310 C 
ATOM      5  O   UNL A   1      33.519  36.800  28.835  1.00  0.00    -0.252 OA
BRANCH   4   6
ATOM      6  C   UNL A   1      32.657  36.463  31.071  1.00  0.00     0.118 C 
ATOM      7  N   UNL A   1      33.647  35.272  32.806  1.00  0.00    -0.194 NA
ATOM      8  C   UNL A   1      34.134  36.634  33.021  1.00  0.00     0.104 C 
ATOM      9  C   UNL A   1      32.395  35.314  32.037  1.00  0.00     0.084 C 
ATOM     10  C   UNL A   1      33.580  37.429  31.835  1.00  0.00     0.034 C 
ATOM     11  C   UNL A   1      31.211  35.674  32.946  1.00  0.00     0.027 C 
BRANCH   7  12
ATOM     12  S   UNL A   1      34.586  33.905  32.978  1.00  0.00     0.243 S 
ATOM     13  O   UNL A   1      33.971  32.918  32.115  1.00  0.00    -0.207 OA
ATOM     14  O   UNL A   1      34.748  33.641  34.395  1.00  0.00    -0.207 OA
BRANCH  12  15
ATOM     15  C   UNL A   1      36.263  34.131  32.330  1.00  0.00     0.087 A 
ATOM     16  C   UNL A   1      37.596  34.454  34.540  1.00  0.00     0.046 C 
ATOM     17  C   UNL A   1      37.440  34.402  33.056  1.00  0.00    -0.031 A 
ATOM     18  C   UNL A   1      38.666  34.515  32.355  1.00  0.00     0.006 A 
ATOM     19  C   UNL A   1      38.756  34.267  30.991  1.00  0.00     0.021 A 
ATOM     20  C   UNL A   1      36.378  33.868  30.945  1.00  0.00     0.042 A 
ATOM     21  C   UNL A   1      37.612  33.910  30.297  1.00  0.00     0.042 A 
ATOM     22  Cl  UNL A   1      37.732  33.470  28.637  1.00  0.00    -0.084 Cl
ENDBRANCH  12  15
ENDBRANCH   7  12
ENDBRANCH   4   6
ENDBRANCH   3   4
ENDBRANCH   2   3
ENDBRANCH   1   2
BRANCH   1  23
ATOM     23  O   UNL A   1      34.686  32.022  27.473  1.00  0.00    -0.458 OA
BRANCH  23  24
ATOM     24  C   UNL A   1      34.592  30.676  27.385  1.00  0.00     0.338 C 
ATOM     25  O   UNL A   1      33.706  30.022  26.862  1.00  0.00    -0.246 OA
BRANCH  24  26
ATOM     26  C   UNL A   1      35.836  30.064  27.859  1.00  0.00     0.060 A 
ATOM     27  C   UNL A   1      35.825  29.480  29.123  1.00  0.00     0.016 A 
ATOM     28  C   UNL A   1      37.026  30.210  27.155  1.00  0.00     0.016 A 
ATOM     29  C   UNL A   1      37.008  29.167  29.761  1.00  0.00     0.010 A 
ATOM     30  C   UNL A   1      38.214  29.781  27.752  1.00  0.00     0.010 A 
ATOM     31  C   UNL A   1      38.215  29.296  29.074  1.00  0.00    -0.014 A 
BRANCH  31  32
ATOM     32  C   UNL A   1      39.472  28.950  29.769  1.00  0.00     0.031 A 
ATOM     33  C   UNL A   1      39.865  29.717  30.999  1.00  0.00     0.074 A 
ATOM     34  C   UNL A   1      40.227  27.935  29.306  1.00  0.00     0.049 A 
ATOM     35  N   UNL A   1      40.995  29.701  31.650  1.00  0.00    -0.248 NA
ATOM     36  C   UNL A   1      38.858  30.633  31.563  1.00  0.00     0.031 C 
ATOM     37  C   UNL A   1      39.890  27.077  28.164  1.00  0.00     0.029 A 
ATOM     38  N   UNL A   1      41.433  27.448  29.734  1.00  0.00    -0.354 N 
ATOM     39  C   UNL A   1      40.861  30.646  32.660  1.00  0.00     0.074 A 
ATOM     40  C   UNL A   1      39.537  31.214  32.542  1.00  0.00     0.031 C 
ATOM     41  C   UNL A   1      40.857  26.163  27.995  1.00  0.00     0.029 A 
ATOM     42  C   UNL A   1      41.922  26.429  28.950  1.00  0.00     0.049 A 
ATOM     43  H   UNL A   1      41.904  27.793  30.527  1.00  0.00     0.167 HD
ATOM     44  C   UNL A   1      41.775  31.006  33.589  1.00  0.00     0.037 A 
ATOM     45  C   UNL A   1      43.122  25.821  28.964  1.00  0.00     0.037 A 
ATOM     46  C   UNL A   1      43.068  30.383  33.709  1.00  0.00     0.049 A 
ATOM     47  C   UNL A   1      44.135  26.279  29.977  1.00  0.00     0.074 A 
ATOM     48  C   UNL A   1      44.065  30.643  34.630  1.00  0.00     0.029 A 
ATOM     49  N   UNL A   1      43.535  29.370  32.883  1.00  0.00    -0.354 N 
ATOM     50  N   UNL A   1      44.010  27.193  30.911  1.00  0.00    -0.248 NA
ATOM     51  C   UNL A   1      45.453  25.637  29.932  1.00  0.00     0.031 C 
ATOM     52  C   UNL A   1      45.158  29.824  34.328  1.00  0.00     0.029 A 
ATOM     53  C   UNL A   1      44.818  29.011  33.257  1.00  0.00     0.049 A 
ATOM     54  H   UNL A   1      43.030  28.967  32.141  1.00  0.00     0.167 HD
ATOM     55  C   UNL A   1      45.225  27.214  31.584  1.00  0.00     0.074 A 
ATOM     56  C   UNL A   1      46.064  26.212  30.958  1.00  0.00     0.031 C 
ATOM     57  C   UNL A   1      45.615  27.991  32.624  1.00  0.00     0.037 A 
BRANCH  44  58
ATOM     58  C   UNL A   1      41.443  32.144  34.513  1.00  0.00     0.058 A 
ATOM     59  C   UNL A   1      41.698  33.483  34.179  1.00  0.00     0.135 A 
ATOM     60  C   UNL A   1      40.798  31.886  35.735  1.00  0.00     0.135 A 
ATOM     61  F   UNL A   1      42.336  33.785  33.037  1.00  0.00    -0.206 F 
ATOM     62  C   UNL A   1      41.326  34.525  35.023  1.00  0.00     0.059 A 
ATOM     63  C   UNL A   1      40.395  32.912  36.582  1.00  0.00     0.059 A 
ATOM     64  F   UNL A   1      40.542  30.622  36.109  1.00  0.00    -0.206 F 
ATOM     65  C   UNL A   1      40.668  34.230  36.220  1.00  0.00     0.060 A 
BRANCH  65  66
ATOM     66  S   UNL A   1      40.150  35.595  37.281  1.00  0.00     0.124 S 
ATOM     67  O   UNL A   1      39.828  36.624  36.297  1.00  0.00    -0.237 OA
ATOM     68  O   UNL A   1      39.013  35.021  37.993  1.00  0.00    -0.237 OA
ATOM     69  O   UNL A   1      41.330  35.859  38.098  1.00  0.00    -0.744 OA
ENDBRANCH  65  66
ENDBRANCH  44  58
BRANCH  45  70
ATOM     70  C   UNL A   1      43.452  24.769  27.966  1.00  0.00     0.058 A 
ATOM     71  C   UNL A   1      43.274  23.410  28.262  1.00  0.00     0.135 A 
ATOM     72  C   UNL A   1      43.972  25.098  26.702  1.00  0.00     0.135 A 
ATOM     73  F   UNL A   1      42.781  23.043  29.455  1.00  0.00    -0.206 F 
ATOM     74  C   UNL A   1      43.634  22.413  27.360  1.00  0.00     0.059 A 
ATOM     75  C   UNL A   1      44.307  24.120  25.770  1.00  0.00     0.059 A 
ATOM     76  F   UNL A   1      44.146  26.383  26.357  1.00  0.00    -0.206 F 
ATOM     77  C   UNL A   1      44.155  22.780  26.118  1.00  0.00     0.060 A 
BRANCH  77  78
ATOM     78  S   UNL A   1      44.620  21.480  24.954  1.00  0.00     0.124 S 
ATOM     79  O   UNL A   1      44.582  22.198  23.686  1.00  0.00    -0.237 OA
ATOM     80  O   UNL A   1      45.946  21.099  25.433  1.00  0.00    -0.237 OA
ATOM     81  O   UNL A   1      43.580  20.473  25.143  1.00  0.00    -0.744 OA
ENDBRANCH  77  78
ENDBRANCH  45  70
BRANCH  57  82
ATOM     82  C   UNL A   1      46.986  27.743  33.183  1.00  0.00     0.058 A 
ATOM     83  C   UNL A   1      47.215  26.786  34.183  1.00  0.00     0.135 A 
ATOM     84  C   UNL A   1      48.091  28.444  32.673  1.00  0.00     0.135 A 
ATOM     85  F   UNL A   1      46.190  26.099  34.709  1.00  0.00    -0.206 F 
ATOM     86  C   UNL A   1      48.493  26.549  34.676  1.00  0.00     0.059 A 
ATOM     87  C   UNL A   1      49.381  28.199  33.128  1.00  0.00     0.059 A 
ATOM     88  F   UNL A   1      47.923  29.362  31.708  1.00  0.00    -0.206 F 
ATOM     89  C   UNL A   1      49.570  27.258  34.139  1.00  0.00     0.060 A 
BRANCH  89  90
ATOM     90  S   UNL A   1      51.228  26.914  34.762  1.00  0.00     0.124 S 
ATOM     91  O   UNL A   1      51.071  27.201  36.184  1.00  0.00    -0.237 OA
ATOM     92  O   UNL A   1      51.404  25.508  34.414  1.00  0.00    -0.237 OA
ATOM     93  O   UNL A   1      52.069  27.847  34.020  1.00  0.00    -0.744 OA
ENDBRANCH  89  90
ENDBRANCH  57  82
ENDBRANCH  31  32
ENDBRANCH  24  26
ENDBRANCH  23  24
ENDBRANCH   1  23
TORSDOF 16
ENDMDL
MODEL 2
REMARK VINA RESULT:     -10.9      5.381     12.068
REMARK SMILES Cc1ccc(Cl)cc1S(=O)(=O)N1CC[C@@H](C(=O)OCCOC(=O)c2ccc(-c3c4nc(c(-c5c(F)cc(S(=O)(=O)[O-])cc5F)c5ccc([nH]5)c(-c5c(F)cc(S(=O)(=O)[O-])cc5F)c5nc(c(-c6c(F)cc(S(=O)(=O)[O-])cc6F)c6ccc3[nH]6)C=C5)C=C4)cc2)[C@@H]1C
REMARK SMILES IDX 20 1 19 2 18 3 16 4 17 5 15 6 12 7 13 8 90 9 14 10 91 11
REMARK SMILES IDX 9 12 10 13 11 14 8 15 1 16 2 17 3 18 4 19 7 20 5 21 6 22
REMARK SMILES IDX 21 23 22 24 23 25 24 26 25 27 89 28 26 29 88 30 27 31 28 32
REMARK SMILES IDX 29 33 82 34 30 35 87 36 81 37 83 38 31 39 86 40 80 41 79 42
REMARK SMILES IDX 32 44 66 45 45 46 65 47 46 48 49 49 64 50 84 51 47 52 48 53
REMARK SMILES IDX 63 55 85 56 50 57 33 58 34 59 43 60 35 61 36 62 42 63 44 64
REMARK SMILES IDX 37 65 38 66 39 67 40 68 41 69 67 70 68 71 77 72 69 73 70 74
REMARK SMILES IDX 76 75 78 76 71 77 72 78 73 79 74 80 75 81 51 82 52 83 61 84
REMARK SMILES IDX 53 85 54 86 60 87 62 88 55 89 56 90 57 91 58 92 59 93
REMARK H PARENT 83 43 49 54
REMARK Flexibility Score: inf
ROOT
ATOM      1  C   UNL A   1      40.226  22.254  26.588  1.00  0.00     0.275 C 
ENDROOT
BRANCH   1   2
ATOM      2  C   UNL A   1      39.044  21.461  26.026  1.00  0.00     0.274 C 
BRANCH   2   3
ATOM      3  O   UNL A   1      37.996  22.368  25.638  1.00  0.00    -0.462 OA
BRANCH   3   4
ATOM      4  C   UNL A   1      36.894  21.863  25.031  1.00  0.00     0.310 C 
ATOM      5  O   UNL A   1      36.588  20.677  25.028  1.00  0.00    -0.252 OA
BRANCH   4   6
ATOM      6  C   UNL A   1      35.998  22.954  24.460  1.00  0.00     0.118 C 
ATOM      7  N   UNL A   1      33.773  22.543  24.998  1.00  0.00    -0.194 NA
ATOM      8  C   UNL A   1      34.077  23.758  25.755  1.00  0.00     0.104 C 
ATOM      9  C   UNL A   1      34.699  22.428  23.863  1.00  0.00     0.084 C 
ATOM     10  C   UNL A   1      35.567  24.001  25.503  1.00  0.00     0.034 C 
ATOM     11  C   UNL A   1      34.262  23.345  22.711  1.00  0.00     0.027 C 
BRANCH   7  12
ATOM     12  S   UNL A   1      32.866  21.275  25.589  1.00  0.00     0.243 S 
ATOM     13  O   UNL A   1      31.501  21.758  25.584  1.00  0.00    -0.207 OA
ATOM     14  O   UNL A   1      33.477  20.818  26.823  1.00  0.00    -0.207 OA
BRANCH  12  15
ATOM     15  C   UNL A   1      32.874  19.842  24.481  1.00  0.00     0.087 A 
ATOM     16  C   UNL A   1      31.818  20.880  22.343  1.00  0.00     0.046 C 
ATOM     17  C   UNL A   1      32.372  19.765  23.166  1.00  0.00    -0.031 A 
ATOM     18  C   UNL A   1      32.504  18.548  22.454  1.00  0.00     0.006 A 
ATOM     19  C   UNL A   1      33.201  17.465  22.975  1.00  0.00     0.021 A 
ATOM     20  C   UNL A   1      33.593  18.734  24.987  1.00  0.00     0.042 A 
ATOM     21  C   UNL A   1      33.773  17.577  24.231  1.00  0.00     0.042 A 
ATOM     22  Cl  UNL A   1      34.752  16.296  24.833  1.00  0.00    -0.084 Cl
ENDBRANCH  12  15
ENDBRANCH   7  12
ENDBRANCH   4   6
ENDBRANCH   3   4
ENDBRANCH   2   3
ENDBRANCH   1   2
BRANCH   1  23
ATOM     23  O   UNL A   1      39.893  23.649  26.693  1.00  0.00    -0.458 OA
BRANCH  23  24
ATOM     24  C   UNL A   1      40.961  24.477  26.747  1.00  0.00     0.338 C 
ATOM     25  O   UNL A   1      41.985  24.419  26.089  1.00  0.00    -0.246 OA
BRANCH  24  26
ATOM     26  C   UNL A   1      40.652  25.622  27.608  1.00  0.00     0.060 A 
ATOM     27  C   UNL A   1      41.517  26.712  27.562  1.00  0.00     0.016 A 
ATOM     28  C   UNL A   1      39.639  25.559  28.558  1.00  0.00     0.016 A 
ATOM     29  C   UNL A   1      41.478  27.678  28.546  1.00  0.00     0.010 A 
ATOM     30  C   UNL A   1      39.522  26.599  29.482  1.00  0.00     0.010 A 
ATOM     31  C   UNL A   1      40.467  27.643  29.506  1.00  0.00    -0.014 A 
BRANCH  31  32
ATOM     32  C   UNL A   1      40.436  28.690  30.548  1.00  0.00     0.031 A 
ATOM     33  C   UNL A   1      41.401  28.612  31.696  1.00  0.00     0.074 A 
ATOM     34  C   UNL A   1      39.563  29.711  30.435  1.00  0.00     0.049 A 
ATOM     35  N   UNL A   1      41.426  29.311  32.796  1.00  0.00    -0.248 NA
ATOM     36  C   UNL A   1      42.471  27.603  31.599  1.00  0.00     0.031 C 
ATOM     37  C   UNL A   1      38.639  29.920  29.315  1.00  0.00     0.029 A 
ATOM     38  N   UNL A   1      39.310  30.768  31.268  1.00  0.00    -0.354 N 
ATOM     39  C   UNL A   1      42.471  28.789  33.550  1.00  0.00     0.074 A 
ATOM     40  C   UNL A   1      43.061  27.717  32.780  1.00  0.00     0.031 C 
ATOM     41  C   UNL A   1      37.933  31.040  29.525  1.00  0.00     0.029 A 
ATOM     42  C   UNL A   1      38.284  31.574  30.832  1.00  0.00     0.049 A 
ATOM     43  H   UNL A   1      39.811  30.934  32.099  1.00  0.00     0.167 HD
ATOM     44  C   UNL A   1      42.882  29.172  34.780  1.00  0.00     0.037 A 
ATOM     45  C   UNL A   1      37.659  32.594  31.448  1.00  0.00     0.037 A 
ATOM     46  C   UNL A   1      42.303  30.278  35.498  1.00  0.00     0.049 A 
ATOM     47  C   UNL A   1      38.106  32.963  32.835  1.00  0.00     0.074 A 
ATOM     48  C   UNL A   1      42.656  30.779  36.737  1.00  0.00     0.029 A 
ATOM     49  N   UNL A   1      41.252  31.057  35.033  1.00  0.00    -0.354 N 
ATOM     50  N   UNL A   1      39.076  32.446  33.553  1.00  0.00    -0.248 NA
ATOM     51  C   UNL A   1      37.369  34.042  33.504  1.00  0.00     0.031 C 
ATOM     52  C   UNL A   1      41.785  31.827  37.046  1.00  0.00     0.029 A 
ATOM     53  C   UNL A   1      40.927  32.019  35.972  1.00  0.00     0.049 A 
ATOM     54  H   UNL A   1      40.804  30.943  34.164  1.00  0.00     0.167 HD
ATOM     55  C   UNL A   1      39.085  33.158  34.746  1.00  0.00     0.074 A 
ATOM     56  C   UNL A   1      38.032  34.148  34.646  1.00  0.00     0.031 C 
ATOM     57  C   UNL A   1      39.886  33.006  35.828  1.00  0.00     0.037 A 
BRANCH  44  58
ATOM     58  C   UNL A   1      43.966  28.376  35.450  1.00  0.00     0.058 A 
ATOM     59  C   UNL A   1      45.328  28.628  35.232  1.00  0.00     0.135 A 
ATOM     60  C   UNL A   1      43.625  27.377  36.379  1.00  0.00     0.135 A 
ATOM     61  F   UNL A   1      45.711  29.551  34.335  1.00  0.00    -0.206 F 
ATOM     62  C   UNL A   1      46.315  27.918  35.910  1.00  0.00     0.059 A 
ATOM     63  C   UNL A   1      44.593  26.673  37.086  1.00  0.00     0.059 A 
ATOM     64  F   UNL A   1      42.336  27.087  36.616  1.00  0.00    -0.206 F 
ATOM     65  C   UNL A   1      45.938  26.948  36.842  1.00  0.00     0.060 A 
BRANCH  65  66
ATOM     66  S   UNL A   1      47.229  26.070  37.747  1.00  0.00     0.124 S 
ATOM     67  O   UNL A   1      46.438  25.255  38.666  1.00  0.00    -0.237 OA
ATOM     68  O   UNL A   1      47.914  25.342  36.685  1.00  0.00    -0.237 OA
ATOM     69  O   UNL A   1      48.000  27.142  38.368  1.00  0.00    -0.744 OA
ENDBRANCH  65  66
ENDBRANCH  44  58
BRANCH  45  70
ATOM     70  C   UNL A   1      36.520  33.292  30.794  1.00  0.00     0.058 A 
ATOM     71  C   UNL A   1      36.732  34.187  29.736  1.00  0.00     0.135 A 
ATOM     72  C   UNL A   1      35.197  33.097  31.227  1.00  0.00     0.135 A 
ATOM     73  F   UNL A   1      37.976  34.409  29.285  1.00  0.00    -0.206 F 
ATOM     74  C   UNL A   1      35.682  34.892  29.154  1.00  0.00     0.059 A 
ATOM     75  C   UNL A   1      34.127  33.764  30.638  1.00  0.00     0.059 A 
ATOM     76  F   UNL A   1      34.932  32.238  32.223  1.00  0.00    -0.206 F 
ATOM     77  C   UNL A   1      34.383  34.676  29.617  1.00  0.00     0.060 A 
BRANCH  77  78
ATOM     78  S   UNL A   1      33.028  35.595  28.857  1.00  0.00     0.124 S 
ATOM     79  O   UNL A   1      32.270  36.018  30.029  1.00  0.00    -0.237 OA
ATOM     80  O   UNL A   1      33.736  36.651  28.139  1.00  0.00    -0.237 OA
ATOM     81  O   UNL A   1      32.379  34.598  28.011  1.00  0.00    -0.744 OA
ENDBRANCH  77  78
ENDBRANCH  45  70
BRANCH  57  82
ATOM     82  C   UNL A   1      39.692  33.972  36.961  1.00  0.00     0.058 A 
ATOM     83  C   UNL A   1      38.938  33.640  38.095  1.00  0.00     0.135 A 
ATOM     84  C   UNL A   1      40.314  35.232  36.925  1.00  0.00     0.135 A 
ATOM     85  F   UNL A   1      38.316  32.453  38.171  1.00  0.00    -0.206 F 
ATOM     86  C   UNL A   1      38.785  34.534  39.148  1.00  0.00     0.059 A 
ATOM     87  C   UNL A   1      40.202  36.128  37.981  1.00  0.00     0.059 A 
ATOM     88  F   UNL A   1      41.055  35.590  35.865  1.00  0.00    -0.206 F 
ATOM     89  C   UNL A   1      39.424  35.775  39.083  1.00  0.00     0.060 A 
BRANCH  89  90
ATOM     90  S   UNL A   1      39.249  36.912  40.473  1.00  0.00     0.124 S 
ATOM     91  O   UNL A   1      38.457  36.114  41.404  1.00  0.00    -0.237 OA
ATOM     92  O   UNL A   1      40.636  37.147  40.859  1.00  0.00    -0.237 OA
ATOM     93  O   UNL A   1      38.564  38.060  39.888  1.00  0.00    -0.744 OA
ENDBRANCH  89  90
ENDBRANCH  57  82
ENDBRANCH  31  32
ENDBRANCH  24  26
ENDBRANCH  23  24
ENDBRANCH   1  23
TORSDOF 16
ENDMDL
MODEL 3
REMARK VINA RESULT:     -10.7      4.446      7.065
REMARK SMILES Cc1ccc(Cl)cc1S(=O)(=O)N1CC[C@@H](C(=O)OCCOC(=O)c2ccc(-c3c4nc(c(-c5c(F)cc(S(=O)(=O)[O-])cc5F)c5ccc([nH]5)c(-c5c(F)cc(S(=O)(=O)[O-])cc5F)c5nc(c(-c6c(F)cc(S(=O)(=O)[O-])cc6F)c6ccc3[nH]6)C=C5)C=C4)cc2)[C@@H]1C
REMARK SMILES IDX 20 1 19 2 18 3 16 4 17 5 15 6 12 7 13 8 90 9 14 10 91 11
REMARK SMILES IDX 9 12 10 13 11 14 8 15 1 16 2 17 3 18 4 19 7 20 5 21 6 22
REMARK SMILES IDX 21 23 22 24 23 25 24 26 25 27 89 28 26 29 88 30 27 31 28 32
REMARK SMILES IDX 29 33 82 34 30 35 87 36 81 37 83 38 31 39 86 40 80 41 79 42
REMARK SMILES IDX 32 44 66 45 45 46 65 47 46 48 49 49 64 50 84 51 47 52 48 53
REMARK SMILES IDX 63 55 85 56 50 57 33 58 34 59 43 60 35 61 36 62 42 63 44 64
REMARK SMILES IDX 37 65 38 66 39 67 40 68 41 69 67 70 68 71 77 72 69 73 70 74
REMARK SMILES IDX 76 75 78 76 71 77 72 78 73 79 74 80 75 81 51 82 52 83 61 84
REMARK SMILES IDX 53 85 54 86 60 87 62 88 55 89 56 90 57 91 58 92 59 93
REMARK H PARENT 83 43 49 54
REMARK Flexibility Score: inf
ROOT
ATOM      1  C   UNL A   1      32.341  28.393  27.811  1.00  0.00     0.275 C 
ENDROOT
BRANCH   1   2
ATOM      2  C   UNL A   1      31.670  27.420  26.839  1.00  0.00     0.274 C 
BRANCH   2   3
ATOM      3  O   UNL A   1      32.529  26.285  26.624  1.00  0.00    -0.462 OA
BRANCH   3   4
ATOM      4  C   UNL A   1      31.959  25.074  26.406  1.00  0.00     0.310 C 
ATOM      5  O   UNL A   1      30.771  24.828  26.574  1.00  0.00    -0.252 OA
BRANCH   4   6
ATOM      6  C   UNL A   1      32.937  24.078  25.798  1.00  0.00     0.118 C 
ATOM      7  N   UNL A   1      33.348  24.599  23.569  1.00  0.00    -0.194 NA
ATOM      8  C   UNL A   1      34.639  24.850  24.211  1.00  0.00     0.104 C 
ATOM      9  C   UNL A   1      32.573  23.651  24.382  1.00  0.00     0.084 C 
ATOM     10  C   UNL A   1      34.377  24.612  25.701  1.00  0.00     0.034 C 
ATOM     11  C   UNL A   1      33.054  22.212  24.145  1.00  0.00     0.027 C 
BRANCH   7  12
ATOM     12  S   UNL A   1      32.683  25.577  22.394  1.00  0.00     0.243 S 
ATOM     13  O   UNL A   1      31.563  24.823  21.871  1.00  0.00    -0.207 OA
ATOM     14  O   UNL A   1      33.749  26.013  21.511  1.00  0.00    -0.207 OA
BRANCH  12  15
ATOM     15  C   UNL A   1      31.965  27.092  23.078  1.00  0.00     0.087 A 
ATOM     16  C   UNL A   1      34.120  28.446  23.618  1.00  0.00     0.046 C 
ATOM     17  C   UNL A   1      32.645  28.209  23.605  1.00  0.00    -0.031 A 
ATOM     18  C   UNL A   1      31.891  29.315  24.067  1.00  0.00     0.006 A 
ATOM     19  C   UNL A   1      30.510  29.372  23.922  1.00  0.00     0.021 A 
ATOM     20  C   UNL A   1      30.561  27.177  22.926  1.00  0.00     0.042 A 
ATOM     21  C   UNL A   1      29.854  28.312  23.319  1.00  0.00     0.042 A 
ATOM     22  Cl  UNL A   1      28.165  28.427  23.012  1.00  0.00    -0.084 Cl
ENDBRANCH  12  15
ENDBRANCH   7  12
ENDBRANCH   4   6
ENDBRANCH   3   4
ENDBRANCH   2   3
ENDBRANCH   1   2
BRANCH   1  23
ATOM     23  O   UNL A   1      33.725  28.577  27.467  1.00  0.00    -0.458 OA
BRANCH  23  24
ATOM     24  C   UNL A   1      34.177  29.841  27.625  1.00  0.00     0.338 C 
ATOM     25  O   UNL A   1      33.536  30.876  27.572  1.00  0.00    -0.246 OA
BRANCH  24  26
ATOM     26  C   UNL A   1      35.572  29.811  28.074  1.00  0.00     0.060 A 
ATOM     27  C   UNL A   1      36.558  30.072  27.125  1.00  0.00     0.016 A 
ATOM     28  C   UNL A   1      35.912  29.371  29.348  1.00  0.00     0.016 A 
ATOM     29  C   UNL A   1      37.877  29.762  27.383  1.00  0.00     0.010 A 
ATOM     30  C   UNL A   1      37.261  29.171  29.650  1.00  0.00     0.010 A 
ATOM     31  C   UNL A   1      38.246  29.327  28.655  1.00  0.00    -0.014 A 
BRANCH  31  32
ATOM     32  C   UNL A   1      39.665  29.006  28.917  1.00  0.00     0.031 A 
ATOM     33  C   UNL A   1      40.562  30.063  29.493  1.00  0.00     0.074 A 
ATOM     34  C   UNL A   1      40.120  27.763  28.664  1.00  0.00     0.049 A 
ATOM     35  N   UNL A   1      41.859  30.053  29.630  1.00  0.00    -0.248 NA
ATOM     36  C   UNL A   1      39.916  31.302  29.963  1.00  0.00     0.031 C 
ATOM     37  C   UNL A   1      39.306  26.642  28.179  1.00  0.00     0.029 A 
ATOM     38  N   UNL A   1      41.375  27.229  28.779  1.00  0.00    -0.354 N 
ATOM     39  C   UNL A   1      42.192  31.302  30.142  1.00  0.00     0.074 A 
ATOM     40  C   UNL A   1      40.962  32.043  30.298  1.00  0.00     0.031 C 
ATOM     41  C   UNL A   1      40.079  25.554  28.054  1.00  0.00     0.029 A 
ATOM     42  C   UNL A   1      41.454  25.922  28.355  1.00  0.00     0.049 A 
ATOM     43  H   UNL A   1      42.146  27.730  29.130  1.00  0.00     0.167 HD
ATOM     44  C   UNL A   1      43.423  31.777  30.439  1.00  0.00     0.037 A 
ATOM     45  C   UNL A   1      42.528  25.132  28.174  1.00  0.00     0.037 A 
ATOM     46  C   UNL A   1      44.624  30.991  30.319  1.00  0.00     0.049 A 
ATOM     47  C   UNL A   1      43.887  25.706  28.466  1.00  0.00     0.074 A 
ATOM     48  C   UNL A   1      45.924  31.355  30.620  1.00  0.00     0.029 A 
ATOM     49  N   UNL A   1      44.667  29.679  29.866  1.00  0.00    -0.354 N 
ATOM     50  N   UNL A   1      44.196  26.897  28.923  1.00  0.00    -0.248 NA
ATOM     51  C   UNL A   1      45.042  24.839  28.206  1.00  0.00     0.031 C 
ATOM     52  C   UNL A   1      46.760  30.281  30.299  1.00  0.00     0.029 A 
ATOM     53  C   UNL A   1      45.975  29.227  29.855  1.00  0.00     0.049 A 
ATOM     54  H   UNL A   1      43.884  29.149  29.594  1.00  0.00     0.167 HD
ATOM     55  C   UNL A   1      45.581  26.911  29.034  1.00  0.00     0.074 A 
ATOM     56  C   UNL A   1      46.045  25.606  28.608  1.00  0.00     0.031 C 
ATOM     57  C   UNL A   1      46.398  27.911  29.447  1.00  0.00     0.037 A 
BRANCH  44  58
ATOM     58  C   UNL A   1      43.549  33.210  30.873  1.00  0.00     0.058 A 
ATOM     59  C   UNL A   1      43.533  33.591  32.223  1.00  0.00     0.135 A 
ATOM     60  C   UNL A   1      43.752  34.215  29.911  1.00  0.00     0.135 A 
ATOM     61  F   UNL A   1      43.315  32.677  33.182  1.00  0.00    -0.206 F 
ATOM     62  C   UNL A   1      43.712  34.918  32.604  1.00  0.00     0.059 A 
ATOM     63  C   UNL A   1      43.958  35.542  30.270  1.00  0.00     0.059 A 
ATOM     64  F   UNL A   1      43.763  33.906  28.604  1.00  0.00    -0.206 F 
ATOM     65  C   UNL A   1      43.931  35.886  31.621  1.00  0.00     0.060 A 
BRANCH  65  66
ATOM     66  S   UNL A   1      44.210  37.593  32.135  1.00  0.00     0.124 S 
ATOM     67  O   UNL A   1      45.634  37.574  32.454  1.00  0.00    -0.237 OA
ATOM     68  O   UNL A   1      43.839  38.343  30.939  1.00  0.00    -0.237 OA
ATOM     69  O   UNL A   1      43.315  37.757  33.276  1.00  0.00    -0.744 OA
ENDBRANCH  65  66
ENDBRANCH  44  58
BRANCH  45  70
ATOM     70  C   UNL A   1      42.373  23.751  27.644  1.00  0.00     0.058 A 
ATOM     71  C   UNL A   1      42.283  22.650  28.508  1.00  0.00     0.135 A 
ATOM     72  C   UNL A   1      42.332  23.498  26.262  1.00  0.00     0.135 A 
ATOM     73  F   UNL A   1      42.318  22.836  29.836  1.00  0.00    -0.206 F 
ATOM     74  C   UNL A   1      42.198  21.348  28.025  1.00  0.00     0.059 A 
ATOM     75  C   UNL A   1      42.212  22.208  25.755  1.00  0.00     0.059 A 
ATOM     76  F   UNL A   1      42.395  24.515  25.388  1.00  0.00    -0.206 F 
ATOM     77  C   UNL A   1      42.168  21.138  26.645  1.00  0.00     0.060 A 
BRANCH  77  78
ATOM     78  S   UNL A   1      42.058  19.445  26.027  1.00  0.00     0.124 S 
ATOM     79  O   UNL A   1      40.625  19.314  25.794  1.00  0.00    -0.237 OA
ATOM     80  O   UNL A   1      42.897  19.498  24.834  1.00  0.00    -0.237 OA
ATOM     81  O   UNL A   1      42.595  18.651  27.127  1.00  0.00    -0.744 OA
ENDBRANCH  77  78
ENDBRANCH  45  70
BRANCH  57  82
ATOM     82  C   UNL A   1      47.866  27.608  29.513  1.00  0.00     0.058 A 
ATOM     83  C   UNL A   1      48.722  27.852  28.429  1.00  0.00     0.135 A 
ATOM     84  C   UNL A   1      48.429  27.111  30.701  1.00  0.00     0.135 A 
ATOM     85  F   UNL A   1      48.230  28.317  27.270  1.00  0.00    -0.206 F 
ATOM     86  C   UNL A   1      50.084  27.591  28.511  1.00  0.00     0.059 A 
ATOM     87  C   UNL A   1      49.792  26.873  30.815  1.00  0.00     0.059 A 
ATOM     88  F   UNL A   1      47.652  26.872  31.768  1.00  0.00    -0.206 F 
ATOM     89  C   UNL A   1      50.610  27.104  29.710  1.00  0.00     0.060 A 
BRANCH  89  90
ATOM     90  S   UNL A   1      52.386  26.803  29.815  1.00  0.00     0.124 S 
ATOM     91  O   UNL A   1      52.454  25.832  30.902  1.00  0.00    -0.237 OA
ATOM     92  O   UNL A   1      52.694  26.290  28.485  1.00  0.00    -0.237 OA
ATOM     93  O   UNL A   1      52.936  28.121  30.115  1.00  0.00    -0.744 OA
ENDBRANCH  89  90
ENDBRANCH  57  82
ENDBRANCH  31  32
ENDBRANCH  24  26
ENDBRANCH  23  24
ENDBRANCH   1  23
TORSDOF 16
ENDMDL
