MODEL 1
REMARK VINA RESULT:     -11.2      0.000      0.000
REMARK SMILES C[C@@H]1C[N@H+](Cc2ccccc2)CC[C@@H]1CC(=O)OCCOC(=O)c1ccc(-c2c3nc(c(-c4c(F)cc(S(=O)(=O)[O-])cc4F)c4ccc([nH]4)c(-c4c(F)cc(S(=O)(=O)[O-])cc4F)c4nc(c(-c5c(F)cc(S(=O)(=O)[O-])cc5F)c5ccc2[nH]5)C=C4)C=C3)cc1
REMARK SMILES IDX 19 1 18 2 16 3 17 4 15 5 14 6 1 7 2 8 3 9 4 10 13 11 12 12
REMARK SMILES IDX 5 14 6 15 7 16 11 17 8 18 10 19 9 20 20 21 21 22 22 23 23 24
REMARK SMILES IDX 24 25 25 26 89 27 26 28 88 29 27 30 28 31 29 32 82 33 30 34
REMARK SMILES IDX 87 35 81 36 83 37 31 38 86 39 80 40 79 41 32 43 66 44 45 45
REMARK SMILES IDX 65 46 46 47 49 48 64 49 84 50 47 51 48 52 63 54 85 55 50 56
REMARK SMILES IDX 33 57 34 58 43 59 35 60 36 61 42 62 44 63 37 64 38 65 39 66
REMARK SMILES IDX 40 67 41 68 67 69 68 70 77 71 69 72 70 73 76 74 78 75 71 76
REMARK SMILES IDX 72 77 73 78 74 79 75 80 51 81 52 82 61 83 53 84 54 85 60 86
REMARK SMILES IDX 62 87 55 88 56 89 57 90 58 91 59 92
REMARK H PARENT 4 13 83 42 49 53
REMARK Flexibility Score: inf
ROOT
ATOM      1  C   UNL A   1      33.256  31.251  27.650  1.00  0.00     0.274 C 
ENDROOT
BRANCH   1   2
ATOM      2  O   UNL A   1      33.636  30.336  26.597  1.00  0.00    -0.462 OA
BRANCH   2   3
ATOM      3  C   UNL A   1      33.859  29.044  26.945  1.00  0.00     0.306 C 
ATOM      4  O   UNL A   1      34.973  28.556  27.095  1.00  0.00    -0.252 OA
BRANCH   3   5
ATOM      5  C   UNL A   1      32.581  28.218  26.940  1.00  0.00     0.127 C 
BRANCH   5   6
ATOM      6  C   UNL A   1      32.211  27.121  25.894  1.00  0.00     0.014 C 
ATOM      7  C   UNL A   1      33.820  27.970  23.898  1.00  0.00     0.014 C 
ATOM      8  C   UNL A   1      33.041  26.857  24.589  1.00  0.00     0.045 C 
ATOM      9  C   UNL A   1      32.255  26.052  23.531  1.00  0.00     0.265 C 
ATOM     10  N   UNL A   1      30.874  26.455  23.327  1.00  0.00    -0.331 N 
ATOM     11  C   UNL A   1      30.662  26.981  25.775  1.00  0.00     0.066 C 
ATOM     12  C   UNL A   1      30.109  26.256  24.545  1.00  0.00     0.262 C 
ATOM     13  H   UNL A   1      30.466  25.814  22.647  1.00  0.00     0.348 HD
BRANCH  10  14
ATOM     14  C   UNL A   1      30.621  27.650  22.499  1.00  0.00     0.299 C 
BRANCH  14  15
ATOM     15  C   UNL A   1      29.636  28.655  23.056  1.00  0.00     0.006 A 
ATOM     16  C   UNL A   1      30.055  29.895  23.560  1.00  0.00     0.009 A 
ATOM     17  C   UNL A   1      28.270  28.436  22.907  1.00  0.00     0.009 A 
ATOM     18  C   UNL A   1      29.134  30.926  23.768  1.00  0.00     0.001 A 
ATOM     19  C   UNL A   1      27.380  29.496  22.993  1.00  0.00     0.001 A 
ATOM     20  C   UNL A   1      27.802  30.743  23.426  1.00  0.00     0.000 A 
ENDBRANCH  14  15
ENDBRANCH  10  14
ENDBRANCH   5   6
ENDBRANCH   3   5
ENDBRANCH   2   3
ENDBRANCH   1   2
BRANCH   1  21
ATOM     21  C   UNL A   1      34.349  32.288  27.945  1.00  0.00     0.275 C 
BRANCH  21  22
ATOM     22  O   UNL A   1      35.668  31.715  28.007  1.00  0.00    -0.458 OA
BRANCH  22  23
ATOM     23  C   UNL A   1      36.044  31.329  29.249  1.00  0.00     0.338 C 
ATOM     24  O   UNL A   1      35.517  31.664  30.301  1.00  0.00    -0.246 OA
BRANCH  23  25
ATOM     25  C   UNL A   1      37.258  30.500  29.183  1.00  0.00     0.060 A 
ATOM     26  C   UNL A   1      37.826  30.300  27.929  1.00  0.00     0.016 A 
ATOM     27  C   UNL A   1      37.884  29.994  30.328  1.00  0.00     0.016 A 
ATOM     28  C   UNL A   1      39.009  29.568  27.818  1.00  0.00     0.010 A 
ATOM     29  C   UNL A   1      39.143  29.373  30.219  1.00  0.00     0.010 A 
ATOM     30  C   UNL A   1      39.745  29.197  28.963  1.00  0.00    -0.014 A 
BRANCH  30  31
ATOM     31  C   UNL A   1      41.205  28.891  28.800  1.00  0.00     0.031 A 
ATOM     32  C   UNL A   1      42.314  29.873  29.073  1.00  0.00     0.074 A 
ATOM     33  C   UNL A   1      41.519  27.644  28.379  1.00  0.00     0.049 A 
ATOM     34  N   UNL A   1      43.605  29.718  28.892  1.00  0.00    -0.248 NA
ATOM     35  C   UNL A   1      41.944  31.192  29.603  1.00  0.00     0.031 C 
ATOM     36  C   UNL A   1      40.541  26.599  28.057  1.00  0.00     0.029 A 
ATOM     37  N   UNL A   1      42.726  27.017  28.190  1.00  0.00    -0.354 N 
ATOM     38  C   UNL A   1      44.203  30.921  29.250  1.00  0.00     0.074 A 
ATOM     39  C   UNL A   1      43.125  31.799  29.671  1.00  0.00     0.031 C 
ATOM     40  C   UNL A   1      41.171  25.441  27.851  1.00  0.00     0.029 A 
ATOM     41  C   UNL A   1      42.602  25.690  27.844  1.00  0.00     0.049 A 
ATOM     42  H   UNL A   1      43.593  27.471  28.292  1.00  0.00     0.167 HD
ATOM     43  C   UNL A   1      45.519  31.261  29.212  1.00  0.00     0.037 A 
ATOM     44  C   UNL A   1      43.517  24.770  27.489  1.00  0.00     0.037 A 
ATOM     45  C   UNL A   1      46.578  30.371  28.783  1.00  0.00     0.049 A 
ATOM     46  C   UNL A   1      44.949  25.185  27.402  1.00  0.00     0.074 A 
ATOM     47  C   UNL A   1      47.938  30.626  28.697  1.00  0.00     0.029 A 
ATOM     48  N   UNL A   1      46.400  29.058  28.360  1.00  0.00    -0.354 N 
ATOM     49  N   UNL A   1      45.483  26.345  27.698  1.00  0.00    -0.248 NA
ATOM     50  C   UNL A   1      45.895  24.188  26.894  1.00  0.00     0.031 C 
ATOM     51  C   UNL A   1      48.572  29.491  28.176  1.00  0.00     0.029 A 
ATOM     52  C   UNL A   1      47.618  28.504  27.988  1.00  0.00     0.049 A 
ATOM     53  H   UNL A   1      45.535  28.590  28.329  1.00  0.00     0.167 HD
ATOM     54  C   UNL A   1      46.831  26.223  27.403  1.00  0.00     0.074 A 
ATOM     55  C   UNL A   1      47.035  24.865  26.936  1.00  0.00     0.031 C 
ATOM     56  C   UNL A   1      47.808  27.157  27.504  1.00  0.00     0.037 A 
BRANCH  43  57
ATOM     57  C   UNL A   1      45.896  32.676  29.584  1.00  0.00     0.058 A 
ATOM     58  C   UNL A   1      45.903  33.723  28.649  1.00  0.00     0.135 A 
ATOM     59  C   UNL A   1      46.217  32.997  30.916  1.00  0.00     0.135 A 
ATOM     60  F   UNL A   1      45.603  33.482  27.364  1.00  0.00    -0.206 F 
ATOM     61  C   UNL A   1      46.255  35.023  29.010  1.00  0.00     0.059 A 
ATOM     62  C   UNL A   1      46.548  34.294  31.304  1.00  0.00     0.059 A 
ATOM     63  F   UNL A   1      46.211  32.043  31.861  1.00  0.00    -0.206 F 
ATOM     64  C   UNL A   1      46.588  35.297  30.338  1.00  0.00     0.060 A 
BRANCH  64  65
ATOM     65  S   UNL A   1      47.092  36.975  30.782  1.00  0.00     0.124 S 
ATOM     66  O   UNL A   1      45.814  37.572  31.158  1.00  0.00    -0.237 OA
ATOM     67  O   UNL A   1      48.028  36.743  31.877  1.00  0.00    -0.237 OA
ATOM     68  O   UNL A   1      47.686  37.490  29.553  1.00  0.00    -0.744 OA
ENDBRANCH  64  65
ENDBRANCH  43  57
BRANCH  44  69
ATOM     69  C   UNL A   1      43.067  23.398  27.132  1.00  0.00     0.058 A 
ATOM     70  C   UNL A   1      42.948  23.002  25.794  1.00  0.00     0.135 A 
ATOM     71  C   UNL A   1      42.846  22.426  28.124  1.00  0.00     0.135 A 
ATOM     72  F   UNL A   1      43.134  23.895  24.809  1.00  0.00    -0.206 F 
ATOM     73  C   UNL A   1      42.649  21.686  25.449  1.00  0.00     0.059 A 
ATOM     74  C   UNL A   1      42.585  21.099  27.804  1.00  0.00     0.059 A 
ATOM     75  F   UNL A   1      42.963  22.751  29.421  1.00  0.00    -0.206 F 
ATOM     76  C   UNL A   1      42.487  20.739  26.462  1.00  0.00     0.060 A 
BRANCH  76  77
ATOM     77  S   UNL A   1      42.208  19.014  26.007  1.00  0.00     0.124 S 
ATOM     78  O   UNL A   1      40.769  19.001  25.777  1.00  0.00    -0.237 OA
ATOM     79  O   UNL A   1      43.046  18.869  24.820  1.00  0.00    -0.237 OA
ATOM     80  O   UNL A   1      42.668  18.278  27.180  1.00  0.00    -0.744 OA
ENDBRANCH  76  77
ENDBRANCH  44  69
BRANCH  56  81
ATOM     81  C   UNL A   1      49.192  26.723  27.112  1.00  0.00     0.058 A 
ATOM     82  C   UNL A   1      49.676  26.898  25.806  1.00  0.00     0.135 A 
ATOM     83  C   UNL A   1      50.042  26.122  28.053  1.00  0.00     0.135 A 
ATOM     84  F   UNL A   1      48.895  27.451  24.863  1.00  0.00    -0.206 F 
ATOM     85  C   UNL A   1      50.947  26.466  25.439  1.00  0.00     0.059 A 
ATOM     86  C   UNL A   1      51.326  25.706  27.715  1.00  0.00     0.059 A 
ATOM     87  F   UNL A   1      49.628  25.933  29.316  1.00  0.00    -0.206 F 
ATOM     88  C   UNL A   1      51.764  25.870  26.401  1.00  0.00     0.060 A 
BRANCH  88  89
ATOM     89  S   UNL A   1      53.416  25.328  25.918  1.00  0.00     0.124 S 
ATOM     90  O   UNL A   1      53.749  26.292  24.874  1.00  0.00    -0.237 OA
ATOM     91  O   UNL A   1      54.166  25.459  27.164  1.00  0.00    -0.237 OA
ATOM     92  O   UNL A   1      53.205  23.957  25.462  1.00  0.00    -0.744 OA
ENDBRANCH  88  89
ENDBRANCH  56  81
ENDBRANCH  30  31
ENDBRANCH  23  25
ENDBRANCH  22  23
ENDBRANCH  21  22
ENDBRANCH   1  21
TORSDOF 17
ENDMDL
MODEL 2
REMARK VINA RESULT:     -11.1      2.194      3.514
REMARK SMILES C[C@@H]1C[N@H+](Cc2ccccc2)CC[C@@H]1CC(=O)OCCOC(=O)c1ccc(-c2c3nc(c(-c4c(F)cc(S(=O)(=O)[O-])cc4F)c4ccc([nH]4)c(-c4c(F)cc(S(=O)(=O)[O-])cc4F)c4nc(c(-c5c(F)cc(S(=O)(=O)[O-])cc5F)c5ccc2[nH]5)C=C4)C=C3)cc1
REMARK SMILES IDX 19 1 18 2 16 3 17 4 15 5 14 6 1 7 2 8 3 9 4 10 13 11 12 12
REMARK SMILES IDX 5 14 6 15 7 16 11 17 8 18 10 19 9 20 20 21 21 22 22 23 23 24
REMARK SMILES IDX 24 25 25 26 89 27 26 28 88 29 27 30 28 31 29 32 82 33 30 34
REMARK SMILES IDX 87 35 81 36 83 37 31 38 86 39 80 40 79 41 32 43 66 44 45 45
REMARK SMILES IDX 65 46 46 47 49 48 64 49 84 50 47 51 48 52 63 54 85 55 50 56
REMARK SMILES IDX 33 57 34 58 43 59 35 60 36 61 42 62 44 63 37 64 38 65 39 66
REMARK SMILES IDX 40 67 41 68 67 69 68 70 77 71 69 72 70 73 76 74 78 75 71 76
REMARK SMILES IDX 72 77 73 78 74 79 75 80 51 81 52 82 61 83 53 84 54 85 60 86
REMARK SMILES IDX 62 87 55 88 56 89 57 90 58 91 59 92
REMARK H PARENT 4 13 83 42 49 53
REMARK Flexibility Score: inf
ROOT
ATOM      1  C   UNL A   1      33.092  29.410  26.244  1.00  0.00     0.274 C 
ENDROOT
BRANCH   1   2
ATOM      2  O   UNL A   1      31.727  29.011  25.979  1.00  0.00    -0.462 OA
BRANCH   2   3
ATOM      3  C   UNL A   1      31.414  27.705  26.163  1.00  0.00     0.306 C 
ATOM      4  O   UNL A   1      31.292  27.176  27.261  1.00  0.00    -0.252 OA
BRANCH   3   5
ATOM      5  C   UNL A   1      31.419  26.923  24.858  1.00  0.00     0.127 C 
BRANCH   5   6
ATOM      6  C   UNL A   1      32.617  26.092  24.300  1.00  0.00     0.014 C 
ATOM      7  C   UNL A   1      31.180  24.126  23.133  1.00  0.00     0.014 C 
ATOM      8  C   UNL A   1      32.456  24.953  23.233  1.00  0.00     0.045 C 
ATOM      9  C   UNL A   1      33.681  24.014  23.170  1.00  0.00     0.265 C 
ATOM     10  N   UNL A   1      34.228  23.602  24.451  1.00  0.00    -0.331 N 
ATOM     11  C   UNL A   1      33.685  25.860  25.412  1.00  0.00     0.066 C 
ATOM     12  C   UNL A   1      34.722  24.758  25.180  1.00  0.00     0.262 C 
ATOM     13  H   UNL A   1      35.052  23.032  24.263  1.00  0.00     0.348 HD
BRANCH  10  14
ATOM     14  C   UNL A   1      33.532  22.527  25.184  1.00  0.00     0.299 C 
BRANCH  14  15
ATOM     15  C   UNL A   1      33.668  21.131  24.615  1.00  0.00     0.006 A 
ATOM     16  C   UNL A   1      34.793  20.335  24.879  1.00  0.00     0.009 A 
ATOM     17  C   UNL A   1      32.588  20.542  23.966  1.00  0.00     0.009 A 
ATOM     18  C   UNL A   1      34.767  18.961  24.626  1.00  0.00     0.001 A 
ATOM     19  C   UNL A   1      32.519  19.163  23.836  1.00  0.00     0.001 A 
ATOM     20  C   UNL A   1      33.605  18.365  24.159  1.00  0.00     0.000 A 
ENDBRANCH  14  15
ENDBRANCH  10  14
ENDBRANCH   5   6
ENDBRANCH   3   5
ENDBRANCH   2   3
ENDBRANCH   1   2
BRANCH   1  21
ATOM     21  C   UNL A   1      33.184  30.486  27.336  1.00  0.00     0.275 C 
BRANCH  21  22
ATOM     22  O   UNL A   1      34.487  31.093  27.420  1.00  0.00    -0.458 OA
BRANCH  22  23
ATOM     23  C   UNL A   1      34.993  31.143  28.675  1.00  0.00     0.338 C 
ATOM     24  O   UNL A   1      34.534  31.779  29.614  1.00  0.00    -0.246 OA
BRANCH  23  25
ATOM     25  C   UNL A   1      36.252  30.388  28.752  1.00  0.00     0.060 A 
ATOM     26  C   UNL A   1      36.949  30.189  27.564  1.00  0.00     0.016 A 
ATOM     27  C   UNL A   1      36.792  29.950  29.966  1.00  0.00     0.016 A 
ATOM     28  C   UNL A   1      38.177  29.526  27.590  1.00  0.00     0.010 A 
ATOM     29  C   UNL A   1      38.090  29.403  29.997  1.00  0.00     0.010 A 
ATOM     30  C   UNL A   1      38.819  29.230  28.810  1.00  0.00    -0.014 A 
BRANCH  30  31
ATOM     31  C   UNL A   1      40.303  29.008  28.797  1.00  0.00     0.031 A 
ATOM     32  C   UNL A   1      41.321  30.046  29.188  1.00  0.00     0.074 A 
ATOM     33  C   UNL A   1      40.729  27.785  28.403  1.00  0.00     0.049 A 
ATOM     34  N   UNL A   1      42.630  29.965  29.140  1.00  0.00    -0.248 NA
ATOM     35  C   UNL A   1      40.825  31.336  29.685  1.00  0.00     0.031 C 
ATOM     36  C   UNL A   1      39.850  26.691  27.975  1.00  0.00     0.029 A 
ATOM     37  N   UNL A   1      41.982  27.229  28.336  1.00  0.00    -0.354 N 
ATOM     38  C   UNL A   1      43.119  31.196  29.566  1.00  0.00     0.074 A 
ATOM     39  C   UNL A   1      41.957  32.008  29.878  1.00  0.00     0.031 C 
ATOM     40  C   UNL A   1      40.562  25.573  27.829  1.00  0.00     0.029 A 
ATOM     41  C   UNL A   1      41.970  25.901  27.970  1.00  0.00     0.049 A 
ATOM     42  H   UNL A   1      42.807  27.729  28.529  1.00  0.00     0.167 HD
ATOM     43  C   UNL A   1      44.412  31.609  29.665  1.00  0.00     0.037 A 
ATOM     44  C   UNL A   1      42.967  25.037  27.706  1.00  0.00     0.037 A 
ATOM     45  C   UNL A   1      45.558  30.785  29.342  1.00  0.00     0.049 A 
ATOM     46  C   UNL A   1      44.374  25.533  27.770  1.00  0.00     0.074 A 
ATOM     47  C   UNL A   1      46.903  31.116  29.399  1.00  0.00     0.029 A 
ATOM     48  N   UNL A   1      45.498  29.469  28.895  1.00  0.00    -0.354 N 
ATOM     49  N   UNL A   1      44.809  26.717  28.125  1.00  0.00    -0.248 NA
ATOM     50  C   UNL A   1      45.422  24.595  27.356  1.00  0.00     0.031 C 
ATOM     51  C   UNL A   1      47.649  30.024  28.939  1.00  0.00     0.029 A 
ATOM     52  C   UNL A   1      46.777  28.988  28.648  1.00  0.00     0.049 A 
ATOM     53  H   UNL A   1      44.669  28.953  28.772  1.00  0.00     0.167 HD
ATOM     54  C   UNL A   1      46.185  26.673  27.971  1.00  0.00     0.074 A 
ATOM     55  C   UNL A   1      46.512  25.334  27.519  1.00  0.00     0.031 C 
ATOM     56  C   UNL A   1      47.092  27.659  28.178  1.00  0.00     0.037 A 
BRANCH  43  57
ATOM     57  C   UNL A   1      44.667  33.038  30.083  1.00  0.00     0.058 A 
ATOM     58  C   UNL A   1      44.644  34.104  29.170  1.00  0.00     0.135 A 
ATOM     59  C   UNL A   1      44.901  33.351  31.435  1.00  0.00     0.135 A 
ATOM     60  F   UNL A   1      44.424  33.872  27.866  1.00  0.00    -0.206 F 
ATOM     61  C   UNL A   1      44.885  35.418  29.572  1.00  0.00     0.059 A 
ATOM     62  C   UNL A   1      45.119  34.658  31.864  1.00  0.00     0.059 A 
ATOM     63  F   UNL A   1      44.919  32.378  32.359  1.00  0.00    -0.206 F 
ATOM     64  C   UNL A   1      45.133  35.684  30.920  1.00  0.00     0.060 A 
BRANCH  64  65
ATOM     65  S   UNL A   1      45.493  37.383  31.421  1.00  0.00     0.124 S 
ATOM     66  O   UNL A   1      46.625  37.185  32.322  1.00  0.00    -0.237 OA
ATOM     67  O   UNL A   1      45.803  38.027  30.149  1.00  0.00    -0.237 OA
ATOM     68  O   UNL A   1      44.255  37.822  32.057  1.00  0.00    -0.744 OA
ENDBRANCH  64  65
ENDBRANCH  43  57
BRANCH  44  69
ATOM     69  C   UNL A   1      42.634  23.647  27.296  1.00  0.00     0.058 A 
ATOM     70  C   UNL A   1      42.645  23.269  25.947  1.00  0.00     0.135 A 
ATOM     71  C   UNL A   1      42.399  22.645  28.254  1.00  0.00     0.135 A 
ATOM     72  F   UNL A   1      42.850  24.190  24.993  1.00  0.00    -0.206 F 
ATOM     73  C   UNL A   1      42.459  21.944  25.563  1.00  0.00     0.059 A 
ATOM     74  C   UNL A   1      42.248  21.311  27.898  1.00  0.00     0.059 A 
ATOM     75  F   UNL A   1      42.393  22.953  29.561  1.00  0.00    -0.206 F 
ATOM     76  C   UNL A   1      42.278  20.969  26.547  1.00  0.00     0.060 A 
BRANCH  76  77
ATOM     77  S   UNL A   1      42.146  19.239  26.048  1.00  0.00     0.124 S 
ATOM     78  O   UNL A   1      43.037  19.198  24.896  1.00  0.00    -0.237 OA
ATOM     79  O   UNL A   1      42.610  18.538  27.241  1.00  0.00    -0.237 OA
ATOM     80  O   UNL A   1      40.724  19.082  25.754  1.00  0.00    -0.744 OA
ENDBRANCH  76  77
ENDBRANCH  44  69
BRANCH  56  81
ATOM     81  C   UNL A   1      48.531  27.308  27.927  1.00  0.00     0.058 A 
ATOM     82  C   UNL A   1      49.117  27.459  26.661  1.00  0.00     0.135 A 
ATOM     83  C   UNL A   1      49.332  26.810  28.966  1.00  0.00     0.135 A 
ATOM     84  F   UNL A   1      48.387  27.914  25.628  1.00  0.00    -0.206 F 
ATOM     85  C   UNL A   1      50.441  27.103  26.425  1.00  0.00     0.059 A 
ATOM     86  C   UNL A   1      50.666  26.471  28.761  1.00  0.00     0.059 A 
ATOM     87  F   UNL A   1      48.821  26.647  30.197  1.00  0.00    -0.206 F 
ATOM     88  C   UNL A   1      51.207  26.609  27.482  1.00  0.00     0.060 A 
BRANCH  88  89
ATOM     89  S   UNL A   1      52.928  26.164  27.170  1.00  0.00     0.124 S 
ATOM     90  O   UNL A   1      52.783  24.870  26.510  1.00  0.00    -0.237 OA
ATOM     91  O   UNL A   1      53.386  27.260  26.321  1.00  0.00    -0.237 OA
ATOM     92  O   UNL A   1      53.518  26.126  28.505  1.00  0.00    -0.744 OA
ENDBRANCH  88  89
ENDBRANCH  56  81
ENDBRANCH  30  31
ENDBRANCH  23  25
ENDBRANCH  22  23
ENDBRANCH  21  22
ENDBRANCH   1  21
TORSDOF 17
ENDMDL
MODEL 3
REMARK VINA RESULT:     -11.1      1.350      2.840
REMARK SMILES C[C@@H]1C[N@H+](Cc2ccccc2)CC[C@@H]1CC(=O)OCCOC(=O)c1ccc(-c2c3nc(c(-c4c(F)cc(S(=O)(=O)[O-])cc4F)c4ccc([nH]4)c(-c4c(F)cc(S(=O)(=O)[O-])cc4F)c4nc(c(-c5c(F)cc(S(=O)(=O)[O-])cc5F)c5ccc2[nH]5)C=C4)C=C3)cc1
REMARK SMILES IDX 19 1 18 2 16 3 17 4 15 5 14 6 1 7 2 8 3 9 4 10 13 11 12 12
REMARK SMILES IDX 5 14 6 15 7 16 11 17 8 18 10 19 9 20 20 21 21 22 22 23 23 24
REMARK SMILES IDX 24 25 25 26 89 27 26 28 88 29 27 30 28 31 29 32 82 33 30 34
REMARK SMILES IDX 87 35 81 36 83 37 31 38 86 39 80 40 79 41 32 43 66 44 45 45
REMARK SMILES IDX 65 46 46 47 49 48 64 49 84 50 47 51 48 52 63 54 85 55 50 56
REMARK SMILES IDX 33 57 34 58 43 59 35 60 36 61 42 62 44 63 37 64 38 65 39 66
REMARK SMILES IDX 40 67 41 68 67 69 68 70 77 71 69 72 70 73 76 74 78 75 71 76
REMARK SMILES IDX 72 77 73 78 74 79 75 80 51 81 52 82 61 83 53 84 54 85 60 86
REMARK SMILES IDX 62 87 55 88 56 89 57 90 58 91 59 92
REMARK H PARENT 4 13 83 42 49 53
REMARK Flexibility Score: inf
ROOT
ATOM      1  C   UNL A   1      33.882  30.178  27.552  1.00  0.00     0.274 C 
ENDROOT
BRANCH   1   2
ATOM      2  O   UNL A   1      34.259  29.660  26.256  1.00  0.00    -0.462 OA
BRANCH   2   3
ATOM      3  C   UNL A   1      33.261  29.255  25.432  1.00  0.00     0.306 C 
ATOM      4  O   UNL A   1      32.166  29.799  25.363  1.00  0.00    -0.252 OA
BRANCH   3   5
ATOM      5  C   UNL A   1      33.581  27.936  24.745  1.00  0.00     0.127 C 
BRANCH   5   6
ATOM      6  C   UNL A   1      32.673  27.207  23.706  1.00  0.00     0.014 C 
ATOM      7  C   UNL A   1      30.908  26.146  25.454  1.00  0.00     0.014 C 
ATOM      8  C   UNL A   1      31.253  26.634  24.052  1.00  0.00     0.045 C 
ATOM      9  C   UNL A   1      30.754  25.605  23.014  1.00  0.00     0.265 C 
ATOM     10  N   UNL A   1      31.734  24.629  22.569  1.00  0.00    -0.331 N 
ATOM     11  C   UNL A   1      33.539  26.372  22.714  1.00  0.00     0.066 C 
ATOM     12  C   UNL A   1      32.830  25.295  21.888  1.00  0.00     0.262 C 
ATOM     13  H   UNL A   1      31.288  24.051  21.857  1.00  0.00     0.348 HD
BRANCH  10  14
ATOM     14  C   UNL A   1      32.020  23.486  23.457  1.00  0.00     0.299 C 
BRANCH  14  15
ATOM     15  C   UNL A   1      33.437  23.383  23.981  1.00  0.00     0.006 A 
ATOM     16  C   UNL A   1      34.475  22.860  23.197  1.00  0.00     0.009 A 
ATOM     17  C   UNL A   1      33.768  23.980  25.193  1.00  0.00     0.009 A 
ATOM     18  C   UNL A   1      35.810  23.063  23.557  1.00  0.00     0.001 A 
ATOM     19  C   UNL A   1      35.090  24.289  25.480  1.00  0.00     0.001 A 
ATOM     20  C   UNL A   1      36.117  23.832  24.671  1.00  0.00     0.000 A 
ENDBRANCH  14  15
ENDBRANCH  10  14
ENDBRANCH   5   6
ENDBRANCH   3   5
ENDBRANCH   2   3
ENDBRANCH   1   2
BRANCH   1  21
ATOM     21  C   UNL A   1      34.419  31.597  27.792  1.00  0.00     0.275 C 
BRANCH  21  22
ATOM     22  O   UNL A   1      35.839  31.628  28.029  1.00  0.00    -0.458 OA
BRANCH  22  23
ATOM     23  C   UNL A   1      36.206  31.165  29.247  1.00  0.00     0.338 C 
ATOM     24  O   UNL A   1      35.672  31.434  30.314  1.00  0.00    -0.246 OA
BRANCH  23  25
ATOM     25  C   UNL A   1      37.420  30.341  29.138  1.00  0.00     0.060 A 
ATOM     26  C   UNL A   1      37.912  30.096  27.860  1.00  0.00     0.016 A 
ATOM     27  C   UNL A   1      38.119  29.882  30.261  1.00  0.00     0.016 A 
ATOM     28  C   UNL A   1      39.092  29.367  27.705  1.00  0.00     0.010 A 
ATOM     29  C   UNL A   1      39.374  29.264  30.098  1.00  0.00     0.010 A 
ATOM     30  C   UNL A   1      39.899  29.044  28.815  1.00  0.00    -0.014 A 
BRANCH  30  31
ATOM     31  C   UNL A   1      41.349  28.740  28.575  1.00  0.00     0.031 A 
ATOM     32  C   UNL A   1      42.465  29.738  28.740  1.00  0.00     0.074 A 
ATOM     33  C   UNL A   1      41.647  27.479  28.185  1.00  0.00     0.049 A 
ATOM     34  N   UNL A   1      43.743  29.583  28.486  1.00  0.00    -0.248 NA
ATOM     35  C   UNL A   1      42.118  31.075  29.239  1.00  0.00     0.031 C 
ATOM     36  C   UNL A   1      40.659  26.416  27.965  1.00  0.00     0.029 A 
ATOM     37  N   UNL A   1      42.845  26.851  27.947  1.00  0.00    -0.354 N 
ATOM     38  C   UNL A   1      44.352  30.803  28.759  1.00  0.00     0.074 A 
ATOM     39  C   UNL A   1      43.296  31.691  29.210  1.00  0.00     0.031 C 
ATOM     40  C   UNL A   1      41.285  25.254  27.767  1.00  0.00     0.029 A 
ATOM     41  C   UNL A   1      42.711  25.511  27.662  1.00  0.00     0.049 A 
ATOM     42  H   UNL A   1      43.713  27.314  27.977  1.00  0.00     0.167 HD
ATOM     43  C   UNL A   1      45.661  31.148  28.626  1.00  0.00     0.037 A 
ATOM     44  C   UNL A   1      43.610  24.583  27.288  1.00  0.00     0.037 A 
ATOM     45  C   UNL A   1      46.699  30.248  28.169  1.00  0.00     0.049 A 
ATOM     46  C   UNL A   1      45.030  25.002  27.097  1.00  0.00     0.074 A 
ATOM     47  C   UNL A   1      48.049  30.507  27.990  1.00  0.00     0.029 A 
ATOM     48  N   UNL A   1      46.506  28.919  27.810  1.00  0.00    -0.354 N 
ATOM     49  N   UNL A   1      45.572  26.176  27.313  1.00  0.00    -0.248 NA
ATOM     50  C   UNL A   1      45.951  23.991  26.571  1.00  0.00     0.031 C 
ATOM     51  C   UNL A   1      48.659  29.355  27.475  1.00  0.00     0.029 A 
ATOM     52  C   UNL A   1      47.703  28.357  27.386  1.00  0.00     0.049 A 
ATOM     53  H   UNL A   1      45.645  28.444  27.850  1.00  0.00     0.167 HD
ATOM     54  C   UNL A   1      46.900  26.049  26.941  1.00  0.00     0.074 A 
ATOM     55  C   UNL A   1      47.086  24.675  26.516  1.00  0.00     0.031 C 
ATOM     56  C   UNL A   1      47.874  26.993  26.945  1.00  0.00     0.037 A 
BRANCH  43  57
ATOM     57  C   UNL A   1      46.048  32.579  28.919  1.00  0.00     0.058 A 
ATOM     58  C   UNL A   1      46.008  33.584  27.940  1.00  0.00     0.135 A 
ATOM     59  C   UNL A   1      46.429  32.959  30.219  1.00  0.00     0.135 A 
ATOM     60  F   UNL A   1      45.650  33.287  26.681  1.00  0.00    -0.206 F 
ATOM     61  C   UNL A   1      46.371  34.900  28.226  1.00  0.00     0.059 A 
ATOM     62  C   UNL A   1      46.772  34.272  30.535  1.00  0.00     0.059 A 
ATOM     63  F   UNL A   1      46.471  32.048  31.204  1.00  0.00    -0.206 F 
ATOM     64  C   UNL A   1      46.763  35.233  29.525  1.00  0.00     0.060 A 
BRANCH  64  65
ATOM     65  S   UNL A   1      47.280  36.929  29.871  1.00  0.00     0.124 S 
ATOM     66  O   UNL A   1      48.615  36.719  30.422  1.00  0.00    -0.237 OA
ATOM     67  O   UNL A   1      47.231  37.549  28.551  1.00  0.00    -0.237 OA
ATOM     68  O   UNL A   1      46.278  37.405  30.820  1.00  0.00    -0.744 OA
ENDBRANCH  64  65
ENDBRANCH  43  57
BRANCH  44  69
ATOM     69  C   UNL A   1      43.150  23.195  27.013  1.00  0.00     0.058 A 
ATOM     70  C   UNL A   1      43.050  22.713  25.702  1.00  0.00     0.135 A 
ATOM     71  C   UNL A   1      42.899  22.294  28.063  1.00  0.00     0.135 A 
ATOM     72  F   UNL A   1      43.264  23.537  24.665  1.00  0.00    -0.206 F 
ATOM     73  C   UNL A   1      42.742  21.380  25.439  1.00  0.00     0.059 A 
ATOM     74  C   UNL A   1      42.628  20.951  27.827  1.00  0.00     0.059 A 
ATOM     75  F   UNL A   1      42.996  22.702  29.338  1.00  0.00    -0.206 F 
ATOM     76  C   UNL A   1      42.549  20.504  26.509  1.00  0.00     0.060 A 
BRANCH  76  77
ATOM     77  S   UNL A   1      42.258  18.756  26.163  1.00  0.00     0.124 S 
ATOM     78  O   UNL A   1      40.867  18.771  25.729  1.00  0.00    -0.237 OA
ATOM     79  O   UNL A   1      43.248  18.477  25.127  1.00  0.00    -0.237 OA
ATOM     80  O   UNL A   1      42.512  18.112  27.449  1.00  0.00    -0.744 OA
ENDBRANCH  76  77
ENDBRANCH  44  69
BRANCH  56  81
ATOM     81  C   UNL A   1      49.235  26.551  26.485  1.00  0.00     0.058 A 
ATOM     82  C   UNL A   1      50.101  25.838  27.328  1.00  0.00     0.135 A 
ATOM     83  C   UNL A   1      49.679  26.851  25.189  1.00  0.00     0.135 A 
ATOM     84  F   UNL A   1      49.731  25.543  28.585  1.00  0.00    -0.206 F 
ATOM     85  C   UNL A   1      51.373  25.459  26.910  1.00  0.00     0.059 A 
ATOM     86  C   UNL A   1      50.936  26.460  24.740  1.00  0.00     0.059 A 
ATOM     87  F   UNL A   1      48.889  27.531  24.343  1.00  0.00    -0.206 F 
ATOM     88  C   UNL A   1      51.782  25.775  25.614  1.00  0.00     0.060 A 
BRANCH  88  89
ATOM     89  S   UNL A   1      53.427  25.266  25.076  1.00  0.00     0.124 S 
ATOM     90  O   UNL A   1      54.283  26.078  25.934  1.00  0.00    -0.237 OA
ATOM     91  O   UNL A   1      53.420  23.834  25.361  1.00  0.00    -0.237 OA
ATOM     92  O   UNL A   1      53.446  25.615  23.658  1.00  0.00    -0.744 OA
ENDBRANCH  88  89
ENDBRANCH  56  81
ENDBRANCH  30  31
ENDBRANCH  23  25
ENDBRANCH  22  23
ENDBRANCH  21  22
ENDBRANCH   1  21
TORSDOF 17
ENDMDL
