MODEL 1
REMARK VINA RESULT:     -11.5      0.000      0.000
REMARK SMILES Cc1ccc(Cl)c(NC(=O)C[N@@H+]2CCC[C@H]2C(=O)OCCOC(=O)c2ccc(-c3c4nc(c(-c5c(F)cc(S(=O)(=O)[O-])cc5F)c5ccc([nH]5)c(-c5c(F)cc(S(=O)(=O)[O-])cc5F)c5nc(c(-c6c(F)cc(S(=O)(=O)[O-])cc6F)c6ccc3[nH]6)C=C5)C=C4)cc2)c1Cl
REMARK SMILES IDX 20 1 19 2 17 3 18 4 16 5 12 6 13 7 14 9 15 10 11 11 9 12
REMARK SMILES IDX 8 13 10 15 7 16 1 17 2 18 3 19 91 20 4 21 92 22 5 23 6 24
REMARK SMILES IDX 21 25 22 26 23 27 24 28 25 29 26 30 90 31 27 32 89 33 28 34
REMARK SMILES IDX 29 35 30 36 83 37 31 38 88 39 82 40 84 41 32 42 87 43 81 44
REMARK SMILES IDX 80 45 33 47 67 48 46 49 66 50 47 51 50 52 65 53 85 54 48 55
REMARK SMILES IDX 49 56 64 58 86 59 51 60 34 61 35 62 44 63 36 64 37 65 43 66
REMARK SMILES IDX 45 67 38 68 39 69 40 70 41 71 42 72 68 73 69 74 78 75 70 76
REMARK SMILES IDX 71 77 77 78 79 79 72 80 73 81 74 82 75 83 76 84 52 85 53 86
REMARK SMILES IDX 62 87 54 88 55 89 61 90 63 91 56 92 57 93 58 94 59 95 60 96
REMARK H PARENT 12 8 8 14 84 46 50 57
REMARK Flexibility Score: inf
ROOT
ATOM      1  C   UNL A   1      32.877  30.247  27.246  1.00  0.00     0.274 C 
ENDROOT
BRANCH   1   2
ATOM      2  O   UNL A   1      32.806  29.131  26.338  1.00  0.00    -0.458 OA
BRANCH   2   3
ATOM      3  C   UNL A   1      32.345  27.945  26.838  1.00  0.00     0.365 C 
ATOM      4  O   UNL A   1      31.557  27.834  27.769  1.00  0.00    -0.245 OA
BRANCH   3   5
ATOM      5  C   UNL A   1      32.925  26.774  26.025  1.00  0.00     0.295 C 
ATOM      6  N   UNL A   1      31.843  25.876  25.541  1.00  0.00    -0.315 N 
ATOM      7  C   UNL A   1      31.402  26.540  24.291  1.00  0.00     0.263 C 
ATOM      8  H   UNL A   1      31.103  25.743  26.230  1.00  0.00     0.349 HD
ATOM      9  C   UNL A   1      32.659  27.086  23.632  1.00  0.00     0.068 C 
ATOM     10  C   UNL A   1      33.661  27.229  24.765  1.00  0.00     0.083 C 
BRANCH   6  11
ATOM     11  C   UNL A   1      32.371  24.521  25.224  1.00  0.00     0.364 C 
BRANCH  11  12
ATOM     12  C   UNL A   1      32.265  23.551  26.406  1.00  0.00     0.279 C 
ATOM     13  N   UNL A   1      33.124  22.528  26.670  1.00  0.00    -0.319 N 
ATOM     14  H   UNL A   1      32.896  22.055  27.502  1.00  0.00     0.170 HD
ATOM     15  O   UNL A   1      31.372  23.726  27.251  1.00  0.00    -0.268 OA
BRANCH  13  16
ATOM     16  C   UNL A   1      34.266  21.978  26.039  1.00  0.00     0.079 A 
ATOM     17  C   UNL A   1      38.078  22.287  25.648  1.00  0.00     0.046 C 
ATOM     18  C   UNL A   1      36.655  21.807  25.512  1.00  0.00    -0.030 A 
ATOM     19  C   UNL A   1      36.443  20.520  25.001  1.00  0.00     0.006 A 
ATOM     20  C   UNL A   1      35.545  22.562  25.959  1.00  0.00     0.069 A 
ATOM     21  C   UNL A   1      35.161  19.991  24.924  1.00  0.00     0.023 A 
ATOM     22  Cl  UNL A   1      35.752  24.274  26.167  1.00  0.00    -0.082 Cl
ATOM     23  C   UNL A   1      34.087  20.708  25.445  1.00  0.00     0.066 A 
ATOM     24  Cl  UNL A   1      32.528  19.947  25.401  1.00  0.00    -0.082 Cl
ENDBRANCH  13  16
ENDBRANCH  11  12
ENDBRANCH   6  11
ENDBRANCH   3   5
ENDBRANCH   2   3
ENDBRANCH   1   2
BRANCH   1  25
ATOM     25  C   UNL A   1      34.326  30.712  27.383  1.00  0.00     0.275 C 
BRANCH  25  26
ATOM     26  O   UNL A   1      35.039  29.798  28.238  1.00  0.00    -0.458 OA
BRANCH  26  27
ATOM     27  C   UNL A   1      35.915  30.357  29.098  1.00  0.00     0.338 C 
ATOM     28  O   UNL A   1      35.673  31.139  30.008  1.00  0.00    -0.246 OA
BRANCH  27  29
ATOM     29  C   UNL A   1      37.261  29.826  28.853  1.00  0.00     0.060 A 
ATOM     30  C   UNL A   1      38.030  29.447  29.947  1.00  0.00     0.016 A 
ATOM     31  C   UNL A   1      37.820  29.835  27.578  1.00  0.00     0.016 A 
ATOM     32  C   UNL A   1      39.387  29.183  29.792  1.00  0.00     0.010 A 
ATOM     33  C   UNL A   1      39.152  29.431  27.406  1.00  0.00     0.010 A 
ATOM     34  C   UNL A   1      39.963  29.121  28.514  1.00  0.00    -0.014 A 
BRANCH  34  35
ATOM     35  C   UNL A   1      41.387  28.699  28.351  1.00  0.00     0.031 A 
ATOM     36  C   UNL A   1      42.516  29.682  28.530  1.00  0.00     0.074 A 
ATOM     37  C   UNL A   1      41.678  27.416  28.043  1.00  0.00     0.049 A 
ATOM     38  N   UNL A   1      43.785  29.544  28.237  1.00  0.00    -0.248 NA
ATOM     39  C   UNL A   1      42.178  30.997  29.098  1.00  0.00     0.031 C 
ATOM     40  C   UNL A   1      40.696  26.342  27.867  1.00  0.00     0.029 A 
ATOM     41  N   UNL A   1      42.883  26.788  27.840  1.00  0.00    -0.354 N 
ATOM     42  C   UNL A   1      44.382  30.768  28.519  1.00  0.00     0.074 A 
ATOM     43  C   UNL A   1      43.339  31.636  29.024  1.00  0.00     0.031 C 
ATOM     44  C   UNL A   1      41.336  25.184  27.656  1.00  0.00     0.029 A 
ATOM     45  C   UNL A   1      42.764  25.446  27.559  1.00  0.00     0.049 A 
ATOM     46  H   UNL A   1      43.748  27.254  27.889  1.00  0.00     0.167 HD
ATOM     47  C   UNL A   1      45.678  31.133  28.361  1.00  0.00     0.037 A 
ATOM     48  C   UNL A   1      43.686  24.529  27.208  1.00  0.00     0.037 A 
ATOM     49  C   UNL A   1      46.724  30.247  27.915  1.00  0.00     0.049 A 
ATOM     50  C   UNL A   1      45.111  24.958  27.027  1.00  0.00     0.074 A 
ATOM     51  C   UNL A   1      48.068  30.524  27.728  1.00  0.00     0.029 A 
ATOM     52  N   UNL A   1      46.548  28.906  27.607  1.00  0.00    -0.354 N 
ATOM     53  N   UNL A   1      45.639  26.144  27.211  1.00  0.00    -0.248 NA
ATOM     54  C   UNL A   1      46.056  23.939  26.555  1.00  0.00     0.031 C 
ATOM     55  C   UNL A   1      48.699  29.357  27.282  1.00  0.00     0.029 A 
ATOM     56  C   UNL A   1      47.756  28.345  27.223  1.00  0.00     0.049 A 
ATOM     57  H   UNL A   1      45.691  28.423  27.653  1.00  0.00     0.167 HD
ATOM     58  C   UNL A   1      46.976  26.019  26.861  1.00  0.00     0.074 A 
ATOM     59  C   UNL A   1      47.184  24.634  26.486  1.00  0.00     0.031 C 
ATOM     60  C   UNL A   1      47.942  26.969  26.841  1.00  0.00     0.037 A 
BRANCH  47  61
ATOM     61  C   UNL A   1      46.039  32.568  28.630  1.00  0.00     0.058 A 
ATOM     62  C   UNL A   1      45.992  33.551  27.630  1.00  0.00     0.135 A 
ATOM     63  C   UNL A   1      46.395  32.972  29.928  1.00  0.00     0.135 A 
ATOM     64  F   UNL A   1      45.674  33.216  26.370  1.00  0.00    -0.206 F 
ATOM     65  C   UNL A   1      46.305  34.879  27.902  1.00  0.00     0.059 A 
ATOM     66  C   UNL A   1      46.692  34.299  30.228  1.00  0.00     0.059 A 
ATOM     67  F   UNL A   1      46.454  32.072  30.923  1.00  0.00    -0.206 F 
ATOM     68  C   UNL A   1      46.658  35.243  29.204  1.00  0.00     0.060 A 
BRANCH  68  69
ATOM     69  S   UNL A   1      47.066  36.969  29.545  1.00  0.00     0.124 S 
ATOM     70  O   UNL A   1      48.349  37.104  28.862  1.00  0.00    -0.237 OA
ATOM     71  O   UNL A   1      45.948  37.684  28.938  1.00  0.00    -0.237 OA
ATOM     72  O   UNL A   1      47.122  37.022  31.003  1.00  0.00    -0.744 OA
ENDBRANCH  68  69
ENDBRANCH  47  61
BRANCH  48  73
ATOM     73  C   UNL A   1      43.263  23.129  26.941  1.00  0.00     0.058 A 
ATOM     74  C   UNL A   1      43.202  22.631  25.633  1.00  0.00     0.135 A 
ATOM     75  C   UNL A   1      42.971  22.247  27.994  1.00  0.00     0.135 A 
ATOM     76  F   UNL A   1      43.459  23.440  24.594  1.00  0.00    -0.206 F 
ATOM     77  C   UNL A   1      42.877  21.303  25.376  1.00  0.00     0.059 A 
ATOM     78  C   UNL A   1      42.672  20.909  27.764  1.00  0.00     0.059 A 
ATOM     79  F   UNL A   1      43.029  22.675  29.266  1.00  0.00    -0.206 F 
ATOM     80  C   UNL A   1      42.623  20.447  26.449  1.00  0.00     0.060 A 
BRANCH  80  81
ATOM     81  S   UNL A   1      42.297  18.701  26.122  1.00  0.00     0.124 S 
ATOM     82  O   UNL A   1      43.236  18.426  25.041  1.00  0.00    -0.237 OA
ATOM     83  O   UNL A   1      42.601  18.079  27.407  1.00  0.00    -0.237 OA
ATOM     84  O   UNL A   1      40.885  18.693  25.751  1.00  0.00    -0.744 OA
ENDBRANCH  80  81
ENDBRANCH  48  73
BRANCH  60  85
ATOM     85  C   UNL A   1      49.308  26.538  26.397  1.00  0.00     0.058 A 
ATOM     86  C   UNL A   1      49.731  26.715  25.070  1.00  0.00     0.135 A 
ATOM     87  C   UNL A   1      50.211  25.971  27.308  1.00  0.00     0.135 A 
ATOM     88  F   UNL A   1      48.898  27.245  24.161  1.00  0.00    -0.206 F 
ATOM     89  C   UNL A   1      51.001  26.328  24.658  1.00  0.00     0.059 A 
ATOM     90  C   UNL A   1      51.492  25.592  26.922  1.00  0.00     0.059 A 
ATOM     91  F   UNL A   1      49.852  25.786  28.589  1.00  0.00    -0.206 F 
ATOM     92  C   UNL A   1      51.874  25.764  25.591  1.00  0.00     0.060 A 
BRANCH  92  93
ATOM     93  S   UNL A   1      53.530  25.288  25.054  1.00  0.00     0.124 S 
ATOM     94  O   UNL A   1      53.531  25.748  23.669  1.00  0.00    -0.237 OA
ATOM     95  O   UNL A   1      54.387  26.034  25.970  1.00  0.00    -0.237 OA
ATOM     96  O   UNL A   1      53.541  23.840  25.236  1.00  0.00    -0.744 OA
ENDBRANCH  92  93
ENDBRANCH  60  85
ENDBRANCH  34  35
ENDBRANCH  27  29
ENDBRANCH  26  27
ENDBRANCH  25  26
ENDBRANCH   1  25
TORSDOF 17
ENDMDL
MODEL 2
REMARK VINA RESULT:     -11.4      1.069      2.069
REMARK SMILES Cc1ccc(Cl)c(NC(=O)C[N@@H+]2CCC[C@H]2C(=O)OCCOC(=O)c2ccc(-c3c4nc(c(-c5c(F)cc(S(=O)(=O)[O-])cc5F)c5ccc([nH]5)c(-c5c(F)cc(S(=O)(=O)[O-])cc5F)c5nc(c(-c6c(F)cc(S(=O)(=O)[O-])cc6F)c6ccc3[nH]6)C=C5)C=C4)cc2)c1Cl
REMARK SMILES IDX 20 1 19 2 17 3 18 4 16 5 12 6 13 7 14 9 15 10 11 11 9 12
REMARK SMILES IDX 8 13 10 15 7 16 1 17 2 18 3 19 91 20 4 21 92 22 5 23 6 24
REMARK SMILES IDX 21 25 22 26 23 27 24 28 25 29 26 30 90 31 27 32 89 33 28 34
REMARK SMILES IDX 29 35 30 36 83 37 31 38 88 39 82 40 84 41 32 42 87 43 81 44
REMARK SMILES IDX 80 45 33 47 67 48 46 49 66 50 47 51 50 52 65 53 85 54 48 55
REMARK SMILES IDX 49 56 64 58 86 59 51 60 34 61 35 62 44 63 36 64 37 65 43 66
REMARK SMILES IDX 45 67 38 68 39 69 40 70 41 71 42 72 68 73 69 74 78 75 70 76
REMARK SMILES IDX 71 77 77 78 79 79 72 80 73 81 74 82 75 83 76 84 52 85 53 86
REMARK SMILES IDX 62 87 54 88 55 89 61 90 63 91 56 92 57 93 58 94 59 95 60 96
REMARK H PARENT 12 8 8 14 84 46 50 57
REMARK Flexibility Score: inf
ROOT
ATOM      1  C   UNL A   1      34.015  28.852  27.111  1.00  0.00     0.274 C 
ENDROOT
BRANCH   1   2
ATOM      2  O   UNL A   1      32.904  28.649  26.216  1.00  0.00    -0.458 OA
BRANCH   2   3
ATOM      3  C   UNL A   1      31.898  27.830  26.646  1.00  0.00     0.365 C 
ATOM      4  O   UNL A   1      31.417  27.838  27.772  1.00  0.00    -0.245 OA
BRANCH   3   5
ATOM      5  C   UNL A   1      31.424  26.933  25.488  1.00  0.00     0.295 C 
ATOM      6  N   UNL A   1      32.511  26.019  25.046  1.00  0.00    -0.315 N 
ATOM      7  C   UNL A   1      32.389  24.883  25.991  1.00  0.00     0.263 C 
ATOM      8  H   UNL A   1      33.428  26.467  25.043  1.00  0.00     0.349 HD
ATOM      9  C   UNL A   1      30.899  24.677  26.219  1.00  0.00     0.068 C 
ATOM     10  C   UNL A   1      30.266  26.015  25.880  1.00  0.00     0.083 C 
BRANCH   6  11
ATOM     11  C   UNL A   1      32.275  25.537  23.657  1.00  0.00     0.364 C 
BRANCH  11  12
ATOM     12  C   UNL A   1      33.575  25.202  22.917  1.00  0.00     0.279 C 
ATOM     13  N   UNL A   1      34.286  24.048  23.048  1.00  0.00    -0.319 N 
ATOM     14  H   UNL A   1      35.066  24.021  22.450  1.00  0.00     0.170 HD
ATOM     15  O   UNL A   1      34.008  25.999  22.069  1.00  0.00    -0.268 OA
BRANCH  13  16
ATOM     16  C   UNL A   1      34.175  22.876  23.835  1.00  0.00     0.079 A 
ATOM     17  C   UNL A   1      32.573  19.388  24.046  1.00  0.00     0.046 C 
ATOM     18  C   UNL A   1      33.384  20.617  24.369  1.00  0.00    -0.030 A 
ATOM     19  C   UNL A   1      34.385  20.505  25.343  1.00  0.00     0.006 A 
ATOM     20  C   UNL A   1      33.237  21.839  23.670  1.00  0.00     0.069 A 
ATOM     21  C   UNL A   1      35.218  21.579  25.630  1.00  0.00     0.023 A 
ATOM     22  Cl  UNL A   1      31.754  22.113  22.810  1.00  0.00    -0.082 Cl
ATOM     23  C   UNL A   1      35.119  22.747  24.878  1.00  0.00     0.066 A 
ATOM     24  Cl  UNL A   1      36.254  24.014  25.227  1.00  0.00    -0.082 Cl
ENDBRANCH  13  16
ENDBRANCH  11  12
ENDBRANCH   6  11
ENDBRANCH   3   5
ENDBRANCH   2   3
ENDBRANCH   1   2
BRANCH   1  25
ATOM     25  C   UNL A   1      34.046  30.306  27.577  1.00  0.00     0.275 C 
BRANCH  25  26
ATOM     26  O   UNL A   1      35.413  30.755  27.645  1.00  0.00    -0.458 OA
BRANCH  26  27
ATOM     27  C   UNL A   1      36.016  30.631  28.845  1.00  0.00     0.338 C 
ATOM     28  O   UNL A   1      35.543  30.875  29.947  1.00  0.00    -0.246 OA
BRANCH  27  29
ATOM     29  C   UNL A   1      37.358  30.063  28.672  1.00  0.00     0.060 A 
ATOM     30  C   UNL A   1      38.186  29.976  29.785  1.00  0.00     0.016 A 
ATOM     31  C   UNL A   1      37.855  29.755  27.408  1.00  0.00     0.016 A 
ATOM     32  C   UNL A   1      39.538  29.689  29.632  1.00  0.00     0.010 A 
ATOM     33  C   UNL A   1      39.184  29.328  27.275  1.00  0.00     0.010 A 
ATOM     34  C   UNL A   1      40.053  29.311  28.382  1.00  0.00    -0.014 A 
BRANCH  34  35
ATOM     35  C   UNL A   1      41.475  28.870  28.257  1.00  0.00     0.031 A 
ATOM     36  C   UNL A   1      42.612  29.840  28.456  1.00  0.00     0.074 A 
ATOM     37  C   UNL A   1      41.756  27.580  27.967  1.00  0.00     0.049 A 
ATOM     38  N   UNL A   1      43.886  29.682  28.194  1.00  0.00    -0.248 NA
ATOM     39  C   UNL A   1      42.277  31.163  29.005  1.00  0.00     0.031 C 
ATOM     40  C   UNL A   1      40.765  26.518  27.775  1.00  0.00     0.029 A 
ATOM     41  N   UNL A   1      42.957  26.935  27.798  1.00  0.00    -0.354 N 
ATOM     42  C   UNL A   1      44.492  30.901  28.481  1.00  0.00     0.074 A 
ATOM     43  C   UNL A   1      43.448  31.787  28.954  1.00  0.00     0.031 C 
ATOM     44  C   UNL A   1      41.394  25.350  27.589  1.00  0.00     0.029 A 
ATOM     45  C   UNL A   1      42.828  25.593  27.525  1.00  0.00     0.049 A 
ATOM     46  H   UNL A   1      43.828  27.390  27.864  1.00  0.00     0.167 HD
ATOM     47  C   UNL A   1      45.796  31.248  28.352  1.00  0.00     0.037 A 
ATOM     48  C   UNL A   1      43.746  24.661  27.204  1.00  0.00     0.037 A 
ATOM     49  C   UNL A   1      46.841  30.345  27.938  1.00  0.00     0.049 A 
ATOM     50  C   UNL A   1      45.180  25.070  27.055  1.00  0.00     0.074 A 
ATOM     51  C   UNL A   1      48.192  30.603  27.782  1.00  0.00     0.029 A 
ATOM     52  N   UNL A   1      46.654  29.004  27.637  1.00  0.00    -0.354 N 
ATOM     53  N   UNL A   1      45.720  26.251  27.241  1.00  0.00    -0.248 NA
ATOM     54  C   UNL A   1      46.124  24.035  26.614  1.00  0.00     0.031 C 
ATOM     55  C   UNL A   1      48.819  29.425  27.361  1.00  0.00     0.029 A 
ATOM     56  C   UNL A   1      47.864  28.424  27.287  1.00  0.00     0.049 A 
ATOM     57  H   UNL A   1      45.791  28.533  27.666  1.00  0.00     0.167 HD
ATOM     58  C   UNL A   1      47.063  26.105  26.925  1.00  0.00     0.074 A 
ATOM     59  C   UNL A   1      47.262  24.715  26.566  1.00  0.00     0.031 C 
ATOM     60  C   UNL A   1      48.041  27.043  26.921  1.00  0.00     0.037 A 
BRANCH  47  61
ATOM     61  C   UNL A   1      46.169  32.680  28.618  1.00  0.00     0.058 A 
ATOM     62  C   UNL A   1      46.126  33.662  27.617  1.00  0.00     0.135 A 
ATOM     63  C   UNL A   1      46.533  33.083  29.914  1.00  0.00     0.135 A 
ATOM     64  F   UNL A   1      45.800  33.329  26.358  1.00  0.00    -0.206 F 
ATOM     65  C   UNL A   1      46.450  34.989  27.886  1.00  0.00     0.059 A 
ATOM     66  C   UNL A   1      46.841  34.408  30.211  1.00  0.00     0.059 A 
ATOM     67  F   UNL A   1      46.589  32.184  30.910  1.00  0.00    -0.206 F 
ATOM     68  C   UNL A   1      46.810  35.351  29.186  1.00  0.00     0.060 A 
BRANCH  68  69
ATOM     69  S   UNL A   1      47.234  37.075  29.524  1.00  0.00     0.124 S 
ATOM     70  O   UNL A   1      46.099  37.773  28.929  1.00  0.00    -0.237 OA
ATOM     71  O   UNL A   1      47.301  37.104  30.981  1.00  0.00    -0.237 OA
ATOM     72  O   UNL A   1      48.510  37.250  28.838  1.00  0.00    -0.744 OA
ENDBRANCH  68  69
ENDBRANCH  47  61
BRANCH  48  73
ATOM     73  C   UNL A   1      43.312  23.264  26.938  1.00  0.00     0.058 A 
ATOM     74  C   UNL A   1      43.260  22.761  25.631  1.00  0.00     0.135 A 
ATOM     75  C   UNL A   1      42.999  22.390  27.991  1.00  0.00     0.135 A 
ATOM     76  F   UNL A   1      43.537  23.563  24.592  1.00  0.00    -0.206 F 
ATOM     77  C   UNL A   1      42.924  21.435  25.377  1.00  0.00     0.059 A 
ATOM     78  C   UNL A   1      42.688  21.054  27.763  1.00  0.00     0.059 A 
ATOM     79  F   UNL A   1      43.048  22.822  29.262  1.00  0.00    -0.206 F 
ATOM     80  C   UNL A   1      42.649  20.587  26.451  1.00  0.00     0.060 A 
BRANCH  80  81
ATOM     81  S   UNL A   1      42.308  18.843  26.126  1.00  0.00     0.124 S 
ATOM     82  O   UNL A   1      42.611  18.241  27.419  1.00  0.00    -0.237 OA
ATOM     83  O   UNL A   1      40.899  18.865  25.745  1.00  0.00    -0.237 OA
ATOM     84  O   UNL A   1      43.235  18.521  25.045  1.00  0.00    -0.744 OA
ENDBRANCH  80  81
ENDBRANCH  48  73
BRANCH  60  85
ATOM     85  C   UNL A   1      49.412  26.591  26.513  1.00  0.00     0.058 A 
ATOM     86  C   UNL A   1      50.280  25.981  27.432  1.00  0.00     0.135 A 
ATOM     87  C   UNL A   1      49.851  26.743  25.189  1.00  0.00     0.135 A 
ATOM     88  F   UNL A   1      49.907  25.823  28.711  1.00  0.00    -0.206 F 
ATOM     89  C   UNL A   1      51.547  25.550  27.054  1.00  0.00     0.059 A 
ATOM     90  C   UNL A   1      51.107  26.304  24.785  1.00  0.00     0.059 A 
ATOM     91  F   UNL A   1      49.053  27.317  24.275  1.00  0.00    -0.206 F 
ATOM     92  C   UNL A   1      51.953  25.719  25.728  1.00  0.00     0.060 A 
BRANCH  92  93
ATOM     93  S   UNL A   1      53.589  25.132  25.240  1.00  0.00     0.124 S 
ATOM     94  O   UNL A   1      53.433  23.688  25.373  1.00  0.00    -0.237 OA
ATOM     95  O   UNL A   1      53.711  25.634  23.875  1.00  0.00    -0.237 OA
ATOM     96  O   UNL A   1      54.477  25.762  26.214  1.00  0.00    -0.744 OA
ENDBRANCH  92  93
ENDBRANCH  60  85
ENDBRANCH  34  35
ENDBRANCH  27  29
ENDBRANCH  26  27
ENDBRANCH  25  26
ENDBRANCH   1  25
TORSDOF 17
ENDMDL
MODEL 3
REMARK VINA RESULT:     -11.4      1.736      2.229
REMARK SMILES Cc1ccc(Cl)c(NC(=O)C[N@@H+]2CCC[C@H]2C(=O)OCCOC(=O)c2ccc(-c3c4nc(c(-c5c(F)cc(S(=O)(=O)[O-])cc5F)c5ccc([nH]5)c(-c5c(F)cc(S(=O)(=O)[O-])cc5F)c5nc(c(-c6c(F)cc(S(=O)(=O)[O-])cc6F)c6ccc3[nH]6)C=C5)C=C4)cc2)c1Cl
REMARK SMILES IDX 20 1 19 2 17 3 18 4 16 5 12 6 13 7 14 9 15 10 11 11 9 12
REMARK SMILES IDX 8 13 10 15 7 16 1 17 2 18 3 19 91 20 4 21 92 22 5 23 6 24
REMARK SMILES IDX 21 25 22 26 23 27 24 28 25 29 26 30 90 31 27 32 89 33 28 34
REMARK SMILES IDX 29 35 30 36 83 37 31 38 88 39 82 40 84 41 32 42 87 43 81 44
REMARK SMILES IDX 80 45 33 47 67 48 46 49 66 50 47 51 50 52 65 53 85 54 48 55
REMARK SMILES IDX 49 56 64 58 86 59 51 60 34 61 35 62 44 63 36 64 37 65 43 66
REMARK SMILES IDX 45 67 38 68 39 69 40 70 41 71 42 72 68 73 69 74 78 75 70 76
REMARK SMILES IDX 71 77 77 78 79 79 72 80 73 81 74 82 75 83 76 84 52 85 53 86
REMARK SMILES IDX 62 87 54 88 55 89 61 90 63 91 56 92 57 93 58 94 59 95 60 96
REMARK H PARENT 12 8 8 14 84 46 50 57
REMARK Flexibility Score: inf
ROOT
ATOM      1  C   UNL A   1      32.078  28.569  26.322  1.00  0.00     0.274 C 
ENDROOT
BRANCH   1   2
ATOM      2  O   UNL A   1      31.840  27.591  25.291  1.00  0.00    -0.458 OA
BRANCH   2   3
ATOM      3  C   UNL A   1      31.551  26.317  25.692  1.00  0.00     0.365 C 
ATOM      4  O   UNL A   1      30.593  25.998  26.385  1.00  0.00    -0.245 OA
BRANCH   3   5
ATOM      5  C   UNL A   1      32.581  25.336  25.102  1.00  0.00     0.295 C 
ATOM      6  N   UNL A   1      31.907  24.265  24.321  1.00  0.00    -0.315 N 
ATOM      7  C   UNL A   1      31.725  24.894  22.991  1.00  0.00     0.263 C 
ATOM      8  H   UNL A   1      31.041  23.945  24.756  1.00  0.00     0.349 HD
ATOM      9  C   UNL A   1      32.976  25.721  22.737  1.00  0.00     0.068 C 
ATOM     10  C   UNL A   1      33.543  26.003  24.117  1.00  0.00     0.083 C 
BRANCH   6  11
ATOM     11  C   UNL A   1      32.780  23.066  24.189  1.00  0.00     0.364 C 
BRANCH  11  12
ATOM     12  C   UNL A   1      32.758  22.177  25.436  1.00  0.00     0.279 C 
ATOM     13  N   UNL A   1      33.832  21.521  25.960  1.00  0.00    -0.319 N 
ATOM     14  H   UNL A   1      33.607  21.040  26.788  1.00  0.00     0.170 HD
ATOM     15  O   UNL A   1      31.706  22.076  26.088  1.00  0.00    -0.268 OA
BRANCH  13  16
ATOM     16  C   UNL A   1      35.193  21.366  25.604  1.00  0.00     0.079 A 
ATOM     17  C   UNL A   1      38.737  22.772  26.096  1.00  0.00     0.046 C 
ATOM     18  C   UNL A   1      37.582  21.919  25.636  1.00  0.00    -0.030 A 
ATOM     19  C   UNL A   1      37.873  20.663  25.085  1.00  0.00     0.006 A 
ATOM     20  C   UNL A   1      36.231  22.293  25.822  1.00  0.00     0.069 A 
ATOM     21  C   UNL A   1      36.850  19.799  24.714  1.00  0.00     0.023 A 
ATOM     22  Cl  UNL A   1      35.877  23.973  26.079  1.00  0.00    -0.082 Cl
ATOM     23  C   UNL A   1      35.527  20.143  24.979  1.00  0.00     0.066 A 
ATOM     24  Cl  UNL A   1      34.308  18.975  24.577  1.00  0.00    -0.082 Cl
ENDBRANCH  13  16
ENDBRANCH  11  12
ENDBRANCH   6  11
ENDBRANCH   3   5
ENDBRANCH   2   3
ENDBRANCH   1   2
BRANCH   1  25
ATOM     25  C   UNL A   1      33.576  28.848  26.436  1.00  0.00     0.275 C 
BRANCH  25  26
ATOM     26  O   UNL A   1      33.917  29.049  27.820  1.00  0.00    -0.458 OA
BRANCH  26  27
ATOM     27  C   UNL A   1      34.515  30.222  28.117  1.00  0.00     0.338 C 
ATOM     28  O   UNL A   1      33.986  31.318  28.243  1.00  0.00    -0.246 OA
BRANCH  27  29
ATOM     29  C   UNL A   1      35.945  30.004  28.361  1.00  0.00     0.060 A 
ATOM     30  C   UNL A   1      36.833  30.218  27.314  1.00  0.00     0.016 A 
ATOM     31  C   UNL A   1      36.399  29.456  29.558  1.00  0.00     0.016 A 
ATOM     32  C   UNL A   1      38.151  29.786  27.413  1.00  0.00     0.010 A 
ATOM     33  C   UNL A   1      37.760  29.153  29.705  1.00  0.00     0.010 A 
ATOM     34  C   UNL A   1      38.653  29.291  28.626  1.00  0.00    -0.014 A 
BRANCH  34  35
ATOM     35  C   UNL A   1      40.104  28.962  28.761  1.00  0.00     0.031 A 
ATOM     36  C   UNL A   1      41.090  29.982  29.271  1.00  0.00     0.074 A 
ATOM     37  C   UNL A   1      40.549  27.730  28.429  1.00  0.00     0.049 A 
ATOM     38  N   UNL A   1      42.399  29.938  29.267  1.00  0.00    -0.248 NA
ATOM     39  C   UNL A   1      40.538  31.219  29.848  1.00  0.00     0.031 C 
ATOM     40  C   UNL A   1      39.712  26.626  27.948  1.00  0.00     0.029 A 
ATOM     41  N   UNL A   1      41.811  27.188  28.459  1.00  0.00    -0.354 N 
ATOM     42  C   UNL A   1      42.827  31.161  29.774  1.00  0.00     0.074 A 
ATOM     43  C   UNL A   1      41.637  31.922  30.093  1.00  0.00     0.031 C 
ATOM     44  C   UNL A   1      40.465  25.529  27.799  1.00  0.00     0.029 A 
ATOM     45  C   UNL A   1      41.856  25.874  28.054  1.00  0.00     0.049 A 
ATOM     46  H   UNL A   1      42.607  27.692  28.742  1.00  0.00     0.167 HD
ATOM     47  C   UNL A   1      44.096  31.608  29.947  1.00  0.00     0.037 A 
ATOM     48  C   UNL A   1      42.897  25.043  27.852  1.00  0.00     0.037 A 
ATOM     49  C   UNL A   1      45.276  30.822  29.684  1.00  0.00     0.049 A 
ATOM     50  C   UNL A   1      44.291  25.562  28.038  1.00  0.00     0.074 A 
ATOM     51  C   UNL A   1      46.604  31.187  29.833  1.00  0.00     0.029 A 
ATOM     52  N   UNL A   1      45.272  29.509  29.240  1.00  0.00    -0.354 N 
ATOM     53  N   UNL A   1      44.677  26.751  28.430  1.00  0.00    -0.248 NA
ATOM     54  C   UNL A   1      45.390  24.642  27.717  1.00  0.00     0.031 C 
ATOM     55  C   UNL A   1      47.403  30.101  29.454  1.00  0.00     0.029 A 
ATOM     56  C   UNL A   1      46.572  29.051  29.101  1.00  0.00     0.049 A 
ATOM     57  H   UNL A   1      44.464  28.979  29.050  1.00  0.00     0.167 HD
ATOM     58  C   UNL A   1      46.064  26.730  28.388  1.00  0.00     0.074 A 
ATOM     59  C   UNL A   1      46.451  25.399  27.963  1.00  0.00     0.031 C 
ATOM     60  C   UNL A   1      46.938  27.728  28.665  1.00  0.00     0.037 A 
BRANCH  47  61
ATOM     61  C   UNL A   1      44.282  33.028  30.403  1.00  0.00     0.058 A 
ATOM     62  C   UNL A   1      44.395  34.095  29.499  1.00  0.00     0.135 A 
ATOM     63  C   UNL A   1      44.302  33.328  31.776  1.00  0.00     0.135 A 
ATOM     64  F   UNL A   1      44.398  33.861  28.177  1.00  0.00    -0.206 F 
ATOM     65  C   UNL A   1      44.542  35.407  29.939  1.00  0.00     0.059 A 
ATOM     66  C   UNL A   1      44.427  34.636  32.238  1.00  0.00     0.059 A 
ATOM     67  F   UNL A   1      44.196  32.346  32.684  1.00  0.00    -0.206 F 
ATOM     68  C   UNL A   1      44.561  35.667  31.311  1.00  0.00     0.060 A 
BRANCH  68  69
ATOM     69  S   UNL A   1      44.756  37.374  31.871  1.00  0.00     0.124 S 
ATOM     70  O   UNL A   1      44.490  37.241  33.300  1.00  0.00    -0.237 OA
ATOM     71  O   UNL A   1      46.139  37.668  31.509  1.00  0.00    -0.237 OA
ATOM     72  O   UNL A   1      43.744  38.098  31.108  1.00  0.00    -0.744 OA
ENDBRANCH  68  69
ENDBRANCH  47  61
BRANCH  48  73
ATOM     73  C   UNL A   1      42.648  23.654  27.387  1.00  0.00     0.058 A 
ATOM     74  C   UNL A   1      42.691  23.331  26.024  1.00  0.00     0.135 A 
ATOM     75  C   UNL A   1      42.422  22.612  28.301  1.00  0.00     0.135 A 
ATOM     76  F   UNL A   1      42.890  24.294  25.112  1.00  0.00    -0.206 F 
ATOM     77  C   UNL A   1      42.530  22.021  25.583  1.00  0.00     0.059 A 
ATOM     78  C   UNL A   1      42.286  21.292  27.886  1.00  0.00     0.059 A 
ATOM     79  F   UNL A   1      42.385  22.870  29.619  1.00  0.00    -0.206 F 
ATOM     80  C   UNL A   1      42.337  21.007  26.523  1.00  0.00     0.060 A 
BRANCH  80  81
ATOM     81  S   UNL A   1      42.226  19.296  25.957  1.00  0.00     0.124 S 
ATOM     82  O   UNL A   1      42.714  18.570  27.123  1.00  0.00    -0.237 OA
ATOM     83  O   UNL A   1      40.802  19.154  25.666  1.00  0.00    -0.237 OA
ATOM     84  O   UNL A   1      43.099  19.277  24.787  1.00  0.00    -0.744 OA
ENDBRANCH  80  81
ENDBRANCH  48  73
BRANCH  60  85
ATOM     85  C   UNL A   1      48.397  27.413  28.513  1.00  0.00     0.058 A 
ATOM     86  C   UNL A   1      49.111  27.806  27.371  1.00  0.00     0.135 A 
ATOM     87  C   UNL A   1      49.092  26.738  29.528  1.00  0.00     0.135 A 
ATOM     88  F   UNL A   1      48.486  28.445  26.370  1.00  0.00    -0.206 F 
ATOM     89  C   UNL A   1      50.466  27.526  27.234  1.00  0.00     0.059 A 
ATOM     90  C   UNL A   1      50.451  26.463  29.419  1.00  0.00     0.059 A 
ATOM     91  F   UNL A   1      48.451  26.346  30.641  1.00  0.00    -0.206 F 
ATOM     92  C   UNL A   1      51.127  26.851  28.262  1.00  0.00     0.060 A 
BRANCH  92  93
ATOM     93  S   UNL A   1      52.892  26.515  28.086  1.00  0.00     0.124 S 
ATOM     94  O   UNL A   1      52.880  25.314  27.258  1.00  0.00    -0.237 OA
ATOM     95  O   UNL A   1      53.382  27.727  27.438  1.00  0.00    -0.237 OA
ATOM     96  O   UNL A   1      53.338  26.325  29.463  1.00  0.00    -0.744 OA
ENDBRANCH  92  93
ENDBRANCH  60  85
ENDBRANCH  34  35
ENDBRANCH  27  29
ENDBRANCH  26  27
ENDBRANCH  25  26
ENDBRANCH   1  25
TORSDOF 17
ENDMDL
