MODEL 1
REMARK VINA RESULT:     -12.4      0.000      0.000
REMARK SMILES O=C(OCCOC(=O)c1ccc(-c2c3nc(c(-c4c(F)cc(S(=O)(=O)[O-])cc4F)c4ccc([nH]4)c(-c4c(F)cc(S(=O)(=O)[O-])cc4F)c4nc(c(-c5c(F)cc(S(=O)(=O)[O-])cc5F)c5ccc2[nH]5)C=C4)C=C3)cc1)C1=Cc2cc(S(F)(F)(F)(F)F)cc(Br)c2O[C@@H]1C(F)(F)F
REMARK SMILES IDX 5 1 4 2 3 3 2 4 1 5 75 6 76 7 91 8 77 9 90 10 78 11 89 12
REMARK SMILES IDX 79 13 87 14 86 15 88 16 92 17 93 18 94 19 95 20 80 21 81 22
REMARK SMILES IDX 82 23 83 24 84 25 85 26 6 27 7 28 8 29 9 30 10 31 74 32
REMARK SMILES IDX 11 33 73 34 12 35 13 36 14 37 67 38 15 39 72 40 66 41 68 42
REMARK SMILES IDX 16 43 71 44 65 45 64 46 17 48 51 49 30 50 50 51 31 52 34 53
REMARK SMILES IDX 49 54 69 55 32 56 33 57 48 59 70 60 35 61 18 62 19 63 28 64
REMARK SMILES IDX 20 65 21 66 27 67 29 68 22 69 23 70 24 71 25 72 26 73 52 74
REMARK SMILES IDX 53 75 62 76 54 77 55 78 61 79 63 80 56 81 57 82 58 83 59 84
REMARK SMILES IDX 60 85 36 86 37 87 46 88 38 89 39 90 45 91 47 92 40 93 41 94
REMARK SMILES IDX 42 95 43 96 44 97
REMARK H PARENT 68 47 34 58
REMARK Flexibility Score: inf
ROOT
ATOM      1  C   UNL A   1      38.158  24.128  26.446  1.00  0.00     0.275 C 
ENDROOT
BRANCH   1   2
ATOM      2  C   UNL A   1      37.678  23.343  25.235  1.00  0.00     0.275 C 
BRANCH   2   3
ATOM      3  O   UNL A   1      36.479  23.921  24.741  1.00  0.00    -0.459 OA
BRANCH   3   4
ATOM      4  C   UNL A   1      35.561  23.129  24.001  1.00  0.00     0.338 C 
ATOM      5  O   UNL A   1      35.690  23.017  22.742  1.00  0.00    -0.246 OA
BRANCH   4   6
ATOM      6  C   UNL A   1      34.424  22.416  24.715  1.00  0.00     0.087 C 
ATOM      7  C   UNL A   1      33.362  23.126  25.183  1.00  0.00     0.027 C 
ATOM      8  C   UNL A   1      34.475  20.908  24.907  1.00  0.00     0.316 C 
ATOM      9  C   UNL A   1      33.311  24.633  24.991  1.00  0.00     0.020 A 
ATOM     10  O   UNL A   1      34.044  24.459  22.736  1.00  0.00    -0.474 OA
ATOM     11  C   UNL A   1      33.036  25.363  26.135  1.00  0.00     0.036 A 
ATOM     12  C   UNL A   1      33.611  25.234  23.845  1.00  0.00     0.142 A 
ATOM     13  C   UNL A   1      32.818  26.740  25.897  1.00  0.00     0.109 A 
ATOM     14  C   UNL A   1      33.506  26.598  23.723  1.00  0.00     0.062 A 
ATOM     15  C   UNL A   1      33.181  27.377  24.798  1.00  0.00     0.044 A 
ATOM     16  Br  UNL A   1      33.828  27.440  21.982  1.00  0.00    -0.047 Br
BRANCH   8  17
ATOM     17  C   UNL A   1      33.277  20.270  24.223  1.00  0.00     0.430 C 
ATOM     18  F   UNL A   1      32.931  20.998  23.165  1.00  0.00    -0.167 F 
ATOM     19  F   UNL A   1      33.595  19.040  23.830  1.00  0.00    -0.167 F 
ATOM     20  F   UNL A   1      32.257  20.214  25.075  1.00  0.00    -0.167 F 
ENDBRANCH   8  17
BRANCH  13  21
ATOM     21  S   UNL A   1      31.985  27.697  27.188  1.00  0.00     0.310 S 
ATOM     22  F   UNL A   1      31.797  28.934  26.213  1.00  0.00    -0.094 F 
ATOM     23  F   UNL A   1      33.371  28.322  27.601  1.00  0.00    -0.094 F 
ATOM     24  F   UNL A   1      31.253  28.525  28.282  1.00  0.00    -0.094 F 
ATOM     25  F   UNL A   1      30.591  27.168  26.668  1.00  0.00    -0.094 F 
ATOM     26  F   UNL A   1      32.701  26.937  26.001  1.00  0.00    -0.094 F 
ENDBRANCH  13  21
ENDBRANCH   4   6
ENDBRANCH   3   4
ENDBRANCH   2   3
ENDBRANCH   1   2
BRANCH   1  27
ATOM     27  O   UNL A   1      39.578  24.178  26.444  1.00  0.00    -0.458 OA
BRANCH  27  28
ATOM     28  C   UNL A   1      40.244  25.432  26.441  1.00  0.00     0.338 C 
ATOM     29  O   UNL A   1      40.974  25.760  25.454  1.00  0.00    -0.246 OA
BRANCH  28  30
ATOM     30  C   UNL A   1      40.082  26.381  27.617  1.00  0.00     0.060 A 
ATOM     31  C   UNL A   1      40.922  27.481  27.679  1.00  0.00     0.016 A 
ATOM     32  C   UNL A   1      39.282  26.066  28.630  1.00  0.00     0.016 A 
ATOM     33  C   UNL A   1      41.057  28.026  28.977  1.00  0.00     0.010 A 
ATOM     34  C   UNL A   1      39.377  26.733  29.828  1.00  0.00     0.010 A 
ATOM     35  C   UNL A   1      40.228  27.793  29.978  1.00  0.00    -0.014 A 
BRANCH  35  36
ATOM     36  C   UNL A   1      40.222  28.654  31.230  1.00  0.00     0.031 A 
ATOM     37  C   UNL A   1      41.144  28.458  32.261  1.00  0.00     0.074 A 
ATOM     38  C   UNL A   1      39.330  29.712  31.180  1.00  0.00     0.049 A 
ATOM     39  N   UNL A   1      41.350  29.236  33.324  1.00  0.00    -0.248 NA
ATOM     40  C   UNL A   1      42.068  27.317  32.334  1.00  0.00     0.031 C 
ATOM     41  C   UNL A   1      38.404  29.920  30.139  1.00  0.00     0.029 A 
ATOM     42  N   UNL A   1      39.172  30.728  32.095  1.00  0.00    -0.354 N 
ATOM     43  C   UNL A   1      42.329  28.732  34.080  1.00  0.00     0.074 A 
ATOM     44  C   UNL A   1      42.800  27.487  33.457  1.00  0.00     0.031 C 
ATOM     45  C   UNL A   1      37.690  31.039  30.429  1.00  0.00     0.029 A 
ATOM     46  C   UNL A   1      38.158  31.550  31.655  1.00  0.00     0.049 A 
ATOM     47  H   UNL A   1      39.694  30.847  32.922  1.00  0.00     0.167 HD
ATOM     48  C   UNL A   1      42.847  29.261  35.262  1.00  0.00     0.037 A 
ATOM     49  C   UNL A   1      37.655  32.684  32.273  1.00  0.00     0.037 A 
ATOM     50  C   UNL A   1      42.373  30.420  35.858  1.00  0.00     0.049 A 
ATOM     51  C   UNL A   1      38.135  33.183  33.486  1.00  0.00     0.074 A 
ATOM     52  C   UNL A   1      42.890  30.972  37.046  1.00  0.00     0.029 A 
ATOM     53  N   UNL A   1      41.344  31.228  35.430  1.00  0.00    -0.354 N 
ATOM     54  N   UNL A   1      39.139  32.700  34.221  1.00  0.00    -0.248 NA
ATOM     55  C   UNL A   1      37.589  34.364  34.167  1.00  0.00     0.031 C 
ATOM     56  C   UNL A   1      42.176  32.093  37.336  1.00  0.00     0.029 A 
ATOM     57  C   UNL A   1      41.201  32.257  36.334  1.00  0.00     0.049 A 
ATOM     58  H   UNL A   1      40.803  31.093  34.619  1.00  0.00     0.167 HD
ATOM     59  C   UNL A   1      39.319  33.455  35.305  1.00  0.00     0.074 A 
ATOM     60  C   UNL A   1      38.319  34.533  35.291  1.00  0.00     0.031 C 
ATOM     61  C   UNL A   1      40.279  33.293  36.306  1.00  0.00     0.037 A 
BRANCH  48  62
ATOM     62  C   UNL A   1      43.997  28.528  35.934  1.00  0.00     0.058 A 
ATOM     63  C   UNL A   1      43.653  27.522  36.821  1.00  0.00     0.135 A 
ATOM     64  C   UNL A   1      45.268  28.789  35.648  1.00  0.00     0.135 A 
ATOM     65  F   UNL A   1      42.412  27.060  36.946  1.00  0.00    -0.206 F 
ATOM     66  C   UNL A   1      44.740  27.031  37.581  1.00  0.00     0.059 A 
ATOM     67  C   UNL A   1      46.282  28.170  36.339  1.00  0.00     0.059 A 
ATOM     68  F   UNL A   1      45.561  29.656  34.683  1.00  0.00    -0.206 F 
ATOM     69  C   UNL A   1      46.011  27.208  37.272  1.00  0.00     0.060 A 
BRANCH  69  70
ATOM     70  S   UNL A   1      47.325  26.229  38.041  1.00  0.00     0.124 S 
ATOM     71  O   UNL A   1      48.286  27.160  38.785  1.00  0.00    -0.237 OA
ATOM     72  O   UNL A   1      46.710  25.236  39.029  1.00  0.00    -0.237 OA
ATOM     73  O   UNL A   1      48.182  25.375  36.832  1.00  0.00    -0.744 OA
ENDBRANCH  69  70
ENDBRANCH  48  62
BRANCH  49  74
ATOM     74  C   UNL A   1      36.518  33.427  31.592  1.00  0.00     0.058 A 
ATOM     75  C   UNL A   1      35.202  33.264  31.995  1.00  0.00     0.135 A 
ATOM     76  C   UNL A   1      36.829  34.188  30.549  1.00  0.00     0.135 A 
ATOM     77  F   UNL A   1      34.864  32.729  33.164  1.00  0.00    -0.206 F 
ATOM     78  C   UNL A   1      34.253  33.719  31.050  1.00  0.00     0.059 A 
ATOM     79  C   UNL A   1      35.845  34.712  29.746  1.00  0.00     0.059 A 
ATOM     80  F   UNL A   1      38.106  34.445  30.279  1.00  0.00    -0.206 F 
ATOM     81  C   UNL A   1      34.523  34.541  30.052  1.00  0.00     0.060 A 
BRANCH  81  82
ATOM     82  S   UNL A   1      33.214  35.395  29.139  1.00  0.00     0.124 S 
ATOM     83  O   UNL A   1      32.493  34.398  28.230  1.00  0.00    -0.237 OA
ATOM     84  O   UNL A   1      32.215  36.001  30.127  1.00  0.00    -0.237 OA
ATOM     85  O   UNL A   1      33.902  36.640  28.189  1.00  0.00    -0.744 OA
ENDBRANCH  81  82
ENDBRANCH  49  74
BRANCH  61  86
ATOM     86  C   UNL A   1      40.315  34.311  37.434  1.00  0.00     0.058 A 
ATOM     87  C   UNL A   1      39.481  34.075  38.514  1.00  0.00     0.135 A 
ATOM     88  C   UNL A   1      41.016  35.435  37.337  1.00  0.00     0.135 A 
ATOM     89  F   UNL A   1      38.962  32.881  38.782  1.00  0.00    -0.206 F 
ATOM     90  C   UNL A   1      39.231  35.220  39.306  1.00  0.00     0.059 A 
ATOM     91  C   UNL A   1      40.817  36.461  38.228  1.00  0.00     0.059 A 
ATOM     92  F   UNL A   1      41.919  35.567  36.370  1.00  0.00    -0.206 F 
ATOM     93  C   UNL A   1      39.963  36.319  39.287  1.00  0.00     0.060 A 
BRANCH  93  94
ATOM     94  S   UNL A   1      39.842  37.570  40.590  1.00  0.00     0.124 S 
ATOM     95  O   UNL A   1      39.000  38.746  40.090  1.00  0.00    -0.237 OA
ATOM     96  O   UNL A   1      39.180  36.956  41.826  1.00  0.00    -0.237 OA
ATOM     97  O   UNL A   1      41.408  38.122  40.997  1.00  0.00    -0.744 OA
ENDBRANCH  93  94
ENDBRANCH  61  86
ENDBRANCH  35  36
ENDBRANCH  28  30
ENDBRANCH  27  28
ENDBRANCH   1  27
TORSDOF 16
ENDMDL
MODEL 2
REMARK VINA RESULT:     -12.4      5.261      9.944
REMARK SMILES O=C(OCCOC(=O)c1ccc(-c2c3nc(c(-c4c(F)cc(S(=O)(=O)[O-])cc4F)c4ccc([nH]4)c(-c4c(F)cc(S(=O)(=O)[O-])cc4F)c4nc(c(-c5c(F)cc(S(=O)(=O)[O-])cc5F)c5ccc2[nH]5)C=C4)C=C3)cc1)C1=Cc2cc(S(F)(F)(F)(F)F)cc(Br)c2O[C@@H]1C(F)(F)F
REMARK SMILES IDX 5 1 4 2 3 3 2 4 1 5 75 6 76 7 91 8 77 9 90 10 78 11 89 12
REMARK SMILES IDX 79 13 87 14 86 15 88 16 92 17 93 18 94 19 95 20 80 21 81 22
REMARK SMILES IDX 82 23 83 24 84 25 85 26 6 27 7 28 8 29 9 30 10 31 74 32
REMARK SMILES IDX 11 33 73 34 12 35 13 36 14 37 67 38 15 39 72 40 66 41 68 42
REMARK SMILES IDX 16 43 71 44 65 45 64 46 17 48 51 49 30 50 50 51 31 52 34 53
REMARK SMILES IDX 49 54 69 55 32 56 33 57 48 59 70 60 35 61 18 62 19 63 28 64
REMARK SMILES IDX 20 65 21 66 27 67 29 68 22 69 23 70 24 71 25 72 26 73 52 74
REMARK SMILES IDX 53 75 62 76 54 77 55 78 61 79 63 80 56 81 57 82 58 83 59 84
REMARK SMILES IDX 60 85 36 86 37 87 46 88 38 89 39 90 45 91 47 92 40 93 41 94
REMARK SMILES IDX 42 95 43 96 44 97
REMARK H PARENT 68 47 34 58
REMARK Flexibility Score: inf
ROOT
ATOM      1  C   UNL A   1      33.647  29.801  26.450  1.00  0.00     0.275 C 
ENDROOT
BRANCH   1   2
ATOM      2  C   UNL A   1      33.991  28.357  26.119  1.00  0.00     0.275 C 
BRANCH   2   3
ATOM      3  O   UNL A   1      33.122  27.489  26.831  1.00  0.00    -0.459 OA
BRANCH   3   4
ATOM      4  C   UNL A   1      31.803  27.259  26.356  1.00  0.00     0.338 C 
ATOM      5  O   UNL A   1      30.854  27.074  27.182  1.00  0.00    -0.246 OA
BRANCH   4   6
ATOM      6  C   UNL A   1      31.526  27.235  24.862  1.00  0.00     0.087 C 
ATOM      7  C   UNL A   1      32.050  26.245  24.089  1.00  0.00     0.027 C 
ATOM      8  C   UNL A   1      30.663  28.316  24.232  1.00  0.00     0.316 C 
ATOM      9  C   UNL A   1      32.912  25.164  24.719  1.00  0.00     0.020 A 
ATOM     10  O   UNL A   1      31.418  24.917  26.552  1.00  0.00    -0.474 OA
ATOM     11  C   UNL A   1      34.125  24.937  24.091  1.00  0.00     0.036 A 
ATOM     12  C   UNL A   1      32.595  24.544  25.851  1.00  0.00     0.142 A 
ATOM     13  C   UNL A   1      34.825  23.812  24.585  1.00  0.00     0.109 A 
ATOM     14  C   UNL A   1      33.396  23.545  26.348  1.00  0.00     0.062 A 
ATOM     15  C   UNL A   1      34.581  23.228  25.744  1.00  0.00     0.044 A 
ATOM     16  Br  UNL A   1      32.833  22.561  27.947  1.00  0.00    -0.047 Br
BRANCH   8  17
ATOM     17  C   UNL A   1      29.447  27.679  23.578  1.00  0.00     0.430 C 
ATOM     18  F   UNL A   1      28.979  26.712  24.363  1.00  0.00    -0.167 F 
ATOM     19  F   UNL A   1      28.506  28.601  23.400  1.00  0.00    -0.167 F 
ATOM     20  F   UNL A   1      29.796  27.165  22.402  1.00  0.00    -0.167 F 
ENDBRANCH   8  17
BRANCH  13  21
ATOM     21  S   UNL A   1      36.146  23.123  23.557  1.00  0.00     0.310 S 
ATOM     22  F   UNL A   1      36.275  21.851  24.495  1.00  0.00    -0.094 F 
ATOM     23  F   UNL A   1      37.212  23.826  24.480  1.00  0.00    -0.094 F 
ATOM     24  F   UNL A   1      37.271  22.511  22.676  1.00  0.00    -0.094 F 
ATOM     25  F   UNL A   1      35.070  22.315  22.731  1.00  0.00    -0.094 F 
ATOM     26  F   UNL A   1      35.000  23.646  24.512  1.00  0.00    -0.094 F 
ENDBRANCH  13  21
ENDBRANCH   4   6
ENDBRANCH   3   4
ENDBRANCH   2   3
ENDBRANCH   1   2
BRANCH   1  27
ATOM     27  O   UNL A   1      33.716  29.994  27.855  1.00  0.00    -0.458 OA
BRANCH  27  28
ATOM     28  C   UNL A   1      34.792  30.727  28.420  1.00  0.00     0.338 C 
ATOM     29  O   UNL A   1      34.614  31.928  28.795  1.00  0.00    -0.246 OA
BRANCH  28  30
ATOM     30  C   UNL A   1      36.155  30.075  28.578  1.00  0.00     0.060 A 
ATOM     31  C   UNL A   1      36.507  29.611  29.836  1.00  0.00     0.016 A 
ATOM     32  C   UNL A   1      37.037  30.108  27.585  1.00  0.00     0.016 A 
ATOM     33  C   UNL A   1      37.902  29.473  30.027  1.00  0.00     0.010 A 
ATOM     34  C   UNL A   1      38.363  29.829  27.818  1.00  0.00     0.010 A 
ATOM     35  C   UNL A   1      38.790  29.421  29.051  1.00  0.00    -0.014 A 
BRANCH  35  36
ATOM     36  C   UNL A   1      40.211  28.937  29.286  1.00  0.00     0.031 A 
ATOM     37  C   UNL A   1      40.629  27.665  28.888  1.00  0.00     0.074 A 
ATOM     38  C   UNL A   1      41.060  29.908  29.790  1.00  0.00     0.049 A 
ATOM     39  N   UNL A   1      41.872  27.182  28.886  1.00  0.00    -0.248 NA
ATOM     40  C   UNL A   1      39.725  26.621  28.385  1.00  0.00     0.031 C 
ATOM     41  C   UNL A   1      40.647  31.195  30.186  1.00  0.00     0.029 A 
ATOM     42  N   UNL A   1      42.418  29.818  29.998  1.00  0.00    -0.354 N 
ATOM     43  C   UNL A   1      41.879  25.932  28.417  1.00  0.00     0.074 A 
ATOM     44  C   UNL A   1      40.498  25.551  28.095  1.00  0.00     0.031 C 
ATOM     45  C   UNL A   1      41.738  31.867  30.637  1.00  0.00     0.029 A 
ATOM     46  C   UNL A   1      42.851  31.012  30.530  1.00  0.00     0.049 A 
ATOM     47  H   UNL A   1      42.982  29.036  29.801  1.00  0.00     0.167 HD
ATOM     48  C   UNL A   1      42.983  25.096  28.245  1.00  0.00     0.037 A 
ATOM     49  C   UNL A   1      44.140  31.356  30.908  1.00  0.00     0.037 A 
ATOM     50  C   UNL A   1      44.279  25.455  28.583  1.00  0.00     0.049 A 
ATOM     51  C   UNL A   1      45.236  30.498  30.790  1.00  0.00     0.074 A 
ATOM     52  C   UNL A   1      45.404  24.627  28.408  1.00  0.00     0.029 A 
ATOM     53  N   UNL A   1      44.709  26.640  29.137  1.00  0.00    -0.354 N 
ATOM     54  N   UNL A   1      45.250  29.263  30.285  1.00  0.00    -0.248 NA
ATOM     55  C   UNL A   1      46.600  30.839  31.217  1.00  0.00     0.031 C 
ATOM     56  C   UNL A   1      46.497  25.300  28.860  1.00  0.00     0.029 A 
ATOM     57  C   UNL A   1      46.071  26.559  29.325  1.00  0.00     0.049 A 
ATOM     58  H   UNL A   1      44.140  27.412  29.361  1.00  0.00     0.167 HD
ATOM     59  C   UNL A   1      46.486  28.765  30.321  1.00  0.00     0.074 A 
ATOM     60  C   UNL A   1      47.372  29.768  30.929  1.00  0.00     0.031 C 
ATOM     61  C   UNL A   1      46.914  27.515  29.869  1.00  0.00     0.037 A 
BRANCH  48  62
ATOM     62  C   UNL A   1      42.753  23.715  27.652  1.00  0.00     0.058 A 
ATOM     63  C   UNL A   1      42.556  22.683  28.554  1.00  0.00     0.135 A 
ATOM     64  C   UNL A   1      42.682  23.509  26.342  1.00  0.00     0.135 A 
ATOM     65  F   UNL A   1      42.368  22.882  29.855  1.00  0.00    -0.206 F 
ATOM     66  C   UNL A   1      42.573  21.396  27.965  1.00  0.00     0.059 A 
ATOM     67  C   UNL A   1      42.562  22.235  25.840  1.00  0.00     0.059 A 
ATOM     68  F   UNL A   1      42.726  24.544  25.509  1.00  0.00    -0.206 F 
ATOM     69  C   UNL A   1      42.423  21.161  26.675  1.00  0.00     0.060 A 
BRANCH  69  70
ATOM     70  S   UNL A   1      42.052  19.506  26.044  1.00  0.00     0.124 S 
ATOM     71  O   UNL A   1      42.809  19.278  24.733  1.00  0.00    -0.237 OA
ATOM     72  O   UNL A   1      42.485  18.459  27.072  1.00  0.00    -0.237 OA
ATOM     73  O   UNL A   1      40.370  19.367  25.761  1.00  0.00    -0.744 OA
ENDBRANCH  69  70
ENDBRANCH  48  62
BRANCH  49  74
ATOM     74  C   UNL A   1      44.373  32.742  31.484  1.00  0.00     0.058 A 
ATOM     75  C   UNL A   1      44.315  32.980  32.848  1.00  0.00     0.135 A 
ATOM     76  C   UNL A   1      44.567  33.732  30.621  1.00  0.00     0.135 A 
ATOM     77  F   UNL A   1      44.377  32.009  33.755  1.00  0.00    -0.206 F 
ATOM     78  C   UNL A   1      44.186  34.347  33.187  1.00  0.00     0.059 A 
ATOM     79  C   UNL A   1      44.563  35.040  31.043  1.00  0.00     0.059 A 
ATOM     80  F   UNL A   1      44.767  33.456  29.335  1.00  0.00    -0.206 F 
ATOM     81  C   UNL A   1      44.452  35.350  32.370  1.00  0.00     0.060 A 
BRANCH  81  82
ATOM     82  S   UNL A   1      44.657  37.044  32.975  1.00  0.00     0.124 S 
ATOM     83  O   UNL A   1      46.145  37.397  33.007  1.00  0.00    -0.237 OA
ATOM     84  O   UNL A   1      43.922  38.011  32.042  1.00  0.00    -0.237 OA
ATOM     85  O   UNL A   1      44.006  37.168  34.551  1.00  0.00    -0.744 OA
ENDBRANCH  81  82
ENDBRANCH  49  74
BRANCH  61  86
ATOM     86  C   UNL A   1      48.393  27.183  29.981  1.00  0.00     0.058 A 
ATOM     87  C   UNL A   1      48.819  26.634  31.178  1.00  0.00     0.135 A 
ATOM     88  C   UNL A   1      49.256  27.515  29.028  1.00  0.00     0.135 A 
ATOM     89  F   UNL A   1      47.994  26.059  32.047  1.00  0.00    -0.206 F 
ATOM     90  C   UNL A   1      50.214  26.740  31.393  1.00  0.00     0.059 A 
ATOM     91  C   UNL A   1      50.609  27.465  29.263  1.00  0.00     0.059 A 
ATOM     92  F   UNL A   1      48.808  27.898  27.836  1.00  0.00    -0.206 F 
ATOM     93  C   UNL A   1      51.101  26.989  30.447  1.00  0.00     0.060 A 
BRANCH  93  94
ATOM     94  S   UNL A   1      52.872  26.714  30.702  1.00  0.00     0.124 S 
ATOM     95  O   UNL A   1      53.490  27.951  31.357  1.00  0.00    -0.237 OA
ATOM     96  O   UNL A   1      53.073  25.500  31.612  1.00  0.00    -0.237 OA
ATOM     97  O   UNL A   1      53.627  26.429  29.195  1.00  0.00    -0.744 OA
ENDBRANCH  93  94
ENDBRANCH  61  86
ENDBRANCH  35  36
ENDBRANCH  28  30
ENDBRANCH  27  28
ENDBRANCH   1  27
TORSDOF 16
ENDMDL
MODEL 3
REMARK VINA RESULT:     -12.2      2.968      8.751
REMARK SMILES O=C(OCCOC(=O)c1ccc(-c2c3nc(c(-c4c(F)cc(S(=O)(=O)[O-])cc4F)c4ccc([nH]4)c(-c4c(F)cc(S(=O)(=O)[O-])cc4F)c4nc(c(-c5c(F)cc(S(=O)(=O)[O-])cc5F)c5ccc2[nH]5)C=C4)C=C3)cc1)C1=Cc2cc(S(F)(F)(F)(F)F)cc(Br)c2O[C@@H]1C(F)(F)F
REMARK SMILES IDX 5 1 4 2 3 3 2 4 1 5 75 6 76 7 91 8 77 9 90 10 78 11 89 12
REMARK SMILES IDX 79 13 87 14 86 15 88 16 92 17 93 18 94 19 95 20 80 21 81 22
REMARK SMILES IDX 82 23 83 24 84 25 85 26 6 27 7 28 8 29 9 30 10 31 74 32
REMARK SMILES IDX 11 33 73 34 12 35 13 36 14 37 67 38 15 39 72 40 66 41 68 42
REMARK SMILES IDX 16 43 71 44 65 45 64 46 17 48 51 49 30 50 50 51 31 52 34 53
REMARK SMILES IDX 49 54 69 55 32 56 33 57 48 59 70 60 35 61 18 62 19 63 28 64
REMARK SMILES IDX 20 65 21 66 27 67 29 68 22 69 23 70 24 71 25 72 26 73 52 74
REMARK SMILES IDX 53 75 62 76 54 77 55 78 61 79 63 80 56 81 57 82 58 83 59 84
REMARK SMILES IDX 60 85 36 86 37 87 46 88 38 89 39 90 45 91 47 92 40 93 41 94
REMARK SMILES IDX 42 95 43 96 44 97
REMARK H PARENT 68 47 34 58
REMARK Flexibility Score: inf
ROOT
ATOM      1  C   UNL A   1      36.607  22.921  25.717  1.00  0.00     0.275 C 
ENDROOT
BRANCH   1   2
ATOM      2  C   UNL A   1      35.817  23.897  24.859  1.00  0.00     0.275 C 
BRANCH   2   3
ATOM      3  O   UNL A   1      34.703  24.381  25.595  1.00  0.00    -0.459 OA
BRANCH   3   4
ATOM      4  C   UNL A   1      33.426  23.781  25.428  1.00  0.00     0.338 C 
ATOM      5  O   UNL A   1      33.220  22.988  24.457  1.00  0.00    -0.246 OA
BRANCH   4   6
ATOM      6  C   UNL A   1      32.308  24.089  26.410  1.00  0.00     0.087 C 
ATOM      7  C   UNL A   1      31.897  25.373  26.593  1.00  0.00     0.027 C 
ATOM      8  C   UNL A   1      31.647  22.961  27.186  1.00  0.00     0.316 C 
ATOM      9  C   UNL A   1      32.557  26.500  25.816  1.00  0.00     0.020 A 
ATOM     10  O   UNL A   1      32.511  25.252  23.793  1.00  0.00    -0.474 OA
ATOM     11  C   UNL A   1      32.979  27.574  26.582  1.00  0.00     0.036 A 
ATOM     12  C   UNL A   1      32.817  26.437  24.515  1.00  0.00     0.142 A 
ATOM     13  C   UNL A   1      33.425  28.681  25.821  1.00  0.00     0.109 A 
ATOM     14  C   UNL A   1      33.378  27.507  23.861  1.00  0.00     0.062 A 
ATOM     15  C   UNL A   1      33.766  28.624  24.546  1.00  0.00     0.044 A 
ATOM     16  Br  UNL A   1      33.627  27.429  21.918  1.00  0.00    -0.047 Br
BRANCH   8  17
ATOM     17  C   UNL A   1      30.163  22.922  26.860  1.00  0.00     0.430 C 
ATOM     18  F   UNL A   1      29.764  24.127  26.464  1.00  0.00    -0.167 F 
ATOM     19  F   UNL A   1      29.947  22.041  25.888  1.00  0.00    -0.167 F 
ATOM     20  F   UNL A   1      29.481  22.563  27.944  1.00  0.00    -0.167 F 
ENDBRANCH   8  17
BRANCH  13  21
ATOM     21  S   UNL A   1      33.534  30.285  26.651  1.00  0.00     0.310 S 
ATOM     22  F   UNL A   1      32.811  29.716  27.943  1.00  0.00    -0.094 F 
ATOM     23  F   UNL A   1      32.105  30.654  26.099  1.00  0.00    -0.094 F 
ATOM     24  F   UNL A   1      33.634  31.653  27.384  1.00  0.00    -0.094 F 
ATOM     25  F   UNL A   1      34.899  29.842  27.309  1.00  0.00    -0.094 F 
ATOM     26  F   UNL A   1      33.395  28.849  26.005  1.00  0.00    -0.094 F 
ENDBRANCH  13  21
ENDBRANCH   4   6
ENDBRANCH   3   4
ENDBRANCH   2   3
ENDBRANCH   1   2
BRANCH   1  27
ATOM     27  O   UNL A   1      37.948  22.864  25.254  1.00  0.00    -0.458 OA
BRANCH  27  28
ATOM     28  C   UNL A   1      39.023  23.030  26.168  1.00  0.00     0.338 C 
ATOM     29  O   UNL A   1      39.798  22.055  26.419  1.00  0.00    -0.246 OA
BRANCH  28  30
ATOM     30  C   UNL A   1      39.245  24.373  26.843  1.00  0.00     0.060 A 
ATOM     31  C   UNL A   1      40.032  25.303  26.183  1.00  0.00     0.016 A 
ATOM     32  C   UNL A   1      38.842  24.574  28.093  1.00  0.00     0.016 A 
ATOM     33  C   UNL A   1      40.586  26.291  27.032  1.00  0.00     0.010 A 
ATOM     34  C   UNL A   1      39.321  25.638  28.819  1.00  0.00     0.010 A 
ATOM     35  C   UNL A   1      40.149  26.564  28.248  1.00  0.00    -0.014 A 
BRANCH  35  36
ATOM     36  C   UNL A   1      40.546  27.839  28.974  1.00  0.00     0.031 A 
ATOM     37  C   UNL A   1      39.679  28.930  29.070  1.00  0.00     0.074 A 
ATOM     38  C   UNL A   1      41.761  27.756  29.631  1.00  0.00     0.049 A 
ATOM     39  N   UNL A   1      39.836  30.030  29.807  1.00  0.00    -0.248 NA
ATOM     40  C   UNL A   1      38.404  29.035  28.345  1.00  0.00     0.031 C 
ATOM     41  C   UNL A   1      42.636  26.656  29.545  1.00  0.00     0.029 A 
ATOM     42  N   UNL A   1      42.336  28.688  30.465  1.00  0.00    -0.354 N 
ATOM     43  C   UNL A   1      38.786  30.841  29.654  1.00  0.00     0.074 A 
ATOM     44  C   UNL A   1      37.854  30.215  28.706  1.00  0.00     0.031 C 
ATOM     45  C   UNL A   1      43.729  26.926  30.307  1.00  0.00     0.029 A 
ATOM     46  C   UNL A   1      43.554  28.199  30.882  1.00  0.00     0.049 A 
ATOM     47  H   UNL A   1      41.945  29.555  30.719  1.00  0.00     0.167 HD
ATOM     48  C   UNL A   1      38.570  32.074  30.267  1.00  0.00     0.037 A 
ATOM     49  C   UNL A   1      44.476  28.814  31.715  1.00  0.00     0.037 A 
ATOM     50  C   UNL A   1      39.473  32.670  31.135  1.00  0.00     0.049 A 
ATOM     51  C   UNL A   1      44.286  30.076  32.284  1.00  0.00     0.074 A 
ATOM     52  C   UNL A   1      39.266  33.911  31.769  1.00  0.00     0.029 A 
ATOM     53  N   UNL A   1      40.701  32.192  31.533  1.00  0.00    -0.354 N 
ATOM     54  N   UNL A   1      43.219  30.868  32.162  1.00  0.00    -0.248 NA
ATOM     55  C   UNL A   1      45.269  30.751  33.142  1.00  0.00     0.031 C 
ATOM     56  C   UNL A   1      40.359  34.182  32.531  1.00  0.00     0.029 A 
ATOM     57  C   UNL A   1      41.267  33.115  32.384  1.00  0.00     0.049 A 
ATOM     58  H   UNL A   1      41.106  31.338  31.256  1.00  0.00     0.167 HD
ATOM     59  C   UNL A   1      43.395  31.987  32.866  1.00  0.00     0.074 A 
ATOM     60  C   UNL A   1      44.719  31.932  33.501  1.00  0.00     0.031 C 
ATOM     61  C   UNL A   1      42.503  33.051  33.010  1.00  0.00     0.037 A 
BRANCH  48  62
ATOM     62  C   UNL A   1      37.272  32.807  29.969  1.00  0.00     0.058 A 
ATOM     63  C   UNL A   1      36.204  32.536  30.807  1.00  0.00     0.135 A 
ATOM     64  C   UNL A   1      37.173  33.707  28.996  1.00  0.00     0.135 A 
ATOM     65  F   UNL A   1      36.326  31.842  31.936  1.00  0.00    -0.206 F 
ATOM     66  C   UNL A   1      34.971  33.063  30.356  1.00  0.00     0.059 A 
ATOM     67  C   UNL A   1      35.962  34.284  28.698  1.00  0.00     0.059 A 
ATOM     68  F   UNL A   1      38.256  34.053  28.308  1.00  0.00    -0.206 F 
ATOM     69  C   UNL A   1      34.852  34.015  29.449  1.00  0.00     0.060 A 
BRANCH  69  70
ATOM     70  S   UNL A   1      33.301  34.918  29.213  1.00  0.00     0.124 S 
ATOM     71  O   UNL A   1      32.440  34.192  28.175  1.00  0.00    -0.237 OA
ATOM     72  O   UNL A   1      32.544  34.989  30.541  1.00  0.00    -0.237 OA
ATOM     73  O   UNL A   1      33.640  36.502  28.664  1.00  0.00    -0.744 OA
ENDBRANCH  69  70
ENDBRANCH  48  62
BRANCH  49  74
ATOM     74  C   UNL A   1      45.766  28.074  32.027  1.00  0.00     0.058 A 
ATOM     75  C   UNL A   1      46.891  28.210  31.230  1.00  0.00     0.135 A 
ATOM     76  C   UNL A   1      45.750  27.237  33.058  1.00  0.00     0.135 A 
ATOM     77  F   UNL A   1      47.044  29.202  30.357  1.00  0.00    -0.206 F 
ATOM     78  C   UNL A   1      47.861  27.200  31.430  1.00  0.00     0.059 A 
ATOM     79  C   UNL A   1      46.794  26.370  33.272  1.00  0.00     0.059 A 
ATOM     80  F   UNL A   1      44.714  27.237  33.891  1.00  0.00    -0.206 F 
ATOM     81  C   UNL A   1      47.913  26.409  32.486  1.00  0.00     0.060 A 
BRANCH  81  82
ATOM     82  S   UNL A   1      49.386  25.431  32.874  1.00  0.00     0.124 S 
ATOM     83  O   UNL A   1      50.023  24.931  31.575  1.00  0.00    -0.237 OA
ATOM     84  O   UNL A   1      50.391  26.301  33.633  1.00  0.00    -0.237 OA
ATOM     85  O   UNL A   1      48.943  24.094  33.844  1.00  0.00    -0.744 OA
ENDBRANCH  81  82
ENDBRANCH  49  74
BRANCH  61  86
ATOM     86  C   UNL A   1      42.911  34.210  33.903  1.00  0.00     0.058 A 
ATOM     87  C   UNL A   1      43.620  35.239  33.305  1.00  0.00     0.135 A 
ATOM     88  C   UNL A   1      42.709  34.184  35.216  1.00  0.00     0.135 A 
ATOM     89  F   UNL A   1      43.633  35.443  31.992  1.00  0.00    -0.206 F 
ATOM     90  C   UNL A   1      44.330  36.053  34.220  1.00  0.00     0.059 A 
ATOM     91  C   UNL A   1      43.329  35.096  36.036  1.00  0.00     0.059 A 
ATOM     92  F   UNL A   1      41.901  33.269  35.740  1.00  0.00    -0.206 F 
ATOM     93  C   UNL A   1      44.093  36.105  35.517  1.00  0.00     0.060 A 
BRANCH  93  94
ATOM     94  S   UNL A   1      44.743  37.438  36.554  1.00  0.00     0.124 S 
ATOM     95  O   UNL A   1      46.084  37.010  37.154  1.00  0.00    -0.237 OA
ATOM     96  O   UNL A   1      44.943  38.695  35.703  1.00  0.00    -0.237 OA
ATOM     97  O   UNL A   1      43.636  37.773  37.813  1.00  0.00    -0.744 OA
ENDBRANCH  93  94
ENDBRANCH  61  86
ENDBRANCH  35  36
ENDBRANCH  28  30
ENDBRANCH  27  28
ENDBRANCH   1  27
TORSDOF 16
ENDMDL
