MODEL 1
REMARK VINA RESULT:     -10.4      0.000      0.000
REMARK SMILES CCC[NH2+][C@]1(C(=O)OCCOC(=O)c2ccc(-c3c4nc(c(-c5c(F)cc(S(=O)(=O)[O-])cc5F)c5ccc([nH]5)c(-c5c(F)cc(S(=O)(=O)[O-])cc5F)c5nc(c(-c6c(F)cc(S(=O)(=O)[O-])cc6F)c6ccc3[nH]6)C=C5)C=C4)cc2)CCC[C@H](OC(C)(C)C)C1
REMARK SMILES IDX 9 1 8 2 6 3 7 4 5 5 80 6 89 7 81 8 83 9 82 10 4 11 3 14 2 15
REMARK SMILES IDX 1 16 84 17 85 18 86 19 87 20 88 21 10 22 11 23 12 24 13 25
REMARK SMILES IDX 14 26 15 27 79 28 16 29 78 30 17 31 18 32 19 33 72 34 20 35
REMARK SMILES IDX 77 36 71 37 73 38 21 39 76 40 70 41 69 42 22 44 56 45 35 46
REMARK SMILES IDX 55 47 36 48 39 49 54 50 74 51 37 52 38 53 53 55 75 56 40 57
REMARK SMILES IDX 23 58 24 59 33 60 25 61 26 62 32 63 34 64 27 65 28 66 29 67
REMARK SMILES IDX 30 68 31 69 57 70 58 71 67 72 59 73 60 74 66 75 68 76 61 77
REMARK SMILES IDX 62 78 63 79 64 80 65 81 41 82 42 83 51 84 43 85 44 86 50 87
REMARK SMILES IDX 52 88 45 89 46 90 47 91 48 92 49 93
REMARK H PARENT 4 12 4 13 73 43 39 54
REMARK Flexibility Score: inf
ROOT
ATOM      1  C   UNL A   1      38.281  22.409  25.861  1.00  0.00     0.274 C 
ENDROOT
BRANCH   1   2
ATOM      2  O   UNL A   1      37.334  22.358  24.771  1.00  0.00    -0.457 OA
BRANCH   2   3
ATOM      3  C   UNL A   1      36.185  21.670  25.042  1.00  0.00     0.368 C 
ATOM      4  O   UNL A   1      36.128  20.444  25.094  1.00  0.00    -0.245 OA
BRANCH   3   5
ATOM      5  C   UNL A   1      34.921  22.592  25.102  1.00  0.00     0.196 C 
ATOM      6  C   UNL A   1      34.357  22.857  26.515  1.00  0.00     0.081 C 
ATOM      7  C   UNL A   1      35.398  23.961  24.541  1.00  0.00     0.113 C 
ATOM      8  C   UNL A   1      33.258  23.924  26.528  1.00  0.00     0.010 C 
ATOM      9  C   UNL A   1      34.320  25.056  24.503  1.00  0.00     0.125 C 
ATOM     10  C   UNL A   1      33.726  25.239  25.908  1.00  0.00     0.032 C 
BRANCH   5  11
ATOM     11  N   UNL A   1      33.892  22.027  24.180  1.00  0.00    -0.332 N 
ATOM     12  H   UNL A   1      33.429  22.808  23.716  1.00  0.00     0.347 HD
ATOM     13  H   UNL A   1      34.405  21.406  23.553  1.00  0.00     0.347 HD
BRANCH  11  14
ATOM     14  C   UNL A   1      32.856  21.194  24.789  1.00  0.00     0.261 C 
BRANCH  14  15
ATOM     15  C   UNL A   1      32.486  20.000  23.900  1.00  0.00     0.058 C 
ATOM     16  C   UNL A   1      33.271  18.732  24.210  1.00  0.00     0.010 C 
ENDBRANCH  14  15
ENDBRANCH  11  14
ENDBRANCH   5  11
BRANCH   9  17
ATOM     17  O   UNL A   1      33.246  24.736  23.627  1.00  0.00    -0.372 OA
BRANCH  17  18
ATOM     18  C   UNL A   1      32.677  25.738  22.780  1.00  0.00     0.060 C 
ATOM     19  C   UNL A   1      31.182  25.876  23.079  1.00  0.00     0.042 C 
ATOM     20  C   UNL A   1      33.365  27.104  22.862  1.00  0.00     0.042 C 
ATOM     21  C   UNL A   1      32.858  25.195  21.354  1.00  0.00     0.042 C 
ENDBRANCH  17  18
ENDBRANCH   9  17
ENDBRANCH   3   5
ENDBRANCH   2   3
ENDBRANCH   1   2
BRANCH   1  22
ATOM     22  C   UNL A   1      38.554  23.838  26.317  1.00  0.00     0.275 C 
BRANCH  22  23
ATOM     23  O   UNL A   1      39.917  23.964  26.746  1.00  0.00    -0.458 OA
BRANCH  23  24
ATOM     24  C   UNL A   1      40.506  25.144  26.442  1.00  0.00     0.338 C 
ATOM     25  O   UNL A   1      40.772  25.581  25.337  1.00  0.00    -0.246 OA
BRANCH  24  26
ATOM     26  C   UNL A   1      40.650  25.936  27.669  1.00  0.00     0.060 A 
ATOM     27  C   UNL A   1      39.609  25.863  28.590  1.00  0.00     0.016 A 
ATOM     28  C   UNL A   1      41.692  26.838  27.853  1.00  0.00     0.016 A 
ATOM     29  C   UNL A   1      39.565  26.725  29.678  1.00  0.00     0.010 A 
ATOM     30  C   UNL A   1      41.672  27.684  28.972  1.00  0.00     0.010 A 
ATOM     31  C   UNL A   1      40.591  27.654  29.873  1.00  0.00    -0.014 A 
BRANCH  31  32
ATOM     32  C   UNL A   1      40.450  28.656  30.960  1.00  0.00     0.031 A 
ATOM     33  C   UNL A   1      41.398  28.622  32.126  1.00  0.00     0.074 A 
ATOM     34  C   UNL A   1      39.547  29.650  30.856  1.00  0.00     0.049 A 
ATOM     35  N   UNL A   1      41.431  29.385  33.189  1.00  0.00    -0.248 NA
ATOM     36  C   UNL A   1      42.456  27.600  32.088  1.00  0.00     0.031 C 
ATOM     37  C   UNL A   1      38.625  29.841  29.735  1.00  0.00     0.029 A 
ATOM     38  N   UNL A   1      39.272  30.697  31.698  1.00  0.00    -0.354 N 
ATOM     39  C   UNL A   1      42.495  28.924  33.954  1.00  0.00     0.074 A 
ATOM     40  C   UNL A   1      43.078  27.808  33.239  1.00  0.00     0.031 C 
ATOM     41  C   UNL A   1      37.898  30.950  29.952  1.00  0.00     0.029 A 
ATOM     42  C   UNL A   1      38.269  31.521  31.245  1.00  0.00     0.049 A 
ATOM     43  H   UNL A   1      39.748  30.846  32.547  1.00  0.00     0.167 HD
ATOM     44  C   UNL A   1      42.947  29.387  35.144  1.00  0.00     0.037 A 
ATOM     45  C   UNL A   1      37.702  32.602  31.816  1.00  0.00     0.037 A 
ATOM     46  C   UNL A   1      42.379  30.506  35.850  1.00  0.00     0.049 A 
ATOM     47  C   UNL A   1      38.187  33.065  33.163  1.00  0.00     0.074 A 
ATOM     48  C   UNL A   1      42.741  31.025  37.081  1.00  0.00     0.029 A 
ATOM     49  N   UNL A   1      41.333  31.286  35.381  1.00  0.00    -0.354 N 
ATOM     50  N   UNL A   1      39.154  32.579  33.904  1.00  0.00    -0.248 NA
ATOM     51  C   UNL A   1      37.497  34.219  33.755  1.00  0.00     0.031 C 
ATOM     52  C   UNL A   1      41.898  32.105  37.367  1.00  0.00     0.029 A 
ATOM     53  C   UNL A   1      41.033  32.279  36.300  1.00  0.00     0.049 A 
ATOM     54  H   UNL A   1      40.872  31.156  34.520  1.00  0.00     0.167 HD
ATOM     55  C   UNL A   1      39.197  33.375  35.044  1.00  0.00     0.074 A 
ATOM     56  C   UNL A   1      38.171  34.387  34.885  1.00  0.00     0.031 C 
ATOM     57  C   UNL A   1      40.008  33.276  36.126  1.00  0.00     0.037 A 
BRANCH  44  58
ATOM     58  C   UNL A   1      44.089  28.646  35.777  1.00  0.00     0.058 A 
ATOM     59  C   UNL A   1      45.426  28.988  35.522  1.00  0.00     0.135 A 
ATOM     60  C   UNL A   1      43.840  27.577  36.653  1.00  0.00     0.135 A 
ATOM     61  F   UNL A   1      45.717  29.987  34.675  1.00  0.00    -0.206 F 
ATOM     62  C   UNL A   1      46.477  28.278  36.091  1.00  0.00     0.059 A 
ATOM     63  C   UNL A   1      44.875  26.865  37.249  1.00  0.00     0.059 A 
ATOM     64  F   UNL A   1      42.577  27.209  36.925  1.00  0.00    -0.206 F 
ATOM     65  C   UNL A   1      46.192  27.212  36.949  1.00  0.00     0.060 A 
BRANCH  65  66
ATOM     66  S   UNL A   1      47.562  26.284  37.670  1.00  0.00     0.124 S 
ATOM     67  O   UNL A   1      48.636  26.568  36.723  1.00  0.00    -0.237 OA
ATOM     68  O   UNL A   1      47.700  26.897  38.988  1.00  0.00    -0.237 OA
ATOM     69  O   UNL A   1      47.073  24.908  37.672  1.00  0.00    -0.744 OA
ENDBRANCH  65  66
ENDBRANCH  44  58
BRANCH  45  70
ATOM     70  C   UNL A   1      36.586  33.305  31.130  1.00  0.00     0.058 A 
ATOM     71  C   UNL A   1      35.261  33.163  31.567  1.00  0.00     0.135 A 
ATOM     72  C   UNL A   1      36.826  34.125  30.017  1.00  0.00     0.135 A 
ATOM     73  F   UNL A   1      34.983  32.380  32.619  1.00  0.00    -0.206 F 
ATOM     74  C   UNL A   1      34.209  33.799  30.915  1.00  0.00     0.059 A 
ATOM     75  C   UNL A   1      35.794  34.790  29.364  1.00  0.00     0.059 A 
ATOM     76  F   UNL A   1      38.078  34.298  29.566  1.00  0.00    -0.206 F 
ATOM     77  C   UNL A   1      34.487  34.611  29.813  1.00  0.00     0.060 A 
BRANCH  77  78
ATOM     78  S   UNL A   1      33.126  35.469  28.993  1.00  0.00     0.124 S 
ATOM     79  O   UNL A   1      33.840  36.472  28.212  1.00  0.00    -0.237 OA
ATOM     80  O   UNL A   1      32.493  34.396  28.230  1.00  0.00    -0.237 OA
ATOM     81  O   UNL A   1      32.335  35.980  30.110  1.00  0.00    -0.744 OA
ENDBRANCH  77  78
ENDBRANCH  45  70
BRANCH  57  82
ATOM     82  C   UNL A   1      39.828  34.303  37.209  1.00  0.00     0.058 A 
ATOM     83  C   UNL A   1      39.038  34.046  38.340  1.00  0.00     0.135 A 
ATOM     84  C   UNL A   1      40.464  35.551  37.121  1.00  0.00     0.135 A 
ATOM     85  F   UNL A   1      38.405  32.868  38.469  1.00  0.00    -0.206 F 
ATOM     86  C   UNL A   1      38.856  35.004  39.332  1.00  0.00     0.059 A 
ATOM     87  C   UNL A   1      40.313  36.516  38.112  1.00  0.00     0.059 A 
ATOM     88  F   UNL A   1      41.240  35.842  36.065  1.00  0.00    -0.206 F 
ATOM     89  C   UNL A   1      39.493  36.240  39.205  1.00  0.00     0.060 A 
BRANCH  89  90
ATOM     90  S   UNL A   1      39.257  37.480  40.497  1.00  0.00     0.124 S 
ATOM     91  O   UNL A   1      40.588  38.072  40.579  1.00  0.00    -0.237 OA
ATOM     92  O   UNL A   1      38.217  38.335  39.931  1.00  0.00    -0.237 OA
ATOM     93  O   UNL A   1      38.846  36.688  41.652  1.00  0.00    -0.744 OA
ENDBRANCH  89  90
ENDBRANCH  57  82
ENDBRANCH  31  32
ENDBRANCH  24  26
ENDBRANCH  23  24
ENDBRANCH  22  23
ENDBRANCH   1  22
TORSDOF 19
ENDMDL
MODEL 2
REMARK VINA RESULT:     -10.0      3.337      9.523
REMARK SMILES CCC[NH2+][C@]1(C(=O)OCCOC(=O)c2ccc(-c3c4nc(c(-c5c(F)cc(S(=O)(=O)[O-])cc5F)c5ccc([nH]5)c(-c5c(F)cc(S(=O)(=O)[O-])cc5F)c5nc(c(-c6c(F)cc(S(=O)(=O)[O-])cc6F)c6ccc3[nH]6)C=C5)C=C4)cc2)CCC[C@H](OC(C)(C)C)C1
REMARK SMILES IDX 9 1 8 2 6 3 7 4 5 5 80 6 89 7 81 8 83 9 82 10 4 11 3 14 2 15
REMARK SMILES IDX 1 16 84 17 85 18 86 19 87 20 88 21 10 22 11 23 12 24 13 25
REMARK SMILES IDX 14 26 15 27 79 28 16 29 78 30 17 31 18 32 19 33 72 34 20 35
REMARK SMILES IDX 77 36 71 37 73 38 21 39 76 40 70 41 69 42 22 44 56 45 35 46
REMARK SMILES IDX 55 47 36 48 39 49 54 50 74 51 37 52 38 53 53 55 75 56 40 57
REMARK SMILES IDX 23 58 24 59 33 60 25 61 26 62 32 63 34 64 27 65 28 66 29 67
REMARK SMILES IDX 30 68 31 69 57 70 58 71 67 72 59 73 60 74 66 75 68 76 61 77
REMARK SMILES IDX 62 78 63 79 64 80 65 81 41 82 42 83 51 84 43 85 44 86 50 87
REMARK SMILES IDX 52 88 45 89 46 90 47 91 48 92 49 93
REMARK H PARENT 4 12 4 13 73 43 39 54
REMARK Flexibility Score: inf
ROOT
ATOM      1  C   UNL A   1      31.855  29.249  25.826  1.00  0.00     0.274 C 
ENDROOT
BRANCH   1   2
ATOM      2  O   UNL A   1      32.399  27.966  25.447  1.00  0.00    -0.457 OA
BRANCH   2   3
ATOM      3  C   UNL A   1      31.818  27.400  24.348  1.00  0.00     0.368 C 
ATOM      4  O   UNL A   1      31.014  27.990  23.629  1.00  0.00    -0.245 OA
BRANCH   3   5
ATOM      5  C   UNL A   1      32.141  25.874  24.203  1.00  0.00     0.196 C 
ATOM      6  C   UNL A   1      31.191  25.078  23.283  1.00  0.00     0.081 C 
ATOM      7  C   UNL A   1      33.551  25.825  23.551  1.00  0.00     0.113 C 
ATOM      8  C   UNL A   1      31.677  23.649  23.018  1.00  0.00     0.010 C 
ATOM      9  C   UNL A   1      34.096  24.410  23.296  1.00  0.00     0.125 C 
ATOM     10  C   UNL A   1      33.092  23.621  22.443  1.00  0.00     0.032 C 
BRANCH   5  11
ATOM     11  N   UNL A   1      32.224  25.288  25.573  1.00  0.00    -0.332 N 
ATOM     12  H   UNL A   1      32.814  24.458  25.521  1.00  0.00     0.347 HD
ATOM     13  H   UNL A   1      32.595  26.034  26.163  1.00  0.00     0.347 HD
BRANCH  11  14
ATOM     14  C   UNL A   1      30.960  24.895  26.193  1.00  0.00     0.261 C 
BRANCH  14  15
ATOM     15  C   UNL A   1      31.034  23.490  26.804  1.00  0.00     0.058 C 
ATOM     16  C   UNL A   1      29.673  22.872  27.101  1.00  0.00     0.010 C 
ENDBRANCH  14  15
ENDBRANCH  11  14
ENDBRANCH   5  11
BRANCH   9  17
ATOM     17  O   UNL A   1      34.301  23.678  24.497  1.00  0.00    -0.372 OA
BRANCH  17  18
ATOM     18  C   UNL A   1      35.548  23.023  24.744  1.00  0.00     0.060 C 
ATOM     19  C   UNL A   1      36.413  23.892  25.662  1.00  0.00     0.042 C 
ATOM     20  C   UNL A   1      35.419  21.608  25.316  1.00  0.00     0.042 C 
ATOM     21  C   UNL A   1      36.218  22.924  23.366  1.00  0.00     0.042 C 
ENDBRANCH  17  18
ENDBRANCH   9  17
ENDBRANCH   3   5
ENDBRANCH   2   3
ENDBRANCH   1   2
BRANCH   1  22
ATOM     22  C   UNL A   1      32.523  29.808  27.077  1.00  0.00     0.275 C 
BRANCH  22  23
ATOM     23  O   UNL A   1      33.892  30.135  26.797  1.00  0.00    -0.458 OA
BRANCH  23  24
ATOM     24  C   UNL A   1      34.422  31.101  27.582  1.00  0.00     0.338 C 
ATOM     25  O   UNL A   1      33.859  32.079  28.043  1.00  0.00    -0.246 OA
BRANCH  24  26
ATOM     26  C   UNL A   1      35.790  30.720  27.952  1.00  0.00     0.060 A 
ATOM     27  C   UNL A   1      36.001  29.387  28.293  1.00  0.00     0.016 A 
ATOM     28  C   UNL A   1      36.805  31.657  28.110  1.00  0.00     0.016 A 
ATOM     29  C   UNL A   1      37.208  28.980  28.845  1.00  0.00     0.010 A 
ATOM     30  C   UNL A   1      38.040  31.243  28.630  1.00  0.00     0.010 A 
ATOM     31  C   UNL A   1      38.237  29.908  29.032  1.00  0.00    -0.014 A 
BRANCH  31  32
ATOM     32  C   UNL A   1      39.462  29.479  29.751  1.00  0.00     0.031 A 
ATOM     33  C   UNL A   1      39.818  30.126  31.061  1.00  0.00     0.074 A 
ATOM     34  C   UNL A   1      40.196  28.449  29.289  1.00  0.00     0.049 A 
ATOM     35  N   UNL A   1      40.854  29.918  31.833  1.00  0.00    -0.248 NA
ATOM     36  C   UNL A   1      38.880  31.136  31.575  1.00  0.00     0.031 C 
ATOM     37  C   UNL A   1      39.910  27.684  28.074  1.00  0.00     0.029 A 
ATOM     38  N   UNL A   1      41.323  27.856  29.800  1.00  0.00    -0.354 N 
ATOM     39  C   UNL A   1      40.704  30.782  32.910  1.00  0.00     0.074 A 
ATOM     40  C   UNL A   1      39.481  31.526  32.689  1.00  0.00     0.031 C 
ATOM     41  C   UNL A   1      40.828  26.711  27.944  1.00  0.00     0.029 A 
ATOM     42  C   UNL A   1      41.791  26.813  29.037  1.00  0.00     0.049 A 
ATOM     43  H   UNL A   1      41.755  28.150  30.634  1.00  0.00     0.167 HD
ATOM     44  C   UNL A   1      41.511  30.943  33.987  1.00  0.00     0.037 A 
ATOM     45  C   UNL A   1      42.884  26.039  29.193  1.00  0.00     0.037 A 
ATOM     46  C   UNL A   1      42.718  30.194  34.217  1.00  0.00     0.049 A 
ATOM     47  C   UNL A   1      43.792  26.272  30.370  1.00  0.00     0.074 A 
ATOM     48  C   UNL A   1      43.623  30.313  35.257  1.00  0.00     0.029 A 
ATOM     49  N   UNL A   1      43.185  29.178  33.398  1.00  0.00    -0.354 N 
ATOM     50  N   UNL A   1      43.670  27.137  31.348  1.00  0.00    -0.248 NA
ATOM     51  C   UNL A   1      44.992  25.429  30.458  1.00  0.00     0.031 C 
ATOM     52  C   UNL A   1      44.651  29.385  35.054  1.00  0.00     0.029 A 
ATOM     53  C   UNL A   1      44.368  28.666  33.905  1.00  0.00     0.049 A 
ATOM     54  H   UNL A   1      42.741  28.865  32.576  1.00  0.00     0.167 HD
ATOM     55  C   UNL A   1      44.770  26.934  32.175  1.00  0.00     0.074 A 
ATOM     56  C   UNL A   1      45.536  25.851  31.592  1.00  0.00     0.031 C 
ATOM     57  C   UNL A   1      45.118  27.588  33.311  1.00  0.00     0.037 A 
BRANCH  44  58
ATOM     58  C   UNL A   1      41.128  32.007  34.974  1.00  0.00     0.058 A 
ATOM     59  C   UNL A   1      40.208  31.764  36.006  1.00  0.00     0.135 A 
ATOM     60  C   UNL A   1      41.692  33.290  34.886  1.00  0.00     0.135 A 
ATOM     61  F   UNL A   1      39.624  30.561  36.120  1.00  0.00    -0.206 F 
ATOM     62  C   UNL A   1      39.839  32.764  36.900  1.00  0.00     0.059 A 
ATOM     63  C   UNL A   1      41.353  34.300  35.779  1.00  0.00     0.059 A 
ATOM     64  F   UNL A   1      42.573  33.573  33.913  1.00  0.00    -0.206 F 
ATOM     65  C   UNL A   1      40.412  34.032  36.774  1.00  0.00     0.060 A 
BRANCH  65  66
ATOM     66  S   UNL A   1      39.915  35.330  37.926  1.00  0.00     0.124 S 
ATOM     67  O   UNL A   1      38.723  34.743  38.528  1.00  0.00    -0.237 OA
ATOM     68  O   UNL A   1      41.079  35.439  38.800  1.00  0.00    -0.237 OA
ATOM     69  O   UNL A   1      39.679  36.481  37.058  1.00  0.00    -0.744 OA
ENDBRANCH  65  66
ENDBRANCH  44  58
BRANCH  45  70
ATOM     70  C   UNL A   1      43.199  24.988  28.190  1.00  0.00     0.058 A 
ATOM     71  C   UNL A   1      43.805  25.310  26.967  1.00  0.00     0.135 A 
ATOM     72  C   UNL A   1      42.890  23.641  28.434  1.00  0.00     0.135 A 
ATOM     73  F   UNL A   1      44.108  26.585  26.685  1.00  0.00    -0.206 F 
ATOM     74  C   UNL A   1      44.081  24.334  26.014  1.00  0.00     0.059 A 
ATOM     75  C   UNL A   1      43.177  22.646  27.507  1.00  0.00     0.059 A 
ATOM     76  F   UNL A   1      42.316  23.282  29.593  1.00  0.00    -0.206 F 
ATOM     77  C   UNL A   1      43.762  23.004  26.293  1.00  0.00     0.060 A 
BRANCH  77  78
ATOM     78  S   UNL A   1      44.159  21.734  25.073  1.00  0.00     0.124 S 
ATOM     79  O   UNL A   1      43.124  20.741  25.336  1.00  0.00    -0.237 OA
ATOM     80  O   UNL A   1      44.039  22.463  23.813  1.00  0.00    -0.237 OA
ATOM     81  O   UNL A   1      45.519  21.342  25.431  1.00  0.00    -0.744 OA
ENDBRANCH  77  78
ENDBRANCH  45  70
BRANCH  57  82
ATOM     82  C   UNL A   1      46.370  27.130  34.005  1.00  0.00     0.058 A 
ATOM     83  C   UNL A   1      47.621  27.696  33.711  1.00  0.00     0.135 A 
ATOM     84  C   UNL A   1      46.316  26.126  34.984  1.00  0.00     0.135 A 
ATOM     85  F   UNL A   1      47.725  28.656  32.778  1.00  0.00    -0.206 F 
ATOM     86  C   UNL A   1      48.781  27.257  34.340  1.00  0.00     0.059 A 
ATOM     87  C   UNL A   1      47.462  25.687  35.640  1.00  0.00     0.059 A 
ATOM     88  F   UNL A   1      45.143  25.561  35.311  1.00  0.00    -0.206 F 
ATOM     89  C   UNL A   1      48.693  26.247  35.298  1.00  0.00     0.060 A 
BRANCH  89  90
ATOM     90  S   UNL A   1      50.202  25.683  36.115  1.00  0.00     0.124 S 
ATOM     91  O   UNL A   1      51.057  26.858  35.993  1.00  0.00    -0.237 OA
ATOM     92  O   UNL A   1      49.737  25.374  37.464  1.00  0.00    -0.237 OA
ATOM     93  O   UNL A   1      50.603  24.526  35.319  1.00  0.00    -0.744 OA
ENDBRANCH  89  90
ENDBRANCH  57  82
ENDBRANCH  31  32
ENDBRANCH  24  26
ENDBRANCH  23  24
ENDBRANCH  22  23
ENDBRANCH   1  22
TORSDOF 19
ENDMDL
MODEL 3
REMARK VINA RESULT:     -10.0      3.344      4.652
REMARK SMILES CCC[NH2+][C@]1(C(=O)OCCOC(=O)c2ccc(-c3c4nc(c(-c5c(F)cc(S(=O)(=O)[O-])cc5F)c5ccc([nH]5)c(-c5c(F)cc(S(=O)(=O)[O-])cc5F)c5nc(c(-c6c(F)cc(S(=O)(=O)[O-])cc6F)c6ccc3[nH]6)C=C5)C=C4)cc2)CCC[C@H](OC(C)(C)C)C1
REMARK SMILES IDX 9 1 8 2 6 3 7 4 5 5 80 6 89 7 81 8 83 9 82 10 4 11 3 14 2 15
REMARK SMILES IDX 1 16 84 17 85 18 86 19 87 20 88 21 10 22 11 23 12 24 13 25
REMARK SMILES IDX 14 26 15 27 79 28 16 29 78 30 17 31 18 32 19 33 72 34 20 35
REMARK SMILES IDX 77 36 71 37 73 38 21 39 76 40 70 41 69 42 22 44 56 45 35 46
REMARK SMILES IDX 55 47 36 48 39 49 54 50 74 51 37 52 38 53 53 55 75 56 40 57
REMARK SMILES IDX 23 58 24 59 33 60 25 61 26 62 32 63 34 64 27 65 28 66 29 67
REMARK SMILES IDX 30 68 31 69 57 70 58 71 67 72 59 73 60 74 66 75 68 76 61 77
REMARK SMILES IDX 62 78 63 79 64 80 65 81 41 82 42 83 51 84 43 85 44 86 50 87
REMARK SMILES IDX 52 88 45 89 46 90 47 91 48 92 49 93
REMARK H PARENT 4 12 4 13 73 43 39 54
REMARK Flexibility Score: inf
ROOT
ATOM      1  C   UNL A   1      34.823  23.244  25.941  1.00  0.00     0.274 C 
ENDROOT
BRANCH   1   2
ATOM      2  O   UNL A   1      34.608  24.660  25.752  1.00  0.00    -0.457 OA
BRANCH   2   3
ATOM      3  C   UNL A   1      33.300  25.025  25.602  1.00  0.00     0.368 C 
ATOM      4  O   UNL A   1      32.398  24.625  26.334  1.00  0.00    -0.245 OA
BRANCH   3   5
ATOM      5  C   UNL A   1      33.043  25.855  24.298  1.00  0.00     0.196 C 
ATOM      6  C   UNL A   1      33.677  25.284  23.011  1.00  0.00     0.081 C 
ATOM      7  C   UNL A   1      31.502  25.818  24.098  1.00  0.00     0.113 C 
ATOM      8  C   UNL A   1      33.221  26.018  21.746  1.00  0.00     0.010 C 
ATOM      9  C   UNL A   1      30.993  26.570  22.858  1.00  0.00     0.125 C 
ATOM     10  C   UNL A   1      31.700  26.031  21.606  1.00  0.00     0.032 C 
BRANCH   5  11
ATOM     11  N   UNL A   1      33.461  27.264  24.558  1.00  0.00    -0.332 N 
ATOM     12  H   UNL A   1      34.464  27.327  24.387  1.00  0.00     0.347 HD
ATOM     13  H   UNL A   1      32.888  27.834  23.934  1.00  0.00     0.347 HD
BRANCH  11  14
ATOM     14  C   UNL A   1      33.206  27.783  25.901  1.00  0.00     0.261 C 
BRANCH  14  15
ATOM     15  C   UNL A   1      33.910  29.125  26.139  1.00  0.00     0.058 C 
ATOM     16  C   UNL A   1      34.581  29.238  27.502  1.00  0.00     0.010 C 
ENDBRANCH  14  15
ENDBRANCH  11  14
ENDBRANCH   5  11
BRANCH   9  17
ATOM     17  O   UNL A   1      31.249  27.967  22.922  1.00  0.00    -0.372 OA
BRANCH  17  18
ATOM     18  C   UNL A   1      30.171  28.898  23.047  1.00  0.00     0.060 C 
ATOM     19  C   UNL A   1      30.126  29.802  21.812  1.00  0.00     0.042 C 
ATOM     20  C   UNL A   1      28.802  28.255  23.287  1.00  0.00     0.042 C 
ATOM     21  C   UNL A   1      30.524  29.745  24.279  1.00  0.00     0.042 C 
ENDBRANCH  17  18
ENDBRANCH   9  17
ENDBRANCH   3   5
ENDBRANCH   2   3
ENDBRANCH   1   2
BRANCH   1  22
ATOM     22  C   UNL A   1      36.213  22.811  25.487  1.00  0.00     0.275 C 
BRANCH  22  23
ATOM     23  O   UNL A   1      37.180  23.808  25.847  1.00  0.00    -0.458 OA
BRANCH  23  24
ATOM     24  C   UNL A   1      38.417  23.333  26.120  1.00  0.00     0.338 C 
ATOM     25  O   UNL A   1      38.915  22.289  25.739  1.00  0.00    -0.246 OA
BRANCH  24  26
ATOM     26  C   UNL A   1      39.175  24.361  26.843  1.00  0.00     0.060 A 
ATOM     27  C   UNL A   1      38.932  24.478  28.208  1.00  0.00     0.016 A 
ATOM     28  C   UNL A   1      39.984  25.285  26.190  1.00  0.00     0.016 A 
ATOM     29  C   UNL A   1      39.448  25.545  28.931  1.00  0.00     0.010 A 
ATOM     30  C   UNL A   1      40.540  26.343  26.923  1.00  0.00     0.010 A 
ATOM     31  C   UNL A   1      40.248  26.497  28.292  1.00  0.00    -0.014 A 
BRANCH  31  32
ATOM     32  C   UNL A   1      40.670  27.700  29.052  1.00  0.00     0.031 A 
ATOM     33  C   UNL A   1      42.075  27.788  29.581  1.00  0.00     0.074 A 
ATOM     34  C   UNL A   1      39.836  28.750  29.180  1.00  0.00     0.049 A 
ATOM     35  N   UNL A   1      42.635  28.734  30.289  1.00  0.00    -0.248 NA
ATOM     36  C   UNL A   1      42.971  26.665  29.263  1.00  0.00     0.031 C 
ATOM     37  C   UNL A   1      38.478  28.822  28.641  1.00  0.00     0.029 A 
ATOM     38  N   UNL A   1      40.020  29.966  29.789  1.00  0.00    -0.354 N 
ATOM     39  C   UNL A   1      43.939  28.314  30.520  1.00  0.00     0.074 A 
ATOM     40  C   UNL A   1      44.086  27.022  29.884  1.00  0.00     0.031 C 
ATOM     41  C   UNL A   1      37.957  30.028  28.928  1.00  0.00     0.029 A 
ATOM     42  C   UNL A   1      38.926  30.793  29.710  1.00  0.00     0.049 A 
ATOM     43  H   UNL A   1      40.858  30.222  30.239  1.00  0.00     0.167 HD
ATOM     44  C   UNL A   1      44.926  28.947  31.200  1.00  0.00     0.037 A 
ATOM     45  C   UNL A   1      38.721  32.022  30.225  1.00  0.00     0.037 A 
ATOM     46  C   UNL A   1      44.788  30.238  31.820  1.00  0.00     0.049 A 
ATOM     47  C   UNL A   1      39.815  32.681  31.020  1.00  0.00     0.074 A 
ATOM     48  C   UNL A   1      45.718  30.943  32.564  1.00  0.00     0.029 A 
ATOM     49  N   UNL A   1      43.648  31.025  31.758  1.00  0.00    -0.354 N 
ATOM     50  N   UNL A   1      41.023  32.243  31.283  1.00  0.00    -0.248 NA
ATOM     51  C   UNL A   1      39.514  33.999  31.595  1.00  0.00     0.031 C 
ATOM     52  C   UNL A   1      45.131  32.146  32.974  1.00  0.00     0.029 A 
ATOM     53  C   UNL A   1      43.848  32.205  32.456  1.00  0.00     0.049 A 
ATOM     54  H   UNL A   1      42.818  30.782  31.286  1.00  0.00     0.167 HD
ATOM     55  C   UNL A   1      41.630  33.236  32.045  1.00  0.00     0.074 A 
ATOM     56  C   UNL A   1      40.663  34.306  32.183  1.00  0.00     0.031 C 
ATOM     57  C   UNL A   1      42.874  33.259  32.584  1.00  0.00     0.037 A 
BRANCH  44  58
ATOM     58  C   UNL A   1      46.231  28.219  31.344  1.00  0.00     0.058 A 
ATOM     59  C   UNL A   1      47.277  28.383  30.422  1.00  0.00     0.135 A 
ATOM     60  C   UNL A   1      46.438  27.344  32.422  1.00  0.00     0.135 A 
ATOM     61  F   UNL A   1      47.121  29.191  29.361  1.00  0.00    -0.206 F 
ATOM     62  C   UNL A   1      48.472  27.684  30.549  1.00  0.00     0.059 A 
ATOM     63  C   UNL A   1      47.632  26.648  32.580  1.00  0.00     0.059 A 
ATOM     64  F   UNL A   1      45.466  27.149  33.328  1.00  0.00    -0.206 F 
ATOM     65  C   UNL A   1      48.638  26.812  31.628  1.00  0.00     0.060 A 
BRANCH  65  66
ATOM     66  S   UNL A   1      50.185  25.894  31.776  1.00  0.00     0.124 S 
ATOM     67  O   UNL A   1      51.137  26.969  32.038  1.00  0.00    -0.237 OA
ATOM     68  O   UNL A   1      49.916  24.999  32.897  1.00  0.00    -0.237 OA
ATOM     69  O   UNL A   1      50.316  25.241  30.476  1.00  0.00    -0.744 OA
ENDBRANCH  65  66
ENDBRANCH  44  58
BRANCH  45  70
ATOM     70  C   UNL A   1      37.412  32.700  30.031  1.00  0.00     0.058 A 
ATOM     71  C   UNL A   1      37.236  33.666  29.030  1.00  0.00     0.135 A 
ATOM     72  C   UNL A   1      36.315  32.400  30.854  1.00  0.00     0.135 A 
ATOM     73  F   UNL A   1      38.259  33.994  28.228  1.00  0.00    -0.206 F 
ATOM     74  C   UNL A   1      36.020  34.322  28.859  1.00  0.00     0.059 A 
ATOM     75  C   UNL A   1      35.085  33.025  30.687  1.00  0.00     0.059 A 
ATOM     76  F   UNL A   1      36.433  31.478  31.822  1.00  0.00    -0.206 F 
ATOM     77  C   UNL A   1      34.950  33.995  29.694  1.00  0.00     0.060 A 
BRANCH  77  78
ATOM     78  S   UNL A   1      33.362  34.817  29.445  1.00  0.00     0.124 S 
ATOM     79  O   UNL A   1      32.670  33.862  28.587  1.00  0.00    -0.237 OA
ATOM     80  O   UNL A   1      32.854  34.935  30.809  1.00  0.00    -0.237 OA
ATOM     81  O   UNL A   1      33.737  36.080  28.815  1.00  0.00    -0.744 OA
ENDBRANCH  77  78
ENDBRANCH  45  70
BRANCH  57  82
ATOM     82  C   UNL A   1      43.260  34.490  33.355  1.00  0.00     0.058 A 
ATOM     83  C   UNL A   1      42.988  34.615  34.726  1.00  0.00     0.135 A 
ATOM     84  C   UNL A   1      43.923  35.551  32.717  1.00  0.00     0.135 A 
ATOM     85  F   UNL A   1      42.351  33.630  35.380  1.00  0.00    -0.206 F 
ATOM     86  C   UNL A   1      43.328  35.763  35.432  1.00  0.00     0.059 A 
ATOM     87  C   UNL A   1      44.292  36.700  33.410  1.00  0.00     0.059 A 
ATOM     88  F   UNL A   1      44.218  35.477  31.410  1.00  0.00    -0.206 F 
ATOM     89  C   UNL A   1      43.974  36.804  34.764  1.00  0.00     0.060 A 
BRANCH  89  90
ATOM     90  S   UNL A   1      44.418  38.292  35.686  1.00  0.00     0.124 S 
ATOM     91  O   UNL A   1      45.875  38.246  35.631  1.00  0.00    -0.237 OA
ATOM     92  O   UNL A   1      43.787  39.352  34.903  1.00  0.00    -0.237 OA
ATOM     93  O   UNL A   1      43.828  38.061  37.001  1.00  0.00    -0.744 OA
ENDBRANCH  89  90
ENDBRANCH  57  82
ENDBRANCH  31  32
ENDBRANCH  24  26
ENDBRANCH  23  24
ENDBRANCH  22  23
ENDBRANCH   1  22
TORSDOF 19
ENDMDL
