MODEL 1
REMARK VINA RESULT:     -11.0      0.000      0.000
REMARK SMILES O=C(OCCOC(=O)c1cc(/C=C/c2cc(O)cc(O)c2)ccc1O)c1ccc(-c2c3nc(c(-c4c(F)cc(S(=O)(=O)[O-])cc4F)c4ccc([nH]4)c(-c4c(F)cc(S(=O)(=O)[O-])cc4F)c4nc(c(-c5c(F)cc(S(=O)(=O)[O-])cc5F)c5ccc2[nH]5)C=C4)C=C3)cc1
REMARK SMILES IDX 4 1 3 2 2 3 1 4 26 5 27 6 91 7 28 8 90 9 29 10 30 11 31 12
REMARK SMILES IDX 84 13 32 14 89 15 83 16 85 17 33 18 88 19 82 20 81 21 34 23
REMARK SMILES IDX 68 24 47 25 67 26 48 27 51 28 66 29 86 30 49 31 50 32 65 34
REMARK SMILES IDX 87 35 52 36 35 37 36 38 45 39 37 40 38 41 44 42 46 43 39 44
REMARK SMILES IDX 40 45 41 46 42 47 43 48 69 49 70 50 79 51 71 52 72 53 78 54
REMARK SMILES IDX 80 55 73 56 74 57 75 58 76 59 77 60 53 61 54 62 63 63 55 64
REMARK SMILES IDX 56 65 62 66 64 67 57 68 58 69 59 70 60 71 61 72 5 73 6 74
REMARK SMILES IDX 7 75 8 76 9 77 10 78 24 79 11 80 23 81 22 82 25 83 12 85
REMARK SMILES IDX 13 86 14 87 15 88 21 89 16 90 19 91 18 92 17 93 20 95
REMARK H PARENT 85 22 51 33 25 84 17 94 20 96
REMARK Flexibility Score: inf
ROOT
ATOM      1  C   UNL A   1      34.292  33.051  28.157  1.00  0.00     0.275 C 
ENDROOT
BRANCH   1   2
ATOM      2  O   UNL A   1      33.920  31.687  28.422  1.00  0.00    -0.458 OA
BRANCH   2   3
ATOM      3  C   UNL A   1      34.479  30.528  27.998  1.00  0.00     0.338 C 
ATOM      4  O   UNL A   1      33.773  29.737  27.371  1.00  0.00    -0.246 OA
BRANCH   3   5
ATOM      5  C   UNL A   1      35.869  30.085  28.341  1.00  0.00     0.060 A 
ATOM      6  C   UNL A   1      36.312  29.625  29.583  1.00  0.00     0.016 A 
ATOM      7  C   UNL A   1      36.813  30.164  27.300  1.00  0.00     0.016 A 
ATOM      8  C   UNL A   1      37.629  29.192  29.764  1.00  0.00     0.010 A 
ATOM      9  C   UNL A   1      38.126  29.717  27.469  1.00  0.00     0.010 A 
ATOM     10  C   UNL A   1      38.542  29.230  28.709  1.00  0.00    -0.014 A 
BRANCH  10  11
ATOM     11  C   UNL A   1      39.961  28.892  28.948  1.00  0.00     0.031 A 
ATOM     12  C   UNL A   1      40.877  29.967  29.455  1.00  0.00     0.074 A 
ATOM     13  C   UNL A   1      40.414  27.641  28.746  1.00  0.00     0.049 A 
ATOM     14  N   UNL A   1      42.140  29.889  29.773  1.00  0.00    -0.248 NA
ATOM     15  C   UNL A   1      40.281  31.300  29.654  1.00  0.00     0.031 C 
ATOM     16  C   UNL A   1      39.594  26.510  28.322  1.00  0.00     0.029 A 
ATOM     17  N   UNL A   1      41.675  27.112  28.853  1.00  0.00    -0.354 N 
ATOM     18  C   UNL A   1      42.480  31.147  30.253  1.00  0.00     0.074 A 
ATOM     19  C   UNL A   1      41.313  31.990  30.113  1.00  0.00     0.031 C 
ATOM     20  C   UNL A   1      40.380  25.436  28.137  1.00  0.00     0.029 A 
ATOM     21  C   UNL A   1      41.759  25.802  28.446  1.00  0.00     0.049 A 
ATOM     22  H   UNL A   1      42.446  27.623  29.190  1.00  0.00     0.167 HD
ATOM     23  C   UNL A   1      43.651  31.549  30.799  1.00  0.00     0.037 A 
ATOM     24  C   UNL A   1      42.830  24.994  28.334  1.00  0.00     0.037 A 
ATOM     25  C   UNL A   1      44.811  30.708  30.900  1.00  0.00     0.049 A 
ATOM     26  C   UNL A   1      44.161  25.502  28.818  1.00  0.00     0.074 A 
ATOM     27  C   UNL A   1      46.052  31.007  31.429  1.00  0.00     0.029 A 
ATOM     28  N   UNL A   1      44.873  29.400  30.438  1.00  0.00    -0.354 N 
ATOM     29  N   UNL A   1      44.453  26.676  29.329  1.00  0.00    -0.248 NA
ATOM     30  C   UNL A   1      45.298  24.574  28.748  1.00  0.00     0.031 C 
ATOM     31  C   UNL A   1      46.879  29.891  31.247  1.00  0.00     0.029 A 
ATOM     32  C   UNL A   1      46.140  28.885  30.644  1.00  0.00     0.049 A 
ATOM     33  H   UNL A   1      44.126  28.910  30.025  1.00  0.00     0.167 HD
ATOM     34  C   UNL A   1      45.794  26.612  29.689  1.00  0.00     0.074 A 
ATOM     35  C   UNL A   1      46.257  25.286  29.326  1.00  0.00     0.031 C 
ATOM     36  C   UNL A   1      46.567  27.555  30.280  1.00  0.00     0.037 A 
BRANCH  23  37
ATOM     37  C   UNL A   1      43.709  32.960  31.307  1.00  0.00     0.058 A 
ATOM     38  C   UNL A   1      43.814  34.049  30.425  1.00  0.00     0.135 A 
ATOM     39  C   UNL A   1      43.703  33.228  32.683  1.00  0.00     0.135 A 
ATOM     40  F   UNL A   1      43.848  33.845  29.098  1.00  0.00    -0.206 F 
ATOM     41  C   UNL A   1      43.954  35.351  30.892  1.00  0.00     0.059 A 
ATOM     42  C   UNL A   1      43.820  34.526  33.173  1.00  0.00     0.059 A 
ATOM     43  F   UNL A   1      43.613  32.223  33.567  1.00  0.00    -0.206 F 
ATOM     44  C   UNL A   1      43.967  35.578  32.269  1.00  0.00     0.060 A 
BRANCH  44  45
ATOM     45  S   UNL A   1      44.192  37.268  32.862  1.00  0.00     0.124 S 
ATOM     46  O   UNL A   1      42.991  37.454  33.670  1.00  0.00    -0.237 OA
ATOM     47  O   UNL A   1      45.446  37.174  33.604  1.00  0.00    -0.237 OA
ATOM     48  O   UNL A   1      44.251  38.054  31.634  1.00  0.00    -0.744 OA
ENDBRANCH  44  45
ENDBRANCH  23  37
BRANCH  24  49
ATOM     49  C   UNL A   1      42.682  23.630  27.758  1.00  0.00     0.058 A 
ATOM     50  C   UNL A   1      42.465  22.509  28.570  1.00  0.00     0.135 A 
ATOM     51  C   UNL A   1      42.751  23.427  26.370  1.00  0.00     0.135 A 
ATOM     52  F   UNL A   1      42.390  22.651  29.903  1.00  0.00    -0.206 F 
ATOM     53  C   UNL A   1      42.339  21.230  28.032  1.00  0.00     0.059 A 
ATOM     54  C   UNL A   1      42.611  22.161  25.806  1.00  0.00     0.059 A 
ATOM     55  F   UNL A   1      42.934  24.469  25.545  1.00  0.00    -0.206 F 
ATOM     56  C   UNL A   1      42.413  21.068  26.647  1.00  0.00     0.060 A 
BRANCH  56  57
ATOM     57  S   UNL A   1      42.204  19.411  25.957  1.00  0.00     0.124 S 
ATOM     58  O   UNL A   1      40.761  19.355  25.757  1.00  0.00    -0.237 OA
ATOM     59  O   UNL A   1      43.016  19.485  24.746  1.00  0.00    -0.237 OA
ATOM     60  O   UNL A   1      42.733  18.544  27.005  1.00  0.00    -0.744 OA
ENDBRANCH  56  57
ENDBRANCH  24  49
BRANCH  36  61
ATOM     61  C   UNL A   1      47.980  27.173  30.612  1.00  0.00     0.058 A 
ATOM     62  C   UNL A   1      49.032  27.390  29.710  1.00  0.00     0.135 A 
ATOM     63  C   UNL A   1      48.290  26.646  31.875  1.00  0.00     0.135 A 
ATOM     64  F   UNL A   1      48.783  27.883  28.487  1.00  0.00    -0.206 F 
ATOM     65  C   UNL A   1      50.345  27.083  30.045  1.00  0.00     0.059 A 
ATOM     66  C   UNL A   1      49.599  26.355  32.241  1.00  0.00     0.059 A 
ATOM     67  F   UNL A   1      47.318  26.429  32.776  1.00  0.00    -0.206 F 
ATOM     68  C   UNL A   1      50.620  26.570  31.315  1.00  0.00     0.060 A 
BRANCH  68  69
ATOM     69  S   UNL A   1      52.334  26.223  31.758  1.00  0.00     0.124 S 
ATOM     70  O   UNL A   1      52.304  24.775  31.935  1.00  0.00    -0.237 OA
ATOM     71  O   UNL A   1      53.063  26.704  30.589  1.00  0.00    -0.237 OA
ATOM     72  O   UNL A   1      52.533  27.002  32.976  1.00  0.00    -0.744 OA
ENDBRANCH  68  69
ENDBRANCH  36  61
ENDBRANCH  10  11
ENDBRANCH   3   5
ENDBRANCH   2   3
ENDBRANCH   1   2
BRANCH   1  73
ATOM     73  C   UNL A   1      33.118  34.001  27.926  1.00  0.00     0.275 C 
BRANCH  73  74
ATOM     74  O   UNL A   1      32.592  34.547  29.140  1.00  0.00    -0.458 OA
BRANCH  74  75
ATOM     75  C   UNL A   1      33.028  35.795  29.456  1.00  0.00     0.342 C 
ATOM     76  O   UNL A   1      32.826  36.820  28.824  1.00  0.00    -0.246 OA
BRANCH  75  77
ATOM     77  C   UNL A   1      33.640  35.783  30.795  1.00  0.00     0.102 A 
ATOM     78  C   UNL A   1      34.343  34.627  31.171  1.00  0.00     0.027 A 
ATOM     79  C   UNL A   1      33.550  36.865  31.671  1.00  0.00     0.130 A 
ATOM     80  C   UNL A   1      35.035  34.574  32.387  1.00  0.00    -0.025 A 
ATOM     81  C   UNL A   1      34.188  36.803  32.908  1.00  0.00     0.048 A 
ATOM     82  C   UNL A   1      34.941  35.676  33.251  1.00  0.00     0.012 A 
BRANCH  79  83
ATOM     83  O   UNL A   1      32.837  37.978  31.329  1.00  0.00    -0.507 OA
ATOM     84  H   UNL A   1      31.907  37.928  31.238  1.00  0.00     0.293 HD
ENDBRANCH  79  83
BRANCH  80  85
ATOM     85  C   UNL A   1      35.839  33.416  32.815  1.00  0.00     0.009 C 
ATOM     86  C   UNL A   1      37.073  33.105  32.383  1.00  0.00     0.009 C 
BRANCH  86  87
ATOM     87  C   UNL A   1      37.806  31.906  32.820  1.00  0.00    -0.018 A 
ATOM     88  C   UNL A   1      37.174  30.657  32.918  1.00  0.00     0.054 A 
ATOM     89  C   UNL A   1      39.185  31.991  33.063  1.00  0.00     0.054 A 
ATOM     90  C   UNL A   1      37.909  29.526  33.268  1.00  0.00     0.119 A 
ATOM     91  C   UNL A   1      39.902  30.845  33.412  1.00  0.00     0.119 A 
ATOM     92  C   UNL A   1      39.272  29.610  33.514  1.00  0.00     0.092 A 
BRANCH  90  93
ATOM     93  O   UNL A   1      37.314  28.302  33.369  1.00  0.00    -0.508 OA
ATOM     94  H   UNL A   1      36.749  27.998  32.685  1.00  0.00     0.293 HD
ENDBRANCH  90  93
BRANCH  91  95
ATOM     95  O   UNL A   1      41.244  30.894  33.656  1.00  0.00    -0.508 OA
ATOM     96  H   UNL A   1      41.850  30.616  32.997  1.00  0.00     0.293 HD
ENDBRANCH  91  95
ENDBRANCH  86  87
ENDBRANCH  80  85
ENDBRANCH  75  77
ENDBRANCH  74  75
ENDBRANCH  73  74
ENDBRANCH   1  73
TORSDOF 19
ENDMDL
MODEL 2
REMARK VINA RESULT:     -10.8      2.906     11.214
REMARK SMILES O=C(OCCOC(=O)c1cc(/C=C/c2cc(O)cc(O)c2)ccc1O)c1ccc(-c2c3nc(c(-c4c(F)cc(S(=O)(=O)[O-])cc4F)c4ccc([nH]4)c(-c4c(F)cc(S(=O)(=O)[O-])cc4F)c4nc(c(-c5c(F)cc(S(=O)(=O)[O-])cc5F)c5ccc2[nH]5)C=C4)C=C3)cc1
REMARK SMILES IDX 4 1 3 2 2 3 1 4 26 5 27 6 91 7 28 8 90 9 29 10 30 11 31 12
REMARK SMILES IDX 84 13 32 14 89 15 83 16 85 17 33 18 88 19 82 20 81 21 34 23
REMARK SMILES IDX 68 24 47 25 67 26 48 27 51 28 66 29 86 30 49 31 50 32 65 34
REMARK SMILES IDX 87 35 52 36 35 37 36 38 45 39 37 40 38 41 44 42 46 43 39 44
REMARK SMILES IDX 40 45 41 46 42 47 43 48 69 49 70 50 79 51 71 52 72 53 78 54
REMARK SMILES IDX 80 55 73 56 74 57 75 58 76 59 77 60 53 61 54 62 63 63 55 64
REMARK SMILES IDX 56 65 62 66 64 67 57 68 58 69 59 70 60 71 61 72 5 73 6 74
REMARK SMILES IDX 7 75 8 76 9 77 10 78 24 79 11 80 23 81 22 82 25 83 12 85
REMARK SMILES IDX 13 86 14 87 15 88 21 89 16 90 19 91 18 92 17 93 20 95
REMARK H PARENT 85 22 51 33 25 84 17 94 20 96
REMARK Flexibility Score: inf
ROOT
ATOM      1  C   UNL A   1      40.959  21.452  26.760  1.00  0.00     0.275 C 
ENDROOT
BRANCH   1   2
ATOM      2  O   UNL A   1      39.783  21.839  26.029  1.00  0.00    -0.458 OA
BRANCH   2   3
ATOM      3  C   UNL A   1      39.039  22.968  26.099  1.00  0.00     0.338 C 
ATOM      4  O   UNL A   1      37.972  23.002  25.485  1.00  0.00    -0.246 OA
BRANCH   3   5
ATOM      5  C   UNL A   1      39.480  24.229  26.778  1.00  0.00     0.060 A 
ATOM      6  C   UNL A   1      40.329  25.205  26.251  1.00  0.00     0.016 A 
ATOM      7  C   UNL A   1      38.996  24.424  28.085  1.00  0.00     0.016 A 
ATOM      8  C   UNL A   1      40.627  26.367  26.969  1.00  0.00     0.010 A 
ATOM      9  C   UNL A   1      39.275  25.591  28.802  1.00  0.00     0.010 A 
ATOM     10  C   UNL A   1      40.100  26.570  28.245  1.00  0.00    -0.014 A 
BRANCH  10  11
ATOM     11  C   UNL A   1      40.526  27.739  29.043  1.00  0.00     0.031 A 
ATOM     12  C   UNL A   1      41.845  27.677  29.753  1.00  0.00     0.074 A 
ATOM     13  C   UNL A   1      39.763  28.846  29.104  1.00  0.00     0.049 A 
ATOM     14  N   UNL A   1      42.437  28.592  30.471  1.00  0.00    -0.248 NA
ATOM     15  C   UNL A   1      42.611  26.425  29.614  1.00  0.00     0.031 C 
ATOM     16  C   UNL A   1      38.500  29.034  28.396  1.00  0.00     0.029 A 
ATOM     17  N   UNL A   1      39.926  30.013  29.804  1.00  0.00    -0.354 N 
ATOM     18  C   UNL A   1      43.663  28.047  30.830  1.00  0.00     0.074 A 
ATOM     19  C   UNL A   1      43.698  26.695  30.318  1.00  0.00     0.031 C 
ATOM     20  C   UNL A   1      37.964  30.215  28.749  1.00  0.00     0.029 A 
ATOM     21  C   UNL A   1      38.859  30.873  29.697  1.00  0.00     0.049 A 
ATOM     22  H   UNL A   1      40.732  30.217  30.332  1.00  0.00     0.167 HD
ATOM     23  C   UNL A   1      44.682  28.638  31.495  1.00  0.00     0.037 A 
ATOM     24  C   UNL A   1      38.632  32.056  30.300  1.00  0.00     0.037 A 
ATOM     25  C   UNL A   1      44.618  29.972  32.026  1.00  0.00     0.049 A 
ATOM     26  C   UNL A   1      39.723  32.643  31.152  1.00  0.00     0.074 A 
ATOM     27  C   UNL A   1      45.585  30.674  32.720  1.00  0.00     0.029 A 
ATOM     28  N   UNL A   1      43.505  30.798  31.936  1.00  0.00    -0.354 N 
ATOM     29  N   UNL A   1      40.904  32.142  31.432  1.00  0.00    -0.248 NA
ATOM     30  C   UNL A   1      39.475  33.966  31.740  1.00  0.00     0.031 C 
ATOM     31  C   UNL A   1      45.041  31.910  33.088  1.00  0.00     0.029 A 
ATOM     32  C   UNL A   1      43.751  31.994  32.585  1.00  0.00     0.049 A 
ATOM     33  H   UNL A   1      42.665  30.567  31.477  1.00  0.00     0.167 HD
ATOM     34  C   UNL A   1      41.559  33.107  32.186  1.00  0.00     0.074 A 
ATOM     35  C   UNL A   1      40.638  34.218  32.328  1.00  0.00     0.031 C 
ATOM     36  C   UNL A   1      42.814  33.086  32.700  1.00  0.00     0.037 A 
BRANCH  23  37
ATOM     37  C   UNL A   1      45.930  27.825  31.678  1.00  0.00     0.058 A 
ATOM     38  C   UNL A   1      46.092  26.976  32.786  1.00  0.00     0.135 A 
ATOM     39  C   UNL A   1      46.991  27.923  30.766  1.00  0.00     0.135 A 
ATOM     40  F   UNL A   1      45.115  26.865  33.701  1.00  0.00    -0.206 F 
ATOM     41  C   UNL A   1      47.278  26.285  33.006  1.00  0.00     0.059 A 
ATOM     42  C   UNL A   1      48.180  27.223  30.955  1.00  0.00     0.059 A 
ATOM     43  F   UNL A   1      46.891  28.726  29.696  1.00  0.00    -0.206 F 
ATOM     44  C   UNL A   1      48.321  26.425  32.090  1.00  0.00     0.060 A 
BRANCH  44  45
ATOM     45  S   UNL A   1      49.872  25.557  32.410  1.00  0.00     0.124 S 
ATOM     46  O   UNL A   1      50.339  25.290  31.053  1.00  0.00    -0.237 OA
ATOM     47  O   UNL A   1      50.636  26.549  33.159  1.00  0.00    -0.237 OA
ATOM     48  O   UNL A   1      49.454  24.385  33.172  1.00  0.00    -0.744 OA
ENDBRANCH  44  45
ENDBRANCH  23  37
BRANCH  24  49
ATOM     49  C   UNL A   1      37.335  32.758  30.106  1.00  0.00     0.058 A 
ATOM     50  C   UNL A   1      36.215  32.466  30.896  1.00  0.00     0.135 A 
ATOM     51  C   UNL A   1      37.196  33.749  29.120  1.00  0.00     0.135 A 
ATOM     52  F   UNL A   1      36.296  31.528  31.853  1.00  0.00    -0.206 F 
ATOM     53  C   UNL A   1      34.997  33.114  30.707  1.00  0.00     0.059 A 
ATOM     54  C   UNL A   1      35.995  34.424  28.921  1.00  0.00     0.059 A 
ATOM     55  F   UNL A   1      38.244  34.084  28.351  1.00  0.00    -0.206 F 
ATOM     56  C   UNL A   1      34.898  34.093  29.715  1.00  0.00     0.060 A 
BRANCH  56  57
ATOM     57  S   UNL A   1      33.326  34.959  29.507  1.00  0.00     0.124 S 
ATOM     58  O   UNL A   1      32.587  34.029  28.661  1.00  0.00    -0.237 OA
ATOM     59  O   UNL A   1      32.863  35.079  30.886  1.00  0.00    -0.237 OA
ATOM     60  O   UNL A   1      33.718  36.216  28.875  1.00  0.00    -0.744 OA
ENDBRANCH  56  57
ENDBRANCH  24  49
BRANCH  36  61
ATOM     61  C   UNL A   1      43.279  34.316  33.424  1.00  0.00     0.058 A 
ATOM     62  C   UNL A   1      43.916  35.368  32.752  1.00  0.00     0.135 A 
ATOM     63  C   UNL A   1      43.019  34.467  34.795  1.00  0.00     0.135 A 
ATOM     64  F   UNL A   1      44.194  35.265  31.443  1.00  0.00    -0.206 F 
ATOM     65  C   UNL A   1      44.295  36.527  33.419  1.00  0.00     0.059 A 
ATOM     66  C   UNL A   1      43.366  35.627  35.478  1.00  0.00     0.059 A 
ATOM     67  F   UNL A   1      42.403  33.490  35.479  1.00  0.00    -0.206 F 
ATOM     68  C   UNL A   1      44.012  36.649  34.782  1.00  0.00     0.060 A 
BRANCH  68  69
ATOM     69  S   UNL A   1      44.462  38.178  35.627  1.00  0.00     0.124 S 
ATOM     70  O   UNL A   1      45.914  38.174  35.486  1.00  0.00    -0.237 OA
ATOM     71  O   UNL A   1      43.751  39.188  34.849  1.00  0.00    -0.237 OA
ATOM     72  O   UNL A   1      43.961  37.974  36.983  1.00  0.00    -0.744 OA
ENDBRANCH  68  69
ENDBRANCH  36  61
ENDBRANCH  10  11
ENDBRANCH   3   5
ENDBRANCH   2   3
ENDBRANCH   1   2
BRANCH   1  73
ATOM     73  C   UNL A   1      42.247  21.428  25.937  1.00  0.00     0.275 C 
BRANCH  73  74
ATOM     74  O   UNL A   1      42.457  22.632  25.191  1.00  0.00    -0.458 OA
BRANCH  74  75
ATOM     75  C   UNL A   1      43.695  22.773  24.649  1.00  0.00     0.342 C 
ATOM     76  O   UNL A   1      44.049  22.418  23.535  1.00  0.00    -0.246 OA
BRANCH  75  77
ATOM     77  C   UNL A   1      44.533  23.600  25.534  1.00  0.00     0.102 A 
ATOM     78  C   UNL A   1      44.223  24.968  25.619  1.00  0.00     0.027 A 
ATOM     79  C   UNL A   1      45.589  23.074  26.277  1.00  0.00     0.130 A 
ATOM     80  C   UNL A   1      44.908  25.802  26.510  1.00  0.00    -0.025 A 
ATOM     81  C   UNL A   1      46.315  23.905  27.126  1.00  0.00     0.048 A 
ATOM     82  C   UNL A   1      45.961  25.252  27.256  1.00  0.00     0.012 A 
BRANCH  79  83
ATOM     83  O   UNL A   1      45.921  21.753  26.172  1.00  0.00    -0.507 OA
ATOM     84  H   UNL A   1      45.294  21.094  26.394  1.00  0.00     0.293 HD
ENDBRANCH  79  83
BRANCH  80  85
ATOM     85  C   UNL A   1      44.594  27.230  26.690  1.00  0.00     0.009 C 
ATOM     86  C   UNL A   1      45.484  28.218  26.889  1.00  0.00     0.009 C 
BRANCH  86  87
ATOM     87  C   UNL A   1      45.099  29.623  27.106  1.00  0.00    -0.018 A 
ATOM     88  C   UNL A   1      45.617  30.654  26.307  1.00  0.00     0.054 A 
ATOM     89  C   UNL A   1      44.132  29.932  28.073  1.00  0.00     0.054 A 
ATOM     90  C   UNL A   1      45.182  31.966  26.490  1.00  0.00     0.119 A 
ATOM     91  C   UNL A   1      43.711  31.252  28.240  1.00  0.00     0.119 A 
ATOM     92  C   UNL A   1      44.229  32.273  27.451  1.00  0.00     0.092 A 
BRANCH  90  93
ATOM     93  O   UNL A   1      45.672  32.984  25.724  1.00  0.00    -0.508 OA
ATOM     94  H   UNL A   1      46.590  33.172  25.726  1.00  0.00     0.293 HD
ENDBRANCH  90  93
BRANCH  91  95
ATOM     95  O   UNL A   1      42.773  31.586  29.172  1.00  0.00    -0.508 OA
ATOM     96  H   UNL A   1      42.756  31.146  29.999  1.00  0.00     0.293 HD
ENDBRANCH  91  95
ENDBRANCH  86  87
ENDBRANCH  80  85
ENDBRANCH  75  77
ENDBRANCH  74  75
ENDBRANCH  73  74
ENDBRANCH   1  73
TORSDOF 19
ENDMDL
MODEL 3
REMARK VINA RESULT:     -10.7      4.939     11.987
REMARK SMILES O=C(OCCOC(=O)c1cc(/C=C/c2cc(O)cc(O)c2)ccc1O)c1ccc(-c2c3nc(c(-c4c(F)cc(S(=O)(=O)[O-])cc4F)c4ccc([nH]4)c(-c4c(F)cc(S(=O)(=O)[O-])cc4F)c4nc(c(-c5c(F)cc(S(=O)(=O)[O-])cc5F)c5ccc2[nH]5)C=C4)C=C3)cc1
REMARK SMILES IDX 4 1 3 2 2 3 1 4 26 5 27 6 91 7 28 8 90 9 29 10 30 11 31 12
REMARK SMILES IDX 84 13 32 14 89 15 83 16 85 17 33 18 88 19 82 20 81 21 34 23
REMARK SMILES IDX 68 24 47 25 67 26 48 27 51 28 66 29 86 30 49 31 50 32 65 34
REMARK SMILES IDX 87 35 52 36 35 37 36 38 45 39 37 40 38 41 44 42 46 43 39 44
REMARK SMILES IDX 40 45 41 46 42 47 43 48 69 49 70 50 79 51 71 52 72 53 78 54
REMARK SMILES IDX 80 55 73 56 74 57 75 58 76 59 77 60 53 61 54 62 63 63 55 64
REMARK SMILES IDX 56 65 62 66 64 67 57 68 58 69 59 70 60 71 61 72 5 73 6 74
REMARK SMILES IDX 7 75 8 76 9 77 10 78 24 79 11 80 23 81 22 82 25 83 12 85
REMARK SMILES IDX 13 86 14 87 15 88 21 89 16 90 19 91 18 92 17 93 20 95
REMARK H PARENT 85 22 51 33 25 84 17 94 20 96
REMARK Flexibility Score: inf
ROOT
ATOM      1  C   UNL A   1      40.279  22.696  26.785  1.00  0.00     0.275 C 
ENDROOT
BRANCH   1   2
ATOM      2  O   UNL A   1      40.241  24.010  26.203  1.00  0.00    -0.458 OA
BRANCH   2   3
ATOM      3  C   UNL A   1      40.977  25.113  26.478  1.00  0.00     0.338 C 
ATOM      4  O   UNL A   1      41.961  25.347  25.774  1.00  0.00    -0.246 OA
BRANCH   3   5
ATOM      5  C   UNL A   1      40.749  26.008  27.658  1.00  0.00     0.060 A 
ATOM      6  C   UNL A   1      39.689  25.936  28.564  1.00  0.00     0.016 A 
ATOM      7  C   UNL A   1      41.697  27.031  27.844  1.00  0.00     0.016 A 
ATOM      8  C   UNL A   1      39.615  26.803  29.658  1.00  0.00     0.010 A 
ATOM      9  C   UNL A   1      41.639  27.891  28.945  1.00  0.00     0.010 A 
ATOM     10  C   UNL A   1      40.589  27.782  29.858  1.00  0.00    -0.014 A 
BRANCH  10  11
ATOM     11  C   UNL A   1      40.428  28.774  30.943  1.00  0.00     0.031 A 
ATOM     12  C   UNL A   1      41.236  28.603  32.194  1.00  0.00     0.074 A 
ATOM     13  C   UNL A   1      39.600  29.825  30.797  1.00  0.00     0.049 A 
ATOM     14  N   UNL A   1      41.289  29.367  33.251  1.00  0.00    -0.248 NA
ATOM     15  C   UNL A   1      42.121  27.426  32.251  1.00  0.00     0.031 C 
ATOM     16  C   UNL A   1      38.823  30.121  29.596  1.00  0.00     0.029 A 
ATOM     17  N   UNL A   1      39.258  30.828  31.666  1.00  0.00    -0.354 N 
ATOM     18  C   UNL A   1      42.245  28.792  34.078  1.00  0.00     0.074 A 
ATOM     19  C   UNL A   1      42.691  27.574  33.437  1.00  0.00     0.031 C 
ATOM     20  C   UNL A   1      38.043  31.190  29.824  1.00  0.00     0.029 A 
ATOM     21  C   UNL A   1      38.278  31.664  31.185  1.00  0.00     0.049 A 
ATOM     22  H   UNL A   1      39.676  30.940  32.550  1.00  0.00     0.167 HD
ATOM     23  C   UNL A   1      42.734  29.261  35.248  1.00  0.00     0.037 A 
ATOM     24  C   UNL A   1      37.644  32.692  31.780  1.00  0.00     0.037 A 
ATOM     25  C   UNL A   1      42.256  30.455  35.888  1.00  0.00     0.049 A 
ATOM     26  C   UNL A   1      38.104  33.121  33.146  1.00  0.00     0.074 A 
ATOM     27  C   UNL A   1      42.672  31.026  37.076  1.00  0.00     0.029 A 
ATOM     28  N   UNL A   1      41.233  31.253  35.393  1.00  0.00    -0.354 N 
ATOM     29  N   UNL A   1      39.055  32.604  33.889  1.00  0.00    -0.248 NA
ATOM     30  C   UNL A   1      37.441  34.289  33.740  1.00  0.00     0.031 C 
ATOM     31  C   UNL A   1      41.869  32.146  37.322  1.00  0.00     0.029 A 
ATOM     32  C   UNL A   1      40.983  32.298  36.265  1.00  0.00     0.049 A 
ATOM     33  H   UNL A   1      40.755  31.099  34.546  1.00  0.00     0.167 HD
ATOM     34  C   UNL A   1      39.139  33.411  35.017  1.00  0.00     0.074 A 
ATOM     35  C   UNL A   1      38.134  34.445  34.862  1.00  0.00     0.031 C 
ATOM     36  C   UNL A   1      39.981  33.318  36.076  1.00  0.00     0.037 A 
BRANCH  23  37
ATOM     37  C   UNL A   1      43.828  28.460  35.892  1.00  0.00     0.058 A 
ATOM     38  C   UNL A   1      43.537  27.394  36.760  1.00  0.00     0.135 A 
ATOM     39  C   UNL A   1      45.175  28.783  35.677  1.00  0.00     0.135 A 
ATOM     40  F   UNL A   1      42.262  27.060  37.019  1.00  0.00    -0.206 F 
ATOM     41  C   UNL A   1      44.544  26.703  37.426  1.00  0.00     0.059 A 
ATOM     42  C   UNL A   1      46.201  28.090  36.315  1.00  0.00     0.059 A 
ATOM     43  F   UNL A   1      45.506  29.797  34.864  1.00  0.00    -0.206 F 
ATOM     44  C   UNL A   1      45.873  27.067  37.205  1.00  0.00     0.060 A 
BRANCH  44  45
ATOM     45  S   UNL A   1      47.168  26.191  38.108  1.00  0.00     0.124 S 
ATOM     46  O   UNL A   1      47.628  25.238  37.102  1.00  0.00    -0.237 OA
ATOM     47  O   UNL A   1      48.100  27.264  38.436  1.00  0.00    -0.237 OA
ATOM     48  O   UNL A   1      46.458  25.612  39.243  1.00  0.00    -0.744 OA
ENDBRANCH  44  45
ENDBRANCH  23  37
BRANCH  24  49
ATOM     49  C   UNL A   1      36.526  33.385  31.084  1.00  0.00     0.058 A 
ATOM     50  C   UNL A   1      36.750  34.207  29.971  1.00  0.00     0.135 A 
ATOM     51  C   UNL A   1      35.201  33.230  31.523  1.00  0.00     0.135 A 
ATOM     52  F   UNL A   1      37.998  34.387  29.511  1.00  0.00    -0.206 F 
ATOM     53  C   UNL A   1      35.705  34.866  29.327  1.00  0.00     0.059 A 
ATOM     54  C   UNL A   1      34.137  33.864  30.887  1.00  0.00     0.059 A 
ATOM     55  F   UNL A   1      34.928  32.436  32.570  1.00  0.00    -0.206 F 
ATOM     56  C   UNL A   1      34.401  34.687  29.794  1.00  0.00     0.060 A 
BRANCH  56  57
ATOM     57  S   UNL A   1      33.049  35.511  28.924  1.00  0.00     0.124 S 
ATOM     58  O   UNL A   1      33.760  36.559  28.201  1.00  0.00    -0.237 OA
ATOM     59  O   UNL A   1      32.507  34.426  28.112  1.00  0.00    -0.237 OA
ATOM     60  O   UNL A   1      32.183  35.965  30.008  1.00  0.00    -0.744 OA
ENDBRANCH  56  57
ENDBRANCH  24  49
BRANCH  36  61
ATOM     61  C   UNL A   1      39.881  34.386  37.126  1.00  0.00     0.058 A 
ATOM     62  C   UNL A   1      40.528  35.621  36.983  1.00  0.00     0.135 A 
ATOM     63  C   UNL A   1      39.072  34.189  38.256  1.00  0.00     0.135 A 
ATOM     64  F   UNL A   1      41.320  35.851  35.924  1.00  0.00    -0.206 F 
ATOM     65  C   UNL A   1      40.387  36.625  37.934  1.00  0.00     0.059 A 
ATOM     66  C   UNL A   1      38.896  35.188  39.207  1.00  0.00     0.059 A 
ATOM     67  F   UNL A   1      38.425  33.026  38.432  1.00  0.00    -0.206 F 
ATOM     68  C   UNL A   1      39.565  36.400  39.041  1.00  0.00     0.060 A 
BRANCH  68  69
ATOM     69  S   UNL A   1      39.349  37.728  40.244  1.00  0.00     0.124 S 
ATOM     70  O   UNL A   1      38.255  38.487  39.648  1.00  0.00    -0.237 OA
ATOM     71  O   UNL A   1      39.022  36.996  41.464  1.00  0.00    -0.237 OA
ATOM     72  O   UNL A   1      40.648  38.393  40.250  1.00  0.00    -0.744 OA
ENDBRANCH  68  69
ENDBRANCH  36  61
ENDBRANCH  10  11
ENDBRANCH   3   5
ENDBRANCH   2   3
ENDBRANCH   1   2
BRANCH   1  73
ATOM     73  C   UNL A   1      39.316  21.689  26.157  1.00  0.00     0.275 C 
BRANCH  73  74
ATOM     74  O   UNL A   1      38.051  22.262  25.813  1.00  0.00    -0.458 OA
BRANCH  74  75
ATOM     75  C   UNL A   1      37.185  21.427  25.181  1.00  0.00     0.342 C 
ATOM     76  O   UNL A   1      37.438  20.324  24.722  1.00  0.00    -0.246 OA
BRANCH  75  77
ATOM     77  C   UNL A   1      35.815  21.959  25.287  1.00  0.00     0.102 A 
ATOM     78  C   UNL A   1      35.675  23.349  25.429  1.00  0.00     0.027 A 
ATOM     79  C   UNL A   1      34.687  21.142  25.240  1.00  0.00     0.130 A 
ATOM     80  C   UNL A   1      34.407  23.943  25.439  1.00  0.00    -0.025 A 
ATOM     81  C   UNL A   1      33.419  21.715  25.304  1.00  0.00     0.048 A 
ATOM     82  C   UNL A   1      33.283  23.105  25.381  1.00  0.00     0.012 A 
BRANCH  79  83
ATOM     83  O   UNL A   1      34.815  19.786  25.140  1.00  0.00    -0.507 OA
ATOM     84  H   UNL A   1      35.128  19.290  25.869  1.00  0.00     0.293 HD
ENDBRANCH  79  83
BRANCH  80  85
ATOM     85  C   UNL A   1      34.191  25.397  25.526  1.00  0.00     0.009 C 
ATOM     86  C   UNL A   1      33.107  26.009  26.035  1.00  0.00     0.009 C 
BRANCH  86  87
ATOM     87  C   UNL A   1      32.936  27.471  26.053  1.00  0.00    -0.018 A 
ATOM     88  C   UNL A   1      32.069  28.116  25.158  1.00  0.00     0.054 A 
ATOM     89  C   UNL A   1      33.585  28.230  27.038  1.00  0.00     0.054 A 
ATOM     90  C   UNL A   1      31.874  29.494  25.244  1.00  0.00     0.119 A 
ATOM     91  C   UNL A   1      33.375  29.608  27.105  1.00  0.00     0.119 A 
ATOM     92  C   UNL A   1      32.520  30.246  26.214  1.00  0.00     0.092 A 
BRANCH  90  93
ATOM     93  O   UNL A   1      31.035  30.142  24.383  1.00  0.00    -0.508 OA
ATOM     94  H   UNL A   1      31.270  30.983  24.044  1.00  0.00     0.293 HD
ENDBRANCH  90  93
BRANCH  91  95
ATOM     95  O   UNL A   1      33.991  30.375  28.051  1.00  0.00    -0.508 OA
ATOM     96  H   UNL A   1      34.198  31.270  27.867  1.00  0.00     0.293 HD
ENDBRANCH  91  95
ENDBRANCH  86  87
ENDBRANCH  80  85
ENDBRANCH  75  77
ENDBRANCH  74  75
ENDBRANCH  73  74
ENDBRANCH   1  73
TORSDOF 19
ENDMDL
