MODEL 1
REMARK VINA RESULT:     -10.6      0.000      0.000
REMARK SMILES CC(C)SCC(=O)N1Cc2ccccc2C[C@H]1C(=O)OCCOC(=O)c1ccc(-c2c3nc(c(-c4c(F)cc(S(=O)(=O)[O-])cc4F)c4ccc([nH]4)c(-c4c(F)cc(S(=O)(=O)[O-])cc4F)c4nc(c(-c5c(F)cc(S(=O)(=O)[O-])cc5F)c5ccc2[nH]5)C=C4)C=C3)cc1
REMARK SMILES IDX 21 1 20 2 18 3 19 4 17 5 8 6 9 7 10 8 16 9 11 10 15 11 12 12
REMARK SMILES IDX 14 13 13 14 6 15 7 16 5 17 4 18 2 19 1 20 3 21 22 22 23 23
REMARK SMILES IDX 24 24 25 25 26 26 27 27 91 28 28 29 90 30 29 31 30 32 31 33
REMARK SMILES IDX 84 34 32 35 89 36 83 37 85 38 33 39 88 40 82 41 81 42 34 44
REMARK SMILES IDX 68 45 47 46 67 47 48 48 51 49 66 50 86 51 49 52 50 53 65 55
REMARK SMILES IDX 87 56 52 57 35 58 36 59 45 60 37 61 38 62 44 63 46 64 39 65
REMARK SMILES IDX 40 66 41 67 42 68 43 69 69 70 70 71 79 72 71 73 72 74 78 75
REMARK SMILES IDX 80 76 73 77 74 78 75 79 76 80 77 81 53 82 54 83 63 84 55 85
REMARK SMILES IDX 56 86 62 87 64 88 57 89 58 90 59 91 60 92 61 93
REMARK H PARENT 85 43 51 54
REMARK Flexibility Score: inf
ROOT
ATOM      1  C   UNL A   1      33.056  27.057  26.145  1.00  0.00     0.274 C 
ENDROOT
BRANCH   1   2
ATOM      2  O   UNL A   1      33.746  25.953  25.510  1.00  0.00    -0.461 OA
BRANCH   2   3
ATOM      3  C   UNL A   1      33.364  24.724  25.945  1.00  0.00     0.329 C 
ATOM      4  O   UNL A   1      32.220  24.480  26.330  1.00  0.00    -0.250 OA
BRANCH   3   5
ATOM      5  C   UNL A   1      34.439  23.619  25.833  1.00  0.00     0.199 C 
ATOM      6  N   UNL A   1      34.315  22.421  24.929  1.00  0.00    -0.323 N 
ATOM      7  C   UNL A   1      35.535  22.047  24.198  1.00  0.00     0.156 C 
ATOM      8  C   UNL A   1      36.797  22.256  25.002  1.00  0.00    -0.025 A 
ATOM      9  C   UNL A   1      35.762  24.409  25.616  1.00  0.00     0.073 C 
ATOM     10  C   UNL A   1      37.828  21.317  25.073  1.00  0.00     0.006 A 
ATOM     11  C   UNL A   1      36.933  23.475  25.678  1.00  0.00    -0.040 A 
ATOM     12  C   UNL A   1      38.987  21.607  25.800  1.00  0.00     0.000 A 
ATOM     13  C   UNL A   1      38.099  23.775  26.386  1.00  0.00     0.004 A 
ATOM     14  C   UNL A   1      39.126  22.837  26.446  1.00  0.00     0.000 A 
BRANCH   6  15
ATOM     15  C   UNL A   1      33.597  21.288  25.384  1.00  0.00     0.233 C 
ATOM     16  O   UNL A   1      33.208  21.226  26.552  1.00  0.00    -0.274 OA
BRANCH  15  17
ATOM     17  C   UNL A   1      33.607  20.078  24.449  1.00  0.00     0.169 C 
BRANCH  17  18
ATOM     18  S   UNL A   1      32.839  18.563  25.151  1.00  0.00    -0.149 SA
BRANCH  18  19
ATOM     19  C   UNL A   1      32.801  17.442  23.693  1.00  0.00     0.041 C 
ATOM     20  C   UNL A   1      32.335  18.221  22.463  1.00  0.00     0.019 C 
ATOM     21  C   UNL A   1      34.158  16.805  23.411  1.00  0.00     0.019 C 
ENDBRANCH  18  19
ENDBRANCH  17  18
ENDBRANCH  15  17
ENDBRANCH   6  15
ENDBRANCH   3   5
ENDBRANCH   2   3
ENDBRANCH   1   2
BRANCH   1  22
ATOM     22  C   UNL A   1      33.954  28.293  26.352  1.00  0.00     0.275 C 
BRANCH  22  23
ATOM     23  O   UNL A   1      33.859  28.947  27.642  1.00  0.00    -0.458 OA
BRANCH  23  24
ATOM     24  C   UNL A   1      34.577  30.084  27.745  1.00  0.00     0.338 C 
ATOM     25  O   UNL A   1      34.195  31.195  27.424  1.00  0.00    -0.246 OA
BRANCH  24  26
ATOM     26  C   UNL A   1      35.949  29.954  28.229  1.00  0.00     0.060 A 
ATOM     27  C   UNL A   1      36.958  30.113  27.267  1.00  0.00     0.016 A 
ATOM     28  C   UNL A   1      36.237  29.432  29.490  1.00  0.00     0.016 A 
ATOM     29  C   UNL A   1      38.260  29.734  27.557  1.00  0.00     0.010 A 
ATOM     30  C   UNL A   1      37.553  29.066  29.785  1.00  0.00     0.010 A 
ATOM     31  C   UNL A   1      38.563  29.211  28.819  1.00  0.00    -0.014 A 
BRANCH  31  32
ATOM     32  C   UNL A   1      39.978  28.956  29.153  1.00  0.00     0.031 A 
ATOM     33  C   UNL A   1      40.819  29.976  29.854  1.00  0.00     0.074 A 
ATOM     34  C   UNL A   1      40.464  27.741  28.845  1.00  0.00     0.049 A 
ATOM     35  N   UNL A   1      42.083  29.903  30.184  1.00  0.00    -0.248 NA
ATOM     36  C   UNL A   1      40.167  31.235  30.241  1.00  0.00     0.031 C 
ATOM     37  C   UNL A   1      39.695  26.669  28.205  1.00  0.00     0.029 A 
ATOM     38  N   UNL A   1      41.706  27.200  29.028  1.00  0.00    -0.354 N 
ATOM     39  C   UNL A   1      42.380  31.098  30.825  1.00  0.00     0.074 A 
ATOM     40  C   UNL A   1      41.165  31.889  30.826  1.00  0.00     0.031 C 
ATOM     41  C   UNL A   1      40.489  25.601  28.038  1.00  0.00     0.029 A 
ATOM     42  C   UNL A   1      41.822  25.927  28.529  1.00  0.00     0.049 A 
ATOM     43  H   UNL A   1      42.444  27.676  29.473  1.00  0.00     0.167 HD
ATOM     44  C   UNL A   1      43.559  31.488  31.363  1.00  0.00     0.037 A 
ATOM     45  C   UNL A   1      42.895  25.120  28.450  1.00  0.00     0.037 A 
ATOM     46  C   UNL A   1      44.760  30.689  31.341  1.00  0.00     0.049 A 
ATOM     47  C   UNL A   1      44.199  25.600  29.005  1.00  0.00     0.074 A 
ATOM     48  C   UNL A   1      46.017  31.003  31.829  1.00  0.00     0.029 A 
ATOM     49  N   UNL A   1      44.851  29.413  30.802  1.00  0.00    -0.354 N 
ATOM     50  N   UNL A   1      44.474  26.748  29.575  1.00  0.00    -0.248 NA
ATOM     51  C   UNL A   1      45.338  24.680  28.906  1.00  0.00     0.031 C 
ATOM     52  C   UNL A   1      46.872  29.925  31.568  1.00  0.00     0.029 A 
ATOM     53  C   UNL A   1      46.142  28.930  30.939  1.00  0.00     0.049 A 
ATOM     54  H   UNL A   1      44.106  28.922  30.385  1.00  0.00     0.167 HD
ATOM     55  C   UNL A   1      45.820  26.692  29.907  1.00  0.00     0.074 A 
ATOM     56  C   UNL A   1      46.298  25.388  29.487  1.00  0.00     0.031 C 
ATOM     57  C   UNL A   1      46.591  27.634  30.500  1.00  0.00     0.037 A 
BRANCH  44  58
ATOM     58  C   UNL A   1      43.627  32.841  32.012  1.00  0.00     0.058 A 
ATOM     59  C   UNL A   1      43.437  32.996  33.393  1.00  0.00     0.135 A 
ATOM     60  C   UNL A   1      43.966  33.978  31.263  1.00  0.00     0.135 A 
ATOM     61  F   UNL A   1      43.099  31.941  34.152  1.00  0.00    -0.206 F 
ATOM     62  C   UNL A   1      43.585  34.235  34.012  1.00  0.00     0.059 A 
ATOM     63  C   UNL A   1      44.130  35.224  31.862  1.00  0.00     0.059 A 
ATOM     64  F   UNL A   1      44.154  33.882  29.937  1.00  0.00    -0.206 F 
ATOM     65  C   UNL A   1      43.934  35.343  33.238  1.00  0.00     0.060 A 
BRANCH  65  66
ATOM     66  S   UNL A   1      44.168  36.938  34.054  1.00  0.00     0.124 S 
ATOM     67  O   UNL A   1      43.887  36.599  35.444  1.00  0.00    -0.237 OA
ATOM     68  O   UNL A   1      45.560  37.251  33.746  1.00  0.00    -0.237 OA
ATOM     69  O   UNL A   1      43.182  37.797  33.405  1.00  0.00    -0.744 OA
ENDBRANCH  65  66
ENDBRANCH  44  58
BRANCH  45  70
ATOM     70  C   UNL A   1      42.761  23.801  27.791  1.00  0.00     0.058 A 
ATOM     71  C   UNL A   1      42.930  23.660  26.408  1.00  0.00     0.135 A 
ATOM     72  C   UNL A   1      42.527  22.644  28.551  1.00  0.00     0.135 A 
ATOM     73  F   UNL A   1      43.158  24.741  25.647  1.00  0.00    -0.206 F 
ATOM     74  C   UNL A   1      42.871  22.413  25.796  1.00  0.00     0.059 A 
ATOM     75  C   UNL A   1      42.481  21.386  27.964  1.00  0.00     0.059 A 
ATOM     76  F   UNL A   1      42.381  22.732  29.883  1.00  0.00    -0.206 F 
ATOM     77  C   UNL A   1      42.649  21.281  26.583  1.00  0.00     0.060 A 
BRANCH  77  78
ATOM     78  S   UNL A   1      42.653  19.651  25.808  1.00  0.00     0.124 S 
ATOM     79  O   UNL A   1      43.035  18.797  26.928  1.00  0.00    -0.237 OA
ATOM     80  O   UNL A   1      41.277  19.516  25.342  1.00  0.00    -0.237 OA
ATOM     81  O   UNL A   1      43.650  19.794  24.751  1.00  0.00    -0.744 OA
ENDBRANCH  77  78
ENDBRANCH  45  70
BRANCH  57  82
ATOM     82  C   UNL A   1      48.027  27.272  30.723  1.00  0.00     0.058 A 
ATOM     83  C   UNL A   1      49.002  27.543  29.750  1.00  0.00     0.135 A 
ATOM     84  C   UNL A   1      48.431  26.647  31.912  1.00  0.00     0.135 A 
ATOM     85  F   UNL A   1      48.657  28.130  28.594  1.00  0.00    -0.206 F 
ATOM     86  C   UNL A   1      50.330  27.180  29.939  1.00  0.00     0.059 A 
ATOM     87  C   UNL A   1      49.757  26.289  32.127  1.00  0.00     0.059 A 
ATOM     88  F   UNL A   1      47.532  26.372  32.870  1.00  0.00    -0.206 F 
ATOM     89  C   UNL A   1      50.696  26.544  31.127  1.00  0.00     0.060 A 
BRANCH  89  90
ATOM     90  S   UNL A   1      52.420  26.070  31.370  1.00  0.00     0.124 S 
ATOM     91  O   UNL A   1      52.881  27.108  32.284  1.00  0.00    -0.237 OA
ATOM     92  O   UNL A   1      52.307  24.730  31.938  1.00  0.00    -0.237 OA
ATOM     93  O   UNL A   1      52.976  26.125  30.020  1.00  0.00    -0.744 OA
ENDBRANCH  89  90
ENDBRANCH  57  82
ENDBRANCH  31  32
ENDBRANCH  24  26
ENDBRANCH  23  24
ENDBRANCH  22  23
ENDBRANCH   1  22
TORSDOF 18
ENDMDL
MODEL 2
REMARK VINA RESULT:     -10.3      2.310      8.447
REMARK SMILES CC(C)SCC(=O)N1Cc2ccccc2C[C@H]1C(=O)OCCOC(=O)c1ccc(-c2c3nc(c(-c4c(F)cc(S(=O)(=O)[O-])cc4F)c4ccc([nH]4)c(-c4c(F)cc(S(=O)(=O)[O-])cc4F)c4nc(c(-c5c(F)cc(S(=O)(=O)[O-])cc5F)c5ccc2[nH]5)C=C4)C=C3)cc1
REMARK SMILES IDX 21 1 20 2 18 3 19 4 17 5 8 6 9 7 10 8 16 9 11 10 15 11 12 12
REMARK SMILES IDX 14 13 13 14 6 15 7 16 5 17 4 18 2 19 1 20 3 21 22 22 23 23
REMARK SMILES IDX 24 24 25 25 26 26 27 27 91 28 28 29 90 30 29 31 30 32 31 33
REMARK SMILES IDX 84 34 32 35 89 36 83 37 85 38 33 39 88 40 82 41 81 42 34 44
REMARK SMILES IDX 68 45 47 46 67 47 48 48 51 49 66 50 86 51 49 52 50 53 65 55
REMARK SMILES IDX 87 56 52 57 35 58 36 59 45 60 37 61 38 62 44 63 46 64 39 65
REMARK SMILES IDX 40 66 41 67 42 68 43 69 69 70 70 71 79 72 71 73 72 74 78 75
REMARK SMILES IDX 80 76 73 77 74 78 75 79 76 80 77 81 53 82 54 83 63 84 55 85
REMARK SMILES IDX 56 86 62 87 64 88 57 89 58 90 59 91 60 92 61 93
REMARK H PARENT 85 43 51 54
REMARK Flexibility Score: inf
ROOT
ATOM      1  C   UNL A   1      33.021  26.918  26.088  1.00  0.00     0.274 C 
ENDROOT
BRANCH   1   2
ATOM      2  O   UNL A   1      33.753  25.833  25.467  1.00  0.00    -0.461 OA
BRANCH   2   3
ATOM      3  C   UNL A   1      33.454  24.600  25.952  1.00  0.00     0.329 C 
ATOM      4  O   UNL A   1      32.317  24.280  26.301  1.00  0.00    -0.250 OA
BRANCH   3   5
ATOM      5  C   UNL A   1      34.620  23.587  25.947  1.00  0.00     0.199 C 
ATOM      6  N   UNL A   1      34.622  22.318  25.136  1.00  0.00    -0.323 N 
ATOM      7  C   UNL A   1      35.889  21.996  24.461  1.00  0.00     0.156 C 
ATOM      8  C   UNL A   1      37.106  22.373  25.273  1.00  0.00    -0.025 A 
ATOM      9  C   UNL A   1      35.877  24.469  25.698  1.00  0.00     0.073 C 
ATOM     10  C   UNL A   1      38.211  21.534  25.437  1.00  0.00     0.006 A 
ATOM     11  C   UNL A   1      37.121  23.646  25.856  1.00  0.00    -0.040 A 
ATOM     12  C   UNL A   1      39.321  21.975  26.164  1.00  0.00     0.000 A 
ATOM     13  C   UNL A   1      38.238  24.097  26.563  1.00  0.00     0.004 A 
ATOM     14  C   UNL A   1      39.339  23.257  26.716  1.00  0.00     0.000 A 
BRANCH   6  15
ATOM     15  C   UNL A   1      33.990  21.165  25.661  1.00  0.00     0.233 C 
ATOM     16  O   UNL A   1      33.757  21.079  26.869  1.00  0.00    -0.274 OA
BRANCH  15  17
ATOM     17  C   UNL A   1      33.900  19.968  24.713  1.00  0.00     0.169 C 
BRANCH  17  18
ATOM     18  S   UNL A   1      32.852  18.587  25.322  1.00  0.00    -0.149 SA
BRANCH  18  19
ATOM     19  C   UNL A   1      33.824  17.112  24.809  1.00  0.00     0.041 C 
ATOM     20  C   UNL A   1      33.093  15.842  25.248  1.00  0.00     0.019 C 
ATOM     21  C   UNL A   1      34.067  17.068  23.304  1.00  0.00     0.019 C 
ENDBRANCH  18  19
ENDBRANCH  17  18
ENDBRANCH  15  17
ENDBRANCH   6  15
ENDBRANCH   3   5
ENDBRANCH   2   3
ENDBRANCH   1   2
BRANCH   1  22
ATOM     22  C   UNL A   1      33.830  28.228  26.167  1.00  0.00     0.275 C 
BRANCH  22  23
ATOM     23  O   UNL A   1      33.442  29.160  27.205  1.00  0.00    -0.458 OA
BRANCH  23  24
ATOM     24  C   UNL A   1      34.342  30.137  27.443  1.00  0.00     0.338 C 
ATOM     25  O   UNL A   1      34.167  31.325  27.241  1.00  0.00    -0.246 OA
BRANCH  24  26
ATOM     26  C   UNL A   1      35.656  29.718  27.926  1.00  0.00     0.060 A 
ATOM     27  C   UNL A   1      35.718  29.315  29.268  1.00  0.00     0.016 A 
ATOM     28  C   UNL A   1      36.819  29.965  27.197  1.00  0.00     0.016 A 
ATOM     29  C   UNL A   1      36.947  29.174  29.894  1.00  0.00     0.010 A 
ATOM     30  C   UNL A   1      38.056  29.807  27.826  1.00  0.00     0.010 A 
ATOM     31  C   UNL A   1      38.122  29.417  29.174  1.00  0.00    -0.014 A 
BRANCH  31  32
ATOM     32  C   UNL A   1      39.416  29.116  29.818  1.00  0.00     0.031 A 
ATOM     33  C   UNL A   1      40.306  28.019  29.324  1.00  0.00     0.074 A 
ATOM     34  C   UNL A   1      39.784  29.909  30.839  1.00  0.00     0.049 A 
ATOM     35  N   UNL A   1      41.455  27.621  29.807  1.00  0.00    -0.248 NA
ATOM     36  C   UNL A   1      39.862  27.276  28.136  1.00  0.00     0.031 C 
ATOM     37  C   UNL A   1      38.996  31.033  31.352  1.00  0.00     0.029 A 
ATOM     38  N   UNL A   1      40.904  29.898  31.623  1.00  0.00    -0.354 N 
ATOM     39  C   UNL A   1      41.879  26.588  28.982  1.00  0.00     0.074 A 
ATOM     40  C   UNL A   1      40.856  26.409  27.972  1.00  0.00     0.031 C 
ATOM     41  C   UNL A   1      39.654  31.598  32.375  1.00  0.00     0.029 A 
ATOM     42  C   UNL A   1      40.887  30.856  32.606  1.00  0.00     0.049 A 
ATOM     43  H   UNL A   1      41.648  29.266  31.496  1.00  0.00     0.167 HD
ATOM     44  C   UNL A   1      43.021  25.865  29.067  1.00  0.00     0.037 A 
ATOM     45  C   UNL A   1      41.758  31.093  33.602  1.00  0.00     0.037 A 
ATOM     46  C   UNL A   1      44.021  26.054  30.089  1.00  0.00     0.049 A 
ATOM     47  C   UNL A   1      42.986  30.242  33.703  1.00  0.00     0.074 A 
ATOM     48  C   UNL A   1      45.200  25.354  30.285  1.00  0.00     0.029 A 
ATOM     49  N   UNL A   1      43.961  27.017  31.087  1.00  0.00    -0.354 N 
ATOM     50  N   UNL A   1      43.356  29.243  32.937  1.00  0.00    -0.248 NA
ATOM     51  C   UNL A   1      43.913  30.546  34.798  1.00  0.00     0.031 C 
ATOM     52  C   UNL A   1      45.842  25.880  31.412  1.00  0.00     0.029 A 
ATOM     53  C   UNL A   1      45.075  26.924  31.905  1.00  0.00     0.049 A 
ATOM     54  H   UNL A   1      43.232  27.670  31.197  1.00  0.00     0.167 HD
ATOM     55  C   UNL A   1      44.561  28.797  33.456  1.00  0.00     0.074 A 
ATOM     56  C   UNL A   1      44.866  29.646  34.593  1.00  0.00     0.031 C 
ATOM     57  C   UNL A   1      45.344  27.775  33.035  1.00  0.00     0.037 A 
BRANCH  44  58
ATOM     58  C   UNL A   1      43.256  24.793  28.042  1.00  0.00     0.058 A 
ATOM     59  C   UNL A   1      44.001  25.046  26.881  1.00  0.00     0.135 A 
ATOM     60  C   UNL A   1      42.804  23.483  28.260  1.00  0.00     0.135 A 
ATOM     61  F   UNL A   1      44.447  26.285  26.620  1.00  0.00    -0.206 F 
ATOM     62  C   UNL A   1      44.296  24.033  25.971  1.00  0.00     0.059 A 
ATOM     63  C   UNL A   1      43.095  22.453  27.370  1.00  0.00     0.059 A 
ATOM     64  F   UNL A   1      42.082  23.191  29.355  1.00  0.00    -0.206 F 
ATOM     65  C   UNL A   1      43.839  22.739  26.227  1.00  0.00     0.060 A 
BRANCH  65  66
ATOM     66  S   UNL A   1      44.262  21.420  25.065  1.00  0.00     0.124 S 
ATOM     67  O   UNL A   1      44.050  22.082  23.782  1.00  0.00    -0.237 OA
ATOM     68  O   UNL A   1      45.651  21.130  25.406  1.00  0.00    -0.237 OA
ATOM     69  O   UNL A   1      43.309  20.364  25.392  1.00  0.00    -0.744 OA
ENDBRANCH  65  66
ENDBRANCH  44  58
BRANCH  45  70
ATOM     70  C   UNL A   1      41.463  32.161  34.582  1.00  0.00     0.058 A 
ATOM     71  C   UNL A   1      41.970  33.456  34.419  1.00  0.00     0.135 A 
ATOM     72  C   UNL A   1      40.608  31.917  35.669  1.00  0.00     0.135 A 
ATOM     73  F   UNL A   1      42.788  33.732  33.392  1.00  0.00    -0.206 F 
ATOM     74  C   UNL A   1      41.639  34.479  35.302  1.00  0.00     0.059 A 
ATOM     75  C   UNL A   1      40.250  32.926  36.553  1.00  0.00     0.059 A 
ATOM     76  F   UNL A   1      40.082  30.695  35.850  1.00  0.00    -0.206 F 
ATOM     77  C   UNL A   1      40.776  34.205  36.365  1.00  0.00     0.060 A 
BRANCH  77  78
ATOM     78  S   UNL A   1      40.277  35.544  37.467  1.00  0.00     0.124 S 
ATOM     79  O   UNL A   1      39.178  34.925  38.199  1.00  0.00    -0.237 OA
ATOM     80  O   UNL A   1      41.493  35.796  38.233  1.00  0.00    -0.237 OA
ATOM     81  O   UNL A   1      39.903  36.608  36.540  1.00  0.00    -0.744 OA
ENDBRANCH  77  78
ENDBRANCH  45  70
BRANCH  57  82
ATOM     82  C   UNL A   1      46.599  27.534  33.817  1.00  0.00     0.058 A 
ATOM     83  C   UNL A   1      46.612  26.658  34.913  1.00  0.00     0.135 A 
ATOM     84  C   UNL A   1      47.792  28.184  33.471  1.00  0.00     0.135 A 
ATOM     85  F   UNL A   1      45.490  26.023  35.285  1.00  0.00    -0.206 F 
ATOM     86  C   UNL A   1      47.766  26.456  35.661  1.00  0.00     0.059 A 
ATOM     87  C   UNL A   1      48.961  27.985  34.197  1.00  0.00     0.059 A 
ATOM     88  F   UNL A   1      47.825  29.027  32.427  1.00  0.00    -0.206 F 
ATOM     89  C   UNL A   1      48.933  27.132  35.301  1.00  0.00     0.060 A 
BRANCH  89  90
ATOM     90  S   UNL A   1      50.430  26.872  36.275  1.00  0.00     0.124 S 
ATOM     91  O   UNL A   1      49.999  25.828  37.198  1.00  0.00    -0.237 OA
ATOM     92  O   UNL A   1      51.402  26.462  35.265  1.00  0.00    -0.237 OA
ATOM     93  O   UNL A   1      50.673  28.181  36.873  1.00  0.00    -0.744 OA
ENDBRANCH  89  90
ENDBRANCH  57  82
ENDBRANCH  31  32
ENDBRANCH  24  26
ENDBRANCH  23  24
ENDBRANCH  22  23
ENDBRANCH   1  22
TORSDOF 18
ENDMDL
MODEL 3
REMARK VINA RESULT:     -10.3      3.067      9.299
REMARK SMILES CC(C)SCC(=O)N1Cc2ccccc2C[C@H]1C(=O)OCCOC(=O)c1ccc(-c2c3nc(c(-c4c(F)cc(S(=O)(=O)[O-])cc4F)c4ccc([nH]4)c(-c4c(F)cc(S(=O)(=O)[O-])cc4F)c4nc(c(-c5c(F)cc(S(=O)(=O)[O-])cc5F)c5ccc2[nH]5)C=C4)C=C3)cc1
REMARK SMILES IDX 21 1 20 2 18 3 19 4 17 5 8 6 9 7 10 8 16 9 11 10 15 11 12 12
REMARK SMILES IDX 14 13 13 14 6 15 7 16 5 17 4 18 2 19 1 20 3 21 22 22 23 23
REMARK SMILES IDX 24 24 25 25 26 26 27 27 91 28 28 29 90 30 29 31 30 32 31 33
REMARK SMILES IDX 84 34 32 35 89 36 83 37 85 38 33 39 88 40 82 41 81 42 34 44
REMARK SMILES IDX 68 45 47 46 67 47 48 48 51 49 66 50 86 51 49 52 50 53 65 55
REMARK SMILES IDX 87 56 52 57 35 58 36 59 45 60 37 61 38 62 44 63 46 64 39 65
REMARK SMILES IDX 40 66 41 67 42 68 43 69 69 70 70 71 79 72 71 73 72 74 78 75
REMARK SMILES IDX 80 76 73 77 74 78 75 79 76 80 77 81 53 82 54 83 63 84 55 85
REMARK SMILES IDX 56 86 62 87 64 88 57 89 58 90 59 91 60 92 61 93
REMARK H PARENT 85 43 51 54
REMARK Flexibility Score: inf
ROOT
ATOM      1  C   UNL A   1      35.938  21.731  24.550  1.00  0.00     0.274 C 
ENDROOT
BRANCH   1   2
ATOM      2  O   UNL A   1      34.553  22.017  24.235  1.00  0.00    -0.461 OA
BRANCH   2   3
ATOM      3  C   UNL A   1      34.355  23.188  23.575  1.00  0.00     0.329 C 
ATOM      4  O   UNL A   1      34.808  23.404  22.451  1.00  0.00    -0.250 OA
BRANCH   3   5
ATOM      5  C   UNL A   1      33.437  24.203  24.293  1.00  0.00     0.199 C 
ATOM      6  N   UNL A   1      32.402  23.817  25.317  1.00  0.00    -0.323 N 
ATOM      7  C   UNL A   1      32.322  24.688  26.500  1.00  0.00     0.156 C 
ATOM      8  C   UNL A   1      32.558  26.146  26.180  1.00  0.00    -0.025 A 
ATOM      9  C   UNL A   1      34.420  25.295  24.805  1.00  0.00     0.073 C 
ATOM     10  C   UNL A   1      31.764  27.180  26.682  1.00  0.00     0.006 A 
ATOM     11  C   UNL A   1      33.652  26.456  25.363  1.00  0.00    -0.040 A 
ATOM     12  C   UNL A   1      32.078  28.510  26.379  1.00  0.00     0.000 A 
ATOM     13  C   UNL A   1      33.979  27.783  25.079  1.00  0.00     0.004 A 
ATOM     14  C   UNL A   1      33.188  28.810  25.588  1.00  0.00     0.000 A 
BRANCH   6  15
ATOM     15  C   UNL A   1      31.125  23.394  24.878  1.00  0.00     0.233 C 
ATOM     16  O   UNL A   1      30.579  22.419  25.399  1.00  0.00    -0.274 OA
BRANCH  15  17
ATOM     17  C   UNL A   1      30.632  24.017  23.571  1.00  0.00     0.169 C 
BRANCH  17  18
ATOM     18  S   UNL A   1      29.857  25.673  23.757  1.00  0.00    -0.149 SA
BRANCH  18  19
ATOM     19  C   UNL A   1      31.089  26.768  22.941  1.00  0.00     0.041 C 
ATOM     20  C   UNL A   1      31.789  26.000  21.819  1.00  0.00     0.019 C 
ATOM     21  C   UNL A   1      30.459  28.036  22.376  1.00  0.00     0.019 C 
ENDBRANCH  18  19
ENDBRANCH  17  18
ENDBRANCH  15  17
ENDBRANCH   6  15
ENDBRANCH   3   5
ENDBRANCH   2   3
ENDBRANCH   1   2
BRANCH   1  22
ATOM     22  C   UNL A   1      36.445  22.489  25.793  1.00  0.00     0.275 C 
BRANCH  22  23
ATOM     23  O   UNL A   1      37.411  23.541  25.553  1.00  0.00    -0.458 OA
BRANCH  23  24
ATOM     24  C   UNL A   1      38.652  23.273  26.008  1.00  0.00     0.338 C 
ATOM     25  O   UNL A   1      39.245  22.218  25.870  1.00  0.00    -0.246 OA
BRANCH  24  26
ATOM     26  C   UNL A   1      39.310  24.324  26.782  1.00  0.00     0.060 A 
ATOM     27  C   UNL A   1      38.908  24.446  28.120  1.00  0.00     0.016 A 
ATOM     28  C   UNL A   1      40.076  25.316  26.170  1.00  0.00     0.016 A 
ATOM     29  C   UNL A   1      39.254  25.573  28.849  1.00  0.00     0.010 A 
ATOM     30  C   UNL A   1      40.437  26.444  26.912  1.00  0.00     0.010 A 
ATOM     31  C   UNL A   1      40.024  26.576  28.249  1.00  0.00    -0.014 A 
BRANCH  31  32
ATOM     32  C   UNL A   1      40.504  27.691  29.088  1.00  0.00     0.031 A 
ATOM     33  C   UNL A   1      41.849  27.661  29.744  1.00  0.00     0.074 A 
ATOM     34  C   UNL A   1      39.698  28.761  29.194  1.00  0.00     0.049 A 
ATOM     35  N   UNL A   1      42.391  28.553  30.532  1.00  0.00    -0.248 NA
ATOM     36  C   UNL A   1      42.699  26.490  29.483  1.00  0.00     0.031 C 
ATOM     37  C   UNL A   1      38.390  28.892  28.545  1.00  0.00     0.029 A 
ATOM     38  N   UNL A   1      39.853  29.936  29.875  1.00  0.00    -0.354 N 
ATOM     39  C   UNL A   1      43.649  28.061  30.857  1.00  0.00     0.074 A 
ATOM     40  C   UNL A   1      43.785  26.781  30.191  1.00  0.00     0.031 C 
ATOM     41  C   UNL A   1      37.857  30.078  28.869  1.00  0.00     0.029 A 
ATOM     42  C   UNL A   1      38.770  30.771  29.771  1.00  0.00     0.049 A 
ATOM     43  H   UNL A   1      40.662  30.160  30.390  1.00  0.00     0.167 HD
ATOM     44  C   UNL A   1      44.595  28.635  31.638  1.00  0.00     0.037 A 
ATOM     45  C   UNL A   1      38.526  31.954  30.361  1.00  0.00     0.037 A 
ATOM     46  C   UNL A   1      44.432  29.906  32.300  1.00  0.00     0.049 A 
ATOM     47  C   UNL A   1      39.568  32.539  31.261  1.00  0.00     0.074 A 
ATOM     48  C   UNL A   1      45.317  30.563  33.140  1.00  0.00     0.029 A 
ATOM     49  N   UNL A   1      43.309  30.715  32.196  1.00  0.00    -0.354 N 
ATOM     50  N   UNL A   1      40.738  32.044  31.589  1.00  0.00    -0.248 NA
ATOM     51  C   UNL A   1      39.262  33.837  31.872  1.00  0.00     0.031 C 
ATOM     52  C   UNL A   1      44.721  31.758  33.557  1.00  0.00     0.029 A 
ATOM     53  C   UNL A   1      43.474  31.858  32.959  1.00  0.00     0.049 A 
ATOM     54  H   UNL A   1      42.512  30.506  31.657  1.00  0.00     0.167 HD
ATOM     55  C   UNL A   1      41.312  32.971  32.446  1.00  0.00     0.074 A 
ATOM     56  C   UNL A   1      40.366  34.064  32.572  1.00  0.00     0.031 C 
ATOM     57  C   UNL A   1      42.510  32.922  33.075  1.00  0.00     0.037 A 
BRANCH  44  58
ATOM     58  C   UNL A   1      45.888  27.899  31.835  1.00  0.00     0.058 A 
ATOM     59  C   UNL A   1      45.993  26.841  32.751  1.00  0.00     0.135 A 
ATOM     60  C   UNL A   1      47.009  28.196  31.046  1.00  0.00     0.135 A 
ATOM     61  F   UNL A   1      44.953  26.525  33.540  1.00  0.00    -0.206 F 
ATOM     62  C   UNL A   1      47.165  26.100  32.875  1.00  0.00     0.059 A 
ATOM     63  C   UNL A   1      48.188  27.461  31.144  1.00  0.00     0.059 A 
ATOM     64  F   UNL A   1      46.961  29.202  30.157  1.00  0.00    -0.206 F 
ATOM     65  C   UNL A   1      48.257  26.416  32.065  1.00  0.00     0.060 A 
BRANCH  65  66
ATOM     66  S   UNL A   1      49.760  25.422  32.199  1.00  0.00     0.124 S 
ATOM     67  O   UNL A   1      49.390  24.473  33.243  1.00  0.00    -0.237 OA
ATOM     68  O   UNL A   1      49.893  24.866  30.855  1.00  0.00    -0.237 OA
ATOM     69  O   UNL A   1      50.778  26.399  32.570  1.00  0.00    -0.744 OA
ENDBRANCH  65  66
ENDBRANCH  44  58
BRANCH  45  70
ATOM     70  C   UNL A   1      37.226  32.624  30.128  1.00  0.00     0.058 A 
ATOM     71  C   UNL A   1      36.116  32.356  30.938  1.00  0.00     0.135 A 
ATOM     72  C   UNL A   1      37.096  33.600  29.127  1.00  0.00     0.135 A 
ATOM     73  F   UNL A   1      36.201  31.433  31.907  1.00  0.00    -0.206 F 
ATOM     74  C   UNL A   1      34.914  33.033  30.764  1.00  0.00     0.059 A 
ATOM     75  C   UNL A   1      35.911  34.301  28.946  1.00  0.00     0.059 A 
ATOM     76  F   UNL A   1      38.142  33.904  28.342  1.00  0.00    -0.206 F 
ATOM     77  C   UNL A   1      34.821  34.006  29.767  1.00  0.00     0.060 A 
BRANCH  77  78
ATOM     78  S   UNL A   1      33.291  34.947  29.588  1.00  0.00     0.124 S 
ATOM     79  O   UNL A   1      33.790  36.224  29.091  1.00  0.00    -0.237 OA
ATOM     80  O   UNL A   1      32.532  34.143  28.636  1.00  0.00    -0.237 OA
ATOM     81  O   UNL A   1      32.755  34.960  30.946  1.00  0.00    -0.744 OA
ENDBRANCH  77  78
ENDBRANCH  45  70
BRANCH  57  82
ATOM     82  C   UNL A   1      42.849  34.089  33.951  1.00  0.00     0.058 A 
ATOM     83  C   UNL A   1      43.431  35.250  33.418  1.00  0.00     0.135 A 
ATOM     84  C   UNL A   1      42.597  34.046  35.329  1.00  0.00     0.135 A 
ATOM     85  F   UNL A   1      43.699  35.329  32.105  1.00  0.00    -0.206 F 
ATOM     86  C   UNL A   1      43.777  36.322  34.231  1.00  0.00     0.059 A 
ATOM     87  C   UNL A   1      42.922  35.113  36.158  1.00  0.00     0.059 A 
ATOM     88  F   UNL A   1      42.038  32.957  35.881  1.00  0.00    -0.206 F 
ATOM     89  C   UNL A   1      43.528  36.240  35.602  1.00  0.00     0.060 A 
BRANCH  89  90
ATOM     90  S   UNL A   1      43.981  37.632  36.658  1.00  0.00     0.124 S 
ATOM     91  O   UNL A   1      45.338  37.269  37.052  1.00  0.00    -0.237 OA
ATOM     92  O   UNL A   1      43.869  38.771  35.751  1.00  0.00    -0.237 OA
ATOM     93  O   UNL A   1      42.981  37.586  37.721  1.00  0.00    -0.744 OA
ENDBRANCH  89  90
ENDBRANCH  57  82
ENDBRANCH  31  32
ENDBRANCH  24  26
ENDBRANCH  23  24
ENDBRANCH  22  23
ENDBRANCH   1  22
TORSDOF 18
ENDMDL
