MODEL 1
REMARK VINA RESULT:     -13.0      0.000      0.000
REMARK SMILES Cc1cc(=O)c(Oc2ccc(C(=O)OCCOC(=O)c3ccc(-c4c5nc(c(-c6c(F)cc(S(=O)(=O)[O-])cc6F)c6ccc([nH]6)c(-c6c(F)cc(S(=O)(=O)[O-])cc6F)c6nc(c(-c7c(F)cc(S(=O)(=O)[O-])cc7F)c7ccc4[nH]7)C=C6)C=C5)cc3)cc2)c(-c2ccc(S(C)(=O)=O)cc2)o1
REMARK SMILES IDX 15 1 14 2 12 3 13 4 11 5 8 6 9 7 87 8 10 9 86 10 7 11 6 12
REMARK SMILES IDX 1 13 2 14 3 15 99 16 4 17 88 18 5 19 89 20 90 21 98 22 91 23
REMARK SMILES IDX 97 24 92 25 93 26 94 27 95 28 96 29 16 30 17 31 18 32 19 33
REMARK SMILES IDX 20 34 21 35 85 36 22 37 84 38 23 39 24 40 25 41 78 42 26 43
REMARK SMILES IDX 83 44 77 45 79 46 27 47 82 48 76 49 75 50 28 52 62 53 41 54
REMARK SMILES IDX 61 55 42 56 45 57 60 58 80 59 43 60 44 61 59 63 81 64 46 65
REMARK SMILES IDX 29 66 30 67 39 68 31 69 32 70 38 71 40 72 33 73 34 74 35 75
REMARK SMILES IDX 36 76 37 77 63 78 64 79 73 80 65 81 66 82 72 83 74 84 67 85
REMARK SMILES IDX 68 86 69 87 70 88 71 89 47 90 48 91 57 92 49 93 50 94 56 95
REMARK SMILES IDX 58 96 51 97 52 98 53 99 54 100 55 101
REMARK H PARENT 79 51 45 62
REMARK Flexibility Score: inf
ROOT
ATOM      1  C   UNL A   1      34.399  32.396  28.220  1.00  0.00     0.275 C 
ENDROOT
BRANCH   1   2
ATOM      2  O   UNL A   1      33.651  31.224  27.836  1.00  0.00    -0.458 OA
BRANCH   2   3
ATOM      3  C   UNL A   1      34.359  30.206  27.279  1.00  0.00     0.338 C 
ATOM      4  O   UNL A   1      35.572  30.166  27.139  1.00  0.00    -0.246 OA
BRANCH   3   5
ATOM      5  C   UNL A   1      33.468  29.044  27.005  1.00  0.00     0.060 A 
ATOM      6  C   UNL A   1      32.022  26.659  26.799  1.00  0.00     0.127 A 
ATOM      7  C   UNL A   1      33.286  26.741  26.225  1.00  0.00     0.048 A 
ATOM      8  C   UNL A   1      31.434  27.794  27.369  1.00  0.00     0.048 A 
ATOM      9  C   UNL A   1      33.998  27.944  26.310  1.00  0.00     0.019 A 
ATOM     10  C   UNL A   1      32.162  28.977  27.501  1.00  0.00     0.019 A 
BRANCH   6  11
ATOM     11  O   UNL A   1      31.244  25.534  26.772  1.00  0.00    -0.449 OA
BRANCH  11  12
ATOM     12  C   UNL A   1      31.282  24.625  25.726  1.00  0.00     0.217 A 
ATOM     13  C   UNL A   1      32.232  21.917  22.502  1.00  0.00     0.088 C 
ATOM     14  C   UNL A   1      31.914  22.733  23.716  1.00  0.00     0.105 A 
ATOM     15  C   UNL A   1      32.414  22.482  24.928  1.00  0.00     0.098 A 
ATOM     16  O   UNL A   1      31.070  23.791  23.472  1.00  0.00    -0.457 OA
ATOM     17  C   UNL A   1      32.071  23.389  26.034  1.00  0.00     0.228 A 
ATOM     18  C   UNL A   1      30.853  24.765  24.447  1.00  0.00     0.180 A 
ATOM     19  O   UNL A   1      32.483  23.137  27.165  1.00  0.00    -0.285 OA
BRANCH  18  20
ATOM     20  C   UNL A   1      30.196  25.935  23.824  1.00  0.00     0.021 A 
ATOM     21  C   UNL A   1      30.986  26.895  23.163  1.00  0.00     0.013 A 
ATOM     22  C   UNL A   1      28.842  26.220  24.033  1.00  0.00     0.013 A 
ATOM     23  C   UNL A   1      30.445  28.117  22.745  1.00  0.00     0.021 A 
ATOM     24  C   UNL A   1      28.288  27.429  23.599  1.00  0.00     0.021 A 
ATOM     25  C   UNL A   1      29.096  28.386  22.973  1.00  0.00     0.067 A 
BRANCH  25  26
ATOM     26  S   UNL A   1      28.392  29.970  22.564  1.00  0.00     0.175 S 
ATOM     27  C   UNL A   1      29.219  31.143  23.601  1.00  0.00     0.163 C 
ATOM     28  O   UNL A   1      28.731  30.296  21.193  1.00  0.00    -0.224 OA
ATOM     29  O   UNL A   1      27.003  29.944  22.990  1.00  0.00    -0.224 OA
ENDBRANCH  25  26
ENDBRANCH  18  20
ENDBRANCH  11  12
ENDBRANCH   6  11
ENDBRANCH   3   5
ENDBRANCH   2   3
ENDBRANCH   1   2
BRANCH   1  30
ATOM     30  C   UNL A   1      34.762  32.390  29.714  1.00  0.00     0.275 C 
BRANCH  30  31
ATOM     31  O   UNL A   1      36.182  32.365  29.962  1.00  0.00    -0.458 OA
BRANCH  31  32
ATOM     32  C   UNL A   1      36.579  31.343  30.751  1.00  0.00     0.338 C 
ATOM     33  O   UNL A   1      35.928  30.826  31.648  1.00  0.00    -0.246 OA
BRANCH  32  34
ATOM     34  C   UNL A   1      37.914  30.834  30.394  1.00  0.00     0.060 A 
ATOM     35  C   UNL A   1      38.820  30.359  31.346  1.00  0.00     0.016 A 
ATOM     36  C   UNL A   1      38.186  30.685  29.032  1.00  0.00     0.016 A 
ATOM     37  C   UNL A   1      40.014  29.758  30.923  1.00  0.00     0.010 A 
ATOM     38  C   UNL A   1      39.359  30.073  28.610  1.00  0.00     0.010 A 
ATOM     39  C   UNL A   1      40.293  29.629  29.552  1.00  0.00    -0.014 A 
BRANCH  39  40
ATOM     40  C   UNL A   1      41.615  29.178  29.062  1.00  0.00     0.031 A 
ATOM     41  C   UNL A   1      42.737  30.178  29.032  1.00  0.00     0.074 A 
ATOM     42  C   UNL A   1      41.795  27.933  28.584  1.00  0.00     0.049 A 
ATOM     43  N   UNL A   1      43.963  30.039  28.602  1.00  0.00    -0.248 NA
ATOM     44  C   UNL A   1      42.419  31.528  29.526  1.00  0.00     0.031 C 
ATOM     45  C   UNL A   1      40.766  26.895  28.517  1.00  0.00     0.029 A 
ATOM     46  N   UNL A   1      42.911  27.334  28.060  1.00  0.00    -0.354 N 
ATOM     47  C   UNL A   1      44.562  31.281  28.777  1.00  0.00     0.074 A 
ATOM     48  C   UNL A   1      43.542  32.179  29.273  1.00  0.00     0.031 C 
ATOM     49  C   UNL A   1      41.309  25.775  28.006  1.00  0.00     0.029 A 
ATOM     50  C   UNL A   1      42.717  26.022  27.699  1.00  0.00     0.049 A 
ATOM     51  H   UNL A   1      43.771  27.801  27.951  1.00  0.00     0.167 HD
ATOM     52  C   UNL A   1      45.853  31.636  28.582  1.00  0.00     0.037 A 
ATOM     53  C   UNL A   1      43.588  25.122  27.198  1.00  0.00     0.037 A 
ATOM     54  C   UNL A   1      46.861  30.737  28.096  1.00  0.00     0.049 A 
ATOM     55  C   UNL A   1      45.020  25.533  26.976  1.00  0.00     0.074 A 
ATOM     56  C   UNL A   1      48.205  30.977  27.880  1.00  0.00     0.029 A 
ATOM     57  N   UNL A   1      46.628  29.413  27.750  1.00  0.00    -0.354 N 
ATOM     58  N   UNL A   1      45.586  26.697  27.194  1.00  0.00    -0.248 NA
ATOM     59  C   UNL A   1      45.933  24.510  26.448  1.00  0.00     0.031 C 
ATOM     60  C   UNL A   1      48.780  29.803  27.383  1.00  0.00     0.029 A 
ATOM     61  C   UNL A   1      47.802  28.822  27.318  1.00  0.00     0.049 A 
ATOM     62  H   UNL A   1      45.755  28.961  27.804  1.00  0.00     0.167 HD
ATOM     63  C   UNL A   1      46.926  26.541  26.851  1.00  0.00     0.074 A 
ATOM     64  C   UNL A   1      47.086  25.167  26.418  1.00  0.00     0.031 C 
ATOM     65  C   UNL A   1      47.932  27.449  26.892  1.00  0.00     0.037 A 
BRANCH  52  66
ATOM     66  C   UNL A   1      46.219  33.054  28.920  1.00  0.00     0.058 A 
ATOM     67  C   UNL A   1      46.178  34.066  27.944  1.00  0.00     0.135 A 
ATOM     68  C   UNL A   1      46.674  33.399  30.202  1.00  0.00     0.135 A 
ATOM     69  F   UNL A   1      45.769  33.784  26.696  1.00  0.00    -0.206 F 
ATOM     70  C   UNL A   1      46.635  35.351  28.209  1.00  0.00     0.059 A 
ATOM     71  C   UNL A   1      47.109  34.689  30.498  1.00  0.00     0.059 A 
ATOM     72  F   UNL A   1      46.732  32.473  31.171  1.00  0.00    -0.206 F 
ATOM     73  C   UNL A   1      47.112  35.650  29.486  1.00  0.00     0.060 A 
BRANCH  73  74
ATOM     74  S   UNL A   1      47.759  37.306  29.796  1.00  0.00     0.124 S 
ATOM     75  O   UNL A   1      49.196  37.056  29.819  1.00  0.00    -0.237 OA
ATOM     76  O   UNL A   1      47.265  38.056  28.646  1.00  0.00    -0.237 OA
ATOM     77  O   UNL A   1      47.163  37.667  31.079  1.00  0.00    -0.744 OA
ENDBRANCH  73  74
ENDBRANCH  52  66
BRANCH  53  78
ATOM     78  C   UNL A   1      43.142  23.725  26.955  1.00  0.00     0.058 A 
ATOM     79  C   UNL A   1      43.003  23.243  25.645  1.00  0.00     0.135 A 
ATOM     80  C   UNL A   1      42.906  22.830  28.010  1.00  0.00     0.135 A 
ATOM     81  F   UNL A   1      43.211  24.063  24.603  1.00  0.00    -0.206 F 
ATOM     82  C   UNL A   1      42.655  21.921  25.386  1.00  0.00     0.059 A 
ATOM     83  C   UNL A   1      42.571  21.499  27.777  1.00  0.00     0.059 A 
ATOM     84  F   UNL A   1      43.037  23.240  29.280  1.00  0.00    -0.206 F 
ATOM     85  C   UNL A   1      42.452  21.053  26.460  1.00  0.00     0.060 A 
BRANCH  85  86
ATOM     86  S   UNL A   1      42.102  19.315  26.107  1.00  0.00     0.124 S 
ATOM     87  O   UNL A   1      42.877  19.099  24.890  1.00  0.00    -0.237 OA
ATOM     88  O   UNL A   1      42.602  18.657  27.309  1.00  0.00    -0.237 OA
ATOM     89  O   UNL A   1      40.652  19.292  25.944  1.00  0.00    -0.744 OA
ENDBRANCH  85  86
ENDBRANCH  53  78
BRANCH  65  90
ATOM     90  C   UNL A   1      49.299  26.995  26.467  1.00  0.00     0.058 A 
ATOM     91  C   UNL A   1      50.166  26.356  27.365  1.00  0.00     0.135 A 
ATOM     92  C   UNL A   1      49.702  27.107  25.127  1.00  0.00     0.135 A 
ATOM     93  F   UNL A   1      49.827  26.230  28.659  1.00  0.00    -0.206 F 
ATOM     94  C   UNL A   1      51.390  25.844  26.950  1.00  0.00     0.059 A 
ATOM     95  C   UNL A   1      50.912  26.584  24.685  1.00  0.00     0.059 A 
ATOM     96  F   UNL A   1      48.902  27.702  24.228  1.00  0.00    -0.206 F 
ATOM     97  C   UNL A   1      51.751  25.955  25.605  1.00  0.00     0.060 A 
BRANCH  97  98
ATOM     98  S   UNL A   1      53.311  25.223  25.067  1.00  0.00     0.124 S 
ATOM     99  O   UNL A   1      53.351  25.615  23.663  1.00  0.00    -0.237 OA
ATOM    100  O   UNL A   1      54.281  25.882  25.938  1.00  0.00    -0.237 OA
ATOM    101  O   UNL A   1      53.121  23.797  25.317  1.00  0.00    -0.744 OA
ENDBRANCH  97  98
ENDBRANCH  65  90
ENDBRANCH  39  40
ENDBRANCH  32  34
ENDBRANCH  31  32
ENDBRANCH  30  31
ENDBRANCH   1  30
TORSDOF 18
ENDMDL
MODEL 2
REMARK VINA RESULT:     -12.8      6.161     11.976
REMARK SMILES Cc1cc(=O)c(Oc2ccc(C(=O)OCCOC(=O)c3ccc(-c4c5nc(c(-c6c(F)cc(S(=O)(=O)[O-])cc6F)c6ccc([nH]6)c(-c6c(F)cc(S(=O)(=O)[O-])cc6F)c6nc(c(-c7c(F)cc(S(=O)(=O)[O-])cc7F)c7ccc4[nH]7)C=C6)C=C5)cc3)cc2)c(-c2ccc(S(C)(=O)=O)cc2)o1
REMARK SMILES IDX 15 1 14 2 12 3 13 4 11 5 8 6 9 7 87 8 10 9 86 10 7 11 6 12
REMARK SMILES IDX 1 13 2 14 3 15 99 16 4 17 88 18 5 19 89 20 90 21 98 22 91 23
REMARK SMILES IDX 97 24 92 25 93 26 94 27 95 28 96 29 16 30 17 31 18 32 19 33
REMARK SMILES IDX 20 34 21 35 85 36 22 37 84 38 23 39 24 40 25 41 78 42 26 43
REMARK SMILES IDX 83 44 77 45 79 46 27 47 82 48 76 49 75 50 28 52 62 53 41 54
REMARK SMILES IDX 61 55 42 56 45 57 60 58 80 59 43 60 44 61 59 63 81 64 46 65
REMARK SMILES IDX 29 66 30 67 39 68 31 69 32 70 38 71 40 72 33 73 34 74 35 75
REMARK SMILES IDX 36 76 37 77 63 78 64 79 73 80 65 81 66 82 72 83 74 84 67 85
REMARK SMILES IDX 68 86 69 87 70 88 71 89 47 90 48 91 57 92 49 93 50 94 56 95
REMARK SMILES IDX 58 96 51 97 52 98 53 99 54 100 55 101
REMARK H PARENT 79 51 45 62
REMARK Flexibility Score: inf
ROOT
ATOM      1  C   UNL A   1      40.688  22.364  27.042  1.00  0.00     0.275 C 
ENDROOT
BRANCH   1   2
ATOM      2  O   UNL A   1      39.384  22.716  26.535  1.00  0.00    -0.458 OA
BRANCH   2   3
ATOM      3  C   UNL A   1      38.741  21.770  25.801  1.00  0.00     0.338 C 
ATOM      4  O   UNL A   1      39.036  20.587  25.737  1.00  0.00    -0.246 OA
BRANCH   3   5
ATOM      5  C   UNL A   1      37.500  22.337  25.201  1.00  0.00     0.060 A 
ATOM      6  C   UNL A   1      35.419  23.743  23.972  1.00  0.00     0.127 A 
ATOM      7  C   UNL A   1      35.826  24.109  25.251  1.00  0.00     0.048 A 
ATOM      8  C   UNL A   1      35.964  22.610  23.358  1.00  0.00     0.048 A 
ATOM      9  C   UNL A   1      36.853  23.388  25.873  1.00  0.00     0.019 A 
ATOM     10  C   UNL A   1      37.023  21.924  23.954  1.00  0.00     0.019 A 
BRANCH   6  11
ATOM     11  O   UNL A   1      34.426  24.378  23.278  1.00  0.00    -0.449 OA
BRANCH  11  12
ATOM     12  C   UNL A   1      33.163  24.593  23.807  1.00  0.00     0.217 A 
ATOM     13  C   UNL A   1      29.650  25.563  26.121  1.00  0.00     0.088 C 
ATOM     14  C   UNL A   1      30.857  25.369  25.258  1.00  0.00     0.105 A 
ATOM     15  C   UNL A   1      31.690  26.356  24.919  1.00  0.00     0.098 A 
ATOM     16  O   UNL A   1      31.052  24.069  24.852  1.00  0.00    -0.457 OA
ATOM     17  C   UNL A   1      32.875  26.032  24.108  1.00  0.00     0.228 A 
ATOM     18  C   UNL A   1      32.241  23.691  24.228  1.00  0.00     0.180 A 
ATOM     19  O   UNL A   1      33.620  26.941  23.747  1.00  0.00    -0.285 OA
BRANCH  18  20
ATOM     20  C   UNL A   1      32.328  22.214  24.209  1.00  0.00     0.021 A 
ATOM     21  C   UNL A   1      32.796  21.539  25.353  1.00  0.00     0.013 A 
ATOM     22  C   UNL A   1      32.146  21.479  23.032  1.00  0.00     0.013 A 
ATOM     23  C   UNL A   1      33.098  20.172  25.316  1.00  0.00     0.021 A 
ATOM     24  C   UNL A   1      32.424  20.108  22.994  1.00  0.00     0.021 A 
ATOM     25  C   UNL A   1      32.919  19.460  24.131  1.00  0.00     0.067 A 
BRANCH  25  26
ATOM     26  S   UNL A   1      33.398  17.749  24.004  1.00  0.00     0.175 S 
ATOM     27  C   UNL A   1      32.539  16.914  25.308  1.00  0.00     0.163 C 
ATOM     28  O   UNL A   1      32.903  17.213  22.752  1.00  0.00    -0.224 OA
ATOM     29  O   UNL A   1      34.814  17.677  24.325  1.00  0.00    -0.224 OA
ENDBRANCH  25  26
ENDBRANCH  18  20
ENDBRANCH  11  12
ENDBRANCH   6  11
ENDBRANCH   3   5
ENDBRANCH   2   3
ENDBRANCH   1   2
BRANCH   1  30
ATOM     30  C   UNL A   1      41.821  22.900  26.152  1.00  0.00     0.275 C 
BRANCH  30  31
ATOM     31  O   UNL A   1      42.467  24.074  26.685  1.00  0.00    -0.458 OA
BRANCH  31  32
ATOM     32  C   UNL A   1      41.903  25.234  26.283  1.00  0.00     0.338 C 
ATOM     33  O   UNL A   1      41.662  25.560  25.130  1.00  0.00    -0.246 OA
BRANCH  32  34
ATOM     34  C   UNL A   1      41.533  26.107  27.410  1.00  0.00     0.060 A 
ATOM     35  C   UNL A   1      40.465  25.822  28.266  1.00  0.00     0.016 A 
ATOM     36  C   UNL A   1      42.403  27.160  27.702  1.00  0.00     0.016 A 
ATOM     37  C   UNL A   1      40.259  26.619  29.401  1.00  0.00     0.010 A 
ATOM     38  C   UNL A   1      42.214  27.938  28.836  1.00  0.00     0.010 A 
ATOM     39  C   UNL A   1      41.125  27.690  29.679  1.00  0.00    -0.014 A 
BRANCH  39  40
ATOM     40  C   UNL A   1      40.839  28.668  30.753  1.00  0.00     0.031 A 
ATOM     41  C   UNL A   1      41.658  28.594  32.012  1.00  0.00     0.074 A 
ATOM     42  C   UNL A   1      39.830  29.551  30.643  1.00  0.00     0.049 A 
ATOM     43  N   UNL A   1      41.565  29.302  33.106  1.00  0.00    -0.248 NA
ATOM     44  C   UNL A   1      42.700  27.555  32.051  1.00  0.00     0.031 C 
ATOM     45  C   UNL A   1      38.939  29.680  29.490  1.00  0.00     0.029 A 
ATOM     46  N   UNL A   1      39.384  30.505  31.522  1.00  0.00    -0.354 N 
ATOM     47  C   UNL A   1      42.538  28.797  33.960  1.00  0.00     0.074 A 
ATOM     48  C   UNL A   1      43.151  27.672  33.289  1.00  0.00     0.031 C 
ATOM     49  C   UNL A   1      38.068  30.678  29.722  1.00  0.00     0.029 A 
ATOM     50  C   UNL A   1      38.331  31.249  31.042  1.00  0.00     0.049 A 
ATOM     51  H   UNL A   1      39.779  30.643  32.412  1.00  0.00     0.167 HD
ATOM     52  C   UNL A   1      42.919  29.250  35.176  1.00  0.00     0.037 A 
ATOM     53  C   UNL A   1      37.674  32.284  31.603  1.00  0.00     0.037 A 
ATOM     54  C   UNL A   1      42.310  30.373  35.834  1.00  0.00     0.049 A 
ATOM     55  C   UNL A   1      38.101  32.773  32.963  1.00  0.00     0.074 A 
ATOM     56  C   UNL A   1      42.626  30.936  37.055  1.00  0.00     0.029 A 
ATOM     57  N   UNL A   1      41.254  31.106  35.312  1.00  0.00    -0.354 N 
ATOM     58  N   UNL A   1      39.058  32.319  33.738  1.00  0.00    -0.248 NA
ATOM     59  C   UNL A   1      37.367  33.917  33.521  1.00  0.00     0.031 C 
ATOM     60  C   UNL A   1      41.744  31.998  37.283  1.00  0.00     0.029 A 
ATOM     61  C   UNL A   1      40.900  32.116  36.189  1.00  0.00     0.049 A 
ATOM     62  H   UNL A   1      40.819  30.933  34.446  1.00  0.00     0.167 HD
ATOM     63  C   UNL A   1      39.056  33.135  34.866  1.00  0.00     0.074 A 
ATOM     64  C   UNL A   1      38.006  34.114  34.667  1.00  0.00     0.031 C 
ATOM     65  C   UNL A   1      39.849  33.079  35.964  1.00  0.00     0.037 A 
BRANCH  52  66
ATOM     66  C   UNL A   1      44.056  28.525  35.840  1.00  0.00     0.058 A 
ATOM     67  C   UNL A   1      43.817  27.473  36.742  1.00  0.00     0.135 A 
ATOM     68  C   UNL A   1      45.387  28.917  35.628  1.00  0.00     0.135 A 
ATOM     69  F   UNL A   1      42.560  27.073  36.995  1.00  0.00    -0.206 F 
ATOM     70  C   UNL A   1      44.850  26.880  37.458  1.00  0.00     0.059 A 
ATOM     71  C   UNL A   1      46.440  28.316  36.313  1.00  0.00     0.059 A 
ATOM     72  F   UNL A   1      45.672  29.914  34.777  1.00  0.00    -0.206 F 
ATOM     73  C   UNL A   1      46.158  27.318  37.247  1.00  0.00     0.060 A 
BRANCH  73  74
ATOM     74  S   UNL A   1      47.481  26.580  38.228  1.00  0.00     0.124 S 
ATOM     75  O   UNL A   1      46.832  26.439  39.528  1.00  0.00    -0.237 OA
ATOM     76  O   UNL A   1      47.745  25.335  37.514  1.00  0.00    -0.237 OA
ATOM     77  O   UNL A   1      48.546  27.575  38.162  1.00  0.00    -0.744 OA
ENDBRANCH  73  74
ENDBRANCH  52  66
BRANCH  53  78
ATOM     78  C   UNL A   1      36.603  32.975  30.839  1.00  0.00     0.058 A 
ATOM     79  C   UNL A   1      35.256  32.799  31.189  1.00  0.00     0.135 A 
ATOM     80  C   UNL A   1      36.896  33.863  29.793  1.00  0.00     0.135 A 
ATOM     81  F   UNL A   1      34.925  31.953  32.178  1.00  0.00    -0.206 F 
ATOM     82  C   UNL A   1      34.236  33.486  30.538  1.00  0.00     0.059 A 
ATOM     83  C   UNL A   1      35.894  34.574  29.136  1.00  0.00     0.059 A 
ATOM     84  F   UNL A   1      38.169  34.075  29.429  1.00  0.00    -0.206 F 
ATOM     85  C   UNL A   1      34.567  34.380  29.520  1.00  0.00     0.060 A 
BRANCH  85  86
ATOM     86  S   UNL A   1      33.241  35.341  28.754  1.00  0.00     0.124 S 
ATOM     87  O   UNL A   1      32.526  34.313  28.006  1.00  0.00    -0.237 OA
ATOM     88  O   UNL A   1      32.550  35.882  29.919  1.00  0.00    -0.237 OA
ATOM     89  O   UNL A   1      33.961  36.322  27.948  1.00  0.00    -0.744 OA
ENDBRANCH  85  86
ENDBRANCH  53  78
BRANCH  65  90
ATOM     90  C   UNL A   1      39.627  34.107  37.037  1.00  0.00     0.058 A 
ATOM     91  C   UNL A   1      38.870  33.815  38.180  1.00  0.00     0.135 A 
ATOM     92  C   UNL A   1      40.264  35.356  36.969  1.00  0.00     0.135 A 
ATOM     93  F   UNL A   1      38.237  32.635  38.289  1.00  0.00    -0.206 F 
ATOM     94  C   UNL A   1      38.748  34.728  39.221  1.00  0.00     0.059 A 
ATOM     95  C   UNL A   1      40.174  36.277  38.007  1.00  0.00     0.059 A 
ATOM     96  F   UNL A   1      41.009  35.678  35.898  1.00  0.00    -0.206 F 
ATOM     97  C   UNL A   1      39.412  35.954  39.129  1.00  0.00     0.060 A 
BRANCH  97  98
ATOM     98  S   UNL A   1      39.302  37.101  40.520  1.00  0.00     0.124 S 
ATOM     99  O   UNL A   1      40.710  37.342  40.813  1.00  0.00    -0.237 OA
ATOM    100  O   UNL A   1      38.573  38.225  39.940  1.00  0.00    -0.237 OA
ATOM    101  O   UNL A   1      38.570  36.341  41.529  1.00  0.00    -0.744 OA
ENDBRANCH  97  98
ENDBRANCH  65  90
ENDBRANCH  39  40
ENDBRANCH  32  34
ENDBRANCH  31  32
ENDBRANCH  30  31
ENDBRANCH   1  30
TORSDOF 18
ENDMDL
MODEL 3
REMARK VINA RESULT:     -12.7      5.937     11.733
REMARK SMILES Cc1cc(=O)c(Oc2ccc(C(=O)OCCOC(=O)c3ccc(-c4c5nc(c(-c6c(F)cc(S(=O)(=O)[O-])cc6F)c6ccc([nH]6)c(-c6c(F)cc(S(=O)(=O)[O-])cc6F)c6nc(c(-c7c(F)cc(S(=O)(=O)[O-])cc7F)c7ccc4[nH]7)C=C6)C=C5)cc3)cc2)c(-c2ccc(S(C)(=O)=O)cc2)o1
REMARK SMILES IDX 15 1 14 2 12 3 13 4 11 5 8 6 9 7 87 8 10 9 86 10 7 11 6 12
REMARK SMILES IDX 1 13 2 14 3 15 99 16 4 17 88 18 5 19 89 20 90 21 98 22 91 23
REMARK SMILES IDX 97 24 92 25 93 26 94 27 95 28 96 29 16 30 17 31 18 32 19 33
REMARK SMILES IDX 20 34 21 35 85 36 22 37 84 38 23 39 24 40 25 41 78 42 26 43
REMARK SMILES IDX 83 44 77 45 79 46 27 47 82 48 76 49 75 50 28 52 62 53 41 54
REMARK SMILES IDX 61 55 42 56 45 57 60 58 80 59 43 60 44 61 59 63 81 64 46 65
REMARK SMILES IDX 29 66 30 67 39 68 31 69 32 70 38 71 40 72 33 73 34 74 35 75
REMARK SMILES IDX 36 76 37 77 63 78 64 79 73 80 65 81 66 82 72 83 74 84 67 85
REMARK SMILES IDX 68 86 69 87 70 88 71 89 47 90 48 91 57 92 49 93 50 94 56 95
REMARK SMILES IDX 58 96 51 97 52 98 53 99 54 100 55 101
REMARK H PARENT 79 51 45 62
REMARK Flexibility Score: inf
ROOT
ATOM      1  C   UNL A   1      40.215  21.563  26.590  1.00  0.00     0.275 C 
ENDROOT
BRANCH   1   2
ATOM      2  O   UNL A   1      38.967  21.774  25.898  1.00  0.00    -0.458 OA
BRANCH   2   3
ATOM      3  C   UNL A   1      38.277  22.901  26.217  1.00  0.00     0.338 C 
ATOM      4  O   UNL A   1      38.587  23.715  27.073  1.00  0.00    -0.246 OA
BRANCH   3   5
ATOM      5  C   UNL A   1      37.159  23.111  25.256  1.00  0.00     0.060 A 
ATOM      6  C   UNL A   1      35.236  23.898  23.383  1.00  0.00     0.127 A 
ATOM      7  C   UNL A   1      35.170  24.399  24.678  1.00  0.00     0.048 A 
ATOM      8  C   UNL A   1      36.183  22.920  23.055  1.00  0.00     0.048 A 
ATOM      9  C   UNL A   1      36.120  23.985  25.620  1.00  0.00     0.019 A 
ATOM     10  C   UNL A   1      37.162  22.547  23.977  1.00  0.00     0.019 A 
BRANCH   6  11
ATOM     11  O   UNL A   1      34.358  24.234  22.389  1.00  0.00    -0.449 OA
BRANCH  11  12
ATOM     12  C   UNL A   1      33.037  24.567  22.641  1.00  0.00     0.217 A 
ATOM     13  C   UNL A   1      29.237  26.013  24.092  1.00  0.00     0.088 C 
ATOM     14  C   UNL A   1      30.562  25.642  23.503  1.00  0.00     0.105 A 
ATOM     15  C   UNL A   1      31.492  26.533  23.153  1.00  0.00     0.098 A 
ATOM     16  O   UNL A   1      30.754  24.286  23.368  1.00  0.00    -0.457 OA
ATOM     17  C   UNL A   1      32.779  26.044  22.634  1.00  0.00     0.228 A 
ATOM     18  C   UNL A   1      32.010  23.776  23.040  1.00  0.00     0.180 A 
ATOM     19  O   UNL A   1      33.622  26.857  22.261  1.00  0.00    -0.285 OA
BRANCH  18  20
ATOM     20  C   UNL A   1      32.020  22.318  23.291  1.00  0.00     0.021 A 
ATOM     21  C   UNL A   1      32.323  21.846  24.582  1.00  0.00     0.013 A 
ATOM     22  C   UNL A   1      31.930  21.389  22.247  1.00  0.00     0.013 A 
ATOM     23  C   UNL A   1      32.553  20.485  24.821  1.00  0.00     0.021 A 
ATOM     24  C   UNL A   1      32.137  20.026  22.483  1.00  0.00     0.021 A 
ATOM     25  C   UNL A   1      32.469  19.578  23.767  1.00  0.00     0.067 A 
BRANCH  25  26
ATOM     26  S   UNL A   1      32.868  17.857  23.999  1.00  0.00     0.175 S 
ATOM     27  C   UNL A   1      34.569  17.822  24.489  1.00  0.00     0.163 C 
ATOM     28  O   UNL A   1      32.093  17.340  25.110  1.00  0.00    -0.224 OA
ATOM     29  O   UNL A   1      32.796  17.221  22.695  1.00  0.00    -0.224 OA
ENDBRANCH  25  26
ENDBRANCH  18  20
ENDBRANCH  11  12
ENDBRANCH   6  11
ENDBRANCH   3   5
ENDBRANCH   2   3
ENDBRANCH   1   2
BRANCH   1  30
ATOM     30  C   UNL A   1      41.361  22.389  25.985  1.00  0.00     0.275 C 
BRANCH  30  31
ATOM     31  O   UNL A   1      41.995  23.275  26.929  1.00  0.00    -0.458 OA
BRANCH  31  32
ATOM     32  C   UNL A   1      42.196  24.524  26.453  1.00  0.00     0.338 C 
ATOM     33  O   UNL A   1      42.453  24.825  25.296  1.00  0.00    -0.246 OA
BRANCH  32  34
ATOM     34  C   UNL A   1      42.023  25.561  27.485  1.00  0.00     0.060 A 
ATOM     35  C   UNL A   1      42.777  26.737  27.506  1.00  0.00     0.016 A 
ATOM     36  C   UNL A   1      40.946  25.402  28.360  1.00  0.00     0.016 A 
ATOM     37  C   UNL A   1      42.460  27.743  28.431  1.00  0.00     0.010 A 
ATOM     38  C   UNL A   1      40.618  26.404  29.264  1.00  0.00     0.010 A 
ATOM     39  C   UNL A   1      41.390  27.570  29.323  1.00  0.00    -0.014 A 
BRANCH  39  40
ATOM     40  C   UNL A   1      41.138  28.514  30.436  1.00  0.00     0.031 A 
ATOM     41  C   UNL A   1      42.018  28.425  31.651  1.00  0.00     0.074 A 
ATOM     42  C   UNL A   1      40.107  29.377  30.399  1.00  0.00     0.049 A 
ATOM     43  N   UNL A   1      41.966  29.102  32.767  1.00  0.00    -0.248 NA
ATOM     44  C   UNL A   1      43.082  27.407  31.611  1.00  0.00     0.031 C 
ATOM     45  C   UNL A   1      39.158  29.517  29.295  1.00  0.00     0.029 A 
ATOM     46  N   UNL A   1      39.685  30.298  31.324  1.00  0.00    -0.354 N 
ATOM     47  C   UNL A   1      42.989  28.596  33.559  1.00  0.00     0.074 A 
ATOM     48  C   UNL A   1      43.591  27.502  32.829  1.00  0.00     0.031 C 
ATOM     49  C   UNL A   1      38.279  30.490  29.595  1.00  0.00     0.029 A 
ATOM     50  C   UNL A   1      38.596  31.032  30.916  1.00  0.00     0.049 A 
ATOM     51  H   UNL A   1      40.120  30.422  32.197  1.00  0.00     0.167 HD
ATOM     52  C   UNL A   1      43.420  29.026  34.767  1.00  0.00     0.037 A 
ATOM     53  C   UNL A   1      37.947  32.038  31.536  1.00  0.00     0.037 A 
ATOM     54  C   UNL A   1      42.822  30.118  35.483  1.00  0.00     0.049 A 
ATOM     55  C   UNL A   1      38.430  32.501  32.885  1.00  0.00     0.074 A 
ATOM     56  C   UNL A   1      43.186  30.656  36.703  1.00  0.00     0.029 A 
ATOM     57  N   UNL A   1      41.727  30.841  35.034  1.00  0.00    -0.354 N 
ATOM     58  N   UNL A   1      39.432  32.048  33.601  1.00  0.00    -0.248 NA
ATOM     59  C   UNL A   1      37.701  33.614  33.509  1.00  0.00     0.031 C 
ATOM     60  C   UNL A   1      42.296  31.693  37.001  1.00  0.00     0.029 A 
ATOM     61  C   UNL A   1      41.396  31.821  35.953  1.00  0.00     0.049 A 
ATOM     62  H   UNL A   1      41.253  30.681  34.185  1.00  0.00     0.167 HD
ATOM     63  C   UNL A   1      39.469  32.833  34.749  1.00  0.00     0.074 A 
ATOM     64  C   UNL A   1      38.391  33.795  34.628  1.00  0.00     0.031 C 
ATOM     65  C   UNL A   1      40.316  32.767  35.805  1.00  0.00     0.037 A 
BRANCH  52  66
ATOM     66  C   UNL A   1      44.603  28.308  35.355  1.00  0.00     0.058 A 
ATOM     67  C   UNL A   1      45.917  28.705  35.048  1.00  0.00     0.135 A 
ATOM     68  C   UNL A   1      44.433  27.183  36.176  1.00  0.00     0.135 A 
ATOM     69  F   UNL A   1      46.134  29.763  34.250  1.00  0.00    -0.206 F 
ATOM     70  C   UNL A   1      47.017  27.974  35.480  1.00  0.00     0.059 A 
ATOM     71  C   UNL A   1      45.523  26.453  36.645  1.00  0.00     0.059 A 
ATOM     72  F   UNL A   1      43.202  26.762  36.501  1.00  0.00    -0.206 F 
ATOM     73  C   UNL A   1      46.809  26.841  36.267  1.00  0.00     0.060 A 
BRANCH  73  74
ATOM     74  S   UNL A   1      48.244  25.868  36.770  1.00  0.00     0.124 S 
ATOM     75  O   UNL A   1      49.150  26.088  35.647  1.00  0.00    -0.237 OA
ATOM     76  O   UNL A   1      48.628  26.502  38.027  1.00  0.00    -0.237 OA
ATOM     77  O   UNL A   1      47.711  24.515  36.891  1.00  0.00    -0.744 OA
ENDBRANCH  73  74
ENDBRANCH  52  66
BRANCH  53  78
ATOM     78  C   UNL A   1      36.825  32.725  30.843  1.00  0.00     0.058 A 
ATOM     79  C   UNL A   1      35.495  32.430  31.180  1.00  0.00     0.135 A 
ATOM     80  C   UNL A   1      37.050  33.724  29.884  1.00  0.00     0.135 A 
ATOM     81  F   UNL A   1      35.230  31.476  32.087  1.00  0.00    -0.206 F 
ATOM     82  C   UNL A   1      34.427  33.106  30.600  1.00  0.00     0.059 A 
ATOM     83  C   UNL A   1      35.998  34.426  29.300  1.00  0.00     0.059 A 
ATOM     84  F   UNL A   1      38.303  34.052  29.537  1.00  0.00    -0.206 F 
ATOM     85  C   UNL A   1      34.690  34.111  29.668  1.00  0.00     0.060 A 
BRANCH  85  86
ATOM     86  S   UNL A   1      33.297  35.049  29.001  1.00  0.00     0.124 S 
ATOM     87  O   UNL A   1      32.749  34.112  28.027  1.00  0.00    -0.237 OA
ATOM     88  O   UNL A   1      32.488  35.279  30.193  1.00  0.00    -0.237 OA
ATOM     89  O   UNL A   1      33.931  36.240  28.444  1.00  0.00    -0.744 OA
ENDBRANCH  85  86
ENDBRANCH  53  78
BRANCH  65  90
ATOM     90  C   UNL A   1      40.127  33.762  36.915  1.00  0.00     0.058 A 
ATOM     91  C   UNL A   1      40.738  35.023  36.875  1.00  0.00     0.135 A 
ATOM     92  C   UNL A   1      39.244  33.489  37.972  1.00  0.00     0.135 A 
ATOM     93  F   UNL A   1      41.594  35.328  35.886  1.00  0.00    -0.206 F 
ATOM     94  C   UNL A   1      40.483  35.982  37.848  1.00  0.00     0.059 A 
ATOM     95  C   UNL A   1      38.958  34.441  38.945  1.00  0.00     0.059 A 
ATOM     96  F   UNL A   1      38.627  32.298  38.048  1.00  0.00    -0.206 F 
ATOM     97  C   UNL A   1      39.584  35.684  38.876  1.00  0.00     0.060 A 
BRANCH  97  98
ATOM     98  S   UNL A   1      39.210  36.965  40.092  1.00  0.00     0.124 S 
ATOM     99  O   UNL A   1      38.354  36.241  41.026  1.00  0.00    -0.237 OA
ATOM    100  O   UNL A   1      40.536  37.319  40.590  1.00  0.00    -0.237 OA
ATOM    101  O   UNL A   1      38.547  37.999  39.303  1.00  0.00    -0.744 OA
ENDBRANCH  97  98
ENDBRANCH  65  90
ENDBRANCH  39  40
ENDBRANCH  32  34
ENDBRANCH  31  32
ENDBRANCH  30  31
ENDBRANCH   1  30
TORSDOF 18
ENDMDL
