MODEL 1
REMARK VINA RESULT:     -13.0      0.000      0.000
REMARK SMILES Cc1ccccc1CNc1ccc(C(=O)OCCOC(=O)c2ccc(-c3c4nc(c(-c5c(F)cc(S(=O)(=O)[O-])cc5F)c5ccc([nH]5)c(-c5c(F)cc(S(=O)(=O)[O-])cc5F)c5nc(c(-c6c(F)cc(S(=O)(=O)[O-])cc6F)c6ccc3[nH]6)C=C5)C=C4)cc2)c(F)c1F
REMARK SMILES IDX 17 1 16 2 14 3 15 4 13 5 10 6 11 7 90 8 12 9 88 10 91 11
REMARK SMILES IDX 89 12 9 13 8 15 7 16 1 17 2 18 3 19 4 20 6 21 5 22 18 23
REMARK SMILES IDX 19 24 20 25 21 26 22 27 23 28 87 29 24 30 86 31 25 32 26 33
REMARK SMILES IDX 27 34 80 35 28 36 85 37 79 38 81 39 29 40 84 41 78 42 77 43
REMARK SMILES IDX 30 45 64 46 43 47 63 48 44 49 47 50 62 51 82 52 45 53 46 54
REMARK SMILES IDX 61 56 83 57 48 58 31 59 32 60 41 61 33 62 34 63 40 64 42 65
REMARK SMILES IDX 35 66 36 67 37 68 38 69 39 70 65 71 66 72 75 73 67 74 68 75
REMARK SMILES IDX 74 76 76 77 69 78 70 79 71 80 72 81 73 82 49 83 50 84 59 85
REMARK SMILES IDX 51 86 52 87 58 88 60 89 53 90 54 91 55 92 56 93 57 94
REMARK H PARENT 9 14 81 44 47 55
REMARK Flexibility Score: inf
ROOT
ATOM      1  C   UNL A   1      32.671  30.200  26.294  1.00  0.00     0.275 C 
ENDROOT
BRANCH   1   2
ATOM      2  O   UNL A   1      32.694  28.953  25.575  1.00  0.00    -0.458 OA
BRANCH   2   3
ATOM      3  C   UNL A   1      31.790  28.914  24.568  1.00  0.00     0.341 C 
ATOM      4  O   UNL A   1      30.875  29.713  24.403  1.00  0.00    -0.246 OA
BRANCH   3   5
ATOM      5  C   UNL A   1      31.867  27.695  23.749  1.00  0.00     0.099 A 
ATOM      6  C   UNL A   1      32.389  25.217  22.519  1.00  0.00     0.074 A 
ATOM      7  C   UNL A   1      33.323  26.255  22.448  1.00  0.00     0.030 A 
ATOM      8  C   UNL A   1      31.155  25.479  23.135  1.00  0.00     0.182 A 
ATOM      9  C   UNL A   1      33.075  27.476  23.074  1.00  0.00     0.021 A 
ATOM     10  C   UNL A   1      30.890  26.709  23.735  1.00  0.00     0.175 A 
ATOM     11  F   UNL A   1      30.248  24.492  23.211  1.00  0.00    -0.201 F 
ATOM     12  F   UNL A   1      29.712  26.891  24.335  1.00  0.00    -0.203 F 
BRANCH   6  13
ATOM     13  N   UNL A   1      32.711  23.922  22.100  1.00  0.00    -0.379 N 
ATOM     14  H   UNL A   1      32.770  23.687  21.146  1.00  0.00     0.161 HD
BRANCH  13  15
ATOM     15  C   UNL A   1      32.958  22.938  23.146  1.00  0.00     0.149 C 
BRANCH  15  16
ATOM     16  C   UNL A   1      34.259  23.241  23.853  1.00  0.00    -0.026 A 
ATOM     17  C   UNL A   1      33.106  24.123  25.962  1.00  0.00     0.044 C 
ATOM     18  C   UNL A   1      34.326  23.779  25.153  1.00  0.00    -0.046 A 
ATOM     19  C   UNL A   1      35.586  23.960  25.750  1.00  0.00     0.004 A 
ATOM     20  C   UNL A   1      36.761  23.660  25.060  1.00  0.00     0.000 A 
ATOM     21  C   UNL A   1      35.456  22.974  23.159  1.00  0.00     0.006 A 
ATOM     22  C   UNL A   1      36.697  23.180  23.758  1.00  0.00     0.000 A 
ENDBRANCH  15  16
ENDBRANCH  13  15
ENDBRANCH   6  13
ENDBRANCH   3   5
ENDBRANCH   2   3
ENDBRANCH   1   2
BRANCH   1  23
ATOM     23  C   UNL A   1      33.678  30.224  27.458  1.00  0.00     0.275 C 
BRANCH  23  24
ATOM     24  O   UNL A   1      35.058  29.966  27.133  1.00  0.00    -0.458 OA
BRANCH  24  25
ATOM     25  C   UNL A   1      35.981  30.525  27.967  1.00  0.00     0.338 C 
ATOM     26  O   UNL A   1      35.738  31.457  28.708  1.00  0.00    -0.246 OA
BRANCH  25  27
ATOM     27  C   UNL A   1      37.156  29.605  28.011  1.00  0.00     0.060 A 
ATOM     28  C   UNL A   1      38.218  29.774  27.114  1.00  0.00     0.016 A 
ATOM     29  C   UNL A   1      37.311  28.786  29.134  1.00  0.00     0.016 A 
ATOM     30  C   UNL A   1      39.474  29.235  27.404  1.00  0.00     0.010 A 
ATOM     31  C   UNL A   1      38.565  28.345  29.478  1.00  0.00     0.010 A 
ATOM     32  C   UNL A   1      39.643  28.553  28.607  1.00  0.00    -0.014 A 
BRANCH  32  33
ATOM     33  C   UNL A   1      40.796  27.732  28.947  1.00  0.00     0.031 A 
ATOM     34  C   UNL A   1      40.988  26.339  28.511  1.00  0.00     0.074 A 
ATOM     35  C   UNL A   1      41.787  28.472  29.485  1.00  0.00     0.049 A 
ATOM     36  N   UNL A   1      41.967  25.598  28.906  1.00  0.00    -0.248 NA
ATOM     37  C   UNL A   1      40.083  25.638  27.611  1.00  0.00     0.031 C 
ATOM     38  C   UNL A   1      43.210  28.211  29.585  1.00  0.00     0.029 A 
ATOM     39  N   UNL A   1      41.609  29.650  30.201  1.00  0.00    -0.354 N 
ATOM     40  C   UNL A   1      41.995  24.457  28.129  1.00  0.00     0.074 A 
ATOM     41  C   UNL A   1      40.749  24.494  27.400  1.00  0.00     0.031 C 
ATOM     42  C   UNL A   1      43.729  29.039  30.512  1.00  0.00     0.029 A 
ATOM     43  C   UNL A   1      42.612  29.729  31.154  1.00  0.00     0.049 A 
ATOM     44  H   UNL A   1      40.895  30.314  30.057  1.00  0.00     0.167 HD
ATOM     45  C   UNL A   1      43.143  23.710  28.118  1.00  0.00     0.037 A 
ATOM     46  C   UNL A   1      42.250  29.568  32.463  1.00  0.00     0.037 A 
ATOM     47  C   UNL A   1      44.072  24.227  29.129  1.00  0.00     0.049 A 
ATOM     48  C   UNL A   1      42.835  28.299  33.036  1.00  0.00     0.074 A 
ATOM     49  C   UNL A   1      45.144  25.103  29.043  1.00  0.00     0.029 A 
ATOM     50  N   UNL A   1      43.739  24.141  30.479  1.00  0.00    -0.354 N 
ATOM     51  N   UNL A   1      43.070  27.211  32.351  1.00  0.00    -0.248 NA
ATOM     52  C   UNL A   1      43.313  28.220  34.410  1.00  0.00     0.031 C 
ATOM     53  C   UNL A   1      45.374  25.633  30.339  1.00  0.00     0.029 A 
ATOM     54  C   UNL A   1      44.470  25.054  31.217  1.00  0.00     0.049 A 
ATOM     55  H   UNL A   1      43.078  23.517  30.856  1.00  0.00     0.167 HD
ATOM     56  C   UNL A   1      43.793  26.340  33.126  1.00  0.00     0.074 A 
ATOM     57  C   UNL A   1      43.900  27.011  34.412  1.00  0.00     0.031 C 
ATOM     58  C   UNL A   1      44.312  25.163  32.660  1.00  0.00     0.037 A 
BRANCH  45  59
ATOM     59  C   UNL A   1      43.566  22.722  27.033  1.00  0.00     0.058 A 
ATOM     60  C   UNL A   1      42.895  21.481  26.892  1.00  0.00     0.135 A 
ATOM     61  C   UNL A   1      44.652  22.884  26.149  1.00  0.00     0.135 A 
ATOM     62  F   UNL A   1      41.790  21.197  27.595  1.00  0.00    -0.206 F 
ATOM     63  C   UNL A   1      43.324  20.461  26.033  1.00  0.00     0.059 A 
ATOM     64  C   UNL A   1      45.119  21.868  25.301  1.00  0.00     0.059 A 
ATOM     65  F   UNL A   1      45.290  24.052  26.028  1.00  0.00    -0.206 F 
ATOM     66  C   UNL A   1      44.459  20.649  25.261  1.00  0.00     0.060 A 
BRANCH  66  67
ATOM     67  S   UNL A   1      45.033  19.305  24.204  1.00  0.00     0.124 S 
ATOM     68  O   UNL A   1      44.408  18.140  24.824  1.00  0.00    -0.237 OA
ATOM     69  O   UNL A   1      44.508  19.690  22.899  1.00  0.00    -0.237 OA
ATOM     70  O   UNL A   1      46.488  19.369  24.332  1.00  0.00    -0.744 OA
ENDBRANCH  66  67
ENDBRANCH  45  59
BRANCH  46  71
ATOM     71  C   UNL A   1      40.914  30.165  32.795  1.00  0.00     0.058 A 
ATOM     72  C   UNL A   1      40.812  31.574  32.800  1.00  0.00     0.135 A 
ATOM     73  C   UNL A   1      39.709  29.446  32.751  1.00  0.00     0.135 A 
ATOM     74  F   UNL A   1      41.926  32.324  32.840  1.00  0.00    -0.206 F 
ATOM     75  C   UNL A   1      39.597  32.236  32.642  1.00  0.00     0.059 A 
ATOM     76  C   UNL A   1      38.471  30.093  32.610  1.00  0.00     0.059 A 
ATOM     77  F   UNL A   1      39.719  28.106  32.743  1.00  0.00    -0.206 F 
ATOM     78  C   UNL A   1      38.434  31.485  32.507  1.00  0.00     0.060 A 
BRANCH  78  79
ATOM     79  S   UNL A   1      36.921  32.362  32.037  1.00  0.00     0.124 S 
ATOM     80  O   UNL A   1      37.376  33.161  30.904  1.00  0.00    -0.237 OA
ATOM     81  O   UNL A   1      36.029  31.252  31.710  1.00  0.00    -0.237 OA
ATOM     82  O   UNL A   1      36.580  33.111  33.242  1.00  0.00    -0.744 OA
ENDBRANCH  78  79
ENDBRANCH  46  71
BRANCH  58  83
ATOM     83  C   UNL A   1      44.862  24.058  33.531  1.00  0.00     0.058 A 
ATOM     84  C   UNL A   1      44.094  22.971  33.984  1.00  0.00     0.135 A 
ATOM     85  C   UNL A   1      46.249  23.980  33.815  1.00  0.00     0.135 A 
ATOM     86  F   UNL A   1      42.796  22.850  33.666  1.00  0.00    -0.206 F 
ATOM     87  C   UNL A   1      44.635  21.935  34.742  1.00  0.00     0.059 A 
ATOM     88  C   UNL A   1      46.821  22.920  34.512  1.00  0.00     0.059 A 
ATOM     89  F   UNL A   1      47.108  24.924  33.405  1.00  0.00    -0.206 F 
ATOM     90  C   UNL A   1      46.000  21.917  35.001  1.00  0.00     0.060 A 
BRANCH  90  91
ATOM     91  S   UNL A   1      46.714  20.547  35.924  1.00  0.00     0.124 S 
ATOM     92  O   UNL A   1      46.296  19.406  35.117  1.00  0.00    -0.237 OA
ATOM     93  O   UNL A   1      48.142  20.850  35.897  1.00  0.00    -0.237 OA
ATOM     94  O   UNL A   1      46.082  20.664  37.235  1.00  0.00    -0.744 OA
ENDBRANCH  90  91
ENDBRANCH  58  83
ENDBRANCH  32  33
ENDBRANCH  25  27
ENDBRANCH  24  25
ENDBRANCH  23  24
ENDBRANCH   1  23
TORSDOF 17
ENDMDL
MODEL 2
REMARK VINA RESULT:     -12.9      0.850      1.644
REMARK SMILES Cc1ccccc1CNc1ccc(C(=O)OCCOC(=O)c2ccc(-c3c4nc(c(-c5c(F)cc(S(=O)(=O)[O-])cc5F)c5ccc([nH]5)c(-c5c(F)cc(S(=O)(=O)[O-])cc5F)c5nc(c(-c6c(F)cc(S(=O)(=O)[O-])cc6F)c6ccc3[nH]6)C=C5)C=C4)cc2)c(F)c1F
REMARK SMILES IDX 17 1 16 2 14 3 15 4 13 5 10 6 11 7 90 8 12 9 88 10 91 11
REMARK SMILES IDX 89 12 9 13 8 15 7 16 1 17 2 18 3 19 4 20 6 21 5 22 18 23
REMARK SMILES IDX 19 24 20 25 21 26 22 27 23 28 87 29 24 30 86 31 25 32 26 33
REMARK SMILES IDX 27 34 80 35 28 36 85 37 79 38 81 39 29 40 84 41 78 42 77 43
REMARK SMILES IDX 30 45 64 46 43 47 63 48 44 49 47 50 62 51 82 52 45 53 46 54
REMARK SMILES IDX 61 56 83 57 48 58 31 59 32 60 41 61 33 62 34 63 40 64 42 65
REMARK SMILES IDX 35 66 36 67 37 68 38 69 39 70 65 71 66 72 75 73 67 74 68 75
REMARK SMILES IDX 74 76 76 77 69 78 70 79 71 80 72 81 73 82 49 83 50 84 59 85
REMARK SMILES IDX 51 86 52 87 58 88 60 89 53 90 54 91 55 92 56 93 57 94
REMARK H PARENT 9 14 81 44 47 55
REMARK Flexibility Score: inf
ROOT
ATOM      1  C   UNL A   1      32.735  30.475  26.253  1.00  0.00     0.275 C 
ENDROOT
BRANCH   1   2
ATOM      2  O   UNL A   1      32.498  29.135  25.782  1.00  0.00    -0.458 OA
BRANCH   2   3
ATOM      3  C   UNL A   1      31.641  29.094  24.735  1.00  0.00     0.341 C 
ATOM      4  O   UNL A   1      30.722  29.881  24.537  1.00  0.00    -0.246 OA
BRANCH   3   5
ATOM      5  C   UNL A   1      31.774  27.886  23.907  1.00  0.00     0.099 A 
ATOM      6  C   UNL A   1      32.384  25.425  22.681  1.00  0.00     0.074 A 
ATOM      7  C   UNL A   1      33.317  26.466  22.685  1.00  0.00     0.030 A 
ATOM      8  C   UNL A   1      31.111  25.677  23.219  1.00  0.00     0.182 A 
ATOM      9  C   UNL A   1      33.025  27.678  23.310  1.00  0.00     0.021 A 
ATOM     10  C   UNL A   1      30.803  26.899  23.816  1.00  0.00     0.175 A 
ATOM     11  F   UNL A   1      30.203  24.687  23.222  1.00  0.00    -0.201 F 
ATOM     12  F   UNL A   1      29.588  27.070  24.340  1.00  0.00    -0.203 F 
BRANCH   6  13
ATOM     13  N   UNL A   1      32.736  24.137  22.268  1.00  0.00    -0.379 N 
ATOM     14  H   UNL A   1      32.813  23.903  21.315  1.00  0.00     0.161 HD
BRANCH  13  15
ATOM     15  C   UNL A   1      32.985  23.158  23.318  1.00  0.00     0.149 C 
BRANCH  15  16
ATOM     16  C   UNL A   1      34.366  23.354  23.899  1.00  0.00    -0.026 A 
ATOM     17  C   UNL A   1      33.498  24.491  26.023  1.00  0.00     0.044 C 
ATOM     18  C   UNL A   1      34.600  23.962  25.149  1.00  0.00    -0.046 A 
ATOM     19  C   UNL A   1      35.919  24.034  25.633  1.00  0.00     0.004 A 
ATOM     20  C   UNL A   1      36.992  23.561  24.877  1.00  0.00     0.000 A 
ATOM     21  C   UNL A   1      35.465  22.910  23.136  1.00  0.00     0.006 A 
ATOM     22  C   UNL A   1      36.766  23.012  23.622  1.00  0.00     0.000 A 
ENDBRANCH  15  16
ENDBRANCH  13  15
ENDBRANCH   6  13
ENDBRANCH   3   5
ENDBRANCH   2   3
ENDBRANCH   1   2
BRANCH   1  23
ATOM     23  C   UNL A   1      33.675  30.510  27.471  1.00  0.00     0.275 C 
BRANCH  23  24
ATOM     24  O   UNL A   1      35.031  30.069  27.263  1.00  0.00    -0.458 OA
BRANCH  24  25
ATOM     25  C   UNL A   1      35.963  30.584  28.116  1.00  0.00     0.338 C 
ATOM     26  O   UNL A   1      35.734  31.490  28.892  1.00  0.00    -0.246 OA
BRANCH  25  27
ATOM     27  C   UNL A   1      37.125  29.646  28.123  1.00  0.00     0.060 A 
ATOM     28  C   UNL A   1      38.101  29.725  27.122  1.00  0.00     0.016 A 
ATOM     29  C   UNL A   1      37.374  28.913  29.288  1.00  0.00     0.016 A 
ATOM     30  C   UNL A   1      39.371  29.184  27.336  1.00  0.00     0.010 A 
ATOM     31  C   UNL A   1      38.648  28.474  29.548  1.00  0.00     0.010 A 
ATOM     32  C   UNL A   1      39.643  28.593  28.568  1.00  0.00    -0.014 A 
BRANCH  32  33
ATOM     33  C   UNL A   1      40.812  27.778  28.863  1.00  0.00     0.031 A 
ATOM     34  C   UNL A   1      40.954  26.357  28.501  1.00  0.00     0.074 A 
ATOM     35  C   UNL A   1      41.851  28.534  29.271  1.00  0.00     0.049 A 
ATOM     36  N   UNL A   1      41.954  25.628  28.861  1.00  0.00    -0.248 NA
ATOM     37  C   UNL A   1      39.971  25.616  27.724  1.00  0.00     0.031 C 
ATOM     38  C   UNL A   1      43.274  28.259  29.270  1.00  0.00     0.029 A 
ATOM     39  N   UNL A   1      41.744  29.757  29.924  1.00  0.00    -0.354 N 
ATOM     40  C   UNL A   1      41.907  24.441  28.158  1.00  0.00     0.074 A 
ATOM     41  C   UNL A   1      40.606  24.451  27.532  1.00  0.00     0.031 C 
ATOM     42  C   UNL A   1      43.876  29.135  30.098  1.00  0.00     0.029 A 
ATOM     43  C   UNL A   1      42.824  29.879  30.784  1.00  0.00     0.049 A 
ATOM     44  H   UNL A   1      41.028  30.421  29.797  1.00  0.00     0.167 HD
ATOM     45  C   UNL A   1      43.042  23.678  28.100  1.00  0.00     0.037 A 
ATOM     46  C   UNL A   1      42.569  29.805  32.126  1.00  0.00     0.037 A 
ATOM     47  C   UNL A   1      44.057  24.242  28.997  1.00  0.00     0.049 A 
ATOM     48  C   UNL A   1      43.187  28.565  32.728  1.00  0.00     0.074 A 
ATOM     49  C   UNL A   1      45.126  25.094  28.769  1.00  0.00     0.029 A 
ATOM     50  N   UNL A   1      43.836  24.245  30.373  1.00  0.00    -0.354 N 
ATOM     51  N   UNL A   1      43.354  27.434  32.096  1.00  0.00    -0.248 NA
ATOM     52  C   UNL A   1      43.776  28.564  34.061  1.00  0.00     0.031 C 
ATOM     53  C   UNL A   1      45.468  25.700  30.005  1.00  0.00     0.029 A 
ATOM     54  C   UNL A   1      44.634  25.191  30.990  1.00  0.00     0.049 A 
ATOM     55  H   UNL A   1      43.201  23.655  30.840  1.00  0.00     0.167 HD
ATOM     56  C   UNL A   1      44.129  26.602  32.863  1.00  0.00     0.074 A 
ATOM     57  C   UNL A   1      44.349  27.350  34.091  1.00  0.00     0.031 C 
ATOM     58  C   UNL A   1      44.596  25.391  32.431  1.00  0.00     0.037 A 
BRANCH  45  59
ATOM     59  C   UNL A   1      43.365  22.618  27.048  1.00  0.00     0.058 A 
ATOM     60  C   UNL A   1      42.674  21.379  27.043  1.00  0.00     0.135 A 
ATOM     61  C   UNL A   1      44.374  22.710  26.068  1.00  0.00     0.135 A 
ATOM     62  F   UNL A   1      41.630  21.155  27.852  1.00  0.00    -0.206 F 
ATOM     63  C   UNL A   1      43.021  20.303  26.217  1.00  0.00     0.059 A 
ATOM     64  C   UNL A   1      44.760  21.636  25.250  1.00  0.00     0.059 A 
ATOM     65  F   UNL A   1      45.009  23.860  25.820  1.00  0.00    -0.206 F 
ATOM     66  C   UNL A   1      44.088  20.427  25.342  1.00  0.00     0.060 A 
BRANCH  66  67
ATOM     67  S   UNL A   1      44.561  19.011  24.329  1.00  0.00     0.124 S 
ATOM     68  O   UNL A   1      44.413  19.540  22.976  1.00  0.00    -0.237 OA
ATOM     69  O   UNL A   1      45.930  18.761  24.767  1.00  0.00    -0.237 OA
ATOM     70  O   UNL A   1      43.591  17.985  24.703  1.00  0.00    -0.744 OA
ENDBRANCH  66  67
ENDBRANCH  45  59
BRANCH  46  71
ATOM     71  C   UNL A   1      41.271  30.442  32.528  1.00  0.00     0.058 A 
ATOM     72  C   UNL A   1      40.237  29.589  32.975  1.00  0.00     0.135 A 
ATOM     73  C   UNL A   1      41.133  31.808  32.822  1.00  0.00     0.135 A 
ATOM     74  F   UNL A   1      40.306  28.270  32.729  1.00  0.00    -0.206 F 
ATOM     75  C   UNL A   1      39.192  30.039  33.778  1.00  0.00     0.059 A 
ATOM     76  C   UNL A   1      40.078  32.286  33.615  1.00  0.00     0.059 A 
ATOM     77  F   UNL A   1      42.070  32.683  32.433  1.00  0.00    -0.206 F 
ATOM     78  C   UNL A   1      39.142  31.385  34.126  1.00  0.00     0.060 A 
BRANCH  78  79
ATOM     79  S   UNL A   1      37.933  31.881  35.381  1.00  0.00     0.124 S 
ATOM     80  O   UNL A   1      36.749  32.144  34.570  1.00  0.00    -0.237 OA
ATOM     81  O   UNL A   1      37.873  30.685  36.218  1.00  0.00    -0.237 OA
ATOM     82  O   UNL A   1      38.552  33.051  35.996  1.00  0.00    -0.744 OA
ENDBRANCH  78  79
ENDBRANCH  46  71
BRANCH  58  83
ATOM     83  C   UNL A   1      45.206  24.333  33.322  1.00  0.00     0.058 A 
ATOM     84  C   UNL A   1      46.529  24.386  33.793  1.00  0.00     0.135 A 
ATOM     85  C   UNL A   1      44.410  23.292  33.862  1.00  0.00     0.135 A 
ATOM     86  F   UNL A   1      47.349  25.397  33.472  1.00  0.00    -0.206 F 
ATOM     87  C   UNL A   1      47.055  23.428  34.658  1.00  0.00     0.059 A 
ATOM     88  C   UNL A   1      44.896  22.364  34.778  1.00  0.00     0.059 A 
ATOM     89  F   UNL A   1      43.117  23.149  33.535  1.00  0.00    -0.206 F 
ATOM     90  C   UNL A   1      46.231  22.421  35.146  1.00  0.00     0.060 A 
BRANCH  90  91
ATOM     91  S   UNL A   1      46.888  21.219  36.313  1.00  0.00     0.124 S 
ATOM     92  O   UNL A   1      45.719  20.381  36.555  1.00  0.00    -0.237 OA
ATOM     93  O   UNL A   1      47.968  20.592  35.556  1.00  0.00    -0.237 OA
ATOM     94  O   UNL A   1      47.320  22.047  37.435  1.00  0.00    -0.744 OA
ENDBRANCH  90  91
ENDBRANCH  58  83
ENDBRANCH  32  33
ENDBRANCH  25  27
ENDBRANCH  24  25
ENDBRANCH  23  24
ENDBRANCH   1  23
TORSDOF 17
ENDMDL
MODEL 3
REMARK VINA RESULT:     -12.7      1.292      1.941
REMARK SMILES Cc1ccccc1CNc1ccc(C(=O)OCCOC(=O)c2ccc(-c3c4nc(c(-c5c(F)cc(S(=O)(=O)[O-])cc5F)c5ccc([nH]5)c(-c5c(F)cc(S(=O)(=O)[O-])cc5F)c5nc(c(-c6c(F)cc(S(=O)(=O)[O-])cc6F)c6ccc3[nH]6)C=C5)C=C4)cc2)c(F)c1F
REMARK SMILES IDX 17 1 16 2 14 3 15 4 13 5 10 6 11 7 90 8 12 9 88 10 91 11
REMARK SMILES IDX 89 12 9 13 8 15 7 16 1 17 2 18 3 19 4 20 6 21 5 22 18 23
REMARK SMILES IDX 19 24 20 25 21 26 22 27 23 28 87 29 24 30 86 31 25 32 26 33
REMARK SMILES IDX 27 34 80 35 28 36 85 37 79 38 81 39 29 40 84 41 78 42 77 43
REMARK SMILES IDX 30 45 64 46 43 47 63 48 44 49 47 50 62 51 82 52 45 53 46 54
REMARK SMILES IDX 61 56 83 57 48 58 31 59 32 60 41 61 33 62 34 63 40 64 42 65
REMARK SMILES IDX 35 66 36 67 37 68 38 69 39 70 65 71 66 72 75 73 67 74 68 75
REMARK SMILES IDX 74 76 76 77 69 78 70 79 71 80 72 81 73 82 49 83 50 84 59 85
REMARK SMILES IDX 51 86 52 87 58 88 60 89 53 90 54 91 55 92 56 93 57 94
REMARK H PARENT 9 14 81 44 47 55
REMARK Flexibility Score: inf
ROOT
ATOM      1  C   UNL A   1      32.842  30.633  27.038  1.00  0.00     0.275 C 
ENDROOT
BRANCH   1   2
ATOM      2  O   UNL A   1      32.884  29.434  26.241  1.00  0.00    -0.458 OA
BRANCH   2   3
ATOM      3  C   UNL A   1      32.155  28.426  26.774  1.00  0.00     0.341 C 
ATOM      4  O   UNL A   1      31.318  28.547  27.662  1.00  0.00    -0.246 OA
BRANCH   3   5
ATOM      5  C   UNL A   1      32.574  27.090  26.328  1.00  0.00     0.099 A 
ATOM      6  C   UNL A   1      33.680  24.535  25.905  1.00  0.00     0.074 A 
ATOM      7  C   UNL A   1      34.466  25.682  25.754  1.00  0.00     0.030 A 
ATOM      8  C   UNL A   1      32.313  24.701  26.179  1.00  0.00     0.182 A 
ATOM      9  C   UNL A   1      33.925  26.947  25.983  1.00  0.00     0.021 A 
ATOM     10  C   UNL A   1      31.761  25.966  26.377  1.00  0.00     0.175 A 
ATOM     11  F   UNL A   1      31.546  23.609  26.326  1.00  0.00    -0.201 F 
ATOM     12  F   UNL A   1      30.462  26.062  26.666  1.00  0.00    -0.203 F 
BRANCH   6  13
ATOM     13  N   UNL A   1      34.253  23.259  25.905  1.00  0.00    -0.379 N 
ATOM     14  H   UNL A   1      34.375  22.748  26.737  1.00  0.00     0.161 HD
BRANCH  13  15
ATOM     15  C   UNL A   1      34.658  22.723  24.612  1.00  0.00     0.149 C 
BRANCH  15  16
ATOM     16  C   UNL A   1      33.934  21.427  24.333  1.00  0.00    -0.026 A 
ATOM     17  C   UNL A   1      32.037  22.563  23.044  1.00  0.00     0.044 C 
ATOM     18  C   UNL A   1      32.731  21.353  23.604  1.00  0.00    -0.046 A 
ATOM     19  C   UNL A   1      32.173  20.090  23.339  1.00  0.00     0.004 A 
ATOM     20  C   UNL A   1      32.764  18.923  23.825  1.00  0.00     0.000 A 
ATOM     21  C   UNL A   1      34.500  20.240  24.843  1.00  0.00     0.006 A 
ATOM     22  C   UNL A   1      33.920  19.000  24.590  1.00  0.00     0.000 A 
ENDBRANCH  15  16
ENDBRANCH  13  15
ENDBRANCH   6  13
ENDBRANCH   3   5
ENDBRANCH   2   3
ENDBRANCH   1   2
BRANCH   1  23
ATOM     23  C   UNL A   1      34.238  31.244  27.250  1.00  0.00     0.275 C 
BRANCH  23  24
ATOM     24  O   UNL A   1      35.326  30.326  27.479  1.00  0.00    -0.458 OA
BRANCH  24  25
ATOM     25  C   UNL A   1      36.049  30.530  28.617  1.00  0.00     0.338 C 
ATOM     26  O   UNL A   1      35.645  31.181  29.561  1.00  0.00    -0.246 OA
BRANCH  25  27
ATOM     27  C   UNL A   1      37.202  29.583  28.588  1.00  0.00     0.060 A 
ATOM     28  C   UNL A   1      38.188  29.703  27.600  1.00  0.00     0.016 A 
ATOM     29  C   UNL A   1      37.433  28.790  29.716  1.00  0.00     0.016 A 
ATOM     30  C   UNL A   1      39.451  29.140  27.798  1.00  0.00     0.010 A 
ATOM     31  C   UNL A   1      38.701  28.327  29.965  1.00  0.00     0.010 A 
ATOM     32  C   UNL A   1      39.707  28.485  29.002  1.00  0.00    -0.014 A 
BRANCH  32  33
ATOM     33  C   UNL A   1      40.865  27.645  29.266  1.00  0.00     0.031 A 
ATOM     34  C   UNL A   1      41.018  26.258  28.794  1.00  0.00     0.074 A 
ATOM     35  C   UNL A   1      41.891  28.363  29.767  1.00  0.00     0.049 A 
ATOM     36  N   UNL A   1      42.006  25.499  29.124  1.00  0.00    -0.248 NA
ATOM     37  C   UNL A   1      40.060  25.586  27.928  1.00  0.00     0.031 C 
ATOM     38  C   UNL A   1      43.314  28.084  29.789  1.00  0.00     0.029 A 
ATOM     39  N   UNL A   1      41.764  29.528  30.514  1.00  0.00    -0.354 N 
ATOM     40  C   UNL A   1      41.981  24.374  28.325  1.00  0.00     0.074 A 
ATOM     41  C   UNL A   1      40.700  24.439  27.661  1.00  0.00     0.031 C 
ATOM     42  C   UNL A   1      43.889  28.888  30.704  1.00  0.00     0.029 A 
ATOM     43  C   UNL A   1      42.816  29.577  31.415  1.00  0.00     0.049 A 
ATOM     44  H   UNL A   1      41.052  30.203  30.419  1.00  0.00     0.167 HD
ATOM     45  C   UNL A   1      43.117  23.614  28.241  1.00  0.00     0.037 A 
ATOM     46  C   UNL A   1      42.518  29.394  32.738  1.00  0.00     0.037 A 
ATOM     47  C   UNL A   1      44.103  24.101  29.213  1.00  0.00     0.049 A 
ATOM     48  C   UNL A   1      43.116  28.107  33.256  1.00  0.00     0.074 A 
ATOM     49  C   UNL A   1      45.179  24.966  29.089  1.00  0.00     0.029 A 
ATOM     50  N   UNL A   1      43.839  23.991  30.576  1.00  0.00    -0.354 N 
ATOM     51  N   UNL A   1      43.303  27.030  32.539  1.00  0.00    -0.248 NA
ATOM     52  C   UNL A   1      43.663  27.995  34.602  1.00  0.00     0.031 C 
ATOM     53  C   UNL A   1      45.482  25.467  30.381  1.00  0.00     0.029 A 
ATOM     54  C   UNL A   1      44.617  24.882  31.293  1.00  0.00     0.049 A 
ATOM     55  H   UNL A   1      43.189  23.368  30.974  1.00  0.00     0.167 HD
ATOM     56  C   UNL A   1      44.053  26.137  33.259  1.00  0.00     0.074 A 
ATOM     57  C   UNL A   1      44.234  26.781  34.551  1.00  0.00     0.031 C 
ATOM     58  C   UNL A   1      44.533  24.963  32.744  1.00  0.00     0.037 A 
BRANCH  45  59
ATOM     59  C   UNL A   1      43.473  22.643  27.116  1.00  0.00     0.058 A 
ATOM     60  C   UNL A   1      42.738  21.442  26.947  1.00  0.00     0.135 A 
ATOM     61  C   UNL A   1      44.551  22.781  26.219  1.00  0.00     0.135 A 
ATOM     62  F   UNL A   1      41.631  21.191  27.660  1.00  0.00    -0.206 F 
ATOM     63  C   UNL A   1      43.101  20.432  26.048  1.00  0.00     0.059 A 
ATOM     64  C   UNL A   1      44.953  21.771  25.330  1.00  0.00     0.059 A 
ATOM     65  F   UNL A   1      45.245  23.919  26.125  1.00  0.00    -0.206 F 
ATOM     66  C   UNL A   1      44.231  20.589  25.262  1.00  0.00     0.060 A 
BRANCH  66  67
ATOM     67  S   UNL A   1      44.720  19.254  24.152  1.00  0.00     0.124 S 
ATOM     68  O   UNL A   1      43.831  18.172  24.563  1.00  0.00    -0.237 OA
ATOM     69  O   UNL A   1      44.455  19.830  22.838  1.00  0.00    -0.237 OA
ATOM     70  O   UNL A   1      46.132  19.049  24.467  1.00  0.00    -0.744 OA
ENDBRANCH  66  67
ENDBRANCH  45  59
BRANCH  46  71
ATOM     71  C   UNL A   1      41.209  29.999  33.149  1.00  0.00     0.058 A 
ATOM     72  C   UNL A   1      41.155  31.404  33.293  1.00  0.00     0.135 A 
ATOM     73  C   UNL A   1      39.979  29.327  33.057  1.00  0.00     0.135 A 
ATOM     74  F   UNL A   1      42.294  32.110  33.385  1.00  0.00    -0.206 F 
ATOM     75  C   UNL A   1      39.961  32.117  33.221  1.00  0.00     0.059 A 
ATOM     76  C   UNL A   1      38.762  30.025  33.001  1.00  0.00     0.059 A 
ATOM     77  F   UNL A   1      39.943  27.995  32.920  1.00  0.00    -0.206 F 
ATOM     78  C   UNL A   1      38.771  31.421  33.034  1.00  0.00     0.060 A 
BRANCH  78  79
ATOM     79  S   UNL A   1      37.282  32.389  32.677  1.00  0.00     0.124 S 
ATOM     80  O   UNL A   1      37.548  32.861  31.322  1.00  0.00    -0.237 OA
ATOM     81  O   UNL A   1      36.238  31.375  32.800  1.00  0.00    -0.237 OA
ATOM     82  O   UNL A   1      37.293  33.413  33.716  1.00  0.00    -0.744 OA
ENDBRANCH  78  79
ENDBRANCH  46  71
BRANCH  58  83
ATOM     83  C   UNL A   1      45.114  23.835  33.565  1.00  0.00     0.058 A 
ATOM     84  C   UNL A   1      46.442  23.815  34.025  1.00  0.00     0.135 A 
ATOM     85  C   UNL A   1      44.288  22.791  34.051  1.00  0.00     0.135 A 
ATOM     86  F   UNL A   1      47.293  24.815  33.754  1.00  0.00    -0.206 F 
ATOM     87  C   UNL A   1      46.942  22.790  34.826  1.00  0.00     0.059 A 
ATOM     88  C   UNL A   1      44.750  21.794  34.905  1.00  0.00     0.059 A 
ATOM     89  F   UNL A   1      42.988  22.711  33.730  1.00  0.00    -0.206 F 
ATOM     90  C   UNL A   1      46.089  21.784  35.261  1.00  0.00     0.060 A 
BRANCH  90  91
ATOM     91  S   UNL A   1      46.715  20.493  36.348  1.00  0.00     0.124 S 
ATOM     92  O   UNL A   1      46.010  19.321  35.842  1.00  0.00    -0.237 OA
ATOM     93  O   UNL A   1      48.152  20.525  36.092  1.00  0.00    -0.237 OA
ATOM     94  O   UNL A   1      46.313  20.952  37.675  1.00  0.00    -0.744 OA
ENDBRANCH  90  91
ENDBRANCH  58  83
ENDBRANCH  32  33
ENDBRANCH  25  27
ENDBRANCH  24  25
ENDBRANCH  23  24
ENDBRANCH   1  23
TORSDOF 17
ENDMDL
