MODEL 1
REMARK VINA RESULT:     -10.9      0.000      0.000
REMARK SMILES O=C(OCCOC(=O)[C@H](Cc1cccc(Cl)c1)Cc1ccccn1)c1ccc(-c2c3nc(c(-c4c(F)cc(S(=O)(=O)[O-])cc4F)c4ccc([nH]4)c(-c4c(F)cc(S(=O)(=O)[O-])cc4F)c4nc(c(-c5c(F)cc(S(=O)(=O)[O-])cc5F)c5ccc2[nH]5)C=C4)C=C3)cc1
REMARK SMILES IDX 4 1 3 2 2 3 1 4 25 5 26 6 90 7 27 8 89 9 28 10 29 11 30 12
REMARK SMILES IDX 83 13 31 14 88 15 82 16 84 17 32 18 87 19 81 20 80 21 33 23
REMARK SMILES IDX 67 24 46 25 66 26 47 27 50 28 65 29 85 30 48 31 49 32 64 34
REMARK SMILES IDX 86 35 51 36 34 37 35 38 44 39 36 40 37 41 43 42 45 43 38 44
REMARK SMILES IDX 39 45 40 46 41 47 42 48 68 49 69 50 78 51 70 52 71 53 77 54
REMARK SMILES IDX 79 55 72 56 73 57 74 58 75 59 76 60 52 61 53 62 62 63 54 64
REMARK SMILES IDX 55 65 61 66 63 67 56 68 57 69 58 70 59 71 60 72 5 73 6 74
REMARK SMILES IDX 7 75 8 76 9 77 18 78 19 79 20 80 24 81 21 82 23 83 22 84
REMARK SMILES IDX 10 85 11 86 12 87 17 88 13 89 15 90 14 91 16 92
REMARK H PARENT 84 22 50 33
REMARK Flexibility Score: inf
ROOT
ATOM      1  C   UNL A   1      32.301  30.244  26.415  1.00  0.00     0.275 C 
ENDROOT
BRANCH   1   2
ATOM      2  O   UNL A   1      33.712  30.146  26.678  1.00  0.00    -0.458 OA
BRANCH   2   3
ATOM      3  C   UNL A   1      34.418  30.803  27.633  1.00  0.00     0.338 C 
ATOM      4  O   UNL A   1      34.091  31.942  27.958  1.00  0.00    -0.246 OA
BRANCH   3   5
ATOM      5  C   UNL A   1      35.708  30.265  28.155  1.00  0.00     0.060 A 
ATOM      6  C   UNL A   1      35.882  29.714  29.426  1.00  0.00     0.016 A 
ATOM      7  C   UNL A   1      36.827  30.378  27.312  1.00  0.00     0.016 A 
ATOM      8  C   UNL A   1      37.125  29.210  29.818  1.00  0.00     0.010 A 
ATOM      9  C   UNL A   1      38.077  29.878  27.702  1.00  0.00     0.010 A 
ATOM     10  C   UNL A   1      38.232  29.302  28.967  1.00  0.00    -0.014 A 
BRANCH  10  11
ATOM     11  C   UNL A   1      39.570  29.008  29.529  1.00  0.00     0.031 A 
ATOM     12  C   UNL A   1      40.022  29.815  30.713  1.00  0.00     0.074 A 
ATOM     13  C   UNL A   1      40.307  27.975  29.082  1.00  0.00     0.049 A 
ATOM     14  N   UNL A   1      41.046  29.626  31.499  1.00  0.00    -0.248 NA
ATOM     15  C   UNL A   1      39.188  30.974  31.077  1.00  0.00     0.031 C 
ATOM     16  C   UNL A   1      39.947  27.097  27.971  1.00  0.00     0.029 A 
ATOM     17  N   UNL A   1      41.509  27.478  29.520  1.00  0.00    -0.354 N 
ATOM     18  C   UNL A   1      40.954  30.610  32.475  1.00  0.00     0.074 A 
ATOM     19  C   UNL A   1      39.817  31.439  32.143  1.00  0.00     0.031 C 
ATOM     20  C   UNL A   1      40.916  26.182  27.798  1.00  0.00     0.029 A 
ATOM     21  C   UNL A   1      41.957  26.396  28.799  1.00  0.00     0.049 A 
ATOM     22  H   UNL A   1      42.005  27.861  30.279  1.00  0.00     0.167 HD
ATOM     23  C   UNL A   1      41.726  30.787  33.571  1.00  0.00     0.037 A 
ATOM     24  C   UNL A   1      43.073  25.655  28.945  1.00  0.00     0.037 A 
ATOM     25  C   UNL A   1      42.875  29.983  33.875  1.00  0.00     0.049 A 
ATOM     26  C   UNL A   1      43.979  25.935  30.115  1.00  0.00     0.074 A 
ATOM     27  C   UNL A   1      43.740  30.083  34.948  1.00  0.00     0.029 A 
ATOM     28  N   UNL A   1      43.328  28.934  33.087  1.00  0.00    -0.354 N 
ATOM     29  N   UNL A   1      43.850  26.838  31.060  1.00  0.00    -0.248 NA
ATOM     30  C   UNL A   1      45.164  25.079  30.260  1.00  0.00     0.031 C 
ATOM     31  C   UNL A   1      44.744  29.120  34.785  1.00  0.00     0.029 A 
ATOM     32  C   UNL A   1      44.475  28.390  33.637  1.00  0.00     0.049 A 
ATOM     33  H   UNL A   1      42.896  28.622  32.258  1.00  0.00     0.167 HD
ATOM     34  C   UNL A   1      44.909  26.628  31.936  1.00  0.00     0.074 A 
ATOM     35  C   UNL A   1      45.675  25.519  31.403  1.00  0.00     0.031 C 
ATOM     36  C   UNL A   1      45.211  27.280  33.087  1.00  0.00     0.037 A 
BRANCH  23  37
ATOM     37  C   UNL A   1      41.342  31.909  34.491  1.00  0.00     0.058 A 
ATOM     38  C   UNL A   1      40.389  31.727  35.509  1.00  0.00     0.135 A 
ATOM     39  C   UNL A   1      41.892  33.189  34.328  1.00  0.00     0.135 A 
ATOM     40  F   UNL A   1      39.811  30.528  35.688  1.00  0.00    -0.206 F 
ATOM     41  C   UNL A   1      39.969  32.784  36.308  1.00  0.00     0.059 A 
ATOM     42  C   UNL A   1      41.502  34.256  35.131  1.00  0.00     0.059 A 
ATOM     43  F   UNL A   1      42.796  33.416  33.362  1.00  0.00    -0.206 F 
ATOM     44  C   UNL A   1      40.525  34.048  36.105  1.00  0.00     0.060 A 
BRANCH  44  45
ATOM     45  S   UNL A   1      39.946  35.421  37.124  1.00  0.00     0.124 S 
ATOM     46  O   UNL A   1      38.810  34.812  37.810  1.00  0.00    -0.237 OA
ATOM     47  O   UNL A   1      41.110  35.706  37.956  1.00  0.00    -0.237 OA
ATOM     48  O   UNL A   1      39.610  36.451  36.146  1.00  0.00    -0.744 OA
ENDBRANCH  44  45
ENDBRANCH  23  37
BRANCH  24  49
ATOM     49  C   UNL A   1      43.380  24.560  27.986  1.00  0.00     0.058 A 
ATOM     50  C   UNL A   1      42.920  23.252  28.197  1.00  0.00     0.135 A 
ATOM     51  C   UNL A   1      44.158  24.802  26.843  1.00  0.00     0.135 A 
ATOM     52  F   UNL A   1      42.181  22.967  29.279  1.00  0.00    -0.206 F 
ATOM     53  C   UNL A   1      43.234  22.218  27.319  1.00  0.00     0.059 A 
ATOM     54  C   UNL A   1      44.471  23.789  25.942  1.00  0.00     0.059 A 
ATOM     55  F   UNL A   1      44.617  26.038  26.590  1.00  0.00    -0.206 F 
ATOM     56  C   UNL A   1      44.013  22.496  26.195  1.00  0.00     0.060 A 
BRANCH  56  57
ATOM     57  S   UNL A   1      44.396  21.156  25.044  1.00  0.00     0.124 S 
ATOM     58  O   UNL A   1      44.359  21.849  23.762  1.00  0.00    -0.237 OA
ATOM     59  O   UNL A   1      45.715  20.725  25.499  1.00  0.00    -0.237 OA
ATOM     60  O   UNL A   1      43.317  20.199  25.277  1.00  0.00    -0.744 OA
ENDBRANCH  56  57
ENDBRANCH  24  49
BRANCH  36  61
ATOM     61  C   UNL A   1      46.389  26.779  33.871  1.00  0.00     0.058 A 
ATOM     62  C   UNL A   1      46.270  25.738  34.804  1.00  0.00     0.135 A 
ATOM     63  C   UNL A   1      47.667  27.317  33.642  1.00  0.00     0.135 A 
ATOM     64  F   UNL A   1      45.070  25.193  35.059  1.00  0.00    -0.206 F 
ATOM     65  C   UNL A   1      47.374  25.264  35.503  1.00  0.00     0.059 A 
ATOM     66  C   UNL A   1      48.788  26.842  34.313  1.00  0.00     0.059 A 
ATOM     67  F   UNL A   1      47.833  28.307  32.751  1.00  0.00    -0.206 F 
ATOM     68  C   UNL A   1      48.629  25.823  35.251  1.00  0.00     0.060 A 
BRANCH  68  69
ATOM     69  S   UNL A   1      50.062  25.181  36.142  1.00  0.00     0.124 S 
ATOM     70  O   UNL A   1      51.141  25.463  35.201  1.00  0.00    -0.237 OA
ATOM     71  O   UNL A   1      50.059  25.982  37.362  1.00  0.00    -0.237 OA
ATOM     72  O   UNL A   1      49.740  23.769  36.326  1.00  0.00    -0.744 OA
ENDBRANCH  68  69
ENDBRANCH  36  61
ENDBRANCH  10  11
ENDBRANCH   3   5
ENDBRANCH   2   3
ENDBRANCH   1   2
BRANCH   1  73
ATOM     73  C   UNL A   1      31.726  29.072  25.621  1.00  0.00     0.274 C 
BRANCH  73  74
ATOM     74  O   UNL A   1      32.533  27.890  25.717  1.00  0.00    -0.462 OA
BRANCH  74  75
ATOM     75  C   UNL A   1      32.007  26.864  26.448  1.00  0.00     0.309 C 
ATOM     76  O   UNL A   1      31.060  26.978  27.218  1.00  0.00    -0.252 OA
BRANCH  75  77
ATOM     77  C   UNL A   1      32.751  25.567  26.168  1.00  0.00     0.109 C 
BRANCH  77  78
ATOM     78  C   UNL A   1      31.830  24.389  26.526  1.00  0.00     0.071 C 
BRANCH  78  79
ATOM     79  C   UNL A   1      32.357  22.983  26.332  1.00  0.00     0.041 A 
ATOM     80  C   UNL A   1      33.324  22.396  27.143  1.00  0.00     0.024 A 
ATOM     81  N   UNL A   1      31.773  22.293  25.324  1.00  0.00    -0.261 NA
ATOM     82  C   UNL A   1      33.752  21.096  26.878  1.00  0.00     0.003 A 
ATOM     83  C   UNL A   1      32.166  21.013  25.118  1.00  0.00     0.111 A 
ATOM     84  C   UNL A   1      33.157  20.385  25.848  1.00  0.00     0.020 A 
ENDBRANCH  78  79
ENDBRANCH  77  78
BRANCH  77  85
ATOM     85  C   UNL A   1      33.250  25.529  24.706  1.00  0.00     0.051 C 
BRANCH  85  86
ATOM     86  C   UNL A   1      34.456  24.627  24.518  1.00  0.00    -0.046 A 
ATOM     87  C   UNL A   1      34.544  23.758  23.424  1.00  0.00     0.004 A 
ATOM     88  C   UNL A   1      35.522  24.662  25.433  1.00  0.00     0.024 A 
ATOM     89  C   UNL A   1      35.669  22.945  23.247  1.00  0.00     0.002 A 
ATOM     90  C   UNL A   1      36.651  23.865  25.241  1.00  0.00     0.041 A 
ATOM     91  C   UNL A   1      36.728  23.002  24.154  1.00  0.00     0.020 A 
ATOM     92  Cl  UNL A   1      37.961  23.964  26.353  1.00  0.00    -0.084 Cl
ENDBRANCH  85  86
ENDBRANCH  77  85
ENDBRANCH  75  77
ENDBRANCH  74  75
ENDBRANCH  73  74
ENDBRANCH   1  73
TORSDOF 18
ENDMDL
MODEL 2
REMARK VINA RESULT:     -10.8      2.979      8.535
REMARK SMILES O=C(OCCOC(=O)[C@H](Cc1cccc(Cl)c1)Cc1ccccn1)c1ccc(-c2c3nc(c(-c4c(F)cc(S(=O)(=O)[O-])cc4F)c4ccc([nH]4)c(-c4c(F)cc(S(=O)(=O)[O-])cc4F)c4nc(c(-c5c(F)cc(S(=O)(=O)[O-])cc5F)c5ccc2[nH]5)C=C4)C=C3)cc1
REMARK SMILES IDX 4 1 3 2 2 3 1 4 25 5 26 6 90 7 27 8 89 9 28 10 29 11 30 12
REMARK SMILES IDX 83 13 31 14 88 15 82 16 84 17 32 18 87 19 81 20 80 21 33 23
REMARK SMILES IDX 67 24 46 25 66 26 47 27 50 28 65 29 85 30 48 31 49 32 64 34
REMARK SMILES IDX 86 35 51 36 34 37 35 38 44 39 36 40 37 41 43 42 45 43 38 44
REMARK SMILES IDX 39 45 40 46 41 47 42 48 68 49 69 50 78 51 70 52 71 53 77 54
REMARK SMILES IDX 79 55 72 56 73 57 74 58 75 59 76 60 52 61 53 62 62 63 54 64
REMARK SMILES IDX 55 65 61 66 63 67 56 68 57 69 58 70 59 71 60 72 5 73 6 74
REMARK SMILES IDX 7 75 8 76 9 77 18 78 19 79 20 80 24 81 21 82 23 83 22 84
REMARK SMILES IDX 10 85 11 86 12 87 17 88 13 89 15 90 14 91 16 92
REMARK H PARENT 84 22 50 33
REMARK Flexibility Score: inf
ROOT
ATOM      1  C   UNL A   1      32.410  29.434  27.243  1.00  0.00     0.275 C 
ENDROOT
BRANCH   1   2
ATOM      2  O   UNL A   1      33.776  29.866  27.105  1.00  0.00    -0.458 OA
BRANCH   2   3
ATOM      3  C   UNL A   1      34.530  30.515  28.028  1.00  0.00     0.338 C 
ATOM      4  O   UNL A   1      34.160  31.605  28.460  1.00  0.00    -0.246 OA
BRANCH   3   5
ATOM      5  C   UNL A   1      35.900  30.046  28.382  1.00  0.00     0.060 A 
ATOM      6  C   UNL A   1      36.301  29.658  29.662  1.00  0.00     0.016 A 
ATOM      7  C   UNL A   1      36.857  30.053  27.353  1.00  0.00     0.016 A 
ATOM      8  C   UNL A   1      37.602  29.206  29.894  1.00  0.00     0.010 A 
ATOM      9  C   UNL A   1      38.165  29.606  27.580  1.00  0.00     0.010 A 
ATOM     10  C   UNL A   1      38.546  29.191  28.861  1.00  0.00    -0.014 A 
BRANCH  10  11
ATOM     11  C   UNL A   1      39.966  28.968  29.216  1.00  0.00     0.031 A 
ATOM     12  C   UNL A   1      40.555  27.618  28.919  1.00  0.00     0.074 A 
ATOM     13  C   UNL A   1      40.740  29.969  29.672  1.00  0.00     0.049 A 
ATOM     14  N   UNL A   1      41.803  27.237  28.951  1.00  0.00    -0.248 NA
ATOM     15  C   UNL A   1      39.613  26.565  28.502  1.00  0.00     0.031 C 
ATOM     16  C   UNL A   1      40.286  31.329  29.953  1.00  0.00     0.029 A 
ATOM     17  N   UNL A   1      42.081  30.001  29.966  1.00  0.00    -0.354 N 
ATOM     18  C   UNL A   1      41.801  25.919  28.513  1.00  0.00     0.074 A 
ATOM     19  C   UNL A   1      40.424  25.542  28.292  1.00  0.00     0.031 C 
ATOM     20  C   UNL A   1      41.324  32.059  30.399  1.00  0.00     0.029 A 
ATOM     21  C   UNL A   1      42.520  31.224  30.417  1.00  0.00     0.049 A 
ATOM     22  H   UNL A   1      42.672  29.221  29.863  1.00  0.00     0.167 HD
ATOM     23  C   UNL A   1      42.856  25.105  28.281  1.00  0.00     0.037 A 
ATOM     24  C   UNL A   1      43.754  31.622  30.784  1.00  0.00     0.037 A 
ATOM     25  C   UNL A   1      44.219  25.473  28.539  1.00  0.00     0.049 A 
ATOM     26  C   UNL A   1      44.904  30.664  30.618  1.00  0.00     0.074 A 
ATOM     27  C   UNL A   1      45.365  24.723  28.359  1.00  0.00     0.029 A 
ATOM     28  N   UNL A   1      44.615  26.700  29.051  1.00  0.00    -0.354 N 
ATOM     29  N   UNL A   1      44.892  29.436  30.153  1.00  0.00    -0.248 NA
ATOM     30  C   UNL A   1      46.238  31.152  30.994  1.00  0.00     0.031 C 
ATOM     31  C   UNL A   1      46.454  25.483  28.804  1.00  0.00     0.029 A 
ATOM     32  C   UNL A   1      45.989  26.723  29.216  1.00  0.00     0.049 A 
ATOM     33  H   UNL A   1      44.008  27.446  29.266  1.00  0.00     0.167 HD
ATOM     34  C   UNL A   1      46.220  29.022  30.136  1.00  0.00     0.074 A 
ATOM     35  C   UNL A   1      47.006  30.127  30.647  1.00  0.00     0.031 C 
ATOM     36  C   UNL A   1      46.745  27.843  29.719  1.00  0.00     0.037 A 
BRANCH  23  37
ATOM     37  C   UNL A   1      42.546  23.738  27.742  1.00  0.00     0.058 A 
ATOM     38  C   UNL A   1      42.432  22.625  28.594  1.00  0.00     0.135 A 
ATOM     39  C   UNL A   1      42.409  23.527  26.363  1.00  0.00     0.135 A 
ATOM     40  F   UNL A   1      42.584  22.770  29.921  1.00  0.00    -0.206 F 
ATOM     41  C   UNL A   1      42.229  21.345  28.091  1.00  0.00     0.059 A 
ATOM     42  C   UNL A   1      42.184  22.257  25.841  1.00  0.00     0.059 A 
ATOM     43  F   UNL A   1      42.522  24.555  25.508  1.00  0.00    -0.206 F 
ATOM     44  C   UNL A   1      42.116  21.170  26.712  1.00  0.00     0.060 A 
BRANCH  44  45
ATOM     45  S   UNL A   1      41.889  19.499  26.069  1.00  0.00     0.124 S 
ATOM     46  O   UNL A   1      42.300  18.690  27.213  1.00  0.00    -0.237 OA
ATOM     47  O   UNL A   1      40.463  19.474  25.756  1.00  0.00    -0.237 OA
ATOM     48  O   UNL A   1      42.782  19.455  24.915  1.00  0.00    -0.744 OA
ENDBRANCH  44  45
ENDBRANCH  23  37
BRANCH  24  49
ATOM     49  C   UNL A   1      43.975  32.996  31.311  1.00  0.00     0.058 A 
ATOM     50  C   UNL A   1      43.903  33.275  32.683  1.00  0.00     0.135 A 
ATOM     51  C   UNL A   1      44.248  34.064  30.442  1.00  0.00     0.135 A 
ATOM     52  F   UNL A   1      43.636  32.290  33.555  1.00  0.00    -0.206 F 
ATOM     53  C   UNL A   1      44.076  34.565  33.176  1.00  0.00     0.059 A 
ATOM     54  C   UNL A   1      44.441  35.360  30.912  1.00  0.00     0.059 A 
ATOM     55  F   UNL A   1      44.335  33.851  29.119  1.00  0.00    -0.206 F 
ATOM     56  C   UNL A   1      44.342  35.602  32.281  1.00  0.00     0.060 A 
BRANCH  56  57
ATOM     57  S   UNL A   1      44.593  37.271  32.928  1.00  0.00     0.124 S 
ATOM     58  O   UNL A   1      45.529  37.027  34.019  1.00  0.00    -0.237 OA
ATOM     59  O   UNL A   1      45.133  37.974  31.768  1.00  0.00    -0.237 OA
ATOM     60  O   UNL A   1      43.248  37.678  33.328  1.00  0.00    -0.744 OA
ENDBRANCH  56  57
ENDBRANCH  24  49
BRANCH  36  61
ATOM     61  C   UNL A   1      48.239  27.706  29.751  1.00  0.00     0.058 A 
ATOM     62  C   UNL A   1      49.043  28.107  28.673  1.00  0.00     0.135 A 
ATOM     63  C   UNL A   1      48.876  27.214  30.902  1.00  0.00     0.135 A 
ATOM     64  F   UNL A   1      48.481  28.581  27.551  1.00  0.00    -0.206 F 
ATOM     65  C   UNL A   1      50.428  28.002  28.726  1.00  0.00     0.059 A 
ATOM     66  C   UNL A   1      50.261  27.122  30.986  1.00  0.00     0.059 A 
ATOM     67  F   UNL A   1      48.150  26.828  31.963  1.00  0.00    -0.206 F 
ATOM     68  C   UNL A   1      51.028  27.507  29.887  1.00  0.00     0.060 A 
BRANCH  68  69
ATOM     69  S   UNL A   1      52.828  27.401  29.958  1.00  0.00     0.124 S 
ATOM     70  O   UNL A   1      53.155  27.068  28.575  1.00  0.00    -0.237 OA
ATOM     71  O   UNL A   1      53.206  28.741  30.394  1.00  0.00    -0.237 OA
ATOM     72  O   UNL A   1      53.066  26.341  30.933  1.00  0.00    -0.744 OA
ENDBRANCH  68  69
ENDBRANCH  36  61
ENDBRANCH  10  11
ENDBRANCH   3   5
ENDBRANCH   2   3
ENDBRANCH   1   2
BRANCH   1  73
ATOM     73  C   UNL A   1      32.021  28.275  26.326  1.00  0.00     0.274 C 
BRANCH  73  74
ATOM     74  O   UNL A   1      32.565  27.021  26.761  1.00  0.00    -0.462 OA
BRANCH  74  75
ATOM     75  C   UNL A   1      31.838  25.910  26.441  1.00  0.00     0.309 C 
ATOM     76  O   UNL A   1      30.625  25.813  26.583  1.00  0.00    -0.252 OA
BRANCH  75  77
ATOM     77  C   UNL A   1      32.740  24.820  25.879  1.00  0.00     0.109 C 
BRANCH  77  78
ATOM     78  C   UNL A   1      31.858  23.767  25.187  1.00  0.00     0.071 C 
BRANCH  78  79
ATOM     79  C   UNL A   1      32.352  22.338  25.142  1.00  0.00     0.041 A 
ATOM     80  C   UNL A   1      32.140  21.474  24.071  1.00  0.00     0.024 A 
ATOM     81  N   UNL A   1      33.081  21.955  26.217  1.00  0.00    -0.261 NA
ATOM     82  C   UNL A   1      32.627  20.170  24.127  1.00  0.00     0.003 A 
ATOM     83  C   UNL A   1      33.590  20.700  26.227  1.00  0.00     0.111 A 
ATOM     84  C   UNL A   1      33.374  19.773  25.225  1.00  0.00     0.020 A 
ENDBRANCH  78  79
ENDBRANCH  77  78
BRANCH  77  85
ATOM     85  C   UNL A   1      33.812  25.427  24.946  1.00  0.00     0.051 C 
BRANCH  85  86
ATOM     86  C   UNL A   1      34.933  24.455  24.627  1.00  0.00    -0.046 A 
ATOM     87  C   UNL A   1      34.944  23.735  23.426  1.00  0.00     0.004 A 
ATOM     88  C   UNL A   1      35.996  24.272  25.527  1.00  0.00     0.024 A 
ATOM     89  C   UNL A   1      35.991  22.856  23.130  1.00  0.00     0.002 A 
ATOM     90  C   UNL A   1      37.049  23.410  25.218  1.00  0.00     0.041 A 
ATOM     91  C   UNL A   1      37.050  22.697  24.025  1.00  0.00     0.020 A 
ATOM     92  Cl  UNL A   1      38.362  23.243  26.319  1.00  0.00    -0.084 Cl
ENDBRANCH  85  86
ENDBRANCH  77  85
ENDBRANCH  75  77
ENDBRANCH  74  75
ENDBRANCH  73  74
ENDBRANCH   1  73
TORSDOF 18
ENDMDL
MODEL 3
REMARK VINA RESULT:     -10.7      4.307     10.330
REMARK SMILES O=C(OCCOC(=O)[C@H](Cc1cccc(Cl)c1)Cc1ccccn1)c1ccc(-c2c3nc(c(-c4c(F)cc(S(=O)(=O)[O-])cc4F)c4ccc([nH]4)c(-c4c(F)cc(S(=O)(=O)[O-])cc4F)c4nc(c(-c5c(F)cc(S(=O)(=O)[O-])cc5F)c5ccc2[nH]5)C=C4)C=C3)cc1
REMARK SMILES IDX 4 1 3 2 2 3 1 4 25 5 26 6 90 7 27 8 89 9 28 10 29 11 30 12
REMARK SMILES IDX 83 13 31 14 88 15 82 16 84 17 32 18 87 19 81 20 80 21 33 23
REMARK SMILES IDX 67 24 46 25 66 26 47 27 50 28 65 29 85 30 48 31 49 32 64 34
REMARK SMILES IDX 86 35 51 36 34 37 35 38 44 39 36 40 37 41 43 42 45 43 38 44
REMARK SMILES IDX 39 45 40 46 41 47 42 48 68 49 69 50 78 51 70 52 71 53 77 54
REMARK SMILES IDX 79 55 72 56 73 57 74 58 75 59 76 60 52 61 53 62 62 63 54 64
REMARK SMILES IDX 55 65 61 66 63 67 56 68 57 69 58 70 59 71 60 72 5 73 6 74
REMARK SMILES IDX 7 75 8 76 9 77 18 78 19 79 20 80 24 81 21 82 23 83 22 84
REMARK SMILES IDX 10 85 11 86 12 87 17 88 13 89 15 90 14 91 16 92
REMARK H PARENT 84 22 50 33
REMARK Flexibility Score: inf
ROOT
ATOM      1  C   UNL A   1      34.221  32.066  27.637  1.00  0.00     0.275 C 
ENDROOT
BRANCH   1   2
ATOM      2  O   UNL A   1      33.778  30.703  27.767  1.00  0.00    -0.458 OA
BRANCH   2   3
ATOM      3  C   UNL A   1      34.531  29.579  27.658  1.00  0.00     0.338 C 
ATOM      4  O   UNL A   1      33.990  28.507  27.396  1.00  0.00    -0.246 OA
BRANCH   3   5
ATOM      5  C   UNL A   1      35.969  29.566  28.052  1.00  0.00     0.060 A 
ATOM      6  C   UNL A   1      37.036  29.741  27.169  1.00  0.00     0.016 A 
ATOM      7  C   UNL A   1      36.252  29.303  29.403  1.00  0.00     0.016 A 
ATOM      8  C   UNL A   1      38.353  29.739  27.634  1.00  0.00     0.010 A 
ATOM      9  C   UNL A   1      37.571  29.295  29.875  1.00  0.00     0.010 A 
ATOM     10  C   UNL A   1      38.630  29.502  28.985  1.00  0.00    -0.014 A 
BRANCH  10  11
ATOM     11  C   UNL A   1      40.035  29.239  29.373  1.00  0.00     0.031 A 
ATOM     12  C   UNL A   1      40.595  27.874  29.083  1.00  0.00     0.074 A 
ATOM     13  C   UNL A   1      40.825  30.216  29.852  1.00  0.00     0.049 A 
ATOM     14  N   UNL A   1      41.830  27.459  29.142  1.00  0.00    -0.248 NA
ATOM     15  C   UNL A   1      39.634  26.850  28.637  1.00  0.00     0.031 C 
ATOM     16  C   UNL A   1      40.402  31.586  30.129  1.00  0.00     0.029 A 
ATOM     17  N   UNL A   1      42.159  30.210  30.178  1.00  0.00    -0.354 N 
ATOM     18  C   UNL A   1      41.803  26.144  28.697  1.00  0.00     0.074 A 
ATOM     19  C   UNL A   1      40.422  25.806  28.441  1.00  0.00     0.031 C 
ATOM     20  C   UNL A   1      41.448  32.285  30.604  1.00  0.00     0.029 A 
ATOM     21  C   UNL A   1      42.620  31.418  30.645  1.00  0.00     0.049 A 
ATOM     22  H   UNL A   1      42.731  29.414  30.085  1.00  0.00     0.167 HD
ATOM     23  C   UNL A   1      42.841  25.302  28.486  1.00  0.00     0.037 A 
ATOM     24  C   UNL A   1      43.855  31.781  31.044  1.00  0.00     0.037 A 
ATOM     25  C   UNL A   1      44.207  25.632  28.778  1.00  0.00     0.049 A 
ATOM     26  C   UNL A   1      44.983  30.792  30.901  1.00  0.00     0.074 A 
ATOM     27  C   UNL A   1      45.336  24.852  28.621  1.00  0.00     0.029 A 
ATOM     28  N   UNL A   1      44.624  26.846  29.306  1.00  0.00    -0.354 N 
ATOM     29  N   UNL A   1      44.949  29.568  30.429  1.00  0.00    -0.248 NA
ATOM     30  C   UNL A   1      46.320  31.243  31.310  1.00  0.00     0.031 C 
ATOM     31  C   UNL A   1      46.435  25.580  29.096  1.00  0.00     0.029 A 
ATOM     32  C   UNL A   1      45.993  26.830  29.503  1.00  0.00     0.049 A 
ATOM     33  H   UNL A   1      44.032  27.607  29.511  1.00  0.00     0.167 HD
ATOM     34  C   UNL A   1      46.265  29.118  30.441  1.00  0.00     0.074 A 
ATOM     35  C   UNL A   1      47.068  30.199  30.976  1.00  0.00     0.031 C 
ATOM     36  C   UNL A   1      46.767  27.926  30.030  1.00  0.00     0.037 A 
BRANCH  23  37
ATOM     37  C   UNL A   1      42.507  23.947  27.933  1.00  0.00     0.058 A 
ATOM     38  C   UNL A   1      42.416  22.819  28.767  1.00  0.00     0.135 A 
ATOM     39  C   UNL A   1      42.323  23.762  26.555  1.00  0.00     0.135 A 
ATOM     40  F   UNL A   1      42.613  22.939  30.090  1.00  0.00    -0.206 F 
ATOM     41  C   UNL A   1      42.191  21.550  28.248  1.00  0.00     0.059 A 
ATOM     42  C   UNL A   1      42.075  22.503  26.017  1.00  0.00     0.059 A 
ATOM     43  F   UNL A   1      42.412  24.806  25.716  1.00  0.00    -0.206 F 
ATOM     44  C   UNL A   1      42.031  21.400  26.870  1.00  0.00     0.060 A 
BRANCH  44  45
ATOM     45  S   UNL A   1      41.775  19.742  26.204  1.00  0.00     0.124 S 
ATOM     46  O   UNL A   1      42.219  18.911  27.319  1.00  0.00    -0.237 OA
ATOM     47  O   UNL A   1      40.340  19.730  25.937  1.00  0.00    -0.237 OA
ATOM     48  O   UNL A   1      42.629  19.716  25.021  1.00  0.00    -0.744 OA
ENDBRANCH  44  45
ENDBRANCH  23  37
BRANCH  24  49
ATOM     49  C   UNL A   1      44.101  33.146  31.583  1.00  0.00     0.058 A 
ATOM     50  C   UNL A   1      44.479  34.206  30.748  1.00  0.00     0.135 A 
ATOM     51  C   UNL A   1      43.974  33.410  32.956  1.00  0.00     0.135 A 
ATOM     52  F   UNL A   1      44.622  34.003  29.429  1.00  0.00    -0.206 F 
ATOM     53  C   UNL A   1      44.742  35.476  31.253  1.00  0.00     0.059 A 
ATOM     54  C   UNL A   1      44.216  34.676  33.484  1.00  0.00     0.059 A 
ATOM     55  F   UNL A   1      43.607  32.433  33.800  1.00  0.00    -0.206 F 
ATOM     56  C   UNL A   1      44.610  35.700  32.625  1.00  0.00     0.060 A 
BRANCH  56  57
ATOM     57  S   UNL A   1      44.927  37.357  33.273  1.00  0.00     0.124 S 
ATOM     58  O   UNL A   1      46.025  37.801  32.423  1.00  0.00    -0.237 OA
ATOM     59  O   UNL A   1      43.645  38.023  33.059  1.00  0.00    -0.237 OA
ATOM     60  O   UNL A   1      45.270  37.108  34.671  1.00  0.00    -0.744 OA
ENDBRANCH  56  57
ENDBRANCH  24  49
BRANCH  36  61
ATOM     61  C   UNL A   1      48.256  27.749  30.097  1.00  0.00     0.058 A 
ATOM     62  C   UNL A   1      48.889  27.229  31.237  1.00  0.00     0.135 A 
ATOM     63  C   UNL A   1      49.052  28.055  28.982  1.00  0.00     0.135 A 
ATOM     64  F   UNL A   1      48.171  26.925  32.329  1.00  0.00    -0.206 F 
ATOM     65  C   UNL A   1      50.266  27.043  31.276  1.00  0.00     0.059 A 
ATOM     66  C   UNL A   1      50.428  27.854  28.991  1.00  0.00     0.059 A 
ATOM     67  F   UNL A   1      48.491  28.543  27.864  1.00  0.00    -0.206 F 
ATOM     68  C   UNL A   1      51.027  27.359  30.149  1.00  0.00     0.060 A 
BRANCH  68  69
ATOM     69  S   UNL A   1      52.811  27.087  30.199  1.00  0.00     0.124 S 
ATOM     70  O   UNL A   1      52.918  26.044  31.215  1.00  0.00    -0.237 OA
ATOM     71  O   UNL A   1      53.105  26.672  28.831  1.00  0.00    -0.237 OA
ATOM     72  O   UNL A   1      53.342  28.393  30.580  1.00  0.00    -0.744 OA
ENDBRANCH  68  69
ENDBRANCH  36  61
ENDBRANCH  10  11
ENDBRANCH   3   5
ENDBRANCH   2   3
ENDBRANCH   1   2
BRANCH   1  73
ATOM     73  C   UNL A   1      34.108  32.890  28.919  1.00  0.00     0.274 C 
BRANCH  73  74
ATOM     74  O   UNL A   1      34.642  32.208  30.063  1.00  0.00    -0.462 OA
BRANCH  74  75
ATOM     75  C   UNL A   1      35.819  32.696  30.554  1.00  0.00     0.309 C 
ATOM     76  O   UNL A   1      36.748  33.090  29.860  1.00  0.00    -0.252 OA
BRANCH  75  77
ATOM     77  C   UNL A   1      35.811  32.687  32.076  1.00  0.00     0.109 C 
BRANCH  77  78
ATOM     78  C   UNL A   1      34.406  33.084  32.559  1.00  0.00     0.071 C 
BRANCH  78  79
ATOM     79  C   UNL A   1      34.026  34.548  32.533  1.00  0.00     0.041 A 
ATOM     80  C   UNL A   1      34.550  35.503  33.400  1.00  0.00     0.024 A 
ATOM     81  N   UNL A   1      33.161  34.893  31.551  1.00  0.00    -0.261 NA
ATOM     82  C   UNL A   1      34.131  36.829  33.304  1.00  0.00     0.003 A 
ATOM     83  C   UNL A   1      32.808  36.196  31.442  1.00  0.00     0.111 A 
ATOM     84  C   UNL A   1      33.245  37.187  32.300  1.00  0.00     0.020 A 
ENDBRANCH  78  79
ENDBRANCH  77  78
BRANCH  77  85
ATOM     85  C   UNL A   1      36.277  31.316  32.616  1.00  0.00     0.051 C 
BRANCH  85  86
ATOM     86  C   UNL A   1      37.721  31.329  33.084  1.00  0.00    -0.046 A 
ATOM     87  C   UNL A   1      38.440  30.136  33.239  1.00  0.00     0.004 A 
ATOM     88  C   UNL A   1      38.373  32.544  33.352  1.00  0.00     0.024 A 
ATOM     89  C   UNL A   1      39.777  30.158  33.651  1.00  0.00     0.002 A 
ATOM     90  C   UNL A   1      39.713  32.561  33.742  1.00  0.00     0.041 A 
ATOM     91  C   UNL A   1      40.417  31.372  33.897  1.00  0.00     0.020 A 
ATOM     92  Cl  UNL A   1      40.500  34.067  34.018  1.00  0.00    -0.084 Cl
ENDBRANCH  85  86
ENDBRANCH  77  85
ENDBRANCH  75  77
ENDBRANCH  74  75
ENDBRANCH  73  74
ENDBRANCH   1  73
TORSDOF 18
ENDMDL
