MODEL 1
REMARK VINA RESULT:      -9.3      0.000      0.000
REMARK SMILES Cc1cc(I)ccc1[C@H]([NH3+])C(=O)OCCOC(=O)c1ccc(-c2c3nc(c(-c4c(F)cc(S(=O)(=O)[O-])cc4F)c4ccc([nH]4)c(-c4c(F)cc(S(=O)(=O)[O-])cc4F)c4nc(c(-c5c(F)cc(S(=O)(=O)[O-])cc5F)c5ccc2[nH]5)C=C4)C=C3)cc1
REMARK SMILES IDX 15 1 14 2 13 3 11 4 12 5 9 6 8 7 1 8 2 9 3 10 4 11 7 12 5 13
REMARK SMILES IDX 6 14 10 15 16 19 17 20 18 21 19 22 20 23 84 24 21 25 83 26
REMARK SMILES IDX 22 27 23 28 24 29 77 30 25 31 82 32 76 33 78 34 26 35 81 36
REMARK SMILES IDX 75 37 74 38 27 40 61 41 40 42 60 43 41 44 44 45 59 46 79 47
REMARK SMILES IDX 42 48 43 49 58 51 80 52 45 53 28 54 29 55 38 56 30 57 31 58
REMARK SMILES IDX 37 59 39 60 32 61 33 62 34 63 35 64 36 65 62 66 63 67 72 68
REMARK SMILES IDX 64 69 65 70 71 71 73 72 66 73 67 74 68 75 69 76 70 77 46 78
REMARK SMILES IDX 47 79 56 80 48 81 49 82 55 83 57 84 50 85 51 86 52 87 53 88
REMARK SMILES IDX 54 89
REMARK H PARENT 10 16 10 17 10 18 78 39 44 50
REMARK Flexibility Score: inf
ROOT
ATOM      1  C   UNL A   1      34.219  33.059  27.682  1.00  0.00     0.275 C 
ENDROOT
BRANCH   1   2
ATOM      2  C   UNL A   1      33.419  34.188  28.336  1.00  0.00     0.274 C 
BRANCH   2   3
ATOM      3  O   UNL A   1      33.225  33.921  29.734  1.00  0.00    -0.457 OA
BRANCH   3   4
ATOM      4  C   UNL A   1      33.994  34.616  30.623  1.00  0.00     0.369 C 
ATOM      5  O   UNL A   1      33.940  35.832  30.776  1.00  0.00    -0.245 OA
BRANCH   4   6
ATOM      6  C   UNL A   1      34.928  33.696  31.440  1.00  0.00     0.323 C 
BRANCH   6   7
ATOM      7  C   UNL A   1      36.406  33.908  31.141  1.00  0.00     0.024 A 
ATOM      8  C   UNL A   1      36.953  34.716  33.510  1.00  0.00     0.045 C 
ATOM      9  C   UNL A   1      37.335  34.390  32.091  1.00  0.00    -0.040 A 
ATOM     10  C   UNL A   1      38.685  34.540  31.722  1.00  0.00     0.018 A 
ATOM     11  C   UNL A   1      39.108  34.253  30.426  1.00  0.00     0.013 A 
ATOM     12  C   UNL A   1      36.860  33.632  29.833  1.00  0.00     0.012 A 
ATOM     13  I   UNL A   1      41.106  34.506  29.912  1.00  0.00    -0.044 I 
ATOM     14  C   UNL A   1      38.199  33.803  29.476  1.00  0.00     0.015 A 
ENDBRANCH   6   7
BRANCH   6  15
ATOM     15  N   UNL A   1      34.568  32.263  31.353  1.00  0.00    -0.342 N 
ATOM     16  H   UNL A   1      33.712  32.161  30.809  1.00  0.00     0.345 HD
ATOM     17  H   UNL A   1      34.422  31.892  32.291  1.00  0.00     0.345 HD
ATOM     18  H   UNL A   1      35.323  31.749  30.899  1.00  0.00     0.345 HD
ENDBRANCH   6  15
ENDBRANCH   4   6
ENDBRANCH   3   4
ENDBRANCH   2   3
ENDBRANCH   1   2
BRANCH   1  19
ATOM     19  O   UNL A   1      33.922  31.785  28.281  1.00  0.00    -0.458 OA
BRANCH  19  20
ATOM     20  C   UNL A   1      34.325  30.704  27.575  1.00  0.00     0.338 C 
ATOM     21  O   UNL A   1      33.812  30.241  26.565  1.00  0.00    -0.246 OA
BRANCH  20  22
ATOM     22  C   UNL A   1      35.616  30.234  28.096  1.00  0.00     0.060 A 
ATOM     23  C   UNL A   1      35.628  29.680  29.380  1.00  0.00     0.016 A 
ATOM     24  C   UNL A   1      36.800  30.376  27.371  1.00  0.00     0.016 A 
ATOM     25  C   UNL A   1      36.825  29.275  29.955  1.00  0.00     0.010 A 
ATOM     26  C   UNL A   1      38.005  29.970  27.950  1.00  0.00     0.010 A 
ATOM     27  C   UNL A   1      38.023  29.431  29.249  1.00  0.00    -0.014 A 
BRANCH  27  28
ATOM     28  C   UNL A   1      39.304  29.094  29.909  1.00  0.00     0.031 A 
ATOM     29  C   UNL A   1      39.725  29.862  31.128  1.00  0.00     0.074 A 
ATOM     30  C   UNL A   1      40.058  28.088  29.432  1.00  0.00     0.049 A 
ATOM     31  N   UNL A   1      40.840  29.793  31.803  1.00  0.00    -0.248 NA
ATOM     32  C   UNL A   1      38.759  30.840  31.656  1.00  0.00     0.031 C 
ATOM     33  C   UNL A   1      39.712  27.242  28.289  1.00  0.00     0.029 A 
ATOM     34  N   UNL A   1      41.273  27.609  29.848  1.00  0.00    -0.354 N 
ATOM     35  C   UNL A   1      40.723  30.728  32.824  1.00  0.00     0.074 A 
ATOM     36  C   UNL A   1      39.433  31.364  32.670  1.00  0.00     0.031 C 
ATOM     37  C   UNL A   1      40.697  26.349  28.092  1.00  0.00     0.029 A 
ATOM     38  C   UNL A   1      41.760  26.592  29.063  1.00  0.00     0.049 A 
ATOM     39  H   UNL A   1      41.752  27.960  30.634  1.00  0.00     0.167 HD
ATOM     40  C   UNL A   1      41.614  31.025  33.800  1.00  0.00     0.037 A 
ATOM     41  C   UNL A   1      42.944  25.952  29.106  1.00  0.00     0.037 A 
ATOM     42  C   UNL A   1      42.890  30.374  33.944  1.00  0.00     0.049 A 
ATOM     43  C   UNL A   1      43.943  26.343  30.162  1.00  0.00     0.074 A 
ATOM     44  C   UNL A   1      43.870  30.600  34.893  1.00  0.00     0.029 A 
ATOM     45  N   UNL A   1      43.362  29.368  33.113  1.00  0.00    -0.354 N 
ATOM     46  N   UNL A   1      43.830  27.245  31.110  1.00  0.00    -0.248 NA
ATOM     47  C   UNL A   1      45.230  25.637  30.153  1.00  0.00     0.031 C 
ATOM     48  C   UNL A   1      44.950  29.754  34.615  1.00  0.00     0.029 A 
ATOM     49  C   UNL A   1      44.625  28.972  33.518  1.00  0.00     0.049 A 
ATOM     50  H   UNL A   1      42.870  28.991  32.348  1.00  0.00     0.167 HD
ATOM     51  C   UNL A   1      45.024  27.201  31.820  1.00  0.00     0.074 A 
ATOM     52  C   UNL A   1      45.839  26.176  31.201  1.00  0.00     0.031 C 
ATOM     53  C   UNL A   1      45.413  27.943  32.887  1.00  0.00     0.037 A 
BRANCH  40  54
ATOM     54  C   UNL A   1      41.248  32.117  34.765  1.00  0.00     0.058 A 
ATOM     55  C   UNL A   1      41.540  33.464  34.503  1.00  0.00     0.135 A 
ATOM     56  C   UNL A   1      40.577  31.812  35.961  1.00  0.00     0.135 A 
ATOM     57  F   UNL A   1      42.199  33.807  33.385  1.00  0.00    -0.206 F 
ATOM     58  C   UNL A   1      41.203  34.469  35.404  1.00  0.00     0.059 A 
ATOM     59  C   UNL A   1      40.209  32.804  36.866  1.00  0.00     0.059 A 
ATOM     60  F   UNL A   1      40.278  30.539  36.263  1.00  0.00    -0.206 F 
ATOM     61  C   UNL A   1      40.540  34.128  36.585  1.00  0.00     0.060 A 
BRANCH  61  62
ATOM     62  S   UNL A   1      40.112  35.443  37.747  1.00  0.00     0.124 S 
ATOM     63  O   UNL A   1      41.311  35.497  38.577  1.00  0.00    -0.237 OA
ATOM     64  O   UNL A   1      39.900  36.585  36.864  1.00  0.00    -0.237 OA
ATOM     65  O   UNL A   1      38.914  34.935  38.407  1.00  0.00    -0.744 OA
ENDBRANCH  61  62
ENDBRANCH  40  54
BRANCH  41  66
ATOM     66  C   UNL A   1      43.258  24.899  28.106  1.00  0.00     0.058 A 
ATOM     67  C   UNL A   1      43.852  25.219  26.878  1.00  0.00     0.135 A 
ATOM     68  C   UNL A   1      42.975  23.547  28.363  1.00  0.00     0.135 A 
ATOM     69  F   UNL A   1      44.132  26.498  26.582  1.00  0.00    -0.206 F 
ATOM     70  C   UNL A   1      44.142  24.241  25.931  1.00  0.00     0.059 A 
ATOM     71  C   UNL A   1      43.278  22.548  27.444  1.00  0.00     0.059 A 
ATOM     72  F   UNL A   1      42.417  23.186  29.530  1.00  0.00    -0.206 F 
ATOM     73  C   UNL A   1      43.852  22.908  26.225  1.00  0.00     0.060 A 
BRANCH  73  74
ATOM     74  S   UNL A   1      44.273  21.639  25.010  1.00  0.00     0.124 S 
ATOM     75  O   UNL A   1      43.250  20.633  25.271  1.00  0.00    -0.237 OA
ATOM     76  O   UNL A   1      44.149  22.365  23.750  1.00  0.00    -0.237 OA
ATOM     77  O   UNL A   1      45.636  21.264  25.377  1.00  0.00    -0.744 OA
ENDBRANCH  73  74
ENDBRANCH  41  66
BRANCH  53  78
ATOM     78  C   UNL A   1      46.766  27.648  33.470  1.00  0.00     0.058 A 
ATOM     79  C   UNL A   1      46.943  26.671  34.461  1.00  0.00     0.135 A 
ATOM     80  C   UNL A   1      47.905  28.319  32.993  1.00  0.00     0.135 A 
ATOM     81  F   UNL A   1      45.885  26.009  34.953  1.00  0.00    -0.206 F 
ATOM     82  C   UNL A   1      48.202  26.384  34.976  1.00  0.00     0.059 A 
ATOM     83  C   UNL A   1      49.175  28.029  33.478  1.00  0.00     0.059 A 
ATOM     84  F   UNL A   1      47.787  29.255  32.039  1.00  0.00    -0.206 F 
ATOM     85  C   UNL A   1      49.313  27.067  34.477  1.00  0.00     0.060 A 
BRANCH  85  86
ATOM     86  S   UNL A   1      50.946  26.662  35.130  1.00  0.00     0.124 S 
ATOM     87  O   UNL A   1      51.084  25.265  34.731  1.00  0.00    -0.237 OA
ATOM     88  O   UNL A   1      51.808  27.610  34.428  1.00  0.00    -0.237 OA
ATOM     89  O   UNL A   1      50.806  26.895  36.564  1.00  0.00    -0.744 OA
ENDBRANCH  85  86
ENDBRANCH  53  78
ENDBRANCH  27  28
ENDBRANCH  20  22
ENDBRANCH  19  20
ENDBRANCH   1  19
TORSDOF 16
ENDMDL
MODEL 2
REMARK VINA RESULT:      -9.2      2.882      3.629
REMARK SMILES Cc1cc(I)ccc1[C@H]([NH3+])C(=O)OCCOC(=O)c1ccc(-c2c3nc(c(-c4c(F)cc(S(=O)(=O)[O-])cc4F)c4ccc([nH]4)c(-c4c(F)cc(S(=O)(=O)[O-])cc4F)c4nc(c(-c5c(F)cc(S(=O)(=O)[O-])cc5F)c5ccc2[nH]5)C=C4)C=C3)cc1
REMARK SMILES IDX 15 1 14 2 13 3 11 4 12 5 9 6 8 7 1 8 2 9 3 10 4 11 7 12 5 13
REMARK SMILES IDX 6 14 10 15 16 19 17 20 18 21 19 22 20 23 84 24 21 25 83 26
REMARK SMILES IDX 22 27 23 28 24 29 77 30 25 31 82 32 76 33 78 34 26 35 81 36
REMARK SMILES IDX 75 37 74 38 27 40 61 41 40 42 60 43 41 44 44 45 59 46 79 47
REMARK SMILES IDX 42 48 43 49 58 51 80 52 45 53 28 54 29 55 38 56 30 57 31 58
REMARK SMILES IDX 37 59 39 60 32 61 33 62 34 63 35 64 36 65 62 66 63 67 72 68
REMARK SMILES IDX 64 69 65 70 71 71 73 72 66 73 67 74 68 75 69 76 70 77 46 78
REMARK SMILES IDX 47 79 56 80 48 81 49 82 55 83 57 84 50 85 51 86 52 87 53 88
REMARK SMILES IDX 54 89
REMARK H PARENT 10 16 10 17 10 18 78 39 44 50
REMARK Flexibility Score: inf
ROOT
ATOM      1  C   UNL A   1      34.377  32.922  28.673  1.00  0.00     0.275 C 
ENDROOT
BRANCH   1   2
ATOM      2  C   UNL A   1      34.373  33.897  29.852  1.00  0.00     0.274 C 
BRANCH   2   3
ATOM      3  O   UNL A   1      35.322  33.485  30.848  1.00  0.00    -0.457 OA
BRANCH   3   4
ATOM      4  C   UNL A   1      34.852  33.241  32.106  1.00  0.00     0.369 C 
ATOM      5  O   UNL A   1      33.763  32.728  32.347  1.00  0.00    -0.245 OA
BRANCH   4   6
ATOM      6  C   UNL A   1      35.858  33.657  33.203  1.00  0.00     0.323 C 
BRANCH   6   7
ATOM      7  C   UNL A   1      37.053  32.722  33.320  1.00  0.00     0.024 A 
ATOM      8  C   UNL A   1      38.749  34.627  33.561  1.00  0.00     0.045 C 
ATOM      9  C   UNL A   1      38.385  33.169  33.472  1.00  0.00    -0.040 A 
ATOM     10  C   UNL A   1      39.422  32.225  33.586  1.00  0.00     0.018 A 
ATOM     11  C   UNL A   1      39.155  30.858  33.515  1.00  0.00     0.013 A 
ATOM     12  C   UNL A   1      36.812  31.332  33.244  1.00  0.00     0.012 A 
ATOM     13  I   UNL A   1      40.715  29.493  33.667  1.00  0.00    -0.044 I 
ATOM     14  C   UNL A   1      37.853  30.407  33.340  1.00  0.00     0.015 A 
ENDBRANCH   6   7
BRANCH   6  15
ATOM     15  N   UNL A   1      35.229  33.887  34.523  1.00  0.00    -0.342 N 
ATOM     16  H   UNL A   1      34.687  33.065  34.788  1.00  0.00     0.345 HD
ATOM     17  H   UNL A   1      34.614  34.698  34.470  1.00  0.00     0.345 HD
ATOM     18  H   UNL A   1      35.955  34.056  35.220  1.00  0.00     0.345 HD
ENDBRANCH   6  15
ENDBRANCH   4   6
ENDBRANCH   3   4
ENDBRANCH   2   3
ENDBRANCH   1   2
BRANCH   1  19
ATOM     19  O   UNL A   1      34.282  31.556  29.117  1.00  0.00    -0.458 OA
BRANCH  19  20
ATOM     20  C   UNL A   1      34.528  30.621  28.171  1.00  0.00     0.338 C 
ATOM     21  O   UNL A   1      33.807  30.299  27.236  1.00  0.00    -0.246 OA
BRANCH  20  22
ATOM     22  C   UNL A   1      35.909  30.138  28.311  1.00  0.00     0.060 A 
ATOM     23  C   UNL A   1      36.315  29.710  29.578  1.00  0.00     0.016 A 
ATOM     24  C   UNL A   1      36.807  30.149  27.242  1.00  0.00     0.016 A 
ATOM     25  C   UNL A   1      37.624  29.302  29.792  1.00  0.00     0.010 A 
ATOM     26  C   UNL A   1      38.125  29.739  27.456  1.00  0.00     0.010 A 
ATOM     27  C   UNL A   1      38.541  29.328  28.735  1.00  0.00    -0.014 A 
BRANCH  27  28
ATOM     28  C   UNL A   1      39.958  28.991  28.995  1.00  0.00     0.031 A 
ATOM     29  C   UNL A   1      40.860  30.027  29.600  1.00  0.00     0.074 A 
ATOM     30  C   UNL A   1      40.415  27.756  28.718  1.00  0.00     0.049 A 
ATOM     31  N   UNL A   1      42.145  29.974  29.826  1.00  0.00    -0.248 NA
ATOM     32  C   UNL A   1      40.228  31.294  30.003  1.00  0.00     0.031 C 
ATOM     33  C   UNL A   1      39.608  26.658  28.184  1.00  0.00     0.029 A 
ATOM     34  N   UNL A   1      41.669  27.218  28.847  1.00  0.00    -0.354 N 
ATOM     35  C   UNL A   1      42.483  31.203  30.379  1.00  0.00     0.074 A 
ATOM     36  C   UNL A   1      41.269  31.988  30.440  1.00  0.00     0.031 C 
ATOM     37  C   UNL A   1      40.390  25.578  28.024  1.00  0.00     0.029 A 
ATOM     38  C   UNL A   1      41.758  25.922  28.401  1.00  0.00     0.049 A 
ATOM     39  H   UNL A   1      42.433  27.714  29.222  1.00  0.00     0.167 HD
ATOM     40  C   UNL A   1      43.697  31.632  30.798  1.00  0.00     0.037 A 
ATOM     41  C   UNL A   1      42.831  25.116  28.283  1.00  0.00     0.037 A 
ATOM     42  C   UNL A   1      44.893  30.833  30.739  1.00  0.00     0.049 A 
ATOM     43  C   UNL A   1      44.181  25.638  28.697  1.00  0.00     0.074 A 
ATOM     44  C   UNL A   1      46.176  31.170  31.131  1.00  0.00     0.029 A 
ATOM     45  N   UNL A   1      44.952  29.533  30.254  1.00  0.00    -0.354 N 
ATOM     46  N   UNL A   1      44.493  26.811  29.199  1.00  0.00    -0.248 NA
ATOM     47  C   UNL A   1      45.324  24.734  28.523  1.00  0.00     0.031 C 
ATOM     48  C   UNL A   1      47.016  30.087  30.852  1.00  0.00     0.029 A 
ATOM     49  C   UNL A   1      46.250  29.059  30.324  1.00  0.00     0.049 A 
ATOM     50  H   UNL A   1      44.182  29.023  29.912  1.00  0.00     0.167 HD
ATOM     51  C   UNL A   1      45.864  26.777  29.418  1.00  0.00     0.074 A 
ATOM     52  C   UNL A   1      46.320  25.465  29.006  1.00  0.00     0.031 C 
ATOM     53  C   UNL A   1      46.676  27.745  29.914  1.00  0.00     0.037 A 
BRANCH  40  54
ATOM     54  C   UNL A   1      43.792  33.035  31.328  1.00  0.00     0.058 A 
ATOM     55  C   UNL A   1      44.212  34.103  30.520  1.00  0.00     0.135 A 
ATOM     56  C   UNL A   1      43.440  33.317  32.657  1.00  0.00     0.135 A 
ATOM     57  F   UNL A   1      44.581  33.885  29.248  1.00  0.00    -0.206 F 
ATOM     58  C   UNL A   1      44.304  35.399  31.020  1.00  0.00     0.059 A 
ATOM     59  C   UNL A   1      43.501  34.609  33.172  1.00  0.00     0.059 A 
ATOM     60  F   UNL A   1      43.037  32.331  33.474  1.00  0.00    -0.206 F 
ATOM     61  C   UNL A   1      43.949  35.641  32.348  1.00  0.00     0.060 A 
BRANCH  61  62
ATOM     62  S   UNL A   1      44.076  37.327  32.984  1.00  0.00     0.124 S 
ATOM     63  O   UNL A   1      43.842  38.110  31.776  1.00  0.00    -0.237 OA
ATOM     64  O   UNL A   1      43.012  37.367  33.982  1.00  0.00    -0.237 OA
ATOM     65  O   UNL A   1      45.433  37.386  33.516  1.00  0.00    -0.744 OA
ENDBRANCH  61  62
ENDBRANCH  40  54
BRANCH  41  66
ATOM     66  C   UNL A   1      42.676  23.747  27.726  1.00  0.00     0.058 A 
ATOM     67  C   UNL A   1      42.692  23.521  26.343  1.00  0.00     0.135 A 
ATOM     68  C   UNL A   1      42.515  22.635  28.569  1.00  0.00     0.135 A 
ATOM     69  F   UNL A   1      42.833  24.553  25.496  1.00  0.00    -0.206 F 
ATOM     70  C   UNL A   1      42.539  22.244  25.811  1.00  0.00     0.059 A 
ATOM     71  C   UNL A   1      42.385  21.346  28.063  1.00  0.00     0.059 A 
ATOM     72  F   UNL A   1      42.504  22.797  29.901  1.00  0.00    -0.206 F 
ATOM     73  C   UNL A   1      42.388  21.163  26.680  1.00  0.00     0.060 A 
BRANCH  73  74
ATOM     74  S   UNL A   1      42.235  19.503  25.984  1.00  0.00     0.124 S 
ATOM     75  O   UNL A   1      40.802  19.424  25.726  1.00  0.00    -0.237 OA
ATOM     76  O   UNL A   1      43.093  19.581  24.807  1.00  0.00    -0.237 OA
ATOM     77  O   UNL A   1      42.731  18.644  27.056  1.00  0.00    -0.744 OA
ENDBRANCH  73  74
ENDBRANCH  41  66
BRANCH  53  78
ATOM     78  C   UNL A   1      48.132  27.406  30.066  1.00  0.00     0.058 A 
ATOM     79  C   UNL A   1      49.034  27.546  29.000  1.00  0.00     0.135 A 
ATOM     80  C   UNL A   1      48.636  26.983  31.307  1.00  0.00     0.135 A 
ATOM     81  F   UNL A   1      48.599  27.939  27.794  1.00  0.00    -0.206 F 
ATOM     82  C   UNL A   1      50.386  27.257  29.155  1.00  0.00     0.059 A 
ATOM     83  C   UNL A   1      49.987  26.713  31.488  1.00  0.00     0.059 A 
ATOM     84  F   UNL A   1      47.814  26.845  32.358  1.00  0.00    -0.206 F 
ATOM     85  C   UNL A   1      50.854  26.843  30.404  1.00  0.00     0.060 A 
BRANCH  85  86
ATOM     86  S   UNL A   1      52.615  26.504  30.602  1.00  0.00     0.124 S 
ATOM     87  O   UNL A   1      53.090  27.750  31.192  1.00  0.00    -0.237 OA
ATOM     88  O   UNL A   1      52.613  25.342  31.487  1.00  0.00    -0.237 OA
ATOM     89  O   UNL A   1      53.065  26.242  29.237  1.00  0.00    -0.744 OA
ENDBRANCH  85  86
ENDBRANCH  53  78
ENDBRANCH  27  28
ENDBRANCH  20  22
ENDBRANCH  19  20
ENDBRANCH   1  19
TORSDOF 16
ENDMDL
MODEL 3
REMARK VINA RESULT:      -9.1      4.242      6.159
REMARK SMILES Cc1cc(I)ccc1[C@H]([NH3+])C(=O)OCCOC(=O)c1ccc(-c2c3nc(c(-c4c(F)cc(S(=O)(=O)[O-])cc4F)c4ccc([nH]4)c(-c4c(F)cc(S(=O)(=O)[O-])cc4F)c4nc(c(-c5c(F)cc(S(=O)(=O)[O-])cc5F)c5ccc2[nH]5)C=C4)C=C3)cc1
REMARK SMILES IDX 15 1 14 2 13 3 11 4 12 5 9 6 8 7 1 8 2 9 3 10 4 11 7 12 5 13
REMARK SMILES IDX 6 14 10 15 16 19 17 20 18 21 19 22 20 23 84 24 21 25 83 26
REMARK SMILES IDX 22 27 23 28 24 29 77 30 25 31 82 32 76 33 78 34 26 35 81 36
REMARK SMILES IDX 75 37 74 38 27 40 61 41 40 42 60 43 41 44 44 45 59 46 79 47
REMARK SMILES IDX 42 48 43 49 58 51 80 52 45 53 28 54 29 55 38 56 30 57 31 58
REMARK SMILES IDX 37 59 39 60 32 61 33 62 34 63 35 64 36 65 62 66 63 67 72 68
REMARK SMILES IDX 64 69 65 70 71 71 73 72 66 73 67 74 68 75 69 76 70 77 46 78
REMARK SMILES IDX 47 79 56 80 48 81 49 82 55 83 57 84 50 85 51 86 52 87 53 88
REMARK SMILES IDX 54 89
REMARK H PARENT 10 16 10 17 10 18 78 39 44 50
REMARK Flexibility Score: inf
ROOT
ATOM      1  C   UNL A   1      32.438  28.940  27.007  1.00  0.00     0.275 C 
ENDROOT
BRANCH   1   2
ATOM      2  C   UNL A   1      31.701  27.611  27.190  1.00  0.00     0.274 C 
BRANCH   2   3
ATOM      3  O   UNL A   1      31.988  26.724  26.097  1.00  0.00    -0.457 OA
BRANCH   3   4
ATOM      4  C   UNL A   1      31.004  25.859  25.711  1.00  0.00     0.369 C 
ATOM      5  O   UNL A   1      30.287  25.240  26.491  1.00  0.00    -0.245 OA
BRANCH   4   6
ATOM      6  C   UNL A   1      30.873  25.764  24.174  1.00  0.00     0.323 C 
BRANCH   6   7
ATOM      7  C   UNL A   1      30.343  27.037  23.529  1.00  0.00     0.024 A 
ATOM      8  C   UNL A   1      32.663  27.857  22.817  1.00  0.00     0.045 C 
ATOM      9  C   UNL A   1      31.169  28.006  22.916  1.00  0.00    -0.040 A 
ATOM     10  C   UNL A   1      30.582  29.144  22.333  1.00  0.00     0.018 A 
ATOM     11  C   UNL A   1      29.204  29.344  22.385  1.00  0.00     0.013 A 
ATOM     12  C   UNL A   1      28.950  27.268  23.574  1.00  0.00     0.012 A 
ATOM     13  I   UNL A   1      28.374  31.048  21.532  1.00  0.00    -0.044 I 
ATOM     14  C   UNL A   1      28.384  28.411  23.008  1.00  0.00     0.015 A 
ENDBRANCH   6   7
BRANCH   6  15
ATOM     15  N   UNL A   1      30.112  24.579  23.720  1.00  0.00    -0.342 N 
ATOM     16  H   UNL A   1      29.923  24.660  22.721  1.00  0.00     0.345 HD
ATOM     17  H   UNL A   1      29.231  24.524  24.230  1.00  0.00     0.345 HD
ATOM     18  H   UNL A   1      30.659  23.736  23.895  1.00  0.00     0.345 HD
ENDBRANCH   6  15
ENDBRANCH   4   6
ENDBRANCH   3   4
ENDBRANCH   2   3
ENDBRANCH   1   2
BRANCH   1  19
ATOM     19  O   UNL A   1      33.767  28.887  27.556  1.00  0.00    -0.458 OA
BRANCH  19  20
ATOM     20  C   UNL A   1      34.321  30.085  27.849  1.00  0.00     0.338 C 
ATOM     21  O   UNL A   1      33.752  31.165  27.952  1.00  0.00    -0.246 OA
BRANCH  20  22
ATOM     22  C   UNL A   1      35.732  29.895  28.214  1.00  0.00     0.060 A 
ATOM     23  C   UNL A   1      36.684  30.057  27.203  1.00  0.00     0.016 A 
ATOM     24  C   UNL A   1      36.117  29.517  29.501  1.00  0.00     0.016 A 
ATOM     25  C   UNL A   1      38.028  29.830  27.467  1.00  0.00     0.010 A 
ATOM     26  C   UNL A   1      37.468  29.286  29.767  1.00  0.00     0.010 A 
ATOM     27  C   UNL A   1      38.427  29.428  28.747  1.00  0.00    -0.014 A 
BRANCH  27  28
ATOM     28  C   UNL A   1      39.845  29.087  28.992  1.00  0.00     0.031 A 
ATOM     29  C   UNL A   1      40.760  30.126  29.573  1.00  0.00     0.074 A 
ATOM     30  C   UNL A   1      40.292  27.847  28.723  1.00  0.00     0.049 A 
ATOM     31  N   UNL A   1      42.048  30.068  29.783  1.00  0.00    -0.248 NA
ATOM     32  C   UNL A   1      40.140  31.400  29.971  1.00  0.00     0.031 C 
ATOM     33  C   UNL A   1      39.472  26.748  28.212  1.00  0.00     0.029 A 
ATOM     34  N   UNL A   1      41.545  27.305  28.841  1.00  0.00    -0.354 N 
ATOM     35  C   UNL A   1      42.399  31.302  30.318  1.00  0.00     0.074 A 
ATOM     36  C   UNL A   1      41.190  32.094  30.386  1.00  0.00     0.031 C 
ATOM     37  C   UNL A   1      40.248  25.661  28.054  1.00  0.00     0.029 A 
ATOM     38  C   UNL A   1      41.622  26.003  28.409  1.00  0.00     0.049 A 
ATOM     39  H   UNL A   1      42.316  27.801  29.200  1.00  0.00     0.167 HD
ATOM     40  C   UNL A   1      43.621  31.729  30.716  1.00  0.00     0.037 A 
ATOM     41  C   UNL A   1      42.689  25.191  28.285  1.00  0.00     0.037 A 
ATOM     42  C   UNL A   1      44.812  30.923  30.649  1.00  0.00     0.049 A 
ATOM     43  C   UNL A   1      44.047  25.710  28.675  1.00  0.00     0.074 A 
ATOM     44  C   UNL A   1      46.101  31.259  31.021  1.00  0.00     0.029 A 
ATOM     45  N   UNL A   1      44.858  29.618  30.179  1.00  0.00    -0.354 N 
ATOM     46  N   UNL A   1      44.371  26.887  29.159  1.00  0.00    -0.248 NA
ATOM     47  C   UNL A   1      45.183  24.798  28.496  1.00  0.00     0.031 C 
ATOM     48  C   UNL A   1      46.932  30.168  30.743  1.00  0.00     0.029 A 
ATOM     49  C   UNL A   1      46.155  29.138  30.237  1.00  0.00     0.049 A 
ATOM     50  H   UNL A   1      44.081  29.109  29.852  1.00  0.00     0.167 HD
ATOM     51  C   UNL A   1      45.745  26.849  29.361  1.00  0.00     0.074 A 
ATOM     52  C   UNL A   1      46.189  25.530  28.958  1.00  0.00     0.031 C 
ATOM     53  C   UNL A   1      46.569  27.818  29.835  1.00  0.00     0.037 A 
BRANCH  40  54
ATOM     54  C   UNL A   1      43.730  33.137  31.228  1.00  0.00     0.058 A 
ATOM     55  C   UNL A   1      43.613  33.439  32.594  1.00  0.00     0.135 A 
ATOM     56  C   UNL A   1      43.975  34.198  30.342  1.00  0.00     0.135 A 
ATOM     57  F   UNL A   1      43.357  32.465  33.481  1.00  0.00    -0.206 F 
ATOM     58  C   UNL A   1      43.709  34.746  33.060  1.00  0.00     0.059 A 
ATOM     59  C   UNL A   1      44.099  35.511  30.788  1.00  0.00     0.059 A 
ATOM     60  F   UNL A   1      44.091  33.966  29.025  1.00  0.00    -0.206 F 
ATOM     61  C   UNL A   1      43.950  35.776  32.149  1.00  0.00     0.060 A 
BRANCH  61  62
ATOM     62  S   UNL A   1      44.069  37.468  32.768  1.00  0.00     0.124 S 
ATOM     63  O   UNL A   1      42.987  37.497  33.745  1.00  0.00    -0.237 OA
ATOM     64  O   UNL A   1      45.421  37.507  33.317  1.00  0.00    -0.237 OA
ATOM     65  O   UNL A   1      43.858  38.282  31.574  1.00  0.00    -0.744 OA
ENDBRANCH  61  62
ENDBRANCH  40  54
BRANCH  41  66
ATOM     66  C   UNL A   1      42.520  23.816  27.745  1.00  0.00     0.058 A 
ATOM     67  C   UNL A   1      42.459  22.705  28.597  1.00  0.00     0.135 A 
ATOM     68  C   UNL A   1      42.409  23.588  26.363  1.00  0.00     0.135 A 
ATOM     69  F   UNL A   1      42.570  22.871  29.924  1.00  0.00    -0.206 F 
ATOM     70  C   UNL A   1      42.309  21.414  28.101  1.00  0.00     0.059 A 
ATOM     71  C   UNL A   1      42.233  22.310  25.845  1.00  0.00     0.059 A 
ATOM     72  F   UNL A   1      42.450  24.620  25.505  1.00  0.00    -0.206 F 
ATOM     73  C   UNL A   1      42.195  21.227  26.723  1.00  0.00     0.060 A 
BRANCH  73  74
ATOM     74  S   UNL A   1      41.956  19.552  26.090  1.00  0.00     0.124 S 
ATOM     75  O   UNL A   1      42.823  19.555  24.917  1.00  0.00    -0.237 OA
ATOM     76  O   UNL A   1      42.401  18.731  27.211  1.00  0.00    -0.237 OA
ATOM     77  O   UNL A   1      40.523  19.500  25.815  1.00  0.00    -0.744 OA
ENDBRANCH  73  74
ENDBRANCH  41  66
BRANCH  53  78
ATOM     78  C   UNL A   1      48.024  27.473  29.972  1.00  0.00     0.058 A 
ATOM     79  C   UNL A   1      48.946  27.759  28.953  1.00  0.00     0.135 A 
ATOM     80  C   UNL A   1      48.508  26.895  31.156  1.00  0.00     0.135 A 
ATOM     81  F   UNL A   1      48.530  28.304  27.799  1.00  0.00    -0.206 F 
ATOM     82  C   UNL A   1      50.297  27.463  29.096  1.00  0.00     0.059 A 
ATOM     83  C   UNL A   1      49.859  26.614  31.329  1.00  0.00     0.059 A 
ATOM     84  F   UNL A   1      47.667  26.613  32.163  1.00  0.00    -0.206 F 
ATOM     85  C   UNL A   1      50.745  26.892  30.289  1.00  0.00     0.060 A 
BRANCH  85  86
ATOM     86  S   UNL A   1      52.506  26.543  30.477  1.00  0.00     0.124 S 
ATOM     87  O   UNL A   1      52.486  25.429  31.418  1.00  0.00    -0.237 OA
ATOM     88  O   UNL A   1      52.908  26.214  29.112  1.00  0.00    -0.237 OA
ATOM     89  O   UNL A   1      53.046  27.796  30.997  1.00  0.00    -0.744 OA
ENDBRANCH  85  86
ENDBRANCH  53  78
ENDBRANCH  27  28
ENDBRANCH  20  22
ENDBRANCH  19  20
ENDBRANCH   1  19
TORSDOF 16
ENDMDL
