MODEL 1
REMARK VINA RESULT:     -11.9      0.000      0.000
REMARK SMILES O=C(OCCOC(=O)[C@@]1(Cc2ccnc3ccccc23)CCC[NH2+]C1)c1ccc(-c2c3nc(c(-c4c(F)cc(S(=O)(=O)[O-])cc4F)c4ccc([nH]4)c(-c4c(F)cc(S(=O)(=O)[O-])cc4F)c4nc(c(-c5c(F)cc(S(=O)(=O)[O-])cc5F)c5ccc2[nH]5)C=C4)C=C3)cc1
REMARK SMILES IDX 4 1 3 2 2 3 1 4 26 5 27 6 91 7 28 8 90 9 29 10 30 11 31 12
REMARK SMILES IDX 84 13 32 14 89 15 83 16 85 17 33 18 88 19 82 20 81 21 34 23
REMARK SMILES IDX 68 24 47 25 67 26 48 27 51 28 66 29 86 30 49 31 50 32 65 34
REMARK SMILES IDX 87 35 52 36 35 37 36 38 45 39 37 40 38 41 44 42 46 43 39 44
REMARK SMILES IDX 40 45 41 46 42 47 43 48 69 49 70 50 79 51 71 52 72 53 78 54
REMARK SMILES IDX 80 55 73 56 74 57 75 58 76 59 77 60 53 61 54 62 63 63 55 64
REMARK SMILES IDX 56 65 62 66 64 67 57 68 58 69 59 70 60 71 61 72 5 73 6 74
REMARK SMILES IDX 7 75 8 76 9 77 21 78 25 79 22 80 24 81 23 82 10 85 11 86
REMARK SMILES IDX 12 87 20 88 13 89 15 90 19 91 14 92 16 93 18 94 17 95
REMARK H PARENT 85 22 51 33 24 83 24 84
REMARK Flexibility Score: inf
ROOT
ATOM      1  C   UNL A   1      39.516  22.361  26.729  1.00  0.00     0.275 C 
ENDROOT
BRANCH   1   2
ATOM      2  O   UNL A   1      39.664  23.787  26.719  1.00  0.00    -0.458 OA
BRANCH   2   3
ATOM      3  C   UNL A   1      40.770  24.548  26.884  1.00  0.00     0.338 C 
ATOM      4  O   UNL A   1      41.735  24.320  26.154  1.00  0.00    -0.246 OA
BRANCH   3   5
ATOM      5  C   UNL A   1      40.944  25.569  27.974  1.00  0.00     0.060 A 
ATOM      6  C   UNL A   1      42.092  26.313  28.274  1.00  0.00     0.016 A 
ATOM      7  C   UNL A   1      39.791  25.837  28.724  1.00  0.00     0.016 A 
ATOM      8  C   UNL A   1      42.060  27.398  29.173  1.00  0.00     0.010 A 
ATOM      9  C   UNL A   1      39.744  26.936  29.587  1.00  0.00     0.010 A 
ATOM     10  C   UNL A   1      40.873  27.752  29.803  1.00  0.00    -0.014 A 
BRANCH  10  11
ATOM     11  C   UNL A   1      40.758  28.874  30.779  1.00  0.00     0.031 A 
ATOM     12  C   UNL A   1      41.374  28.636  32.128  1.00  0.00     0.074 A 
ATOM     13  C   UNL A   1      40.020  29.989  30.561  1.00  0.00     0.049 A 
ATOM     14  N   UNL A   1      41.229  29.304  33.238  1.00  0.00    -0.248 NA
ATOM     15  C   UNL A   1      42.252  27.452  32.244  1.00  0.00     0.031 C 
ATOM     16  C   UNL A   1      39.372  30.376  29.304  1.00  0.00     0.029 A 
ATOM     17  N   UNL A   1      39.579  30.950  31.448  1.00  0.00    -0.354 N 
ATOM     18  C   UNL A   1      42.050  28.658  34.148  1.00  0.00     0.074 A 
ATOM     19  C   UNL A   1      42.500  27.429  33.539  1.00  0.00     0.031 C 
ATOM     20  C   UNL A   1      38.509  31.385  29.537  1.00  0.00     0.029 A 
ATOM     21  C   UNL A   1      38.557  31.737  30.949  1.00  0.00     0.049 A 
ATOM     22  H   UNL A   1      39.957  31.065  32.351  1.00  0.00     0.167 HD
ATOM     23  C   UNL A   1      42.519  29.121  35.327  1.00  0.00     0.037 A 
ATOM     24  C   UNL A   1      37.737  32.611  31.574  1.00  0.00     0.037 A 
ATOM     25  C   UNL A   1      42.086  30.353  35.909  1.00  0.00     0.049 A 
ATOM     26  C   UNL A   1      38.073  32.992  32.994  1.00  0.00     0.074 A 
ATOM     27  C   UNL A   1      42.540  30.979  37.051  1.00  0.00     0.029 A 
ATOM     28  N   UNL A   1      41.073  31.142  35.384  1.00  0.00    -0.354 N 
ATOM     29  N   UNL A   1      38.980  32.475  33.789  1.00  0.00    -0.248 NA
ATOM     30  C   UNL A   1      37.356  34.140  33.567  1.00  0.00     0.031 C 
ATOM     31  C   UNL A   1      41.764  32.128  37.245  1.00  0.00     0.029 A 
ATOM     32  C   UNL A   1      40.863  32.238  36.196  1.00  0.00     0.049 A 
ATOM     33  H   UNL A   1      40.577  30.948  34.556  1.00  0.00     0.167 HD
ATOM     34  C   UNL A   1      39.026  33.305  34.902  1.00  0.00     0.074 A 
ATOM     35  C   UNL A   1      38.009  34.319  34.708  1.00  0.00     0.031 C 
ATOM     36  C   UNL A   1      39.873  33.261  35.961  1.00  0.00     0.037 A 
BRANCH  23  37
ATOM     37  C   UNL A   1      43.609  28.312  35.963  1.00  0.00     0.058 A 
ATOM     38  C   UNL A   1      44.960  28.564  35.651  1.00  0.00     0.135 A 
ATOM     39  C   UNL A   1      43.319  27.237  36.811  1.00  0.00     0.135 A 
ATOM     40  F   UNL A   1      45.290  29.566  34.818  1.00  0.00    -0.206 F 
ATOM     41  C   UNL A   1      45.978  27.739  36.108  1.00  0.00     0.059 A 
ATOM     42  C   UNL A   1      44.329  26.418  37.309  1.00  0.00     0.059 A 
ATOM     43  F   UNL A   1      42.049  26.949  37.128  1.00  0.00    -0.206 F 
ATOM     44  C   UNL A   1      45.649  26.663  36.931  1.00  0.00     0.060 A 
BRANCH  44  45
ATOM     45  S   UNL A   1      46.984  25.584  37.487  1.00  0.00     0.124 S 
ATOM     46  O   UNL A   1      46.311  24.290  37.534  1.00  0.00    -0.237 OA
ATOM     47  O   UNL A   1      47.976  25.747  36.434  1.00  0.00    -0.237 OA
ATOM     48  O   UNL A   1      47.352  26.147  38.787  1.00  0.00    -0.744 OA
ENDBRANCH  44  45
ENDBRANCH  23  37
BRANCH  24  49
ATOM     49  C   UNL A   1      36.584  33.258  30.878  1.00  0.00     0.058 A 
ATOM     50  C   UNL A   1      36.785  34.205  29.864  1.00  0.00     0.135 A 
ATOM     51  C   UNL A   1      35.256  33.003  31.264  1.00  0.00     0.135 A 
ATOM     52  F   UNL A   1      38.033  34.511  29.476  1.00  0.00    -0.206 F 
ATOM     53  C   UNL A   1      35.724  34.888  29.269  1.00  0.00     0.059 A 
ATOM     54  C   UNL A   1      34.174  33.661  30.673  1.00  0.00     0.059 A 
ATOM     55  F   UNL A   1      34.998  32.122  32.243  1.00  0.00    -0.206 F 
ATOM     56  C   UNL A   1      34.420  34.609  29.681  1.00  0.00     0.060 A 
BRANCH  56  57
ATOM     57  S   UNL A   1      33.056  35.494  28.883  1.00  0.00     0.124 S 
ATOM     58  O   UNL A   1      33.768  36.506  28.109  1.00  0.00    -0.237 OA
ATOM     59  O   UNL A   1      32.417  34.434  28.110  1.00  0.00    -0.237 OA
ATOM     60  O   UNL A   1      32.274  35.998  30.009  1.00  0.00    -0.744 OA
ENDBRANCH  56  57
ENDBRANCH  24  49
BRANCH  36  61
ATOM     61  C   UNL A   1      39.829  34.395  36.938  1.00  0.00     0.058 A 
ATOM     62  C   UNL A   1      39.070  34.340  38.114  1.00  0.00     0.135 A 
ATOM     63  C   UNL A   1      40.651  35.518  36.732  1.00  0.00     0.135 A 
ATOM     64  F   UNL A   1      38.262  33.295  38.349  1.00  0.00    -0.206 F 
ATOM     65  C   UNL A   1      39.126  35.361  39.056  1.00  0.00     0.059 A 
ATOM     66  C   UNL A   1      40.746  36.533  37.674  1.00  0.00     0.059 A 
ATOM     67  F   UNL A   1      41.402  35.613  35.624  1.00  0.00    -0.206 F 
ATOM     68  C   UNL A   1      39.977  36.446  38.832  1.00  0.00     0.060 A 
BRANCH  68  69
ATOM     69  S   UNL A   1      40.102  37.723  40.101  1.00  0.00     0.124 S 
ATOM     70  O   UNL A   1      41.326  38.412  39.706  1.00  0.00    -0.237 OA
ATOM     71  O   UNL A   1      38.863  38.472  39.912  1.00  0.00    -0.237 OA
ATOM     72  O   UNL A   1      40.183  36.961  41.343  1.00  0.00    -0.744 OA
ENDBRANCH  68  69
ENDBRANCH  36  61
ENDBRANCH  10  11
ENDBRANCH   3   5
ENDBRANCH   2   3
ENDBRANCH   1   2
BRANCH   1  73
ATOM     73  C   UNL A   1      38.550  21.810  25.678  1.00  0.00     0.274 C 
BRANCH  73  74
ATOM     74  O   UNL A   1      37.197  22.274  25.826  1.00  0.00    -0.461 OA
BRANCH  74  75
ATOM     75  C   UNL A   1      36.207  21.488  25.307  1.00  0.00     0.318 C 
ATOM     76  O   UNL A   1      36.312  20.270  25.177  1.00  0.00    -0.251 OA
BRANCH  75  77
ATOM     77  C   UNL A   1      34.993  22.292  24.775  1.00  0.00     0.121 C 
ATOM     78  C   UNL A   1      35.353  23.062  23.512  1.00  0.00     0.031 C 
ATOM     79  C   UNL A   1      33.988  21.209  24.337  1.00  0.00     0.279 C 
ATOM     80  C   UNL A   1      34.191  23.688  22.767  1.00  0.00     0.063 C 
ATOM     81  N   UNL A   1      32.998  21.509  23.310  1.00  0.00    -0.345 N 
ATOM     82  C   UNL A   1      32.934  22.839  22.730  1.00  0.00     0.260 C 
ATOM     83  H   UNL A   1      33.164  20.860  22.541  1.00  0.00     0.346 HD
ATOM     84  H   UNL A   1      32.111  21.428  23.809  1.00  0.00     0.346 HD
BRANCH  77  85
ATOM     85  C   UNL A   1      34.610  23.296  25.937  1.00  0.00     0.061 C 
BRANCH  85  86
ATOM     86  C   UNL A   1      33.199  23.859  26.007  1.00  0.00    -0.036 A 
ATOM     87  C   UNL A   1      32.127  23.010  26.320  1.00  0.00     0.024 A 
ATOM     88  C   UNL A   1      32.960  25.250  25.947  1.00  0.00     0.003 A 
ATOM     89  C   UNL A   1      30.928  23.579  26.711  1.00  0.00     0.112 A 
ATOM     90  C   UNL A   1      31.743  25.726  26.480  1.00  0.00     0.070 A 
ATOM     91  C   UNL A   1      33.918  26.176  25.487  1.00  0.00     0.010 A 
ATOM     92  N   UNL A   1      30.733  24.908  26.826  1.00  0.00    -0.256 NA
ATOM     93  C   UNL A   1      31.646  27.084  26.762  1.00  0.00     0.029 A 
ATOM     94  C   UNL A   1      33.793  27.531  25.767  1.00  0.00     0.001 A 
ATOM     95  C   UNL A   1      32.678  27.978  26.458  1.00  0.00     0.002 A 
ENDBRANCH  85  86
ENDBRANCH  77  85
ENDBRANCH  75  77
ENDBRANCH  74  75
ENDBRANCH  73  74
ENDBRANCH   1  73
TORSDOF 16
ENDMDL
MODEL 2
REMARK VINA RESULT:     -11.8      3.504      9.703
REMARK SMILES O=C(OCCOC(=O)[C@@]1(Cc2ccnc3ccccc23)CCC[NH2+]C1)c1ccc(-c2c3nc(c(-c4c(F)cc(S(=O)(=O)[O-])cc4F)c4ccc([nH]4)c(-c4c(F)cc(S(=O)(=O)[O-])cc4F)c4nc(c(-c5c(F)cc(S(=O)(=O)[O-])cc5F)c5ccc2[nH]5)C=C4)C=C3)cc1
REMARK SMILES IDX 4 1 3 2 2 3 1 4 26 5 27 6 91 7 28 8 90 9 29 10 30 11 31 12
REMARK SMILES IDX 84 13 32 14 89 15 83 16 85 17 33 18 88 19 82 20 81 21 34 23
REMARK SMILES IDX 68 24 47 25 67 26 48 27 51 28 66 29 86 30 49 31 50 32 65 34
REMARK SMILES IDX 87 35 52 36 35 37 36 38 45 39 37 40 38 41 44 42 46 43 39 44
REMARK SMILES IDX 40 45 41 46 42 47 43 48 69 49 70 50 79 51 71 52 72 53 78 54
REMARK SMILES IDX 80 55 73 56 74 57 75 58 76 59 77 60 53 61 54 62 63 63 55 64
REMARK SMILES IDX 56 65 62 66 64 67 57 68 58 69 59 70 60 71 61 72 5 73 6 74
REMARK SMILES IDX 7 75 8 76 9 77 21 78 25 79 22 80 24 81 23 82 10 85 11 86
REMARK SMILES IDX 12 87 20 88 13 89 15 90 19 91 14 92 16 93 18 94 17 95
REMARK H PARENT 85 22 51 33 24 83 24 84
REMARK Flexibility Score: inf
ROOT
ATOM      1  C   UNL A   1      32.227  30.315  26.654  1.00  0.00     0.275 C 
ENDROOT
BRANCH   1   2
ATOM      2  O   UNL A   1      33.646  30.512  26.645  1.00  0.00    -0.458 OA
BRANCH   2   3
ATOM      3  C   UNL A   1      34.470  30.953  27.624  1.00  0.00     0.338 C 
ATOM      4  O   UNL A   1      34.196  32.027  28.160  1.00  0.00    -0.246 OA
BRANCH   3   5
ATOM      5  C   UNL A   1      35.756  30.282  28.018  1.00  0.00     0.060 A 
ATOM      6  C   UNL A   1      36.945  30.208  27.280  1.00  0.00     0.016 A 
ATOM      7  C   UNL A   1      35.765  29.726  29.305  1.00  0.00     0.016 A 
ATOM      8  C   UNL A   1      38.147  29.748  27.852  1.00  0.00     0.010 A 
ATOM      9  C   UNL A   1      36.963  29.304  29.889  1.00  0.00     0.010 A 
ATOM     10  C   UNL A   1      38.180  29.336  29.179  1.00  0.00    -0.014 A 
BRANCH  10  11
ATOM     11  C   UNL A   1      39.406  28.820  29.854  1.00  0.00     0.031 A 
ATOM     12  C   UNL A   1      40.027  29.732  30.873  1.00  0.00     0.074 A 
ATOM     13  C   UNL A   1      40.042  27.681  29.490  1.00  0.00     0.049 A 
ATOM     14  N   UNL A   1      41.202  29.674  31.434  1.00  0.00    -0.248 NA
ATOM     15  C   UNL A   1      39.214  30.894  31.289  1.00  0.00     0.031 C 
ATOM     16  C   UNL A   1      39.564  26.681  28.531  1.00  0.00     0.029 A 
ATOM     17  N   UNL A   1      41.312  27.234  29.800  1.00  0.00    -0.354 N 
ATOM     18  C   UNL A   1      41.227  30.747  32.311  1.00  0.00     0.074 A 
ATOM     19  C   UNL A   1      40.067  31.561  32.043  1.00  0.00     0.031 C 
ATOM     20  C   UNL A   1      40.571  25.841  28.219  1.00  0.00     0.029 A 
ATOM     21  C   UNL A   1      41.759  26.221  28.971  1.00  0.00     0.049 A 
ATOM     22  H   UNL A   1      41.847  27.603  30.539  1.00  0.00     0.167 HD
ATOM     23  C   UNL A   1      42.057  30.953  33.356  1.00  0.00     0.037 A 
ATOM     24  C   UNL A   1      42.993  25.692  28.820  1.00  0.00     0.037 A 
ATOM     25  C   UNL A   1      43.189  30.123  33.629  1.00  0.00     0.049 A 
ATOM     26  C   UNL A   1      44.046  26.074  29.830  1.00  0.00     0.074 A 
ATOM     27  C   UNL A   1      44.060  30.168  34.698  1.00  0.00     0.029 A 
ATOM     28  N   UNL A   1      43.613  29.096  32.798  1.00  0.00    -0.354 N 
ATOM     29  N   UNL A   1      43.986  26.986  30.772  1.00  0.00    -0.248 NA
ATOM     30  C   UNL A   1      45.289  25.290  29.831  1.00  0.00     0.031 C 
ATOM     31  C   UNL A   1      45.044  29.195  34.489  1.00  0.00     0.029 A 
ATOM     32  C   UNL A   1      44.754  28.515  33.315  1.00  0.00     0.049 A 
ATOM     33  H   UNL A   1      43.167  28.822  31.965  1.00  0.00     0.167 HD
ATOM     34  C   UNL A   1      45.124  26.804  31.548  1.00  0.00     0.074 A 
ATOM     35  C   UNL A   1      45.887  25.741  30.926  1.00  0.00     0.031 C 
ATOM     36  C   UNL A   1      45.474  27.427  32.701  1.00  0.00     0.037 A 
BRANCH  23  37
ATOM     37  C   UNL A   1      41.670  32.057  34.294  1.00  0.00     0.058 A 
ATOM     38  C   UNL A   1      40.733  31.828  35.321  1.00  0.00     0.135 A 
ATOM     39  C   UNL A   1      42.158  33.358  34.127  1.00  0.00     0.135 A 
ATOM     40  F   UNL A   1      40.212  30.602  35.503  1.00  0.00    -0.206 F 
ATOM     41  C   UNL A   1      40.247  32.864  36.106  1.00  0.00     0.059 A 
ATOM     42  C   UNL A   1      41.710  34.405  34.927  1.00  0.00     0.059 A 
ATOM     43  F   UNL A   1      43.043  33.630  33.156  1.00  0.00    -0.206 F 
ATOM     44  C   UNL A   1      40.738  34.151  35.895  1.00  0.00     0.060 A 
BRANCH  44  45
ATOM     45  S   UNL A   1      40.069  35.488  36.904  1.00  0.00     0.124 S 
ATOM     46  O   UNL A   1      41.232  35.859  37.704  1.00  0.00    -0.237 OA
ATOM     47  O   UNL A   1      39.651  36.458  35.902  1.00  0.00    -0.237 OA
ATOM     48  O   UNL A   1      38.982  34.841  37.641  1.00  0.00    -0.744 OA
ENDBRANCH  44  45
ENDBRANCH  23  37
BRANCH  24  49
ATOM     49  C   UNL A   1      43.306  24.694  27.753  1.00  0.00     0.058 A 
ATOM     50  C   UNL A   1      43.040  23.329  27.934  1.00  0.00     0.135 A 
ATOM     51  C   UNL A   1      43.950  25.070  26.561  1.00  0.00     0.135 A 
ATOM     52  F   UNL A   1      42.455  22.907  29.066  1.00  0.00    -0.206 F 
ATOM     53  C   UNL A   1      43.412  22.372  26.989  1.00  0.00     0.059 A 
ATOM     54  C   UNL A   1      44.318  24.134  25.591  1.00  0.00     0.059 A 
ATOM     55  F   UNL A   1      44.250  26.359  26.338  1.00  0.00    -0.206 F 
ATOM     56  C   UNL A   1      44.051  22.784  25.819  1.00  0.00     0.060 A 
BRANCH  56  57
ATOM     57  S   UNL A   1      44.509  21.528  24.597  1.00  0.00     0.124 S 
ATOM     58  O   UNL A   1      44.162  22.189  23.344  1.00  0.00    -0.237 OA
ATOM     59  O   UNL A   1      45.935  21.360  24.855  1.00  0.00    -0.237 OA
ATOM     60  O   UNL A   1      43.675  20.385  24.958  1.00  0.00    -0.744 OA
ENDBRANCH  56  57
ENDBRANCH  24  49
BRANCH  36  61
ATOM     61  C   UNL A   1      46.670  26.907  33.440  1.00  0.00     0.058 A 
ATOM     62  C   UNL A   1      47.944  27.466  33.287  1.00  0.00     0.135 A 
ATOM     63  C   UNL A   1      46.502  25.890  34.399  1.00  0.00     0.135 A 
ATOM     64  F   UNL A   1      48.156  28.429  32.378  1.00  0.00    -0.206 F 
ATOM     65  C   UNL A   1      49.017  27.035  34.060  1.00  0.00     0.059 A 
ATOM     66  C   UNL A   1      47.551  25.468  35.203  1.00  0.00     0.059 A 
ATOM     67  F   UNL A   1      45.297  25.329  34.586  1.00  0.00    -0.206 F 
ATOM     68  C   UNL A   1      48.807  26.045  35.023  1.00  0.00     0.060 A 
BRANCH  68  69
ATOM     69  S   UNL A   1      50.187  25.555  36.076  1.00  0.00     0.124 S 
ATOM     70  O   UNL A   1      49.681  25.893  37.402  1.00  0.00    -0.237 OA
ATOM     71  O   UNL A   1      50.309  24.129  35.786  1.00  0.00    -0.237 OA
ATOM     72  O   UNL A   1      51.291  26.381  35.596  1.00  0.00    -0.744 OA
ENDBRANCH  68  69
ENDBRANCH  36  61
ENDBRANCH  10  11
ENDBRANCH   3   5
ENDBRANCH   2   3
ENDBRANCH   1   2
BRANCH   1  73
ATOM     73  C   UNL A   1      31.780  28.891  26.989  1.00  0.00     0.274 C 
BRANCH  73  74
ATOM     74  O   UNL A   1      31.864  27.974  25.885  1.00  0.00    -0.461 OA
BRANCH  74  75
ATOM     75  C   UNL A   1      32.931  27.121  25.860  1.00  0.00     0.318 C 
ATOM     76  O   UNL A   1      33.978  27.334  26.468  1.00  0.00    -0.251 OA
BRANCH  75  77
ATOM     77  C   UNL A   1      32.747  25.928  24.888  1.00  0.00     0.121 C 
ATOM     78  C   UNL A   1      31.336  25.892  24.319  1.00  0.00     0.031 C 
ATOM     79  C   UNL A   1      33.671  26.266  23.701  1.00  0.00     0.279 C 
ATOM     80  C   UNL A   1      31.108  24.921  23.178  1.00  0.00     0.063 C 
ATOM     81  N   UNL A   1      33.387  25.718  22.380  1.00  0.00    -0.345 N 
ATOM     82  C   UNL A   1      32.257  24.825  22.192  1.00  0.00     0.260 C 
ATOM     83  H   UNL A   1      33.241  26.513  21.757  1.00  0.00     0.346 HD
ATOM     84  H   UNL A   1      34.193  25.119  22.196  1.00  0.00     0.346 HD
BRANCH  77  85
ATOM     85  C   UNL A   1      33.022  24.633  25.754  1.00  0.00     0.061 C 
BRANCH  85  86
ATOM     86  C   UNL A   1      34.207  23.740  25.414  1.00  0.00    -0.036 A 
ATOM     87  C   UNL A   1      35.505  24.156  25.741  1.00  0.00     0.024 A 
ATOM     88  C   UNL A   1      34.021  22.421  24.944  1.00  0.00     0.003 A 
ATOM     89  C   UNL A   1      36.519  23.214  25.743  1.00  0.00     0.112 A 
ATOM     90  C   UNL A   1      35.093  21.516  25.101  1.00  0.00     0.070 A 
ATOM     91  C   UNL A   1      32.793  21.951  24.435  1.00  0.00     0.010 A 
ATOM     92  N   UNL A   1      36.326  21.909  25.464  1.00  0.00    -0.256 NA
ATOM     93  C   UNL A   1      34.816  20.159  24.990  1.00  0.00     0.029 A 
ATOM     94  C   UNL A   1      32.544  20.590  24.318  1.00  0.00     0.001 A 
ATOM     95  C   UNL A   1      33.543  19.689  24.651  1.00  0.00     0.002 A 
ENDBRANCH  85  86
ENDBRANCH  77  85
ENDBRANCH  75  77
ENDBRANCH  74  75
ENDBRANCH  73  74
ENDBRANCH   1  73
TORSDOF 16
ENDMDL
MODEL 3
REMARK VINA RESULT:     -11.7      3.524      9.762
REMARK SMILES O=C(OCCOC(=O)[C@@]1(Cc2ccnc3ccccc23)CCC[NH2+]C1)c1ccc(-c2c3nc(c(-c4c(F)cc(S(=O)(=O)[O-])cc4F)c4ccc([nH]4)c(-c4c(F)cc(S(=O)(=O)[O-])cc4F)c4nc(c(-c5c(F)cc(S(=O)(=O)[O-])cc5F)c5ccc2[nH]5)C=C4)C=C3)cc1
REMARK SMILES IDX 4 1 3 2 2 3 1 4 26 5 27 6 91 7 28 8 90 9 29 10 30 11 31 12
REMARK SMILES IDX 84 13 32 14 89 15 83 16 85 17 33 18 88 19 82 20 81 21 34 23
REMARK SMILES IDX 68 24 47 25 67 26 48 27 51 28 66 29 86 30 49 31 50 32 65 34
REMARK SMILES IDX 87 35 52 36 35 37 36 38 45 39 37 40 38 41 44 42 46 43 39 44
REMARK SMILES IDX 40 45 41 46 42 47 43 48 69 49 70 50 79 51 71 52 72 53 78 54
REMARK SMILES IDX 80 55 73 56 74 57 75 58 76 59 77 60 53 61 54 62 63 63 55 64
REMARK SMILES IDX 56 65 62 66 64 67 57 68 58 69 59 70 60 71 61 72 5 73 6 74
REMARK SMILES IDX 7 75 8 76 9 77 21 78 25 79 22 80 24 81 23 82 10 85 11 86
REMARK SMILES IDX 12 87 20 88 13 89 15 90 19 91 14 92 16 93 18 94 17 95
REMARK H PARENT 85 22 51 33 24 83 24 84
REMARK Flexibility Score: inf
ROOT
ATOM      1  C   UNL A   1      32.932  29.800  25.924  1.00  0.00     0.275 C 
ENDROOT
BRANCH   1   2
ATOM      2  O   UNL A   1      33.327  30.224  27.234  1.00  0.00    -0.458 OA
BRANCH   2   3
ATOM      3  C   UNL A   1      34.435  30.888  27.637  1.00  0.00     0.338 C 
ATOM      4  O   UNL A   1      34.413  32.118  27.586  1.00  0.00    -0.246 OA
BRANCH   3   5
ATOM      5  C   UNL A   1      35.726  30.227  28.029  1.00  0.00     0.060 A 
ATOM      6  C   UNL A   1      36.910  30.151  27.282  1.00  0.00     0.016 A 
ATOM      7  C   UNL A   1      35.747  29.684  29.321  1.00  0.00     0.016 A 
ATOM      8  C   UNL A   1      38.119  29.701  27.850  1.00  0.00     0.010 A 
ATOM      9  C   UNL A   1      36.951  29.274  29.901  1.00  0.00     0.010 A 
ATOM     10  C   UNL A   1      38.163  29.303  29.181  1.00  0.00    -0.014 A 
BRANCH  10  11
ATOM     11  C   UNL A   1      39.397  28.800  29.852  1.00  0.00     0.031 A 
ATOM     12  C   UNL A   1      40.013  29.718  30.867  1.00  0.00     0.074 A 
ATOM     13  C   UNL A   1      40.041  27.665  29.489  1.00  0.00     0.049 A 
ATOM     14  N   UNL A   1      41.191  29.672  31.424  1.00  0.00    -0.248 NA
ATOM     15  C   UNL A   1      39.192  30.875  31.284  1.00  0.00     0.031 C 
ATOM     16  C   UNL A   1      39.569  26.659  28.533  1.00  0.00     0.029 A 
ATOM     17  N   UNL A   1      41.316  27.230  29.794  1.00  0.00    -0.354 N 
ATOM     18  C   UNL A   1      41.210  30.747  32.298  1.00  0.00     0.074 A 
ATOM     19  C   UNL A   1      40.042  31.551  32.033  1.00  0.00     0.031 C 
ATOM     20  C   UNL A   1      40.581  25.828  28.219  1.00  0.00     0.029 A 
ATOM     21  C   UNL A   1      41.768  26.219  28.965  1.00  0.00     0.049 A 
ATOM     22  H   UNL A   1      41.851  27.605  30.531  1.00  0.00     0.167 HD
ATOM     23  C   UNL A   1      42.042  30.962  33.340  1.00  0.00     0.037 A 
ATOM     24  C   UNL A   1      43.007  25.701  28.811  1.00  0.00     0.037 A 
ATOM     25  C   UNL A   1      43.183  30.143  33.609  1.00  0.00     0.049 A 
ATOM     26  C   UNL A   1      44.061  26.094  29.816  1.00  0.00     0.074 A 
ATOM     27  C   UNL A   1      44.057  30.198  34.675  1.00  0.00     0.029 A 
ATOM     28  N   UNL A   1      43.613  29.118  32.779  1.00  0.00    -0.354 N 
ATOM     29  N   UNL A   1      43.996  27.008  30.756  1.00  0.00    -0.248 NA
ATOM     30  C   UNL A   1      45.310  25.321  29.813  1.00  0.00     0.031 C 
ATOM     31  C   UNL A   1      45.049  29.234  34.464  1.00  0.00     0.029 A 
ATOM     32  C   UNL A   1      44.761  28.549  33.292  1.00  0.00     0.049 A 
ATOM     33  H   UNL A   1      43.165  28.839  31.948  1.00  0.00     0.167 HD
ATOM     34  C   UNL A   1      45.139  26.838  31.527  1.00  0.00     0.074 A 
ATOM     35  C   UNL A   1      45.908  25.779  30.905  1.00  0.00     0.031 C 
ATOM     36  C   UNL A   1      45.488  27.465  32.678  1.00  0.00     0.037 A 
BRANCH  23  37
ATOM     37  C   UNL A   1      41.650  32.065  34.276  1.00  0.00     0.058 A 
ATOM     38  C   UNL A   1      40.772  31.813  35.349  1.00  0.00     0.135 A 
ATOM     39  C   UNL A   1      42.071  33.383  34.067  1.00  0.00     0.135 A 
ATOM     40  F   UNL A   1      40.314  30.570  35.575  1.00  0.00    -0.206 F 
ATOM     41  C   UNL A   1      40.276  32.841  36.139  1.00  0.00     0.059 A 
ATOM     42  C   UNL A   1      41.614  34.424  34.870  1.00  0.00     0.059 A 
ATOM     43  F   UNL A   1      42.898  33.677  33.052  1.00  0.00    -0.206 F 
ATOM     44  C   UNL A   1      40.699  34.145  35.886  1.00  0.00     0.060 A 
BRANCH  44  45
ATOM     45  S   UNL A   1      40.017  35.468  36.904  1.00  0.00     0.124 S 
ATOM     46  O   UNL A   1      39.653  36.455  35.892  1.00  0.00    -0.237 OA
ATOM     47  O   UNL A   1      38.907  34.806  37.575  1.00  0.00    -0.237 OA
ATOM     48  O   UNL A   1      41.139  35.840  37.767  1.00  0.00    -0.744 OA
ENDBRANCH  44  45
ENDBRANCH  23  37
BRANCH  24  49
ATOM     49  C   UNL A   1      43.325  24.703  27.744  1.00  0.00     0.058 A 
ATOM     50  C   UNL A   1      43.114  23.332  27.946  1.00  0.00     0.135 A 
ATOM     51  C   UNL A   1      43.918  25.090  26.530  1.00  0.00     0.135 A 
ATOM     52  F   UNL A   1      42.579  22.901  29.099  1.00  0.00    -0.206 F 
ATOM     53  C   UNL A   1      43.492  22.379  27.000  1.00  0.00     0.059 A 
ATOM     54  C   UNL A   1      44.292  24.157  25.558  1.00  0.00     0.059 A 
ATOM     55  F   UNL A   1      44.164  26.387  26.286  1.00  0.00    -0.206 F 
ATOM     56  C   UNL A   1      44.081  22.801  25.807  1.00  0.00     0.060 A 
BRANCH  56  57
ATOM     57  S   UNL A   1      44.548  21.550  24.584  1.00  0.00     0.124 S 
ATOM     58  O   UNL A   1      43.713  20.420  24.979  1.00  0.00    -0.237 OA
ATOM     59  O   UNL A   1      44.186  22.201  23.330  1.00  0.00    -0.237 OA
ATOM     60  O   UNL A   1      45.982  21.379  24.803  1.00  0.00    -0.744 OA
ENDBRANCH  56  57
ENDBRANCH  24  49
BRANCH  36  61
ATOM     61  C   UNL A   1      46.691  26.957  33.413  1.00  0.00     0.058 A 
ATOM     62  C   UNL A   1      46.617  25.896  34.324  1.00  0.00     0.135 A 
ATOM     63  C   UNL A   1      47.959  27.486  33.113  1.00  0.00     0.135 A 
ATOM     64  F   UNL A   1      45.428  25.367  34.651  1.00  0.00    -0.206 F 
ATOM     65  C   UNL A   1      47.761  25.374  34.917  1.00  0.00     0.059 A 
ATOM     66  C   UNL A   1      49.118  26.959  33.668  1.00  0.00     0.059 A 
ATOM     67  F   UNL A   1      48.082  28.499  32.241  1.00  0.00    -0.206 F 
ATOM     68  C   UNL A   1      49.007  25.905  34.572  1.00  0.00     0.060 A 
BRANCH  68  69
ATOM     69  S   UNL A   1      50.489  25.163  35.284  1.00  0.00     0.124 S 
ATOM     70  O   UNL A   1      50.462  25.696  36.642  1.00  0.00    -0.237 OA
ATOM     71  O   UNL A   1      50.215  23.734  35.157  1.00  0.00    -0.237 OA
ATOM     72  O   UNL A   1      51.564  25.665  34.433  1.00  0.00    -0.744 OA
ENDBRANCH  68  69
ENDBRANCH  36  61
ENDBRANCH  10  11
ENDBRANCH   3   5
ENDBRANCH   2   3
ENDBRANCH   1   2
BRANCH   1  73
ATOM     73  C   UNL A   1      31.929  28.646  25.899  1.00  0.00     0.274 C 
BRANCH  73  74
ATOM     74  O   UNL A   1      32.533  27.347  25.779  1.00  0.00    -0.461 OA
BRANCH  74  75
ATOM     75  C   UNL A   1      32.174  26.586  24.703  1.00  0.00     0.318 C 
ATOM     76  O   UNL A   1      32.073  27.037  23.563  1.00  0.00    -0.251 OA
BRANCH  75  77
ATOM     77  C   UNL A   1      31.776  25.135  25.074  1.00  0.00     0.121 C 
ATOM     78  C   UNL A   1      32.510  24.664  26.321  1.00  0.00     0.031 C 
ATOM     79  C   UNL A   1      30.291  25.244  25.475  1.00  0.00     0.279 C 
ATOM     80  C   UNL A   1      32.026  23.358  26.919  1.00  0.00     0.063 C 
ATOM     81  N   UNL A   1      29.711  24.265  26.387  1.00  0.00    -0.345 N 
ATOM     82  C   UNL A   1      30.521  23.167  26.885  1.00  0.00     0.260 C 
ATOM     83  H   UNL A   1      29.381  24.781  27.202  1.00  0.00     0.346 HD
ATOM     84  H   UNL A   1      29.009  23.797  25.812  1.00  0.00     0.346 HD
BRANCH  77  85
ATOM     85  C   UNL A   1      32.191  24.252  23.828  1.00  0.00     0.061 C 
BRANCH  85  86
ATOM     86  C   UNL A   1      33.530  23.531  23.833  1.00  0.00    -0.036 A 
ATOM     87  C   UNL A   1      34.719  24.275  23.844  1.00  0.00     0.024 A 
ATOM     88  C   UNL A   1      33.611  22.132  24.012  1.00  0.00     0.003 A 
ATOM     89  C   UNL A   1      35.896  23.633  24.188  1.00  0.00     0.112 A 
ATOM     90  C   UNL A   1      34.834  21.603  24.474  1.00  0.00     0.070 A 
ATOM     91  C   UNL A   1      32.504  21.272  23.858  1.00  0.00     0.010 A 
ATOM     92  N   UNL A   1      35.964  22.331  24.532  1.00  0.00    -0.256 NA
ATOM     93  C   UNL A   1      34.827  20.316  24.998  1.00  0.00     0.029 A 
ATOM     94  C   UNL A   1      32.525  19.984  24.377  1.00  0.00     0.001 A 
ATOM     95  C   UNL A   1      33.674  19.524  24.999  1.00  0.00     0.002 A 
ENDBRANCH  85  86
ENDBRANCH  77  85
ENDBRANCH  75  77
ENDBRANCH  74  75
ENDBRANCH  73  74
ENDBRANCH   1  73
TORSDOF 16
ENDMDL
