MODEL 1
REMARK VINA RESULT:     -12.3      0.000      0.000
REMARK SMILES O=C(OCCOC(=O)c1ccc(-c2c3nc(c(-c4c(F)cc(S(=O)(=O)[O-])cc4F)c4ccc([nH]4)c(-c4c(F)cc(S(=O)(=O)[O-])cc4F)c4nc(c(-c5c(F)cc(S(=O)(=O)[O-])cc5F)c5ccc2[nH]5)C=C4)C=C3)cc1)c1ccc(NS(=O)(=O)C2=Cc3ccccc3CC2)cc1
REMARK SMILES IDX 4 1 3 2 2 3 1 4 75 5 76 6 94 7 77 8 93 9 78 10 79 11 80 13
REMARK SMILES IDX 81 14 82 15 83 16 84 17 92 18 85 19 91 20 86 21 90 22 87 23
REMARK SMILES IDX 89 24 88 25 5 26 6 27 7 28 8 29 9 30 10 31 74 32 11 33 73 34
REMARK SMILES IDX 12 35 13 36 14 37 67 38 15 39 72 40 66 41 68 42 16 43 71 44
REMARK SMILES IDX 65 45 64 46 17 48 51 49 30 50 50 51 31 52 34 53 49 54 69 55
REMARK SMILES IDX 32 56 33 57 48 59 70 60 35 61 18 62 19 63 28 64 20 65 21 66
REMARK SMILES IDX 27 67 29 68 22 69 23 70 24 71 25 72 26 73 52 74 53 75 62 76
REMARK SMILES IDX 54 77 55 78 61 79 63 80 56 81 57 82 58 83 59 84 60 85 36 86
REMARK SMILES IDX 37 87 46 88 38 89 39 90 45 91 47 92 40 93 41 94 42 95 43 96
REMARK SMILES IDX 44 97
REMARK H PARENT 79 12 68 47 34 58
REMARK Flexibility Score: inf
ROOT
ATOM      1  C   UNL A   1      40.477  21.480  26.304  1.00  0.00     0.275 C 
ENDROOT
BRANCH   1   2
ATOM      2  O   UNL A   1      39.099  21.916  26.253  1.00  0.00    -0.458 OA
BRANCH   2   3
ATOM      3  C   UNL A   1      38.103  21.495  25.430  1.00  0.00     0.338 C 
ATOM      4  O   UNL A   1      38.054  20.329  25.055  1.00  0.00    -0.246 OA
BRANCH   3   5
ATOM      5  C   UNL A   1      37.169  22.475  24.828  1.00  0.00     0.060 A 
ATOM      6  C   UNL A   1      36.845  22.514  23.476  1.00  0.00     0.018 A 
ATOM      7  C   UNL A   1      36.602  23.428  25.675  1.00  0.00     0.018 A 
ATOM      8  C   UNL A   1      35.774  23.301  23.039  1.00  0.00     0.027 A 
ATOM      9  C   UNL A   1      35.532  24.202  25.223  1.00  0.00     0.027 A 
ATOM     10  C   UNL A   1      35.029  24.049  23.938  1.00  0.00     0.049 A 
BRANCH  10  11
ATOM     11  N   UNL A   1      33.693  24.489  23.730  1.00  0.00    -0.280 N 
ATOM     12  H   UNL A   1      32.975  23.910  24.073  1.00  0.00     0.180 HD
BRANCH  11  13
ATOM     13  S   UNL A   1      33.220  25.900  22.960  1.00  0.00     0.258 S 
ATOM     14  O   UNL A   1      33.968  26.929  23.644  1.00  0.00    -0.202 OA
ATOM     15  O   UNL A   1      33.431  25.676  21.539  1.00  0.00    -0.202 OA
BRANCH  13  16
ATOM     16  C   UNL A   1      31.467  26.137  23.279  1.00  0.00     0.066 C 
ATOM     17  C   UNL A   1      31.118  26.071  24.588  1.00  0.00     0.026 C 
ATOM     18  C   UNL A   1      30.829  27.320  22.573  1.00  0.00     0.055 C 
ATOM     19  C   UNL A   1      31.299  27.356  25.339  1.00  0.00    -0.021 A 
ATOM     20  C   UNL A   1      31.362  28.638  23.143  1.00  0.00     0.041 C 
ATOM     21  C   UNL A   1      31.292  27.353  26.734  1.00  0.00     0.008 A 
ATOM     22  C   UNL A   1      31.483  28.575  24.648  1.00  0.00    -0.040 A 
ATOM     23  C   UNL A   1      31.552  28.533  27.436  1.00  0.00     0.001 A 
ATOM     24  C   UNL A   1      31.799  29.737  25.358  1.00  0.00     0.004 A 
ATOM     25  C   UNL A   1      31.838  29.713  26.749  1.00  0.00     0.000 A 
ENDBRANCH  13  16
ENDBRANCH  11  13
ENDBRANCH  10  11
ENDBRANCH   3   5
ENDBRANCH   2   3
ENDBRANCH   1   2
BRANCH   1  26
ATOM     26  C   UNL A   1      41.511  22.604  26.342  1.00  0.00     0.275 C 
BRANCH  26  27
ATOM     27  O   UNL A   1      40.907  23.902  26.413  1.00  0.00    -0.458 OA
BRANCH  27  28
ATOM     28  C   UNL A   1      41.797  24.926  26.500  1.00  0.00     0.338 C 
ATOM     29  O   UNL A   1      42.737  25.131  25.750  1.00  0.00    -0.246 OA
BRANCH  28  30
ATOM     30  C   UNL A   1      41.426  25.856  27.588  1.00  0.00     0.060 A 
ATOM     31  C   UNL A   1      42.345  26.860  27.912  1.00  0.00     0.016 A 
ATOM     32  C   UNL A   1      40.218  25.760  28.287  1.00  0.00     0.016 A 
ATOM     33  C   UNL A   1      42.064  27.769  28.930  1.00  0.00     0.010 A 
ATOM     34  C   UNL A   1      39.934  26.680  29.307  1.00  0.00     0.010 A 
ATOM     35  C   UNL A   1      40.860  27.684  29.643  1.00  0.00    -0.014 A 
BRANCH  35  36
ATOM     36  C   UNL A   1      40.616  28.614  30.776  1.00  0.00     0.031 A 
ATOM     37  C   UNL A   1      41.374  28.430  32.061  1.00  0.00     0.074 A 
ATOM     38  C   UNL A   1      39.754  29.642  30.655  1.00  0.00     0.049 A 
ATOM     39  N   UNL A   1      41.400  29.206  33.113  1.00  0.00    -0.248 NA
ATOM     40  C   UNL A   1      42.235  27.242  32.164  1.00  0.00     0.031 C 
ATOM     41  C   UNL A   1      38.994  29.973  29.453  1.00  0.00     0.029 A 
ATOM     42  N   UNL A   1      39.362  30.596  31.559  1.00  0.00    -0.354 N 
ATOM     43  C   UNL A   1      42.325  28.637  33.977  1.00  0.00     0.074 A 
ATOM     44  C   UNL A   1      42.773  27.403  33.365  1.00  0.00     0.031 C 
ATOM     45  C   UNL A   1      38.156  30.987  29.717  1.00  0.00     0.029 A 
ATOM     46  C   UNL A   1      38.376  31.431  31.089  1.00  0.00     0.049 A 
ATOM     47  H   UNL A   1      39.749  30.675  32.460  1.00  0.00     0.167 HD
ATOM     48  C   UNL A   1      42.794  29.123  35.151  1.00  0.00     0.037 A 
ATOM     49  C   UNL A   1      37.746  32.466  31.675  1.00  0.00     0.037 A 
ATOM     50  C   UNL A   1      42.328  30.334  35.772  1.00  0.00     0.049 A 
ATOM     51  C   UNL A   1      38.221  32.942  33.016  1.00  0.00     0.074 A 
ATOM     52  C   UNL A   1      42.755  30.916  36.954  1.00  0.00     0.029 A 
ATOM     53  N   UNL A   1      41.317  31.143  35.275  1.00  0.00    -0.354 N 
ATOM     54  N   UNL A   1      39.168  32.446  33.775  1.00  0.00    -0.248 NA
ATOM     55  C   UNL A   1      37.586  34.153  33.553  1.00  0.00     0.031 C 
ATOM     56  C   UNL A   1      41.977  32.056  37.188  1.00  0.00     0.029 A 
ATOM     57  C   UNL A   1      41.091  32.205  36.134  1.00  0.00     0.049 A 
ATOM     58  H   UNL A   1      40.832  30.985  34.433  1.00  0.00     0.167 HD
ATOM     59  C   UNL A   1      39.271  33.308  34.861  1.00  0.00     0.074 A 
ATOM     60  C   UNL A   1      38.294  34.358  34.655  1.00  0.00     0.031 C 
ATOM     61  C   UNL A   1      40.111  33.241  35.924  1.00  0.00     0.037 A 
BRANCH  48  62
ATOM     62  C   UNL A   1      43.891  28.349  35.820  1.00  0.00     0.058 A 
ATOM     63  C   UNL A   1      43.598  27.312  36.723  1.00  0.00     0.135 A 
ATOM     64  C   UNL A   1      45.239  28.618  35.544  1.00  0.00     0.135 A 
ATOM     65  F   UNL A   1      42.323  27.027  37.034  1.00  0.00    -0.206 F 
ATOM     66  C   UNL A   1      44.605  26.584  37.345  1.00  0.00     0.059 A 
ATOM     67  C   UNL A   1      46.264  27.888  36.141  1.00  0.00     0.059 A 
ATOM     68  F   UNL A   1      45.572  29.601  34.693  1.00  0.00    -0.206 F 
ATOM     69  C   UNL A   1      45.936  26.882  37.050  1.00  0.00     0.060 A 
BRANCH  69  70
ATOM     70  S   UNL A   1      47.233  25.927  37.864  1.00  0.00     0.124 S 
ATOM     71  O   UNL A   1      46.508  25.359  38.996  1.00  0.00    -0.237 OA
ATOM     72  O   UNL A   1      47.627  24.982  36.824  1.00  0.00    -0.237 OA
ATOM     73  O   UNL A   1      48.234  26.934  38.203  1.00  0.00    -0.744 OA
ENDBRANCH  69  70
ENDBRANCH  48  62
BRANCH  49  74
ATOM     74  C   UNL A   1      36.640  33.159  30.966  1.00  0.00     0.058 A 
ATOM     75  C   UNL A   1      36.892  34.070  29.930  1.00  0.00     0.135 A 
ATOM     76  C   UNL A   1      35.303  32.920  31.320  1.00  0.00     0.135 A 
ATOM     77  F   UNL A   1      38.155  34.325  29.556  1.00  0.00    -0.206 F 
ATOM     78  C   UNL A   1      35.859  34.745  29.289  1.00  0.00     0.059 A 
ATOM     79  C   UNL A   1      34.252  33.571  30.681  1.00  0.00     0.059 A 
ATOM     80  F   UNL A   1      35.011  32.039  32.290  1.00  0.00    -0.206 F 
ATOM     81  C   UNL A   1      34.542  34.494  29.676  1.00  0.00     0.060 A 
BRANCH  81  82
ATOM     82  S   UNL A   1      33.206  35.362  28.825  1.00  0.00     0.124 S 
ATOM     83  O   UNL A   1      32.572  34.273  28.091  1.00  0.00    -0.237 OA
ATOM     84  O   UNL A   1      32.439  35.914  29.938  1.00  0.00    -0.237 OA
ATOM     85  O   UNL A   1      33.913  36.347  28.012  1.00  0.00    -0.744 OA
ENDBRANCH  81  82
ENDBRANCH  49  74
BRANCH  61  86
ATOM     86  C   UNL A   1      40.017  34.347  36.937  1.00  0.00     0.058 A 
ATOM     87  C   UNL A   1      39.169  34.255  38.051  1.00  0.00     0.135 A 
ATOM     88  C   UNL A   1      40.791  35.511  36.797  1.00  0.00     0.135 A 
ATOM     89  F   UNL A   1      38.403  33.166  38.227  1.00  0.00    -0.206 F 
ATOM     90  C   UNL A   1      39.063  35.290  38.972  1.00  0.00     0.059 A 
ATOM     91  C   UNL A   1      40.722  36.549  37.720  1.00  0.00     0.059 A 
ATOM     92  F   UNL A   1      41.626  35.647  35.754  1.00  0.00    -0.206 F 
ATOM     93  C   UNL A   1      39.841  36.436  38.796  1.00  0.00     0.060 A 
BRANCH  93  94
ATOM     94  S   UNL A   1      39.703  37.775  40.001  1.00  0.00     0.124 S 
ATOM     95  O   UNL A   1      39.676  37.035  41.257  1.00  0.00    -0.237 OA
ATOM     96  O   UNL A   1      40.911  38.552  39.748  1.00  0.00    -0.237 OA
ATOM     97  O   UNL A   1      38.453  38.433  39.631  1.00  0.00    -0.744 OA
ENDBRANCH  93  94
ENDBRANCH  61  86
ENDBRANCH  35  36
ENDBRANCH  28  30
ENDBRANCH  27  28
ENDBRANCH  26  27
ENDBRANCH   1  26
TORSDOF 17
ENDMDL
MODEL 2
REMARK VINA RESULT:     -12.2      6.258     12.169
REMARK SMILES O=C(OCCOC(=O)c1ccc(-c2c3nc(c(-c4c(F)cc(S(=O)(=O)[O-])cc4F)c4ccc([nH]4)c(-c4c(F)cc(S(=O)(=O)[O-])cc4F)c4nc(c(-c5c(F)cc(S(=O)(=O)[O-])cc5F)c5ccc2[nH]5)C=C4)C=C3)cc1)c1ccc(NS(=O)(=O)C2=Cc3ccccc3CC2)cc1
REMARK SMILES IDX 4 1 3 2 2 3 1 4 75 5 76 6 94 7 77 8 93 9 78 10 79 11 80 13
REMARK SMILES IDX 81 14 82 15 83 16 84 17 92 18 85 19 91 20 86 21 90 22 87 23
REMARK SMILES IDX 89 24 88 25 5 26 6 27 7 28 8 29 9 30 10 31 74 32 11 33 73 34
REMARK SMILES IDX 12 35 13 36 14 37 67 38 15 39 72 40 66 41 68 42 16 43 71 44
REMARK SMILES IDX 65 45 64 46 17 48 51 49 30 50 50 51 31 52 34 53 49 54 69 55
REMARK SMILES IDX 32 56 33 57 48 59 70 60 35 61 18 62 19 63 28 64 20 65 21 66
REMARK SMILES IDX 27 67 29 68 22 69 23 70 24 71 25 72 26 73 52 74 53 75 62 76
REMARK SMILES IDX 54 77 55 78 61 79 63 80 56 81 57 82 58 83 59 84 60 85 36 86
REMARK SMILES IDX 37 87 46 88 38 89 39 90 45 91 47 92 40 93 41 94 42 95 43 96
REMARK SMILES IDX 44 97
REMARK H PARENT 79 12 68 47 34 58
REMARK Flexibility Score: inf
ROOT
ATOM      1  C   UNL A   1      34.845  32.430  28.772  1.00  0.00     0.275 C 
ENDROOT
BRANCH   1   2
ATOM      2  O   UNL A   1      34.479  31.160  28.186  1.00  0.00    -0.458 OA
BRANCH   2   3
ATOM      3  C   UNL A   1      33.376  30.845  27.458  1.00  0.00     0.338 C 
ATOM      4  O   UNL A   1      32.513  31.687  27.234  1.00  0.00    -0.246 OA
BRANCH   3   5
ATOM      5  C   UNL A   1      33.110  29.438  27.078  1.00  0.00     0.060 A 
ATOM      6  C   UNL A   1      31.948  28.748  27.407  1.00  0.00     0.018 A 
ATOM      7  C   UNL A   1      34.104  28.764  26.366  1.00  0.00     0.018 A 
ATOM      8  C   UNL A   1      31.674  27.517  26.800  1.00  0.00     0.027 A 
ATOM      9  C   UNL A   1      33.810  27.539  25.765  1.00  0.00     0.027 A 
ATOM     10  C   UNL A   1      32.548  26.971  25.873  1.00  0.00     0.049 A 
BRANCH  10  11
ATOM     11  N   UNL A   1      32.197  26.025  24.871  1.00  0.00    -0.280 N 
ATOM     12  H   UNL A   1      31.910  26.385  24.001  1.00  0.00     0.180 HD
BRANCH  11  13
ATOM     13  S   UNL A   1      32.225  24.358  25.026  1.00  0.00     0.258 S 
ATOM     14  O   UNL A   1      33.257  24.123  26.009  1.00  0.00    -0.202 OA
ATOM     15  O   UNL A   1      30.857  23.953  25.303  1.00  0.00    -0.202 OA
BRANCH  13  16
ATOM     16  C   UNL A   1      32.749  23.670  23.449  1.00  0.00     0.066 C 
ATOM     17  C   UNL A   1      34.070  23.815  23.183  1.00  0.00     0.026 C 
ATOM     18  C   UNL A   1      32.252  22.266  23.152  1.00  0.00     0.055 C 
ATOM     19  C   UNL A   1      34.941  22.756  23.789  1.00  0.00    -0.021 A 
ATOM     20  C   UNL A   1      32.911  21.252  24.093  1.00  0.00     0.041 C 
ATOM     21  C   UNL A   1      36.320  22.952  23.872  1.00  0.00     0.008 A 
ATOM     22  C   UNL A   1      34.378  21.558  24.286  1.00  0.00    -0.040 A 
ATOM     23  C   UNL A   1      37.121  22.007  24.519  1.00  0.00     0.001 A 
ATOM     24  C   UNL A   1      35.180  20.648  24.982  1.00  0.00     0.004 A 
ATOM     25  C   UNL A   1      36.548  20.877  25.101  1.00  0.00     0.000 A 
ENDBRANCH  13  16
ENDBRANCH  11  13
ENDBRANCH  10  11
ENDBRANCH   3   5
ENDBRANCH   2   3
ENDBRANCH   1   2
BRANCH   1  26
ATOM     26  C   UNL A   1      35.113  32.396  30.276  1.00  0.00     0.275 C 
BRANCH  26  27
ATOM     27  O   UNL A   1      36.513  32.430  30.584  1.00  0.00    -0.458 OA
BRANCH  27  28
ATOM     28  C   UNL A   1      36.969  31.320  31.222  1.00  0.00     0.338 C 
ATOM     29  O   UNL A   1      36.434  30.757  32.163  1.00  0.00    -0.246 OA
BRANCH  28  30
ATOM     30  C   UNL A   1      38.181  30.792  30.560  1.00  0.00     0.060 A 
ATOM     31  C   UNL A   1      39.302  30.563  31.366  1.00  0.00     0.016 A 
ATOM     32  C   UNL A   1      38.240  30.527  29.187  1.00  0.00     0.016 A 
ATOM     33  C   UNL A   1      40.481  30.071  30.807  1.00  0.00     0.010 A 
ATOM     34  C   UNL A   1      39.425  30.025  28.629  1.00  0.00     0.010 A 
ATOM     35  C   UNL A   1      40.557  29.804  29.434  1.00  0.00    -0.014 A 
BRANCH  35  36
ATOM     36  C   UNL A   1      41.847  29.356  28.848  1.00  0.00     0.031 A 
ATOM     37  C   UNL A   1      42.942  30.357  28.615  1.00  0.00     0.074 A 
ATOM     38  C   UNL A   1      42.061  28.057  28.561  1.00  0.00     0.049 A 
ATOM     39  N   UNL A   1      44.176  30.146  28.237  1.00  0.00    -0.248 NA
ATOM     40  C   UNL A   1      42.620  31.770  28.867  1.00  0.00     0.031 C 
ATOM     41  C   UNL A   1      41.112  26.971  28.786  1.00  0.00     0.029 A 
ATOM     42  N   UNL A   1      43.146  27.429  28.004  1.00  0.00    -0.354 N 
ATOM     43  C   UNL A   1      44.796  31.387  28.268  1.00  0.00     0.074 A 
ATOM     44  C   UNL A   1      43.780  32.360  28.615  1.00  0.00     0.031 C 
ATOM     45  C   UNL A   1      41.609  25.829  28.285  1.00  0.00     0.029 A 
ATOM     46  C   UNL A   1      42.950  26.087  27.773  1.00  0.00     0.049 A 
ATOM     47  H   UNL A   1      43.987  27.894  27.790  1.00  0.00     0.167 HD
ATOM     48  C   UNL A   1      46.103  31.683  28.072  1.00  0.00     0.037 A 
ATOM     49  C   UNL A   1      43.766  25.157  27.246  1.00  0.00     0.037 A 
ATOM     50  C   UNL A   1      47.106  30.721  27.699  1.00  0.00     0.049 A 
ATOM     51  C   UNL A   1      45.192  25.521  26.953  1.00  0.00     0.074 A 
ATOM     52  C   UNL A   1      48.461  30.924  27.494  1.00  0.00     0.029 A 
ATOM     53  N   UNL A   1      46.865  29.377  27.457  1.00  0.00    -0.354 N 
ATOM     54  N   UNL A   1      45.786  26.683  27.082  1.00  0.00    -0.248 NA
ATOM     55  C   UNL A   1      46.075  24.437  26.502  1.00  0.00     0.031 C 
ATOM     56  C   UNL A   1      49.030  29.710  27.092  1.00  0.00     0.029 A 
ATOM     57  C   UNL A   1      48.038  28.743  27.084  1.00  0.00     0.049 A 
ATOM     58  H   UNL A   1      45.988  28.938  27.539  1.00  0.00     0.167 HD
ATOM     59  C   UNL A   1      47.122  26.462  26.768  1.00  0.00     0.074 A 
ATOM     60  C   UNL A   1      47.247  25.053  26.448  1.00  0.00     0.031 C 
ATOM     61  C   UNL A   1      48.152  27.343  26.760  1.00  0.00     0.037 A 
BRANCH  48  62
ATOM     62  C   UNL A   1      46.520  33.108  28.288  1.00  0.00     0.058 A 
ATOM     63  C   UNL A   1      46.966  33.548  29.546  1.00  0.00     0.135 A 
ATOM     64  C   UNL A   1      46.501  34.035  27.237  1.00  0.00     0.135 A 
ATOM     65  F   UNL A   1      46.986  32.703  30.590  1.00  0.00    -0.206 F 
ATOM     66  C   UNL A   1      47.361  34.863  29.758  1.00  0.00     0.059 A 
ATOM     67  C   UNL A   1      46.910  35.353  27.421  1.00  0.00     0.059 A 
ATOM     68  F   UNL A   1      46.077  33.667  26.017  1.00  0.00    -0.206 F 
ATOM     69  C   UNL A   1      47.326  35.761  28.689  1.00  0.00     0.060 A 
BRANCH  69  70
ATOM     70  S   UNL A   1      47.842  37.466  28.979  1.00  0.00     0.124 S 
ATOM     71  O   UNL A   1      49.215  37.441  28.487  1.00  0.00    -0.237 OA
ATOM     72  O   UNL A   1      46.893  38.223  28.168  1.00  0.00    -0.237 OA
ATOM     73  O   UNL A   1      47.695  37.624  30.422  1.00  0.00    -0.744 OA
ENDBRANCH  69  70
ENDBRANCH  48  62
BRANCH  49  74
ATOM     74  C   UNL A   1      43.270  23.774  27.023  1.00  0.00     0.058 A 
ATOM     75  C   UNL A   1      43.250  22.828  28.057  1.00  0.00     0.135 A 
ATOM     76  C   UNL A   1      42.807  23.376  25.759  1.00  0.00     0.135 A 
ATOM     77  F   UNL A   1      43.680  23.167  29.282  1.00  0.00    -0.206 F 
ATOM     78  C   UNL A   1      42.819  21.524  27.841  1.00  0.00     0.059 A 
ATOM     79  C   UNL A   1      42.354  22.082  25.523  1.00  0.00     0.059 A 
ATOM     80  F   UNL A   1      42.784  24.254  24.744  1.00  0.00    -0.206 F 
ATOM     81  C   UNL A   1      42.377  21.159  26.568  1.00  0.00     0.060 A 
BRANCH  81  82
ATOM     82  S   UNL A   1      41.801  19.467  26.302  1.00  0.00     0.124 S 
ATOM     83  O   UNL A   1      40.372  19.675  26.099  1.00  0.00    -0.237 OA
ATOM     84  O   UNL A   1      42.561  19.065  25.123  1.00  0.00    -0.237 OA
ATOM     85  O   UNL A   1      42.172  18.789  27.540  1.00  0.00    -0.744 OA
ENDBRANCH  81  82
ENDBRANCH  49  74
BRANCH  61  86
ATOM     86  C   UNL A   1      49.509  26.801  26.409  1.00  0.00     0.058 A 
ATOM     87  C   UNL A   1      50.042  26.932  25.117  1.00  0.00     0.135 A 
ATOM     88  C   UNL A   1      50.291  26.152  27.379  1.00  0.00     0.135 A 
ATOM     89  F   UNL A   1      49.331  27.538  24.153  1.00  0.00    -0.206 F 
ATOM     90  C   UNL A   1      51.286  26.407  24.788  1.00  0.00     0.059 A 
ATOM     91  C   UNL A   1      51.550  25.642  27.079  1.00  0.00     0.059 A 
ATOM     92  F   UNL A   1      49.833  26.009  28.633  1.00  0.00    -0.206 F 
ATOM     93  C   UNL A   1      52.032  25.759  25.775  1.00  0.00     0.060 A 
BRANCH  93  94
ATOM     94  S   UNL A   1      53.650  25.085  25.340  1.00  0.00     0.124 S 
ATOM     95  O   UNL A   1      53.820  25.586  23.981  1.00  0.00    -0.237 OA
ATOM     96  O   UNL A   1      54.520  25.681  26.349  1.00  0.00    -0.237 OA
ATOM     97  O   UNL A   1      53.458  23.643  25.461  1.00  0.00    -0.744 OA
ENDBRANCH  93  94
ENDBRANCH  61  86
ENDBRANCH  35  36
ENDBRANCH  28  30
ENDBRANCH  27  28
ENDBRANCH  26  27
ENDBRANCH   1  26
TORSDOF 17
ENDMDL
MODEL 3
REMARK VINA RESULT:     -12.2      3.105      9.806
REMARK SMILES O=C(OCCOC(=O)c1ccc(-c2c3nc(c(-c4c(F)cc(S(=O)(=O)[O-])cc4F)c4ccc([nH]4)c(-c4c(F)cc(S(=O)(=O)[O-])cc4F)c4nc(c(-c5c(F)cc(S(=O)(=O)[O-])cc5F)c5ccc2[nH]5)C=C4)C=C3)cc1)c1ccc(NS(=O)(=O)C2=Cc3ccccc3CC2)cc1
REMARK SMILES IDX 4 1 3 2 2 3 1 4 75 5 76 6 94 7 77 8 93 9 78 10 79 11 80 13
REMARK SMILES IDX 81 14 82 15 83 16 84 17 92 18 85 19 91 20 86 21 90 22 87 23
REMARK SMILES IDX 89 24 88 25 5 26 6 27 7 28 8 29 9 30 10 31 74 32 11 33 73 34
REMARK SMILES IDX 12 35 13 36 14 37 67 38 15 39 72 40 66 41 68 42 16 43 71 44
REMARK SMILES IDX 65 45 64 46 17 48 51 49 30 50 50 51 31 52 34 53 49 54 69 55
REMARK SMILES IDX 32 56 33 57 48 59 70 60 35 61 18 62 19 63 28 64 20 65 21 66
REMARK SMILES IDX 27 67 29 68 22 69 23 70 24 71 25 72 26 73 52 74 53 75 62 76
REMARK SMILES IDX 54 77 55 78 61 79 63 80 56 81 57 82 58 83 59 84 60 85 36 86
REMARK SMILES IDX 37 87 46 88 38 89 39 90 45 91 47 92 40 93 41 94 42 95 43 96
REMARK SMILES IDX 44 97
REMARK H PARENT 79 12 68 47 34 58
REMARK Flexibility Score: inf
ROOT
ATOM      1  C   UNL A   1      32.035  29.708  25.389  1.00  0.00     0.275 C 
ENDROOT
BRANCH   1   2
ATOM      2  O   UNL A   1      31.198  28.630  24.911  1.00  0.00    -0.458 OA
BRANCH   2   3
ATOM      3  C   UNL A   1      31.536  27.576  24.123  1.00  0.00     0.338 C 
ATOM      4  O   UNL A   1      31.777  27.738  22.931  1.00  0.00    -0.246 OA
BRANCH   3   5
ATOM      5  C   UNL A   1      31.442  26.193  24.646  1.00  0.00     0.060 A 
ATOM      6  C   UNL A   1      31.202  25.075  23.855  1.00  0.00     0.018 A 
ATOM      7  C   UNL A   1      31.582  26.015  26.023  1.00  0.00     0.018 A 
ATOM      8  C   UNL A   1      31.377  23.793  24.389  1.00  0.00     0.027 A 
ATOM      9  C   UNL A   1      31.760  24.729  26.537  1.00  0.00     0.027 A 
ATOM     10  C   UNL A   1      31.787  23.620  25.702  1.00  0.00     0.049 A 
BRANCH  10  11
ATOM     11  N   UNL A   1      32.438  22.464  26.213  1.00  0.00    -0.280 N 
ATOM     12  H   UNL A   1      31.865  21.708  26.473  1.00  0.00     0.180 HD
BRANCH  11  13
ATOM     13  S   UNL A   1      34.089  22.263  26.417  1.00  0.00     0.258 S 
ATOM     14  O   UNL A   1      34.345  22.838  27.718  1.00  0.00    -0.202 OA
ATOM     15  O   UNL A   1      34.357  20.854  26.185  1.00  0.00    -0.202 OA
BRANCH  13  16
ATOM     16  C   UNL A   1      34.920  23.250  25.165  1.00  0.00     0.066 C 
ATOM     17  C   UNL A   1      35.865  24.094  25.648  1.00  0.00     0.026 C 
ATOM     18  C   UNL A   1      35.401  22.485  23.945  1.00  0.00     0.055 C 
ATOM     19  C   UNL A   1      37.207  23.460  25.858  1.00  0.00    -0.021 A 
ATOM     20  C   UNL A   1      36.551  21.544  24.319  1.00  0.00     0.041 C 
ATOM     21  C   UNL A   1      38.167  24.106  26.639  1.00  0.00     0.008 A 
ATOM     22  C   UNL A   1      37.512  22.208  25.277  1.00  0.00    -0.040 A 
ATOM     23  C   UNL A   1      39.384  23.476  26.911  1.00  0.00     0.001 A 
ATOM     24  C   UNL A   1      38.708  21.562  25.603  1.00  0.00     0.004 A 
ATOM     25  C   UNL A   1      39.639  22.194  26.423  1.00  0.00     0.000 A 
ENDBRANCH  13  16
ENDBRANCH  11  13
ENDBRANCH  10  11
ENDBRANCH   3   5
ENDBRANCH   2   3
ENDBRANCH   1   2
BRANCH   1  26
ATOM     26  C   UNL A   1      33.446  29.297  25.805  1.00  0.00     0.275 C 
BRANCH  26  27
ATOM     27  O   UNL A   1      33.648  29.385  27.221  1.00  0.00    -0.458 OA
BRANCH  27  28
ATOM     28  C   UNL A   1      34.329  30.493  27.618  1.00  0.00     0.338 C 
ATOM     29  O   UNL A   1      33.896  31.633  27.651  1.00  0.00    -0.246 OA
BRANCH  28  30
ATOM     30  C   UNL A   1      35.673  30.134  28.120  1.00  0.00     0.060 A 
ATOM     31  C   UNL A   1      35.756  29.641  29.427  1.00  0.00     0.016 A 
ATOM     32  C   UNL A   1      36.832  30.276  27.349  1.00  0.00     0.016 A 
ATOM     33  C   UNL A   1      36.992  29.289  29.968  1.00  0.00     0.010 A 
ATOM     34  C   UNL A   1      38.073  29.914  27.893  1.00  0.00     0.010 A 
ATOM     35  C   UNL A   1      38.163  29.428  29.210  1.00  0.00    -0.014 A 
BRANCH  35  36
ATOM     36  C   UNL A   1      39.476  29.121  29.834  1.00  0.00     0.031 A 
ATOM     37  C   UNL A   1      39.965  29.957  30.982  1.00  0.00     0.074 A 
ATOM     38  C   UNL A   1      40.216  28.078  29.409  1.00  0.00     0.049 A 
ATOM     39  N   UNL A   1      41.013  29.773  31.740  1.00  0.00    -0.248 NA
ATOM     40  C   UNL A   1      39.155  31.132  31.344  1.00  0.00     0.031 C 
ATOM     41  C   UNL A   1      39.843  27.150  28.346  1.00  0.00     0.029 A 
ATOM     42  N   UNL A   1      41.447  27.628  29.814  1.00  0.00    -0.354 N 
ATOM     43  C   UNL A   1      40.958  30.767  32.707  1.00  0.00     0.074 A 
ATOM     44  C   UNL A   1      39.821  31.605  32.388  1.00  0.00     0.031 C 
ATOM     45  C   UNL A   1      40.857  26.304  28.111  1.00  0.00     0.029 A 
ATOM     46  C   UNL A   1      41.926  26.579  29.064  1.00  0.00     0.049 A 
ATOM     47  H   UNL A   1      41.942  28.019  30.570  1.00  0.00     0.167 HD
ATOM     48  C   UNL A   1      41.753  30.936  33.790  1.00  0.00     0.037 A 
ATOM     49  C   UNL A   1      43.075  25.886  29.155  1.00  0.00     0.037 A 
ATOM     50  C   UNL A   1      42.900  30.120  34.091  1.00  0.00     0.049 A 
ATOM     51  C   UNL A   1      43.991  26.143  30.316  1.00  0.00     0.074 A 
ATOM     52  C   UNL A   1      43.757  30.204  35.175  1.00  0.00     0.029 A 
ATOM     53  N   UNL A   1      43.363  29.079  33.300  1.00  0.00    -0.354 N 
ATOM     54  N   UNL A   1      43.869  27.026  31.278  1.00  0.00    -0.248 NA
ATOM     55  C   UNL A   1      45.167  25.271  30.439  1.00  0.00     0.031 C 
ATOM     56  C   UNL A   1      44.759  29.240  35.019  1.00  0.00     0.029 A 
ATOM     57  C   UNL A   1      44.504  28.528  33.857  1.00  0.00     0.049 A 
ATOM     58  H   UNL A   1      42.940  28.776  32.464  1.00  0.00     0.167 HD
ATOM     59  C   UNL A   1      44.931  26.789  32.144  1.00  0.00     0.074 A 
ATOM     60  C   UNL A   1      45.679  25.677  31.593  1.00  0.00     0.031 C 
ATOM     61  C   UNL A   1      45.246  27.427  33.298  1.00  0.00     0.037 A 
BRANCH  48  62
ATOM     62  C   UNL A   1      41.384  32.035  34.742  1.00  0.00     0.058 A 
ATOM     63  C   UNL A   1      41.959  33.313  34.629  1.00  0.00     0.135 A 
ATOM     64  C   UNL A   1      40.437  31.828  35.755  1.00  0.00     0.135 A 
ATOM     65  F   UNL A   1      42.884  33.558  33.687  1.00  0.00    -0.206 F 
ATOM     66  C   UNL A   1      41.621  34.341  35.501  1.00  0.00     0.059 A 
ATOM     67  C   UNL A   1      40.070  32.848  36.628  1.00  0.00     0.059 A 
ATOM     68  F   UNL A   1      39.864  30.624  35.909  1.00  0.00    -0.206 F 
ATOM     69  C   UNL A   1      40.677  34.098  36.500  1.00  0.00     0.060 A 
BRANCH  69  70
ATOM     70  S   UNL A   1      40.247  35.443  37.625  1.00  0.00     0.124 S 
ATOM     71  O   UNL A   1      41.533  35.708  38.263  1.00  0.00    -0.237 OA
ATOM     72  O   UNL A   1      39.769  36.475  36.711  1.00  0.00    -0.237 OA
ATOM     73  O   UNL A   1      39.229  34.851  38.488  1.00  0.00    -0.744 OA
ENDBRANCH  69  70
ENDBRANCH  48  62
BRANCH  49  74
ATOM     74  C   UNL A   1      43.392  24.838  28.150  1.00  0.00     0.058 A 
ATOM     75  C   UNL A   1      42.977  23.510  28.323  1.00  0.00     0.135 A 
ATOM     76  C   UNL A   1      44.123  25.153  26.994  1.00  0.00     0.135 A 
ATOM     77  F   UNL A   1      42.272  23.165  29.411  1.00  0.00    -0.206 F 
ATOM     78  C   UNL A   1      43.302  22.522  27.400  1.00  0.00     0.059 A 
ATOM     79  C   UNL A   1      44.445  24.185  26.049  1.00  0.00     0.059 A 
ATOM     80  F   UNL A   1      44.522  26.416  26.774  1.00  0.00    -0.206 F 
ATOM     81  C   UNL A   1      44.042  22.868  26.269  1.00  0.00     0.060 A 
BRANCH  81  82
ATOM     82  S   UNL A   1      44.443  21.580  25.066  1.00  0.00     0.124 S 
ATOM     83  O   UNL A   1      43.377  20.615  25.307  1.00  0.00    -0.237 OA
ATOM     84  O   UNL A   1      44.375  22.307  23.803  1.00  0.00    -0.237 OA
ATOM     85  O   UNL A   1      45.783  21.157  25.465  1.00  0.00    -0.744 OA
ENDBRANCH  81  82
ENDBRANCH  49  74
BRANCH  61  86
ATOM     86  C   UNL A   1      46.446  26.922  34.049  1.00  0.00     0.058 A 
ATOM     87  C   UNL A   1      47.729  27.443  33.822  1.00  0.00     0.135 A 
ATOM     88  C   UNL A   1      46.310  25.912  35.016  1.00  0.00     0.135 A 
ATOM     89  F   UNL A   1      47.914  28.404  32.903  1.00  0.00    -0.206 F 
ATOM     90  C   UNL A   1      48.842  26.956  34.498  1.00  0.00     0.059 A 
ATOM     91  C   UNL A   1      47.405  25.428  35.724  1.00  0.00     0.059 A 
ATOM     92  F   UNL A   1      45.103  25.386  35.280  1.00  0.00    -0.206 F 
ATOM     93  C   UNL A   1      48.670  25.944  35.445  1.00  0.00     0.060 A 
BRANCH  93  94
ATOM     94  S   UNL A   1      50.119  25.322  36.325  1.00  0.00     0.124 S 
ATOM     95  O   UNL A   1      50.892  26.544  36.517  1.00  0.00    -0.237 OA
ATOM     96  O   UNL A   1      49.533  24.746  37.530  1.00  0.00    -0.237 OA
ATOM     97  O   UNL A   1      50.691  24.356  35.391  1.00  0.00    -0.744 OA
ENDBRANCH  93  94
ENDBRANCH  61  86
ENDBRANCH  35  36
ENDBRANCH  28  30
ENDBRANCH  27  28
ENDBRANCH  26  27
ENDBRANCH   1  26
TORSDOF 17
ENDMDL
