MODEL 1
REMARK VINA RESULT:      -9.6      0.000      0.000
REMARK SMILES Cc1c(NCc2ccccn2)cccc1C(=O)N1CCOC[C@@H]1CC(=O)OCCOC(=O)c1ccc(-c2c3nc(c(-c4c(F)cc(S(=O)(=O)[O-])cc4F)c4ccc([nH]4)c(-c4c(F)cc(S(=O)(=O)[O-])cc4F)c4nc(c(-c5c(F)cc(S(=O)(=O)[O-])cc5F)c5ccc2[nH]5)C=C4)C=C3)cc1
REMARK SMILES IDX 27 1 25 2 26 3 24 4 23 5 18 6 19 7 20 8 22 9 21 10 16 11
REMARK SMILES IDX 17 12 15 13 1 14 2 15 3 16 12 17 14 18 13 19 4 20 5 22 6 23
REMARK SMILES IDX 7 24 11 25 8 26 10 27 9 28 28 29 29 30 30 31 31 32 32 33
REMARK SMILES IDX 33 34 34 35 98 36 35 37 97 38 36 39 37 40 38 41 91 42 39 43
REMARK SMILES IDX 96 44 90 45 92 46 40 47 95 48 89 49 88 50 41 52 75 53 54 54
REMARK SMILES IDX 74 55 55 56 58 57 73 58 93 59 56 60 57 61 72 63 94 64 59 65
REMARK SMILES IDX 42 66 43 67 52 68 44 69 45 70 51 71 53 72 46 73 47 74 48 75
REMARK SMILES IDX 49 76 50 77 76 78 77 79 86 80 78 81 79 82 85 83 87 84 80 85
REMARK SMILES IDX 81 86 82 87 83 88 84 89 60 90 61 91 70 92 62 93 63 94 69 95
REMARK SMILES IDX 71 96 64 97 65 98 66 99 67 100 68 101
REMARK H PARENT 4 21 92 51 58 62
REMARK Flexibility Score: inf
ROOT
ATOM      1  O   UNL A   1      40.159  28.936  26.332  1.00  0.00    -0.462 OA
ENDROOT
BRANCH   1   2
ATOM      2  C   UNL A   1      41.499  28.837  26.128  1.00  0.00     0.308 C 
ATOM      3  O   UNL A   1      41.934  28.939  25.031  1.00  0.00    -0.252 OA
BRANCH   2   4
ATOM      4  C   UNL A   1      42.402  28.613  27.345  1.00  0.00     0.150 C 
BRANCH   4   5
ATOM      5  C   UNL A   1      43.548  27.691  26.939  1.00  0.00     0.122 C 
ATOM      6  N   UNL A   1      43.748  26.676  27.986  1.00  0.00    -0.330 N 
ATOM      7  C   UNL A   1      44.987  25.913  27.879  1.00  0.00     0.148 C 
ATOM      8  C   UNL A   1      46.208  26.813  27.572  1.00  0.00     0.181 C 
ATOM      9  C   UNL A   1      44.872  28.474  26.594  1.00  0.00     0.185 C 
ATOM     10  O   UNL A   1      45.967  27.559  26.372  1.00  0.00    -0.377 OA
BRANCH   6  11
ATOM     11  C   UNL A   1      42.653  26.266  28.752  1.00  0.00     0.254 C 
ATOM     12  O   UNL A   1      42.599  26.537  29.952  1.00  0.00    -0.269 OA
BRANCH  11  13
ATOM     13  C   UNL A   1      41.723  25.180  28.190  1.00  0.00     0.045 A 
ATOM     14  C   UNL A   1      43.062  23.127  28.992  1.00  0.00     0.047 C 
ATOM     15  C   UNL A   1      41.900  23.769  28.291  1.00  0.00    -0.015 A 
ATOM     16  C   UNL A   1      40.899  22.866  27.836  1.00  0.00     0.038 A 
ATOM     17  C   UNL A   1      39.713  23.378  27.304  1.00  0.00     0.026 A 
ATOM     18  C   UNL A   1      40.456  25.638  27.755  1.00  0.00     0.014 A 
ATOM     19  C   UNL A   1      39.464  24.750  27.326  1.00  0.00     0.003 A 
BRANCH  16  20
ATOM     20  N   UNL A   1      41.072  21.508  28.070  1.00  0.00    -0.379 N 
ATOM     21  H   UNL A   1      41.314  21.244  28.988  1.00  0.00     0.160 HD
BRANCH  20  22
ATOM     22  C   UNL A   1      40.932  20.448  27.105  1.00  0.00     0.169 C 
BRANCH  22  23
ATOM     23  C   UNL A   1      42.253  20.108  26.444  1.00  0.00     0.059 A 
ATOM     24  C   UNL A   1      43.088  21.080  25.882  1.00  0.00     0.026 A 
ATOM     25  N   UNL A   1      42.557  18.788  26.389  1.00  0.00    -0.259 NA
ATOM     26  C   UNL A   1      44.240  20.689  25.211  1.00  0.00     0.004 A 
ATOM     27  C   UNL A   1      43.683  18.439  25.734  1.00  0.00     0.111 A 
ATOM     28  C   UNL A   1      44.538  19.339  25.123  1.00  0.00     0.020 A 
ENDBRANCH  22  23
ENDBRANCH  20  22
ENDBRANCH  16  20
ENDBRANCH  11  13
ENDBRANCH   6  11
ENDBRANCH   4   5
ENDBRANCH   2   4
ENDBRANCH   1   2
BRANCH   1  29
ATOM     29  C   UNL A   1      39.675  29.214  27.700  1.00  0.00     0.274 C 
BRANCH  29  30
ATOM     30  C   UNL A   1      38.142  29.286  28.042  1.00  0.00     0.275 C 
BRANCH  30  31
ATOM     31  O   UNL A   1      37.662  30.266  29.018  1.00  0.00    -0.458 OA
BRANCH  31  32
ATOM     32  C   UNL A   1      37.040  31.422  28.564  1.00  0.00     0.338 C 
ATOM     33  O   UNL A   1      35.989  31.403  27.956  1.00  0.00    -0.246 OA
BRANCH  32  34
ATOM     34  C   UNL A   1      37.718  32.619  29.205  1.00  0.00     0.060 A 
ATOM     35  C   UNL A   1      37.314  33.861  29.749  1.00  0.00     0.016 A 
ATOM     36  C   UNL A   1      38.935  32.241  29.619  1.00  0.00     0.016 A 
ATOM     37  C   UNL A   1      38.251  34.601  30.570  1.00  0.00     0.010 A 
ATOM     38  C   UNL A   1      39.223  32.610  30.864  1.00  0.00     0.010 A 
ATOM     39  C   UNL A   1      39.407  33.924  30.900  1.00  0.00    -0.014 A 
BRANCH  39  40
ATOM     40  C   UNL A   1      40.818  33.915  31.333  1.00  0.00     0.031 A 
ATOM     41  C   UNL A   1      41.740  34.070  30.109  1.00  0.00     0.074 A 
ATOM     42  C   UNL A   1      40.906  34.285  32.707  1.00  0.00     0.049 A 
ATOM     43  N   UNL A   1      42.673  33.267  29.719  1.00  0.00    -0.248 NA
ATOM     44  C   UNL A   1      41.497  35.051  28.985  1.00  0.00     0.031 C 
ATOM     45  C   UNL A   1      41.900  34.618  33.756  1.00  0.00     0.029 A 
ATOM     46  N   UNL A   1      39.778  34.244  33.594  1.00  0.00    -0.354 N 
ATOM     47  C   UNL A   1      43.464  34.019  28.840  1.00  0.00     0.074 A 
ATOM     48  C   UNL A   1      42.546  34.880  28.166  1.00  0.00     0.031 C 
ATOM     49  C   UNL A   1      41.497  34.053  34.935  1.00  0.00     0.029 A 
ATOM     50  C   UNL A   1      40.135  33.575  34.760  1.00  0.00     0.049 A 
ATOM     51  H   UNL A   1      38.891  34.629  33.406  1.00  0.00     0.167 HD
ATOM     52  C   UNL A   1      44.772  34.274  29.176  1.00  0.00     0.037 A 
ATOM     53  C   UNL A   1      39.598  32.332  34.844  1.00  0.00     0.037 A 
ATOM     54  C   UNL A   1      44.930  33.865  30.584  1.00  0.00     0.049 A 
ATOM     55  C   UNL A   1      40.660  31.428  34.216  1.00  0.00     0.074 A 
ATOM     56  C   UNL A   1      44.963  34.564  31.774  1.00  0.00     0.029 A 
ATOM     57  N   UNL A   1      44.583  32.571  30.933  1.00  0.00    -0.354 N 
ATOM     58  N   UNL A   1      41.623  31.844  33.424  1.00  0.00    -0.248 NA
ATOM     59  C   UNL A   1      40.776  30.013  34.506  1.00  0.00     0.031 C 
ATOM     60  C   UNL A   1      44.598  33.650  32.821  1.00  0.00     0.029 A 
ATOM     61  C   UNL A   1      44.265  32.420  32.269  1.00  0.00     0.049 A 
ATOM     62  H   UNL A   1      44.564  31.827  30.288  1.00  0.00     0.167 HD
ATOM     63  C   UNL A   1      42.547  30.873  33.216  1.00  0.00     0.074 A 
ATOM     64  C   UNL A   1      41.855  29.702  33.764  1.00  0.00     0.031 C 
ATOM     65  C   UNL A   1      43.814  31.085  32.702  1.00  0.00     0.037 A 
BRANCH  52  66
ATOM     66  C   UNL A   1      45.831  35.099  28.434  1.00  0.00     0.058 A 
ATOM     67  C   UNL A   1      46.460  34.531  27.300  1.00  0.00     0.135 A 
ATOM     68  C   UNL A   1      46.195  36.448  28.674  1.00  0.00     0.135 A 
ATOM     69  F   UNL A   1      46.190  33.281  26.905  1.00  0.00    -0.206 F 
ATOM     70  C   UNL A   1      47.376  35.208  26.493  1.00  0.00     0.059 A 
ATOM     71  C   UNL A   1      47.126  37.154  27.869  1.00  0.00     0.059 A 
ATOM     72  F   UNL A   1      45.642  37.147  29.677  1.00  0.00    -0.206 F 
ATOM     73  C   UNL A   1      47.706  36.522  26.775  1.00  0.00     0.060 A 
BRANCH  73  74
ATOM     74  S   UNL A   1      48.864  37.346  25.654  1.00  0.00     0.124 S 
ATOM     75  O   UNL A   1      48.021  38.371  25.044  1.00  0.00    -0.237 OA
ATOM     76  O   UNL A   1      49.885  37.838  26.573  1.00  0.00    -0.237 OA
ATOM     77  O   UNL A   1      49.295  36.280  24.754  1.00  0.00    -0.744 OA
ENDBRANCH  73  74
ENDBRANCH  52  66
BRANCH  53  78
ATOM     78  C   UNL A   1      38.099  32.437  34.531  1.00  0.00     0.058 A 
ATOM     79  C   UNL A   1      37.355  33.535  35.073  1.00  0.00     0.135 A 
ATOM     80  C   UNL A   1      37.474  31.765  33.478  1.00  0.00     0.135 A 
ATOM     81  F   UNL A   1      37.871  34.259  36.085  1.00  0.00    -0.206 F 
ATOM     82  C   UNL A   1      36.153  34.004  34.527  1.00  0.00     0.059 A 
ATOM     83  C   UNL A   1      36.200  32.143  32.998  1.00  0.00     0.059 A 
ATOM     84  F   UNL A   1      38.136  30.809  32.812  1.00  0.00    -0.206 F 
ATOM     85  C   UNL A   1      35.550  33.272  33.512  1.00  0.00     0.060 A 
BRANCH  85  86
ATOM     86  S   UNL A   1      33.984  33.869  32.773  1.00  0.00     0.124 S 
ATOM     87  O   UNL A   1      33.983  35.267  33.181  1.00  0.00    -0.237 OA
ATOM     88  O   UNL A   1      34.202  33.641  31.347  1.00  0.00    -0.237 OA
ATOM     89  O   UNL A   1      32.971  33.044  33.424  1.00  0.00    -0.744 OA
ENDBRANCH  85  86
ENDBRANCH  53  78
BRANCH  65  90
ATOM     90  C   UNL A   1      44.772  29.926  32.502  1.00  0.00     0.058 A 
ATOM     91  C   UNL A   1      44.810  29.213  31.303  1.00  0.00     0.135 A 
ATOM     92  C   UNL A   1      45.676  29.458  33.489  1.00  0.00     0.135 A 
ATOM     93  F   UNL A   1      43.791  29.260  30.433  1.00  0.00    -0.206 F 
ATOM     94  C   UNL A   1      45.848  28.356  30.981  1.00  0.00     0.059 A 
ATOM     95  C   UNL A   1      46.656  28.513  33.235  1.00  0.00     0.059 A 
ATOM     96  F   UNL A   1      45.646  29.846  34.768  1.00  0.00    -0.206 F 
ATOM     97  C   UNL A   1      46.769  28.011  31.956  1.00  0.00     0.060 A 
BRANCH  97  98
ATOM     98  S   UNL A   1      47.979  26.755  31.566  1.00  0.00     0.124 S 
ATOM     99  O   UNL A   1      47.190  25.836  30.751  1.00  0.00    -0.237 OA
ATOM    100  O   UNL A   1      48.987  27.532  30.851  1.00  0.00    -0.237 OA
ATOM    101  O   UNL A   1      48.382  26.245  32.871  1.00  0.00    -0.744 OA
ENDBRANCH  97  98
ENDBRANCH  65  90
ENDBRANCH  39  40
ENDBRANCH  32  34
ENDBRANCH  31  32
ENDBRANCH  30  31
ENDBRANCH  29  30
ENDBRANCH   1  29
TORSDOF 20
ENDMDL
MODEL 2
REMARK VINA RESULT:      -9.6      4.377      7.048
REMARK SMILES Cc1c(NCc2ccccn2)cccc1C(=O)N1CCOC[C@@H]1CC(=O)OCCOC(=O)c1ccc(-c2c3nc(c(-c4c(F)cc(S(=O)(=O)[O-])cc4F)c4ccc([nH]4)c(-c4c(F)cc(S(=O)(=O)[O-])cc4F)c4nc(c(-c5c(F)cc(S(=O)(=O)[O-])cc5F)c5ccc2[nH]5)C=C4)C=C3)cc1
REMARK SMILES IDX 27 1 25 2 26 3 24 4 23 5 18 6 19 7 20 8 22 9 21 10 16 11
REMARK SMILES IDX 17 12 15 13 1 14 2 15 3 16 12 17 14 18 13 19 4 20 5 22 6 23
REMARK SMILES IDX 7 24 11 25 8 26 10 27 9 28 28 29 29 30 30 31 31 32 32 33
REMARK SMILES IDX 33 34 34 35 98 36 35 37 97 38 36 39 37 40 38 41 91 42 39 43
REMARK SMILES IDX 96 44 90 45 92 46 40 47 95 48 89 49 88 50 41 52 75 53 54 54
REMARK SMILES IDX 74 55 55 56 58 57 73 58 93 59 56 60 57 61 72 63 94 64 59 65
REMARK SMILES IDX 42 66 43 67 52 68 44 69 45 70 51 71 53 72 46 73 47 74 48 75
REMARK SMILES IDX 49 76 50 77 76 78 77 79 86 80 78 81 79 82 85 83 87 84 80 85
REMARK SMILES IDX 81 86 82 87 83 88 84 89 60 90 61 91 70 92 62 93 63 94 69 95
REMARK SMILES IDX 71 96 64 97 65 98 66 99 67 100 68 101
REMARK H PARENT 4 21 92 51 58 62
REMARK Flexibility Score: inf
ROOT
ATOM      1  O   UNL A   1      42.853  24.720  25.182  1.00  0.00    -0.462 OA
ENDROOT
BRANCH   1   2
ATOM      2  C   UNL A   1      43.624  24.167  26.155  1.00  0.00     0.308 C 
ATOM      3  O   UNL A   1      44.636  24.694  26.473  1.00  0.00    -0.252 OA
BRANCH   2   4
ATOM      4  C   UNL A   1      43.133  22.876  26.820  1.00  0.00     0.150 C 
BRANCH   4   5
ATOM      5  C   UNL A   1      43.098  21.769  25.769  1.00  0.00     0.122 C 
ATOM      6  N   UNL A   1      42.217  20.686  26.235  1.00  0.00    -0.330 N 
ATOM      7  C   UNL A   1      42.314  19.442  25.479  1.00  0.00     0.148 C 
ATOM      8  C   UNL A   1      43.780  19.041  25.192  1.00  0.00     0.181 C 
ATOM      9  C   UNL A   1      44.534  21.254  25.374  1.00  0.00     0.185 C 
ATOM     10  O   UNL A   1      44.445  20.106  24.502  1.00  0.00    -0.377 OA
BRANCH   6  11
ATOM     11  C   UNL A   1      41.143  20.998  27.073  1.00  0.00     0.254 C 
ATOM     12  O   UNL A   1      41.047  20.470  28.182  1.00  0.00    -0.269 OA
BRANCH  11  13
ATOM     13  C   UNL A   1      39.914  21.697  26.472  1.00  0.00     0.045 A 
ATOM     14  C   UNL A   1      38.694  19.588  25.626  1.00  0.00     0.047 C 
ATOM     15  C   UNL A   1      38.811  21.072  25.819  1.00  0.00    -0.015 A 
ATOM     16  C   UNL A   1      37.671  21.822  25.416  1.00  0.00     0.038 A 
ATOM     17  C   UNL A   1      37.628  23.192  25.690  1.00  0.00     0.026 A 
ATOM     18  C   UNL A   1      39.760  23.058  26.829  1.00  0.00     0.014 A 
ATOM     19  C   UNL A   1      38.632  23.792  26.449  1.00  0.00     0.003 A 
BRANCH  16  20
ATOM     20  N   UNL A   1      36.578  21.143  24.894  1.00  0.00    -0.379 N 
ATOM     21  H   UNL A   1      36.769  20.325  24.381  1.00  0.00     0.160 HD
BRANCH  20  22
ATOM     22  C   UNL A   1      35.193  21.515  25.031  1.00  0.00     0.169 C 
BRANCH  22  23
ATOM     23  C   UNL A   1      34.264  20.419  24.549  1.00  0.00     0.059 A 
ATOM     24  C   UNL A   1      34.612  19.064  24.585  1.00  0.00     0.026 A 
ATOM     25  N   UNL A   1      33.083  20.839  24.032  1.00  0.00    -0.259 NA
ATOM     26  C   UNL A   1      33.748  18.121  24.042  1.00  0.00     0.004 A 
ATOM     27  C   UNL A   1      32.264  19.901  23.515  1.00  0.00     0.111 A 
ATOM     28  C   UNL A   1      32.555  18.549  23.482  1.00  0.00     0.020 A 
ENDBRANCH  22  23
ENDBRANCH  20  22
ENDBRANCH  16  20
ENDBRANCH  11  13
ENDBRANCH   6  11
ENDBRANCH   4   5
ENDBRANCH   2   4
ENDBRANCH   1   2
BRANCH   1  29
ATOM     29  C   UNL A   1      42.674  26.186  25.175  1.00  0.00     0.274 C 
BRANCH  29  30
ATOM     30  C   UNL A   1      41.368  26.869  25.720  1.00  0.00     0.275 C 
BRANCH  30  31
ATOM     31  O   UNL A   1      40.813  26.449  27.008  1.00  0.00    -0.458 OA
BRANCH  31  32
ATOM     32  C   UNL A   1      40.056  27.351  27.744  1.00  0.00     0.338 C 
ATOM     33  O   UNL A   1      38.867  27.199  27.940  1.00  0.00    -0.246 OA
BRANCH  32  34
ATOM     34  C   UNL A   1      40.998  28.306  28.453  1.00  0.00     0.060 A 
ATOM     35  C   UNL A   1      40.989  29.670  28.830  1.00  0.00     0.016 A 
ATOM     36  C   UNL A   1      41.889  27.583  29.144  1.00  0.00     0.016 A 
ATOM     37  C   UNL A   1      41.965  30.135  29.795  1.00  0.00     0.010 A 
ATOM     38  C   UNL A   1      42.057  27.984  30.401  1.00  0.00     0.010 A 
ATOM     39  C   UNL A   1      42.705  29.144  30.406  1.00  0.00    -0.014 A 
BRANCH  39  40
ATOM     40  C   UNL A   1      43.907  28.696  31.138  1.00  0.00     0.031 A 
ATOM     41  C   UNL A   1      44.837  27.920  30.188  1.00  0.00     0.074 A 
ATOM     42  C   UNL A   1      44.106  29.514  32.288  1.00  0.00     0.049 A 
ATOM     43  N   UNL A   1      45.266  26.710  30.320  1.00  0.00    -0.248 NA
ATOM     44  C   UNL A   1      45.160  28.355  28.777  1.00  0.00     0.031 C 
ATOM     45  C   UNL A   1      45.087  29.774  33.370  1.00  0.00     0.029 A 
ATOM     46  N   UNL A   1      43.068  30.335  32.845  1.00  0.00    -0.354 N 
ATOM     47  C   UNL A   1      46.363  26.609  29.454  1.00  0.00     0.074 A 
ATOM     48  C   UNL A   1      46.022  27.426  28.334  1.00  0.00     0.031 C 
ATOM     49  C   UNL A   1      44.407  29.977  34.539  1.00  0.00     0.029 A 
ATOM     50  C   UNL A   1      42.996  30.116  34.217  1.00  0.00     0.049 A 
ATOM     51  H   UNL A   1      42.497  30.955  32.335  1.00  0.00     0.167 HD
ATOM     52  C   UNL A   1      47.610  26.379  29.985  1.00  0.00     0.037 A 
ATOM     53  C   UNL A   1      41.911  29.388  34.582  1.00  0.00     0.037 A 
ATOM     54  C   UNL A   1      47.483  26.555  31.443  1.00  0.00     0.049 A 
ATOM     55  C   UNL A   1      42.413  27.943  34.562  1.00  0.00     0.074 A 
ATOM     56  C   UNL A   1      47.806  27.586  32.303  1.00  0.00     0.029 A 
ATOM     57  N   UNL A   1      46.526  25.811  32.112  1.00  0.00    -0.354 N 
ATOM     58  N   UNL A   1      43.489  27.534  33.928  1.00  0.00    -0.248 NA
ATOM     59  C   UNL A   1      41.801  26.876  35.327  1.00  0.00     0.031 C 
ATOM     60  C   UNL A   1      46.991  27.438  33.478  1.00  0.00     0.029 A 
ATOM     61  C   UNL A   1      46.118  26.372  33.307  1.00  0.00     0.049 A 
ATOM     62  H   UNL A   1      46.170  24.960  31.768  1.00  0.00     0.167 HD
ATOM     63  C   UNL A   1      43.820  26.267  34.281  1.00  0.00     0.074 A 
ATOM     64  C   UNL A   1      42.615  25.853  35.009  1.00  0.00     0.031 C 
ATOM     65  C   UNL A   1      45.047  25.674  34.041  1.00  0.00     0.037 A 
BRANCH  52  66
ATOM     66  C   UNL A   1      48.969  26.276  29.283  1.00  0.00     0.058 A 
ATOM     67  C   UNL A   1      49.154  25.267  28.306  1.00  0.00     0.135 A 
ATOM     68  C   UNL A   1      50.070  27.161  29.404  1.00  0.00     0.135 A 
ATOM     69  F   UNL A   1      48.190  24.378  28.031  1.00  0.00    -0.206 F 
ATOM     70  C   UNL A   1      50.311  25.122  27.540  1.00  0.00     0.059 A 
ATOM     71  C   UNL A   1      51.257  27.031  28.638  1.00  0.00     0.059 A 
ATOM     72  F   UNL A   1      50.030  28.206  30.245  1.00  0.00    -0.206 F 
ATOM     73  C   UNL A   1      51.363  26.007  27.703  1.00  0.00     0.060 A 
BRANCH  73  74
ATOM     74  S   UNL A   1      52.809  25.782  26.638  1.00  0.00     0.124 S 
ATOM     75  O   UNL A   1      52.801  27.011  25.849  1.00  0.00    -0.237 OA
ATOM     76  O   UNL A   1      53.892  25.667  27.610  1.00  0.00    -0.237 OA
ATOM     77  O   UNL A   1      52.507  24.563  25.893  1.00  0.00    -0.744 OA
ENDBRANCH  73  74
ENDBRANCH  52  66
BRANCH  53  78
ATOM     78  C   UNL A   1      40.676  30.000  33.907  1.00  0.00     0.058 A 
ATOM     79  C   UNL A   1      40.488  31.420  33.966  1.00  0.00     0.135 A 
ATOM     80  C   UNL A   1      39.913  29.345  32.938  1.00  0.00     0.135 A 
ATOM     81  F   UNL A   1      41.183  32.150  34.858  1.00  0.00    -0.206 F 
ATOM     82  C   UNL A   1      39.706  32.138  33.051  1.00  0.00     0.059 A 
ATOM     83  C   UNL A   1      39.019  30.039  32.091  1.00  0.00     0.059 A 
ATOM     84  F   UNL A   1      40.108  28.039  32.707  1.00  0.00    -0.206 F 
ATOM     85  C   UNL A   1      38.930  31.436  32.138  1.00  0.00     0.060 A 
BRANCH  85  86
ATOM     86  S   UNL A   1      37.909  32.351  30.924  1.00  0.00     0.124 S 
ATOM     87  O   UNL A   1      36.751  31.477  30.800  1.00  0.00    -0.237 OA
ATOM     88  O   UNL A   1      37.659  33.614  31.613  1.00  0.00    -0.237 OA
ATOM     89  O   UNL A   1      38.761  32.404  29.742  1.00  0.00    -0.744 OA
ENDBRANCH  85  86
ENDBRANCH  53  78
BRANCH  65  90
ATOM     90  C   UNL A   1      45.314  24.245  34.472  1.00  0.00     0.058 A 
ATOM     91  C   UNL A   1      44.852  23.161  33.724  1.00  0.00     0.135 A 
ATOM     92  C   UNL A   1      46.016  23.884  35.650  1.00  0.00     0.135 A 
ATOM     93  F   UNL A   1      43.867  23.306  32.825  1.00  0.00    -0.206 F 
ATOM     94  C   UNL A   1      45.313  21.872  33.921  1.00  0.00     0.059 A 
ATOM     95  C   UNL A   1      46.395  22.584  35.941  1.00  0.00     0.059 A 
ATOM     96  F   UNL A   1      46.343  24.750  36.615  1.00  0.00    -0.206 F 
ATOM     97  C   UNL A   1      46.087  21.592  35.035  1.00  0.00     0.060 A 
BRANCH  97  98
ATOM     98  S   UNL A   1      46.503  19.885  35.365  1.00  0.00     0.124 S 
ATOM     99  O   UNL A   1      47.061  19.978  36.712  1.00  0.00    -0.237 OA
ATOM    100  O   UNL A   1      45.198  19.240  35.263  1.00  0.00    -0.237 OA
ATOM    101  O   UNL A   1      47.458  19.553  34.315  1.00  0.00    -0.744 OA
ENDBRANCH  97  98
ENDBRANCH  65  90
ENDBRANCH  39  40
ENDBRANCH  32  34
ENDBRANCH  31  32
ENDBRANCH  30  31
ENDBRANCH  29  30
ENDBRANCH   1  29
TORSDOF 20
ENDMDL
MODEL 3
REMARK VINA RESULT:      -9.1      7.917     11.776
REMARK SMILES Cc1c(NCc2ccccn2)cccc1C(=O)N1CCOC[C@@H]1CC(=O)OCCOC(=O)c1ccc(-c2c3nc(c(-c4c(F)cc(S(=O)(=O)[O-])cc4F)c4ccc([nH]4)c(-c4c(F)cc(S(=O)(=O)[O-])cc4F)c4nc(c(-c5c(F)cc(S(=O)(=O)[O-])cc5F)c5ccc2[nH]5)C=C4)C=C3)cc1
REMARK SMILES IDX 27 1 25 2 26 3 24 4 23 5 18 6 19 7 20 8 22 9 21 10 16 11
REMARK SMILES IDX 17 12 15 13 1 14 2 15 3 16 12 17 14 18 13 19 4 20 5 22 6 23
REMARK SMILES IDX 7 24 11 25 8 26 10 27 9 28 28 29 29 30 30 31 31 32 32 33
REMARK SMILES IDX 33 34 34 35 98 36 35 37 97 38 36 39 37 40 38 41 91 42 39 43
REMARK SMILES IDX 96 44 90 45 92 46 40 47 95 48 89 49 88 50 41 52 75 53 54 54
REMARK SMILES IDX 74 55 55 56 58 57 73 58 93 59 56 60 57 61 72 63 94 64 59 65
REMARK SMILES IDX 42 66 43 67 52 68 44 69 45 70 51 71 53 72 46 73 47 74 48 75
REMARK SMILES IDX 49 76 50 77 76 78 77 79 86 80 78 81 79 82 85 83 87 84 80 85
REMARK SMILES IDX 81 86 82 87 83 88 84 89 60 90 61 91 70 92 62 93 63 94 69 95
REMARK SMILES IDX 71 96 64 97 65 98 66 99 67 100 68 101
REMARK H PARENT 4 21 92 51 58 62
REMARK Flexibility Score: inf
ROOT
ATOM      1  O   UNL A   1      45.329  21.135  36.183  1.00  0.00    -0.462 OA
ENDROOT
BRANCH   1   2
ATOM      2  C   UNL A   1      46.023  20.141  36.798  1.00  0.00     0.308 C 
ATOM      3  O   UNL A   1      46.238  19.130  36.219  1.00  0.00    -0.252 OA
BRANCH   2   4
ATOM      4  C   UNL A   1      46.519  20.384  38.227  1.00  0.00     0.150 C 
BRANCH   4   5
ATOM      5  C   UNL A   1      47.492  19.268  38.602  1.00  0.00     0.122 C 
ATOM      6  N   UNL A   1      47.117  18.719  39.915  1.00  0.00    -0.330 N 
ATOM      7  C   UNL A   1      48.118  17.856  40.532  1.00  0.00     0.148 C 
ATOM      8  C   UNL A   1      49.546  18.444  40.430  1.00  0.00     0.181 C 
ATOM      9  C   UNL A   1      49.000  19.725  38.543  1.00  0.00     0.185 C 
ATOM     10  O   UNL A   1      49.868  18.691  39.056  1.00  0.00    -0.377 OA
BRANCH   6  11
ATOM     11  C   UNL A   1      45.775  18.745  40.304  1.00  0.00     0.254 C 
ATOM     12  O   UNL A   1      45.361  19.635  41.048  1.00  0.00    -0.269 OA
BRANCH  11  13
ATOM     13  C   UNL A   1      44.924  17.480  40.109  1.00  0.00     0.045 A 
ATOM     14  C   UNL A   1      44.168  17.190  42.558  1.00  0.00     0.047 C 
ATOM     15  C   UNL A   1      44.202  16.775  41.116  1.00  0.00    -0.015 A 
ATOM     16  C   UNL A   1      43.348  15.686  40.784  1.00  0.00     0.038 A 
ATOM     17  C   UNL A   1      43.201  15.322  39.442  1.00  0.00     0.026 A 
ATOM     18  C   UNL A   1      44.643  17.145  38.763  1.00  0.00     0.014 A 
ATOM     19  C   UNL A   1      43.789  16.087  38.435  1.00  0.00     0.003 A 
BRANCH  16  20
ATOM     20  N   UNL A   1      42.577  15.115  41.788  1.00  0.00    -0.379 N 
ATOM     21  H   UNL A   1      42.618  15.542  42.674  1.00  0.00     0.160 HD
BRANCH  20  22
ATOM     22  C   UNL A   1      41.723  13.962  41.661  1.00  0.00     0.169 C 
BRANCH  22  23
ATOM     23  C   UNL A   1      42.159  12.833  42.574  1.00  0.00     0.059 A 
ATOM     24  C   UNL A   1      42.646  13.054  43.868  1.00  0.00     0.026 A 
ATOM     25  N   UNL A   1      42.094  11.590  42.039  1.00  0.00    -0.259 NA
ATOM     26  C   UNL A   1      43.114  11.981  44.616  1.00  0.00     0.004 A 
ATOM     27  C   UNL A   1      42.552  10.567  42.789  1.00  0.00     0.111 A 
ATOM     28  C   UNL A   1      43.080  10.712  44.060  1.00  0.00     0.020 A 
ENDBRANCH  22  23
ENDBRANCH  20  22
ENDBRANCH  16  20
ENDBRANCH  11  13
ENDBRANCH   6  11
ENDBRANCH   4   5
ENDBRANCH   2   4
ENDBRANCH   1   2
BRANCH   1  29
ATOM     29  C   UNL A   1      45.536  21.346  34.736  1.00  0.00     0.274 C 
BRANCH  29  30
ATOM     30  C   UNL A   1      45.695  22.783  34.118  1.00  0.00     0.275 C 
BRANCH  30  31
ATOM     31  O   UNL A   1      44.820  23.202  33.022  1.00  0.00    -0.458 OA
BRANCH  31  32
ATOM     32  C   UNL A   1      44.137  24.408  33.127  1.00  0.00     0.338 C 
ATOM     33  O   UNL A   1      43.478  24.703  34.103  1.00  0.00    -0.246 OA
BRANCH  32  34
ATOM     34  C   UNL A   1      44.603  25.325  32.011  1.00  0.00     0.060 A 
ATOM     35  C   UNL A   1      45.252  25.178  30.763  1.00  0.00     0.016 A 
ATOM     36  C   UNL A   1      43.953  26.490  32.125  1.00  0.00     0.016 A 
ATOM     37  C   UNL A   1      45.232  26.288  29.830  1.00  0.00     0.010 A 
ATOM     38  C   UNL A   1      43.430  26.934  30.985  1.00  0.00     0.010 A 
ATOM     39  C   UNL A   1      44.409  27.337  30.183  1.00  0.00    -0.014 A 
BRANCH  39  40
ATOM     40  C   UNL A   1      44.015  28.757  30.088  1.00  0.00     0.031 A 
ATOM     41  C   UNL A   1      44.373  29.485  31.397  1.00  0.00     0.074 A 
ATOM     42  C   UNL A   1      43.923  29.144  28.720  1.00  0.00     0.049 A 
ATOM     43  N   UNL A   1      43.578  30.130  32.183  1.00  0.00    -0.248 NA
ATOM     44  C   UNL A   1      45.680  29.304  32.136  1.00  0.00     0.031 C 
ATOM     45  C   UNL A   1      43.734  30.341  27.864  1.00  0.00     0.029 A 
ATOM     46  N   UNL A   1      43.812  28.192  27.651  1.00  0.00    -0.354 N 
ATOM     47  C   UNL A   1      44.410  30.927  32.980  1.00  0.00     0.074 A 
ATOM     48  C   UNL A   1      45.586  30.142  33.181  1.00  0.00     0.031 C 
ATOM     49  C   UNL A   1      42.915  30.007  26.821  1.00  0.00     0.029 A 
ATOM     50  C   UNL A   1      42.764  28.562  26.814  1.00  0.00     0.049 A 
ATOM     51  H   UNL A   1      44.388  27.402  27.529  1.00  0.00     0.167 HD
ATOM     52  C   UNL A   1      44.312  32.294  32.884  1.00  0.00     0.037 A 
ATOM     53  C   UNL A   1      41.672  27.768  26.950  1.00  0.00     0.037 A 
ATOM     54  C   UNL A   1      43.468  32.571  31.707  1.00  0.00     0.049 A 
ATOM     55  C   UNL A   1      40.831  28.476  28.014  1.00  0.00     0.074 A 
ATOM     56  C   UNL A   1      43.749  32.954  30.411  1.00  0.00     0.029 A 
ATOM     57  N   UNL A   1      42.213  31.989  31.649  1.00  0.00    -0.354 N 
ATOM     58  N   UNL A   1      41.293  29.372  28.857  1.00  0.00    -0.248 NA
ATOM     59  C   UNL A   1      39.399  28.300  28.146  1.00  0.00     0.031 C 
ATOM     60  C   UNL A   1      42.637  32.554  29.592  1.00  0.00     0.029 A 
ATOM     61  C   UNL A   1      41.717  31.860  30.366  1.00  0.00     0.049 A 
ATOM     62  H   UNL A   1      41.720  31.696  32.449  1.00  0.00     0.167 HD
ATOM     63  C   UNL A   1      40.285  29.998  29.514  1.00  0.00     0.074 A 
ATOM     64  C   UNL A   1      39.145  29.145  29.162  1.00  0.00     0.031 C 
ATOM     65  C   UNL A   1      40.416  31.182  30.218  1.00  0.00     0.037 A 
BRANCH  52  66
ATOM     66  C   UNL A   1      45.123  33.386  33.592  1.00  0.00     0.058 A 
ATOM     67  C   UNL A   1      44.918  33.592  34.977  1.00  0.00     0.135 A 
ATOM     68  C   UNL A   1      46.172  34.169  33.047  1.00  0.00     0.135 A 
ATOM     69  F   UNL A   1      43.998  32.896  35.657  1.00  0.00    -0.206 F 
ATOM     70  C   UNL A   1      45.650  34.494  35.751  1.00  0.00     0.059 A 
ATOM     71  C   UNL A   1      46.926  35.095  33.813  1.00  0.00     0.059 A 
ATOM     72  F   UNL A   1      46.530  34.049  31.759  1.00  0.00    -0.206 F 
ATOM     73  C   UNL A   1      46.658  35.244  35.170  1.00  0.00     0.060 A 
BRANCH  73  74
ATOM     74  S   UNL A   1      47.593  36.356  36.248  1.00  0.00     0.124 S 
ATOM     75  O   UNL A   1      48.528  36.974  35.312  1.00  0.00    -0.237 OA
ATOM     76  O   UNL A   1      46.549  37.234  36.765  1.00  0.00    -0.237 OA
ATOM     77  O   UNL A   1      48.199  35.461  37.230  1.00  0.00    -0.744 OA
ENDBRANCH  73  74
ENDBRANCH  52  66
BRANCH  53  78
ATOM     78  C   UNL A   1      42.133  26.305  26.887  1.00  0.00     0.058 A 
ATOM     79  C   UNL A   1      41.737  25.410  27.934  1.00  0.00     0.135 A 
ATOM     80  C   UNL A   1      42.599  25.684  25.726  1.00  0.00     0.135 A 
ATOM     81  F   UNL A   1      41.262  25.904  29.093  1.00  0.00    -0.206 F 
ATOM     82  C   UNL A   1      41.686  24.017  27.787  1.00  0.00     0.059 A 
ATOM     83  C   UNL A   1      42.678  24.278  25.608  1.00  0.00     0.059 A 
ATOM     84  F   UNL A   1      42.870  26.421  24.640  1.00  0.00    -0.206 F 
ATOM     85  C   UNL A   1      42.205  23.447  26.631  1.00  0.00     0.060 A 
BRANCH  85  86
ATOM     86  S   UNL A   1      42.141  21.631  26.409  1.00  0.00     0.124 S 
ATOM     87  O   UNL A   1      42.528  21.162  27.733  1.00  0.00    -0.237 OA
ATOM     88  O   UNL A   1      40.741  21.406  26.059  1.00  0.00    -0.237 OA
ATOM     89  O   UNL A   1      43.128  21.386  25.364  1.00  0.00    -0.744 OA
ENDBRANCH  85  86
ENDBRANCH  53  78
BRANCH  65  90
ATOM     90  C   UNL A   1      39.224  31.798  30.926  1.00  0.00     0.058 A 
ATOM     91  C   UNL A   1      38.535  32.883  30.382  1.00  0.00     0.135 A 
ATOM     92  C   UNL A   1      38.726  31.359  32.180  1.00  0.00     0.135 A 
ATOM     93  F   UNL A   1      39.088  33.652  29.432  1.00  0.00    -0.206 F 
ATOM     94  C   UNL A   1      37.292  33.280  30.841  1.00  0.00     0.059 A 
ATOM     95  C   UNL A   1      37.542  31.820  32.730  1.00  0.00     0.059 A 
ATOM     96  F   UNL A   1      39.368  30.495  32.973  1.00  0.00    -0.206 F 
ATOM     97  C   UNL A   1      36.802  32.741  32.019  1.00  0.00     0.060 A 
BRANCH  97  98
ATOM     98  S   UNL A   1      35.287  33.414  32.688  1.00  0.00     0.124 S 
ATOM     99  O   UNL A   1      35.332  32.922  34.062  1.00  0.00    -0.237 OA
ATOM    100  O   UNL A   1      35.505  34.848  32.520  1.00  0.00    -0.237 OA
ATOM    101  O   UNL A   1      34.249  32.830  31.848  1.00  0.00    -0.744 OA
ENDBRANCH  97  98
ENDBRANCH  65  90
ENDBRANCH  39  40
ENDBRANCH  32  34
ENDBRANCH  31  32
ENDBRANCH  30  31
ENDBRANCH  29  30
ENDBRANCH   1  29
TORSDOF 20
ENDMDL
