MODEL 1
REMARK VINA RESULT:     -11.1      0.000      0.000
REMARK SMILES O=C(OCCOC(=O)c1ccc(S(=O)(=O)Cc2cccs2)c(F)c1)c1ccc(-c2c3nc(c(-c4c(F)cc(S(=O)(=O)[O-])cc4F)c4ccc([nH]4)c(-c4c(F)cc(S(=O)(=O)[O-])cc4F)c4nc(c(-c5c(F)cc(S(=O)(=O)[O-])cc5F)c5ccc2[nH]5)C=C4)C=C3)cc1
REMARK SMILES IDX 4 1 3 2 2 3 1 4 25 5 26 6 90 7 27 8 89 9 28 10 29 11 30 12
REMARK SMILES IDX 83 13 31 14 88 15 82 16 84 17 32 18 87 19 81 20 80 21 33 23
REMARK SMILES IDX 67 24 46 25 66 26 47 27 50 28 65 29 85 30 48 31 49 32 64 34
REMARK SMILES IDX 86 35 51 36 34 37 35 38 44 39 36 40 37 41 43 42 45 43 38 44
REMARK SMILES IDX 39 45 40 46 41 47 42 48 68 49 69 50 78 51 70 52 71 53 77 54
REMARK SMILES IDX 79 55 72 56 73 57 74 58 75 59 76 60 52 61 53 62 62 63 54 64
REMARK SMILES IDX 55 65 61 66 63 67 56 68 57 69 58 70 59 71 60 72 5 73 6 74
REMARK SMILES IDX 7 75 8 76 9 77 10 78 24 79 11 80 22 81 12 82 23 83 13 84
REMARK SMILES IDX 14 85 15 86 16 87 17 88 18 89 21 90 19 91 20 92
REMARK H PARENT 84 22 50 33
REMARK Flexibility Score: inf
ROOT
ATOM      1  C   UNL A   1      39.566  22.425  26.471  1.00  0.00     0.275 C 
ENDROOT
BRANCH   1   2
ATOM      2  O   UNL A   1      39.652  23.858  26.538  1.00  0.00    -0.458 OA
BRANCH   2   3
ATOM      3  C   UNL A   1      40.746  24.618  26.792  1.00  0.00     0.338 C 
ATOM      4  O   UNL A   1      41.817  24.310  26.272  1.00  0.00    -0.246 OA
BRANCH   3   5
ATOM      5  C   UNL A   1      40.761  25.673  27.854  1.00  0.00     0.060 A 
ATOM      6  C   UNL A   1      41.771  26.612  28.068  1.00  0.00     0.016 A 
ATOM      7  C   UNL A   1      39.644  25.703  28.709  1.00  0.00     0.016 A 
ATOM      8  C   UNL A   1      41.629  27.614  29.034  1.00  0.00     0.010 A 
ATOM      9  C   UNL A   1      39.488  26.714  29.662  1.00  0.00     0.010 A 
ATOM     10  C   UNL A   1      40.480  27.686  29.822  1.00  0.00    -0.014 A 
BRANCH  10  11
ATOM     11  C   UNL A   1      40.371  28.706  30.888  1.00  0.00     0.031 A 
ATOM     12  C   UNL A   1      41.207  28.544  32.123  1.00  0.00     0.074 A 
ATOM     13  C   UNL A   1      39.559  29.771  30.737  1.00  0.00     0.049 A 
ATOM     14  N   UNL A   1      41.288  29.319  33.170  1.00  0.00    -0.248 NA
ATOM     15  C   UNL A   1      42.095  27.368  32.174  1.00  0.00     0.031 C 
ATOM     16  C   UNL A   1      38.742  30.051  29.556  1.00  0.00     0.029 A 
ATOM     17  N   UNL A   1      39.269  30.807  31.588  1.00  0.00    -0.354 N 
ATOM     18  C   UNL A   1      42.260  28.750  33.980  1.00  0.00     0.074 A 
ATOM     19  C   UNL A   1      42.692  27.528  33.345  1.00  0.00     0.031 C 
ATOM     20  C   UNL A   1      37.991  31.143  29.784  1.00  0.00     0.029 A 
ATOM     21  C   UNL A   1      38.280  31.644  31.123  1.00  0.00     0.049 A 
ATOM     22  H   UNL A   1      39.726  30.939  32.450  1.00  0.00     0.167 HD
ATOM     23  C   UNL A   1      42.779  29.236  35.130  1.00  0.00     0.037 A 
ATOM     24  C   UNL A   1      37.670  32.685  31.722  1.00  0.00     0.037 A 
ATOM     25  C   UNL A   1      42.329  30.447  35.757  1.00  0.00     0.049 A 
ATOM     26  C   UNL A   1      38.158  33.120  33.078  1.00  0.00     0.074 A 
ATOM     27  C   UNL A   1      42.800  31.043  36.913  1.00  0.00     0.029 A 
ATOM     28  N   UNL A   1      41.295  31.241  35.285  1.00  0.00    -0.354 N 
ATOM     29  N   UNL A   1      39.131  32.615  33.801  1.00  0.00    -0.248 NA
ATOM     30  C   UNL A   1      37.494  34.279  33.692  1.00  0.00     0.031 C 
ATOM     31  C   UNL A   1      42.022  32.177  37.161  1.00  0.00     0.029 A 
ATOM     32  C   UNL A   1      41.093  32.309  36.139  1.00  0.00     0.049 A 
ATOM     33  H   UNL A   1      40.780  31.069  34.462  1.00  0.00     0.167 HD
ATOM     34  C   UNL A   1      39.225  33.419  34.930  1.00  0.00     0.074 A 
ATOM     35  C   UNL A   1      38.207  34.443  34.799  1.00  0.00     0.031 C 
ATOM     36  C   UNL A   1      40.085  33.327  35.974  1.00  0.00     0.037 A 
BRANCH  23  37
ATOM     37  C   UNL A   1      43.906  28.472  35.757  1.00  0.00     0.058 A 
ATOM     38  C   UNL A   1      43.659  27.449  36.682  1.00  0.00     0.135 A 
ATOM     39  C   UNL A   1      45.243  28.789  35.466  1.00  0.00     0.135 A 
ATOM     40  F   UNL A   1      42.399  27.094  36.980  1.00  0.00    -0.206 F 
ATOM     41  C   UNL A   1      44.700  26.776  37.312  1.00  0.00     0.059 A 
ATOM     42  C   UNL A   1      46.300  28.118  36.070  1.00  0.00     0.059 A 
ATOM     43  F   UNL A   1      45.530  29.742  34.563  1.00  0.00    -0.206 F 
ATOM     44  C   UNL A   1      46.018  27.122  37.004  1.00  0.00     0.060 A 
BRANCH  44  45
ATOM     45  S   UNL A   1      47.358  26.233  37.823  1.00  0.00     0.124 S 
ATOM     46  O   UNL A   1      46.694  25.724  39.018  1.00  0.00    -0.237 OA
ATOM     47  O   UNL A   1      47.719  25.234  36.822  1.00  0.00    -0.237 OA
ATOM     48  O   UNL A   1      48.362  27.268  38.052  1.00  0.00    -0.744 OA
ENDBRANCH  44  45
ENDBRANCH  23  37
BRANCH  24  49
ATOM     49  C   UNL A   1      36.543  33.388  31.048  1.00  0.00     0.058 A 
ATOM     50  C   UNL A   1      35.223  33.238  31.504  1.00  0.00     0.135 A 
ATOM     51  C   UNL A   1      36.758  34.233  29.950  1.00  0.00     0.135 A 
ATOM     52  F   UNL A   1      34.958  32.432  32.543  1.00  0.00    -0.206 F 
ATOM     53  C   UNL A   1      34.159  33.897  30.895  1.00  0.00     0.059 A 
ATOM     54  C   UNL A   1      35.712  34.918  29.334  1.00  0.00     0.059 A 
ATOM     55  F   UNL A   1      38.001  34.416  29.480  1.00  0.00    -0.206 F 
ATOM     56  C   UNL A   1      34.414  34.738  29.811  1.00  0.00     0.060 A 
BRANCH  56  57
ATOM     57  S   UNL A   1      33.022  35.596  29.043  1.00  0.00     0.124 S 
ATOM     58  O   UNL A   1      33.697  36.691  28.355  1.00  0.00    -0.237 OA
ATOM     59  O   UNL A   1      32.457  34.559  28.185  1.00  0.00    -0.237 OA
ATOM     60  O   UNL A   1      32.195  35.985  30.181  1.00  0.00    -0.744 OA
ENDBRANCH  56  57
ENDBRANCH  24  49
BRANCH  36  61
ATOM     61  C   UNL A   1      39.999  34.377  37.042  1.00  0.00     0.058 A 
ATOM     62  C   UNL A   1      39.118  34.215  38.123  1.00  0.00     0.135 A 
ATOM     63  C   UNL A   1      40.705  35.584  36.940  1.00  0.00     0.135 A 
ATOM     64  F   UNL A   1      38.417  33.077  38.260  1.00  0.00    -0.206 F 
ATOM     65  C   UNL A   1      38.915  35.228  39.050  1.00  0.00     0.059 A 
ATOM     66  C   UNL A   1      40.537  36.603  37.871  1.00  0.00     0.059 A 
ATOM     67  F   UNL A   1      41.570  35.777  35.931  1.00  0.00    -0.206 F 
ATOM     68  C   UNL A   1      39.622  36.424  38.910  1.00  0.00     0.060 A 
BRANCH  68  69
ATOM     69  S   UNL A   1      39.334  37.737  40.112  1.00  0.00     0.124 S 
ATOM     70  O   UNL A   1      38.172  38.413  39.543  1.00  0.00    -0.237 OA
ATOM     71  O   UNL A   1      39.093  36.987  41.341  1.00  0.00    -0.237 OA
ATOM     72  O   UNL A   1      40.580  38.499  40.086  1.00  0.00    -0.744 OA
ENDBRANCH  68  69
ENDBRANCH  36  61
ENDBRANCH  10  11
ENDBRANCH   3   5
ENDBRANCH   2   3
ENDBRANCH   1   2
BRANCH   1  73
ATOM     73  C   UNL A   1      38.471  21.909  25.534  1.00  0.00     0.275 C 
BRANCH  73  74
ATOM     74  O   UNL A   1      37.166  21.913  26.132  1.00  0.00    -0.458 OA
BRANCH  74  75
ATOM     75  C   UNL A   1      36.163  21.470  25.329  1.00  0.00     0.338 C 
ATOM     76  O   UNL A   1      35.735  20.334  25.231  1.00  0.00    -0.246 OA
BRANCH  75  77
ATOM     77  C   UNL A   1      35.533  22.632  24.683  1.00  0.00     0.063 A 
ATOM     78  C   UNL A   1      35.411  23.863  25.332  1.00  0.00     0.017 A 
ATOM     79  C   UNL A   1      34.999  22.448  23.408  1.00  0.00     0.056 A 
ATOM     80  C   UNL A   1      34.723  24.907  24.699  1.00  0.00     0.024 A 
ATOM     81  C   UNL A   1      34.242  23.461  22.831  1.00  0.00     0.142 A 
ATOM     82  C   UNL A   1      34.113  24.690  23.453  1.00  0.00     0.103 A 
ATOM     83  F   UNL A   1      33.549  23.159  21.730  1.00  0.00    -0.206 F 
BRANCH  82  84
ATOM     84  S   UNL A   1      33.102  25.970  22.770  1.00  0.00     0.186 S 
ATOM     85  O   UNL A   1      33.332  27.121  23.624  1.00  0.00    -0.223 OA
ATOM     86  O   UNL A   1      33.429  26.027  21.355  1.00  0.00    -0.223 OA
BRANCH  84  87
ATOM     87  C   UNL A   1      31.373  25.565  22.917  1.00  0.00     0.188 C 
BRANCH  87  88
ATOM     88  C   UNL A   1      31.067  24.761  24.144  1.00  0.00     0.020 A 
ATOM     89  C   UNL A   1      30.994  23.389  24.285  1.00  0.00     0.016 A 
ATOM     90  S   UNL A   1      30.623  25.549  25.605  1.00  0.00    -0.148 S 
ATOM     91  C   UNL A   1      30.695  22.993  25.621  1.00  0.00     0.012 A 
ATOM     92  C   UNL A   1      30.512  24.073  26.451  1.00  0.00     0.065 A 
ENDBRANCH  87  88
ENDBRANCH  84  87
ENDBRANCH  82  84
ENDBRANCH  75  77
ENDBRANCH  74  75
ENDBRANCH  73  74
ENDBRANCH   1  73
TORSDOF 17
ENDMDL
MODEL 2
REMARK VINA RESULT:     -11.0      1.189      2.104
REMARK SMILES O=C(OCCOC(=O)c1ccc(S(=O)(=O)Cc2cccs2)c(F)c1)c1ccc(-c2c3nc(c(-c4c(F)cc(S(=O)(=O)[O-])cc4F)c4ccc([nH]4)c(-c4c(F)cc(S(=O)(=O)[O-])cc4F)c4nc(c(-c5c(F)cc(S(=O)(=O)[O-])cc5F)c5ccc2[nH]5)C=C4)C=C3)cc1
REMARK SMILES IDX 4 1 3 2 2 3 1 4 25 5 26 6 90 7 27 8 89 9 28 10 29 11 30 12
REMARK SMILES IDX 83 13 31 14 88 15 82 16 84 17 32 18 87 19 81 20 80 21 33 23
REMARK SMILES IDX 67 24 46 25 66 26 47 27 50 28 65 29 85 30 48 31 49 32 64 34
REMARK SMILES IDX 86 35 51 36 34 37 35 38 44 39 36 40 37 41 43 42 45 43 38 44
REMARK SMILES IDX 39 45 40 46 41 47 42 48 68 49 69 50 78 51 70 52 71 53 77 54
REMARK SMILES IDX 79 55 72 56 73 57 74 58 75 59 76 60 52 61 53 62 62 63 54 64
REMARK SMILES IDX 55 65 61 66 63 67 56 68 57 69 58 70 59 71 60 72 5 73 6 74
REMARK SMILES IDX 7 75 8 76 9 77 10 78 24 79 11 80 22 81 12 82 23 83 13 84
REMARK SMILES IDX 14 85 15 86 16 87 17 88 18 89 21 90 19 91 20 92
REMARK H PARENT 84 22 50 33
REMARK Flexibility Score: inf
ROOT
ATOM      1  C   UNL A   1      40.188  22.412  26.924  1.00  0.00     0.275 C 
ENDROOT
BRANCH   1   2
ATOM      2  O   UNL A   1      40.104  23.738  26.377  1.00  0.00    -0.458 OA
BRANCH   2   3
ATOM      3  C   UNL A   1      40.931  24.789  26.603  1.00  0.00     0.338 C 
ATOM      4  O   UNL A   1      42.013  24.829  26.019  1.00  0.00    -0.246 OA
BRANCH   3   5
ATOM      5  C   UNL A   1      40.691  25.779  27.699  1.00  0.00     0.060 A 
ATOM      6  C   UNL A   1      39.610  25.784  28.583  1.00  0.00     0.016 A 
ATOM      7  C   UNL A   1      41.655  26.794  27.836  1.00  0.00     0.016 A 
ATOM      8  C   UNL A   1      39.543  26.706  29.632  1.00  0.00     0.010 A 
ATOM      9  C   UNL A   1      41.604  27.706  28.895  1.00  0.00     0.010 A 
ATOM     10  C   UNL A   1      40.548  27.659  29.809  1.00  0.00    -0.014 A 
BRANCH  10  11
ATOM     11  C   UNL A   1      40.431  28.673  30.879  1.00  0.00     0.031 A 
ATOM     12  C   UNL A   1      41.266  28.512  32.115  1.00  0.00     0.074 A 
ATOM     13  C   UNL A   1      39.612  29.734  30.731  1.00  0.00     0.049 A 
ATOM     14  N   UNL A   1      41.340  29.283  33.165  1.00  0.00    -0.248 NA
ATOM     15  C   UNL A   1      42.162  27.342  32.162  1.00  0.00     0.031 C 
ATOM     16  C   UNL A   1      38.795  30.013  29.550  1.00  0.00     0.029 A 
ATOM     17  N   UNL A   1      39.314  30.764  31.586  1.00  0.00    -0.354 N 
ATOM     18  C   UNL A   1      42.315  28.718  33.974  1.00  0.00     0.074 A 
ATOM     19  C   UNL A   1      42.756  27.501  33.335  1.00  0.00     0.031 C 
ATOM     20  C   UNL A   1      38.036  31.098  29.781  1.00  0.00     0.029 A 
ATOM     21  C   UNL A   1      38.320  31.596  31.123  1.00  0.00     0.049 A 
ATOM     22  H   UNL A   1      39.768  30.896  32.450  1.00  0.00     0.167 HD
ATOM     23  C   UNL A   1      42.828  29.203  35.127  1.00  0.00     0.037 A 
ATOM     24  C   UNL A   1      37.701  32.631  31.725  1.00  0.00     0.037 A 
ATOM     25  C   UNL A   1      42.370  30.408  35.758  1.00  0.00     0.049 A 
ATOM     26  C   UNL A   1      38.185  33.064  33.084  1.00  0.00     0.074 A 
ATOM     27  C   UNL A   1      42.835  31.002  36.917  1.00  0.00     0.029 A 
ATOM     28  N   UNL A   1      41.331  31.197  35.287  1.00  0.00    -0.354 N 
ATOM     29  N   UNL A   1      39.160  32.562  33.807  1.00  0.00    -0.248 NA
ATOM     30  C   UNL A   1      37.513  34.216  33.701  1.00  0.00     0.031 C 
ATOM     31  C   UNL A   1      42.049  32.130  37.169  1.00  0.00     0.029 A 
ATOM     32  C   UNL A   1      41.121  32.260  36.146  1.00  0.00     0.049 A 
ATOM     33  H   UNL A   1      40.819  31.025  34.464  1.00  0.00     0.167 HD
ATOM     34  C   UNL A   1      39.247  33.362  34.938  1.00  0.00     0.074 A 
ATOM     35  C   UNL A   1      38.222  34.379  34.810  1.00  0.00     0.031 C 
ATOM     36  C   UNL A   1      40.106  33.272  35.983  1.00  0.00     0.037 A 
BRANCH  23  37
ATOM     37  C   UNL A   1      43.960  28.443  35.752  1.00  0.00     0.058 A 
ATOM     38  C   UNL A   1      45.292  28.750  35.446  1.00  0.00     0.135 A 
ATOM     39  C   UNL A   1      43.714  27.375  36.630  1.00  0.00     0.135 A 
ATOM     40  F   UNL A   1      45.581  29.774  34.627  1.00  0.00    -0.206 F 
ATOM     41  C   UNL A   1      46.345  28.011  35.975  1.00  0.00     0.059 A 
ATOM     42  C   UNL A   1      44.752  26.634  37.186  1.00  0.00     0.059 A 
ATOM     43  F   UNL A   1      42.455  27.062  36.979  1.00  0.00    -0.206 F 
ATOM     44  C   UNL A   1      46.064  26.951  36.840  1.00  0.00     0.060 A 
BRANCH  44  45
ATOM     45  S   UNL A   1      47.442  26.009  37.527  1.00  0.00     0.124 S 
ATOM     46  O   UNL A   1      47.963  26.928  38.532  1.00  0.00    -0.237 OA
ATOM     47  O   UNL A   1      46.773  24.817  38.039  1.00  0.00    -0.237 OA
ATOM     48  O   UNL A   1      48.306  25.783  36.371  1.00  0.00    -0.744 OA
ENDBRANCH  44  45
ENDBRANCH  23  37
BRANCH  24  49
ATOM     49  C   UNL A   1      36.571  33.329  31.053  1.00  0.00     0.058 A 
ATOM     50  C   UNL A   1      36.804  34.230  30.000  1.00  0.00     0.135 A 
ATOM     51  C   UNL A   1      35.240  33.103  31.432  1.00  0.00     0.135 A 
ATOM     52  F   UNL A   1      38.058  34.493  29.604  1.00  0.00    -0.206 F 
ATOM     53  C   UNL A   1      35.759  34.882  29.351  1.00  0.00     0.059 A 
ATOM     54  C   UNL A   1      34.176  33.730  30.786  1.00  0.00     0.059 A 
ATOM     55  F   UNL A   1      34.964  32.247  32.427  1.00  0.00    -0.206 F 
ATOM     56  C   UNL A   1      34.447  34.624  29.750  1.00  0.00     0.060 A 
BRANCH  56  57
ATOM     57  S   UNL A   1      33.104  35.468  28.885  1.00  0.00     0.124 S 
ATOM     58  O   UNL A   1      32.350  36.035  29.999  1.00  0.00    -0.237 OA
ATOM     59  O   UNL A   1      33.828  36.427  28.056  1.00  0.00    -0.237 OA
ATOM     60  O   UNL A   1      32.438  34.391  28.160  1.00  0.00    -0.744 OA
ENDBRANCH  56  57
ENDBRANCH  24  49
BRANCH  36  61
ATOM     61  C   UNL A   1      40.012  34.316  37.055  1.00  0.00     0.058 A 
ATOM     62  C   UNL A   1      39.186  34.110  38.172  1.00  0.00     0.135 A 
ATOM     63  C   UNL A   1      40.650  35.558  36.925  1.00  0.00     0.135 A 
ATOM     64  F   UNL A   1      38.550  32.939  38.337  1.00  0.00    -0.206 F 
ATOM     65  C   UNL A   1      38.971  35.113  39.108  1.00  0.00     0.059 A 
ATOM     66  C   UNL A   1      40.469  36.568  37.865  1.00  0.00     0.059 A 
ATOM     67  F   UNL A   1      41.461  35.795  35.881  1.00  0.00    -0.206 F 
ATOM     68  C   UNL A   1      39.609  36.343  38.940  1.00  0.00     0.060 A 
BRANCH  68  69
ATOM     69  S   UNL A   1      39.305  37.641  40.155  1.00  0.00     0.124 S 
ATOM     70  O   UNL A   1      38.977  36.865  41.346  1.00  0.00    -0.237 OA
ATOM     71  O   UNL A   1      40.584  38.344  40.187  1.00  0.00    -0.237 OA
ATOM     72  O   UNL A   1      38.198  38.397  39.573  1.00  0.00    -0.744 OA
ENDBRANCH  68  69
ENDBRANCH  36  61
ENDBRANCH  10  11
ENDBRANCH   3   5
ENDBRANCH   2   3
ENDBRANCH   1   2
BRANCH   1  73
ATOM     73  C   UNL A   1      39.392  21.364  26.142  1.00  0.00     0.275 C 
BRANCH  73  74
ATOM     74  O   UNL A   1      38.186  21.885  25.562  1.00  0.00    -0.458 OA
BRANCH  74  75
ATOM     75  C   UNL A   1      37.442  20.983  24.870  1.00  0.00     0.338 C 
ATOM     76  O   UNL A   1      37.699  19.811  24.662  1.00  0.00    -0.246 OA
BRANCH  75  77
ATOM     77  C   UNL A   1      36.153  21.604  24.528  1.00  0.00     0.063 A 
ATOM     78  C   UNL A   1      36.075  22.784  23.783  1.00  0.00     0.017 A 
ATOM     79  C   UNL A   1      34.998  21.005  25.028  1.00  0.00     0.056 A 
ATOM     80  C   UNL A   1      34.824  23.375  23.564  1.00  0.00     0.024 A 
ATOM     81  C   UNL A   1      33.775  21.649  24.880  1.00  0.00     0.142 A 
ATOM     82  C   UNL A   1      33.673  22.815  24.142  1.00  0.00     0.103 A 
ATOM     83  F   UNL A   1      32.741  21.172  25.579  1.00  0.00    -0.206 F 
BRANCH  82  84
ATOM     84  S   UNL A   1      32.141  23.686  23.996  1.00  0.00     0.186 S 
ATOM     85  O   UNL A   1      31.341  22.882  23.092  1.00  0.00    -0.223 OA
ATOM     86  O   UNL A   1      31.691  23.935  25.355  1.00  0.00    -0.223 OA
BRANCH  84  87
ATOM     87  C   UNL A   1      32.377  25.263  23.201  1.00  0.00     0.188 C 
BRANCH  87  88
ATOM     88  C   UNL A   1      32.559  26.385  24.178  1.00  0.00     0.020 A 
ATOM     89  C   UNL A   1      33.697  26.759  24.866  1.00  0.00     0.016 A 
ATOM     90  S   UNL A   1      31.212  27.333  24.667  1.00  0.00    -0.148 S 
ATOM     91  C   UNL A   1      33.484  27.897  25.696  1.00  0.00     0.012 A 
ATOM     92  C   UNL A   1      32.182  28.335  25.647  1.00  0.00     0.065 A 
ENDBRANCH  87  88
ENDBRANCH  84  87
ENDBRANCH  82  84
ENDBRANCH  75  77
ENDBRANCH  74  75
ENDBRANCH  73  74
ENDBRANCH   1  73
TORSDOF 17
ENDMDL
MODEL 3
REMARK VINA RESULT:     -10.9      6.783     11.773
REMARK SMILES O=C(OCCOC(=O)c1ccc(S(=O)(=O)Cc2cccs2)c(F)c1)c1ccc(-c2c3nc(c(-c4c(F)cc(S(=O)(=O)[O-])cc4F)c4ccc([nH]4)c(-c4c(F)cc(S(=O)(=O)[O-])cc4F)c4nc(c(-c5c(F)cc(S(=O)(=O)[O-])cc5F)c5ccc2[nH]5)C=C4)C=C3)cc1
REMARK SMILES IDX 4 1 3 2 2 3 1 4 25 5 26 6 90 7 27 8 89 9 28 10 29 11 30 12
REMARK SMILES IDX 83 13 31 14 88 15 82 16 84 17 32 18 87 19 81 20 80 21 33 23
REMARK SMILES IDX 67 24 46 25 66 26 47 27 50 28 65 29 85 30 48 31 49 32 64 34
REMARK SMILES IDX 86 35 51 36 34 37 35 38 44 39 36 40 37 41 43 42 45 43 38 44
REMARK SMILES IDX 39 45 40 46 41 47 42 48 68 49 69 50 78 51 70 52 71 53 77 54
REMARK SMILES IDX 79 55 72 56 73 57 74 58 75 59 76 60 52 61 53 62 62 63 54 64
REMARK SMILES IDX 55 65 61 66 63 67 56 68 57 69 58 70 59 71 60 72 5 73 6 74
REMARK SMILES IDX 7 75 8 76 9 77 10 78 24 79 11 80 22 81 12 82 23 83 13 84
REMARK SMILES IDX 14 85 15 86 16 87 17 88 18 89 21 90 19 91 20 92
REMARK H PARENT 84 22 50 33
REMARK Flexibility Score: inf
ROOT
ATOM      1  C   UNL A   1      34.854  31.901  29.183  1.00  0.00     0.275 C 
ENDROOT
BRANCH   1   2
ATOM      2  O   UNL A   1      36.024  31.704  29.994  1.00  0.00    -0.458 OA
BRANCH   2   3
ATOM      3  C   UNL A   1      36.618  30.533  30.332  1.00  0.00     0.338 C 
ATOM      4  O   UNL A   1      36.032  29.769  31.097  1.00  0.00    -0.246 OA
BRANCH   3   5
ATOM      5  C   UNL A   1      38.047  30.234  30.003  1.00  0.00     0.060 A 
ATOM      6  C   UNL A   1      39.097  30.121  30.916  1.00  0.00     0.016 A 
ATOM      7  C   UNL A   1      38.342  30.055  28.639  1.00  0.00     0.016 A 
ATOM      8  C   UNL A   1      40.377  29.743  30.498  1.00  0.00     0.010 A 
ATOM      9  C   UNL A   1      39.614  29.656  28.218  1.00  0.00     0.010 A 
ATOM     10  C   UNL A   1      40.640  29.486  29.152  1.00  0.00    -0.014 A 
BRANCH  10  11
ATOM     11  C   UNL A   1      42.013  29.155  28.712  1.00  0.00     0.031 A 
ATOM     12  C   UNL A   1      42.339  27.725  28.393  1.00  0.00     0.074 A 
ATOM     13  C   UNL A   1      42.940  30.123  28.573  1.00  0.00     0.049 A 
ATOM     14  N   UNL A   1      43.462  27.211  27.975  1.00  0.00    -0.248 NA
ATOM     15  C   UNL A   1      41.244  26.748  28.535  1.00  0.00     0.031 C 
ATOM     16  C   UNL A   1      42.715  31.549  28.807  1.00  0.00     0.029 A 
ATOM     17  N   UNL A   1      44.264  30.054  28.223  1.00  0.00    -0.354 N 
ATOM     18  C   UNL A   1      43.200  25.864  27.765  1.00  0.00     0.074 A 
ATOM     19  C   UNL A   1      41.835  25.621  28.168  1.00  0.00     0.031 C 
ATOM     20  C   UNL A   1      43.876  32.212  28.663  1.00  0.00     0.029 A 
ATOM     21  C   UNL A   1      44.925  31.258  28.319  1.00  0.00     0.049 A 
ATOM     22  H   UNL A   1      44.702  29.222  27.930  1.00  0.00     0.167 HD
ATOM     23  C   UNL A   1      44.017  24.926  27.235  1.00  0.00     0.037 A 
ATOM     24  C   UNL A   1      46.231  31.549  28.161  1.00  0.00     0.037 A 
ATOM     25  C   UNL A   1      45.376  25.180  26.851  1.00  0.00     0.049 A 
ATOM     26  C   UNL A   1      47.162  30.451  27.718  1.00  0.00     0.074 A 
ATOM     27  C   UNL A   1      46.286  24.307  26.284  1.00  0.00     0.029 A 
ATOM     28  N   UNL A   1      46.025  26.396  27.007  1.00  0.00    -0.354 N 
ATOM     29  N   UNL A   1      46.883  29.195  27.451  1.00  0.00    -0.248 NA
ATOM     30  C   UNL A   1      48.575  30.805  27.523  1.00  0.00     0.031 C 
ATOM     31  C   UNL A   1      47.499  24.985  26.134  1.00  0.00     0.029 A 
ATOM     32  C   UNL A   1      47.333  26.292  26.572  1.00  0.00     0.049 A 
ATOM     33  H   UNL A   1      45.614  27.213  27.374  1.00  0.00     0.167 HD
ATOM     34  C   UNL A   1      48.072  28.624  27.016  1.00  0.00     0.074 A 
ATOM     35  C   UNL A   1      49.076  29.668  27.059  1.00  0.00     0.031 C 
ATOM     36  C   UNL A   1      48.307  27.354  26.606  1.00  0.00     0.037 A 
BRANCH  23  37
ATOM     37  C   UNL A   1      43.445  23.558  27.014  1.00  0.00     0.058 A 
ATOM     38  C   UNL A   1      43.351  22.636  28.065  1.00  0.00     0.135 A 
ATOM     39  C   UNL A   1      43.028  23.147  25.737  1.00  0.00     0.135 A 
ATOM     40  F   UNL A   1      43.718  22.985  29.308  1.00  0.00    -0.206 F 
ATOM     41  C   UNL A   1      42.878  21.345  27.855  1.00  0.00     0.059 A 
ATOM     42  C   UNL A   1      42.535  21.868  25.507  1.00  0.00     0.059 A 
ATOM     43  F   UNL A   1      43.071  24.005  24.704  1.00  0.00    -0.206 F 
ATOM     44  C   UNL A   1      42.477  20.968  26.571  1.00  0.00     0.060 A 
BRANCH  44  45
ATOM     45  S   UNL A   1      41.857  19.293  26.317  1.00  0.00     0.124 S 
ATOM     46  O   UNL A   1      42.720  18.811  25.245  1.00  0.00    -0.237 OA
ATOM     47  O   UNL A   1      42.070  18.686  27.628  1.00  0.00    -0.237 OA
ATOM     48  O   UNL A   1      40.458  19.501  25.955  1.00  0.00    -0.744 OA
ENDBRANCH  44  45
ENDBRANCH  23  37
BRANCH  24  49
ATOM     49  C   UNL A   1      46.733  32.927  28.415  1.00  0.00     0.058 A 
ATOM     50  C   UNL A   1      47.151  33.317  29.698  1.00  0.00     0.135 A 
ATOM     51  C   UNL A   1      46.822  33.876  27.387  1.00  0.00     0.135 A 
ATOM     52  F   UNL A   1      47.077  32.454  30.722  1.00  0.00    -0.206 F 
ATOM     53  C   UNL A   1      47.636  34.598  29.952  1.00  0.00     0.059 A 
ATOM     54  C   UNL A   1      47.320  35.158  27.612  1.00  0.00     0.059 A 
ATOM     55  F   UNL A   1      46.442  33.551  26.142  1.00  0.00    -0.206 F 
ATOM     56  C   UNL A   1      47.718  35.511  28.901  1.00  0.00     0.060 A 
BRANCH  56  57
ATOM     57  S   UNL A   1      48.363  37.163  29.247  1.00  0.00     0.124 S 
ATOM     58  O   UNL A   1      47.179  37.835  29.773  1.00  0.00    -0.237 OA
ATOM     59  O   UNL A   1      49.418  36.884  30.216  1.00  0.00    -0.237 OA
ATOM     60  O   UNL A   1      48.821  37.628  27.942  1.00  0.00    -0.744 OA
ENDBRANCH  56  57
ENDBRANCH  24  49
BRANCH  36  61
ATOM     61  C   UNL A   1      49.690  27.021  26.129  1.00  0.00     0.058 A 
ATOM     62  C   UNL A   1      50.054  27.259  24.794  1.00  0.00     0.135 A 
ATOM     63  C   UNL A   1      50.615  26.373  26.961  1.00  0.00     0.135 A 
ATOM     64  F   UNL A   1      49.200  27.873  23.959  1.00  0.00    -0.206 F 
ATOM     65  C   UNL A   1      51.276  26.835  24.290  1.00  0.00     0.059 A 
ATOM     66  C   UNL A   1      51.855  25.962  26.484  1.00  0.00     0.059 A 
ATOM     67  F   UNL A   1      50.316  26.138  28.248  1.00  0.00    -0.206 F 
ATOM     68  C   UNL A   1      52.167  26.178  25.141  1.00  0.00     0.060 A 
BRANCH  68  69
ATOM     69  S   UNL A   1      53.743  25.617  24.466  1.00  0.00     0.124 S 
ATOM     70  O   UNL A   1      54.687  26.510  25.130  1.00  0.00    -0.237 OA
ATOM     71  O   UNL A   1      53.784  24.221  24.889  1.00  0.00    -0.237 OA
ATOM     72  O   UNL A   1      53.588  25.824  23.028  1.00  0.00    -0.744 OA
ENDBRANCH  68  69
ENDBRANCH  36  61
ENDBRANCH  10  11
ENDBRANCH   3   5
ENDBRANCH   2   3
ENDBRANCH   1   2
BRANCH   1  73
ATOM     73  C   UNL A   1      35.008  31.418  27.739  1.00  0.00     0.275 C 
BRANCH  73  74
ATOM     74  O   UNL A   1      34.562  30.066  27.543  1.00  0.00    -0.458 OA
BRANCH  74  75
ATOM     75  C   UNL A   1      33.357  29.940  26.930  1.00  0.00     0.338 C 
ATOM     76  O   UNL A   1      32.348  30.591  27.132  1.00  0.00    -0.246 OA
BRANCH  75  77
ATOM     77  C   UNL A   1      33.491  28.972  25.830  1.00  0.00     0.063 A 
ATOM     78  C   UNL A   1      33.122  29.286  24.519  1.00  0.00     0.017 A 
ATOM     79  C   UNL A   1      33.946  27.694  26.150  1.00  0.00     0.056 A 
ATOM     80  C   UNL A   1      33.189  28.294  23.532  1.00  0.00     0.024 A 
ATOM     81  C   UNL A   1      33.922  26.696  25.182  1.00  0.00     0.142 A 
ATOM     82  C   UNL A   1      33.566  26.985  23.876  1.00  0.00     0.103 A 
ATOM     83  F   UNL A   1      34.128  25.441  25.588  1.00  0.00    -0.206 F 
BRANCH  82  84
ATOM     84  S   UNL A   1      33.464  25.722  22.644  1.00  0.00     0.186 S 
ATOM     85  O   UNL A   1      33.631  26.419  21.382  1.00  0.00    -0.223 OA
ATOM     86  O   UNL A   1      34.408  24.693  23.047  1.00  0.00    -0.223 OA
BRANCH  84  87
ATOM     87  C   UNL A   1      31.839  24.992  22.611  1.00  0.00     0.188 C 
BRANCH  87  88
ATOM     88  C   UNL A   1      31.180  24.978  23.957  1.00  0.00     0.020 A 
ATOM     89  C   UNL A   1      30.411  25.957  24.555  1.00  0.00     0.016 A 
ATOM     90  S   UNL A   1      31.439  23.664  25.033  1.00  0.00    -0.148 S 
ATOM     91  C   UNL A   1      29.938  25.570  25.842  1.00  0.00     0.012 A 
ATOM     92  C   UNL A   1      30.391  24.324  26.204  1.00  0.00     0.065 A 
ENDBRANCH  87  88
ENDBRANCH  84  87
ENDBRANCH  82  84
ENDBRANCH  75  77
ENDBRANCH  74  75
ENDBRANCH  73  74
ENDBRANCH   1  73
TORSDOF 17
ENDMDL
