MODEL 1
REMARK VINA RESULT:      -9.7      0.000      0.000
REMARK SMILES Cc1nnc(SCCC(=O)OCCOC(=O)c2ccc(-c3c4nc(c(-c5c(F)cc(S(=O)(=O)[O-])cc5F)c5ccc([nH]5)c(-c5c(F)cc(S(=O)(=O)[O-])cc5F)c5nc(c(-c6c(F)cc(S(=O)(=O)[O-])cc6F)c6ccc3[nH]6)C=C5)C=C4)cc2)s1
REMARK SMILES IDX 12 1 11 2 9 3 10 4 8 5 7 6 6 7 5 8 1 9 2 10 3 11 83 12 4 13
REMARK SMILES IDX 13 14 14 15 15 16 16 17 17 18 18 19 82 20 19 21 81 22 20 23
REMARK SMILES IDX 21 24 22 25 75 26 23 27 80 28 74 29 76 30 24 31 79 32 73 33
REMARK SMILES IDX 72 34 25 36 59 37 38 38 58 39 39 40 42 41 57 42 77 43 40 44
REMARK SMILES IDX 41 45 56 47 78 48 43 49 26 50 27 51 36 52 28 53 29 54 35 55
REMARK SMILES IDX 37 56 30 57 31 58 32 59 33 60 34 61 60 62 61 63 70 64 62 65
REMARK SMILES IDX 63 66 69 67 71 68 64 69 65 70 66 71 67 72 68 73 44 74 45 75
REMARK SMILES IDX 54 76 46 77 47 78 53 79 55 80 48 81 49 82 50 83 51 84 52 85
REMARK H PARENT 76 35 42 46
REMARK Flexibility Score: inf
ROOT
ATOM      1  C   UNL A   1      44.213  25.842  25.362  1.00  0.00     0.274 C 
ENDROOT
BRANCH   1   2
ATOM      2  O   UNL A   1      45.348  24.997  25.637  1.00  0.00    -0.462 OA
BRANCH   2   3
ATOM      3  C   UNL A   1      46.363  25.020  24.742  1.00  0.00     0.306 C 
ATOM      4  O   UNL A   1      46.870  26.042  24.293  1.00  0.00    -0.252 OA
BRANCH   3   5
ATOM      5  C   UNL A   1      46.771  23.644  24.268  1.00  0.00     0.134 C 
BRANCH   5   6
ATOM      6  C   UNL A   1      45.654  22.619  24.099  1.00  0.00     0.089 C 
BRANCH   6   7
ATOM      7  S   UNL A   1      45.890  21.129  25.127  1.00  0.00    -0.093 SA
BRANCH   7   8
ATOM      8  C   UNL A   1      44.235  20.621  25.350  1.00  0.00     0.174 A 
ATOM      9  C   UNL A   1      40.720  20.111  26.769  1.00  0.00     0.081 C 
ATOM     10  C   UNL A   1      42.020  20.188  26.060  1.00  0.00     0.115 A 
ATOM     11  N   UNL A   1      42.437  19.301  25.182  1.00  0.00    -0.143 NA
ATOM     12  S   UNL A   1      43.135  21.457  26.365  1.00  0.00    -0.091 S 
ATOM     13  N   UNL A   1      43.729  19.559  24.765  1.00  0.00    -0.132 NA
ENDBRANCH   7   8
ENDBRANCH   6   7
ENDBRANCH   5   6
ENDBRANCH   3   5
ENDBRANCH   2   3
ENDBRANCH   1   2
BRANCH   1  14
ATOM     14  C   UNL A   1      42.966  25.019  25.026  1.00  0.00     0.275 C 
BRANCH  14  15
ATOM     15  O   UNL A   1      41.765  25.744  25.330  1.00  0.00    -0.458 OA
BRANCH  15  16
ATOM     16  C   UNL A   1      40.999  25.205  26.303  1.00  0.00     0.338 C 
ATOM     17  O   UNL A   1      40.560  24.069  26.368  1.00  0.00    -0.246 OA
BRANCH  16  18
ATOM     18  C   UNL A   1      40.863  26.166  27.397  1.00  0.00     0.060 A 
ATOM     19  C   UNL A   1      41.730  27.262  27.426  1.00  0.00     0.016 A 
ATOM     20  C   UNL A   1      39.922  25.958  28.406  1.00  0.00     0.016 A 
ATOM     21  C   UNL A   1      41.652  28.172  28.472  1.00  0.00     0.010 A 
ATOM     22  C   UNL A   1      39.842  26.876  29.450  1.00  0.00     0.010 A 
ATOM     23  C   UNL A   1      40.706  27.984  29.489  1.00  0.00    -0.014 A 
BRANCH  23  24
ATOM     24  C   UNL A   1      40.614  28.949  30.603  1.00  0.00     0.031 A 
ATOM     25  C   UNL A   1      41.505  28.791  31.798  1.00  0.00     0.074 A 
ATOM     26  C   UNL A   1      39.704  29.938  30.537  1.00  0.00     0.049 A 
ATOM     27  N   UNL A   1      41.504  29.459  32.921  1.00  0.00    -0.248 NA
ATOM     28  C   UNL A   1      42.526  27.733  31.725  1.00  0.00     0.031 C 
ATOM     29  C   UNL A   1      38.804  30.179  29.406  1.00  0.00     0.029 A 
ATOM     30  N   UNL A   1      39.375  30.914  31.440  1.00  0.00    -0.354 N 
ATOM     31  C   UNL A   1      42.509  28.896  33.697  1.00  0.00     0.074 A 
ATOM     32  C   UNL A   1      43.088  27.818  32.923  1.00  0.00     0.031 C 
ATOM     33  C   UNL A   1      38.018  31.230  29.690  1.00  0.00     0.029 A 
ATOM     34  C   UNL A   1      38.331  31.708  31.033  1.00  0.00     0.049 A 
ATOM     35  H   UNL A   1      39.842  31.033  32.299  1.00  0.00     0.167 HD
ATOM     36  C   UNL A   1      42.907  29.253  34.940  1.00  0.00     0.037 A 
ATOM     37  C   UNL A   1      37.683  32.690  31.686  1.00  0.00     0.037 A 
ATOM     38  C   UNL A   1      42.320  30.335  35.688  1.00  0.00     0.049 A 
ATOM     39  C   UNL A   1      38.127  33.048  33.077  1.00  0.00     0.074 A 
ATOM     40  C   UNL A   1      42.657  30.794  36.949  1.00  0.00     0.029 A 
ATOM     41  N   UNL A   1      41.271  31.126  35.240  1.00  0.00    -0.354 N 
ATOM     42  N   UNL A   1      39.088  32.516  33.796  1.00  0.00    -0.248 NA
ATOM     43  C   UNL A   1      37.404  34.136  33.747  1.00  0.00     0.031 C 
ATOM     44  C   UNL A   1      41.787  31.840  37.278  1.00  0.00     0.029 A 
ATOM     45  C   UNL A   1      40.937  32.061  36.205  1.00  0.00     0.049 A 
ATOM     46  H   UNL A   1      40.828  31.034  34.366  1.00  0.00     0.167 HD
ATOM     47  C   UNL A   1      39.100  33.220  34.994  1.00  0.00     0.074 A 
ATOM     48  C   UNL A   1      38.057  34.223  34.898  1.00  0.00     0.031 C 
ATOM     49  C   UNL A   1      39.898  33.054  36.077  1.00  0.00     0.037 A 
BRANCH  36  50
ATOM     50  C   UNL A   1      44.013  28.457  35.576  1.00  0.00     0.058 A 
ATOM     51  C   UNL A   1      43.749  27.339  36.383  1.00  0.00     0.135 A 
ATOM     52  C   UNL A   1      45.357  28.795  35.345  1.00  0.00     0.135 A 
ATOM     53  F   UNL A   1      42.483  26.983  36.651  1.00  0.00    -0.206 F 
ATOM     54  C   UNL A   1      44.778  26.598  36.957  1.00  0.00     0.059 A 
ATOM     55  C   UNL A   1      46.402  28.052  35.889  1.00  0.00     0.059 A 
ATOM     56  F   UNL A   1      45.666  29.856  34.585  1.00  0.00    -0.206 F 
ATOM     57  C   UNL A   1      46.101  26.962  36.704  1.00  0.00     0.060 A 
BRANCH  57  58
ATOM     58  S   UNL A   1      47.424  25.983  37.445  1.00  0.00     0.124 S 
ATOM     59  O   UNL A   1      48.111  26.986  38.254  1.00  0.00    -0.237 OA
ATOM     60  O   UNL A   1      46.685  24.969  38.189  1.00  0.00    -0.237 OA
ATOM     61  O   UNL A   1      48.170  25.490  36.292  1.00  0.00    -0.744 OA
ENDBRANCH  57  58
ENDBRANCH  36  50
BRANCH  37  62
ATOM     62  C   UNL A   1      36.545  33.391  31.034  1.00  0.00     0.058 A 
ATOM     63  C   UNL A   1      36.757  34.276  29.967  1.00  0.00     0.135 A 
ATOM     64  C   UNL A   1      35.223  33.176  31.452  1.00  0.00     0.135 A 
ATOM     65  F   UNL A   1      38.004  34.517  29.534  1.00  0.00    -0.206 F 
ATOM     66  C   UNL A   1      35.701  34.938  29.349  1.00  0.00     0.059 A 
ATOM     67  C   UNL A   1      34.147  33.807  30.834  1.00  0.00     0.059 A 
ATOM     68  F   UNL A   1      34.965  32.326  32.459  1.00  0.00    -0.206 F 
ATOM     69  C   UNL A   1      34.398  34.696  29.789  1.00  0.00     0.060 A 
BRANCH  69  70
ATOM     70  S   UNL A   1      33.030  35.526  28.953  1.00  0.00     0.124 S 
ATOM     71  O   UNL A   1      33.734  36.543  28.180  1.00  0.00    -0.237 OA
ATOM     72  O   UNL A   1      32.433  34.439  28.183  1.00  0.00    -0.237 OA
ATOM     73  O   UNL A   1      32.215  36.024  30.056  1.00  0.00    -0.744 OA
ENDBRANCH  69  70
ENDBRANCH  37  62
BRANCH  49  74
ATOM     74  C   UNL A   1      39.699  34.000  37.226  1.00  0.00     0.058 A 
ATOM     75  C   UNL A   1      38.994  33.619  38.378  1.00  0.00     0.135 A 
ATOM     76  C   UNL A   1      40.263  35.285  37.192  1.00  0.00     0.135 A 
ATOM     77  F   UNL A   1      38.430  32.403  38.455  1.00  0.00    -0.206 F 
ATOM     78  C   UNL A   1      38.838  34.490  39.451  1.00  0.00     0.059 A 
ATOM     79  C   UNL A   1      40.141  36.163  38.264  1.00  0.00     0.059 A 
ATOM     80  F   UNL A   1      40.954  35.691  36.115  1.00  0.00    -0.206 F 
ATOM     81  C   UNL A   1      39.416  35.760  39.384  1.00  0.00     0.060 A 
BRANCH  81  82
ATOM     82  S   UNL A   1      39.237  36.868  40.798  1.00  0.00     0.124 S 
ATOM     83  O   UNL A   1      40.624  37.025  41.224  1.00  0.00    -0.237 OA
ATOM     84  O   UNL A   1      38.622  38.048  40.197  1.00  0.00    -0.237 OA
ATOM     85  O   UNL A   1      38.381  36.118  41.710  1.00  0.00    -0.744 OA
ENDBRANCH  81  82
ENDBRANCH  49  74
ENDBRANCH  23  24
ENDBRANCH  16  18
ENDBRANCH  15  16
ENDBRANCH  14  15
ENDBRANCH   1  14
TORSDOF 17
ENDMDL
MODEL 2
REMARK VINA RESULT:      -9.6      1.193      8.839
REMARK SMILES Cc1nnc(SCCC(=O)OCCOC(=O)c2ccc(-c3c4nc(c(-c5c(F)cc(S(=O)(=O)[O-])cc5F)c5ccc([nH]5)c(-c5c(F)cc(S(=O)(=O)[O-])cc5F)c5nc(c(-c6c(F)cc(S(=O)(=O)[O-])cc6F)c6ccc3[nH]6)C=C5)C=C4)cc2)s1
REMARK SMILES IDX 12 1 11 2 9 3 10 4 8 5 7 6 6 7 5 8 1 9 2 10 3 11 83 12 4 13
REMARK SMILES IDX 13 14 14 15 15 16 16 17 17 18 18 19 82 20 19 21 81 22 20 23
REMARK SMILES IDX 21 24 22 25 75 26 23 27 80 28 74 29 76 30 24 31 79 32 73 33
REMARK SMILES IDX 72 34 25 36 59 37 38 38 58 39 39 40 42 41 57 42 77 43 40 44
REMARK SMILES IDX 41 45 56 47 78 48 43 49 26 50 27 51 36 52 28 53 29 54 35 55
REMARK SMILES IDX 37 56 30 57 31 58 32 59 33 60 34 61 60 62 61 63 70 64 62 65
REMARK SMILES IDX 63 66 69 67 71 68 64 69 65 70 66 71 67 72 68 73 44 74 45 75
REMARK SMILES IDX 54 76 46 77 47 78 53 79 55 80 48 81 49 82 50 83 51 84 52 85
REMARK H PARENT 76 35 42 46
REMARK Flexibility Score: inf
ROOT
ATOM      1  C   UNL A   1      45.231  24.042  25.107  1.00  0.00     0.274 C 
ENDROOT
BRANCH   1   2
ATOM      2  O   UNL A   1      45.681  22.678  25.220  1.00  0.00    -0.462 OA
BRANCH   2   3
ATOM      3  C   UNL A   1      45.111  21.771  24.393  1.00  0.00     0.306 C 
ATOM      4  O   UNL A   1      44.318  22.048  23.500  1.00  0.00    -0.252 OA
BRANCH   3   5
ATOM      5  C   UNL A   1      45.476  20.344  24.730  1.00  0.00     0.134 C 
BRANCH   5   6
ATOM      6  C   UNL A   1      44.440  19.275  24.397  1.00  0.00     0.089 C 
BRANCH   6   7
ATOM      7  S   UNL A   1      43.639  18.570  25.879  1.00  0.00    -0.093 SA
BRANCH   7   8
ATOM      8  C   UNL A   1      42.271  19.641  26.050  1.00  0.00     0.174 A 
ATOM      9  C   UNL A   1      39.955  22.475  27.160  1.00  0.00     0.081 C 
ATOM     10  C   UNL A   1      40.696  21.318  26.604  1.00  0.00     0.115 A 
ATOM     11  N   UNL A   1      40.124  20.268  26.053  1.00  0.00    -0.143 NA
ATOM     12  S   UNL A   1      42.409  21.233  26.671  1.00  0.00    -0.091 S 
ATOM     13  N   UNL A   1      41.046  19.293  25.726  1.00  0.00    -0.132 NA
ENDBRANCH   7   8
ENDBRANCH   6   7
ENDBRANCH   5   6
ENDBRANCH   3   5
ENDBRANCH   2   3
ENDBRANCH   1   2
BRANCH   1  14
ATOM     14  C   UNL A   1      44.663  24.559  26.432  1.00  0.00     0.275 C 
BRANCH  14  15
ATOM     15  O   UNL A   1      43.227  24.562  26.419  1.00  0.00    -0.458 OA
BRANCH  15  16
ATOM     16  C   UNL A   1      42.659  25.740  26.078  1.00  0.00     0.338 C 
ATOM     17  O   UNL A   1      42.317  26.112  24.968  1.00  0.00    -0.246 OA
BRANCH  16  18
ATOM     18  C   UNL A   1      42.366  26.502  27.290  1.00  0.00     0.060 A 
ATOM     19  C   UNL A   1      41.359  26.035  28.139  1.00  0.00     0.016 A 
ATOM     20  C   UNL A   1      43.047  27.690  27.557  1.00  0.00     0.016 A 
ATOM     21  C   UNL A   1      41.031  26.758  29.278  1.00  0.00     0.010 A 
ATOM     22  C   UNL A   1      42.720  28.410  28.704  1.00  0.00     0.010 A 
ATOM     23  C   UNL A   1      41.711  27.948  29.567  1.00  0.00    -0.014 A 
BRANCH  23  24
ATOM     24  C   UNL A   1      41.371  28.722  30.779  1.00  0.00     0.031 A 
ATOM     25  C   UNL A   1      40.227  29.690  30.746  1.00  0.00     0.074 A 
ATOM     26  C   UNL A   1      42.119  28.563  31.886  1.00  0.00     0.049 A 
ATOM     27  N   UNL A   1      39.839  30.539  31.660  1.00  0.00    -0.248 NA
ATOM     28  C   UNL A   1      39.419  29.715  29.515  1.00  0.00     0.031 C 
ATOM     29  C   UNL A   1      43.242  27.631  32.016  1.00  0.00     0.029 A 
ATOM     30  N   UNL A   1      42.059  29.187  33.104  1.00  0.00    -0.354 N 
ATOM     31  C   UNL A   1      38.754  31.212  31.114  1.00  0.00     0.074 A 
ATOM     32  C   UNL A   1      38.555  30.686  29.780  1.00  0.00     0.031 C 
ATOM     33  C   UNL A   1      43.771  27.755  33.244  1.00  0.00     0.029 A 
ATOM     34  C   UNL A   1      43.052  28.797  33.969  1.00  0.00     0.049 A 
ATOM     35  H   UNL A   1      41.370  29.852  33.336  1.00  0.00     0.167 HD
ATOM     36  C   UNL A   1      37.996  32.180  31.682  1.00  0.00     0.037 A 
ATOM     37  C   UNL A   1      43.362  29.255  35.196  1.00  0.00     0.037 A 
ATOM     38  C   UNL A   1      38.209  32.683  33.014  1.00  0.00     0.049 A 
ATOM     39  C   UNL A   1      42.521  30.349  35.792  1.00  0.00     0.074 A 
ATOM     40  C   UNL A   1      37.491  33.649  33.696  1.00  0.00     0.029 A 
ATOM     41  N   UNL A   1      39.218  32.257  33.867  1.00  0.00    -0.354 N 
ATOM     42  N   UNL A   1      41.489  30.970  35.271  1.00  0.00    -0.248 NA
ATOM     43  C   UNL A   1      42.883  30.807  37.140  1.00  0.00     0.031 C 
ATOM     44  C   UNL A   1      38.089  33.834  34.948  1.00  0.00     0.029 A 
ATOM     45  C   UNL A   1      39.152  32.952  35.063  1.00  0.00     0.049 A 
ATOM     46  H   UNL A   1      39.884  31.565  33.653  1.00  0.00     0.167 HD
ATOM     47  C   UNL A   1      41.063  31.876  36.235  1.00  0.00     0.074 A 
ATOM     48  C   UNL A   1      41.945  31.714  37.376  1.00  0.00     0.031 C 
ATOM     49  C   UNL A   1      40.039  32.762  36.185  1.00  0.00     0.037 A 
BRANCH  36  50
ATOM     50  C   UNL A   1      36.884  32.769  30.860  1.00  0.00     0.058 A 
ATOM     51  C   UNL A   1      37.125  33.755  29.889  1.00  0.00     0.135 A 
ATOM     52  C   UNL A   1      35.564  32.317  31.019  1.00  0.00     0.135 A 
ATOM     53  F   UNL A   1      38.365  34.235  29.708  1.00  0.00    -0.206 F 
ATOM     54  C   UNL A   1      36.093  34.286  29.121  1.00  0.00     0.059 A 
ATOM     55  C   UNL A   1      34.520  32.818  30.245  1.00  0.00     0.059 A 
ATOM     56  F   UNL A   1      35.276  31.380  31.935  1.00  0.00    -0.206 F 
ATOM     57  C   UNL A   1      34.794  33.811  29.306  1.00  0.00     0.060 A 
BRANCH  57  58
ATOM     58  S   UNL A   1      33.468  34.501  28.294  1.00  0.00     0.124 S 
ATOM     59  O   UNL A   1      34.208  35.413  27.427  1.00  0.00    -0.237 OA
ATOM     60  O   UNL A   1      32.920  33.315  27.644  1.00  0.00    -0.237 OA
ATOM     61  O   UNL A   1      32.590  35.139  29.270  1.00  0.00    -0.744 OA
ENDBRANCH  57  58
ENDBRANCH  36  50
BRANCH  37  62
ATOM     62  C   UNL A   1      44.522  28.685  35.931  1.00  0.00     0.058 A 
ATOM     63  C   UNL A   1      45.810  29.216  35.773  1.00  0.00     0.135 A 
ATOM     64  C   UNL A   1      44.363  27.609  36.818  1.00  0.00     0.135 A 
ATOM     65  F   UNL A   1      46.013  30.242  34.933  1.00  0.00    -0.206 F 
ATOM     66  C   UNL A   1      46.903  28.692  36.454  1.00  0.00     0.059 A 
ATOM     67  C   UNL A   1      45.437  27.083  37.531  1.00  0.00     0.059 A 
ATOM     68  F   UNL A   1      43.148  27.074  37.017  1.00  0.00    -0.206 F 
ATOM     69  C   UNL A   1      46.706  27.624  37.333  1.00  0.00     0.060 A 
BRANCH  69  70
ATOM     70  S   UNL A   1      48.124  26.977  38.246  1.00  0.00     0.124 S 
ATOM     71  O   UNL A   1      48.455  28.105  39.109  1.00  0.00    -0.237 OA
ATOM     72  O   UNL A   1      47.556  25.809  38.912  1.00  0.00    -0.237 OA
ATOM     73  O   UNL A   1      49.092  26.680  37.195  1.00  0.00    -0.744 OA
ENDBRANCH  69  70
ENDBRANCH  37  62
BRANCH  49  74
ATOM     74  C   UNL A   1      39.795  33.596  37.410  1.00  0.00     0.058 A 
ATOM     75  C   UNL A   1      40.466  34.810  37.619  1.00  0.00     0.135 A 
ATOM     76  C   UNL A   1      38.840  33.198  38.359  1.00  0.00     0.135 A 
ATOM     77  F   UNL A   1      41.394  35.230  36.743  1.00  0.00    -0.206 F 
ATOM     78  C   UNL A   1      40.214  35.592  38.740  1.00  0.00     0.059 A 
ATOM     79  C   UNL A   1      38.554  33.977  39.475  1.00  0.00     0.059 A 
ATOM     80  F   UNL A   1      38.165  32.049  38.198  1.00  0.00    -0.206 F 
ATOM     81  C   UNL A   1      39.256  35.167  39.663  1.00  0.00     0.060 A 
BRANCH  81  82
ATOM     82  S   UNL A   1      38.911  36.208  41.097  1.00  0.00     0.124 S 
ATOM     83  O   UNL A   1      38.558  37.474  40.462  1.00  0.00    -0.237 OA
ATOM     84  O   UNL A   1      37.814  35.498  41.746  1.00  0.00    -0.237 OA
ATOM     85  O   UNL A   1      40.173  36.203  41.830  1.00  0.00    -0.744 OA
ENDBRANCH  81  82
ENDBRANCH  49  74
ENDBRANCH  23  24
ENDBRANCH  16  18
ENDBRANCH  15  16
ENDBRANCH  14  15
ENDBRANCH   1  14
TORSDOF 17
ENDMDL
MODEL 3
REMARK VINA RESULT:      -9.6      7.045     13.973
REMARK SMILES Cc1nnc(SCCC(=O)OCCOC(=O)c2ccc(-c3c4nc(c(-c5c(F)cc(S(=O)(=O)[O-])cc5F)c5ccc([nH]5)c(-c5c(F)cc(S(=O)(=O)[O-])cc5F)c5nc(c(-c6c(F)cc(S(=O)(=O)[O-])cc6F)c6ccc3[nH]6)C=C5)C=C4)cc2)s1
REMARK SMILES IDX 12 1 11 2 9 3 10 4 8 5 7 6 6 7 5 8 1 9 2 10 3 11 83 12 4 13
REMARK SMILES IDX 13 14 14 15 15 16 16 17 17 18 18 19 82 20 19 21 81 22 20 23
REMARK SMILES IDX 21 24 22 25 75 26 23 27 80 28 74 29 76 30 24 31 79 32 73 33
REMARK SMILES IDX 72 34 25 36 59 37 38 38 58 39 39 40 42 41 57 42 77 43 40 44
REMARK SMILES IDX 41 45 56 47 78 48 43 49 26 50 27 51 36 52 28 53 29 54 35 55
REMARK SMILES IDX 37 56 30 57 31 58 32 59 33 60 34 61 60 62 61 63 70 64 62 65
REMARK SMILES IDX 63 66 69 67 71 68 64 69 65 70 66 71 67 72 68 73 44 74 45 75
REMARK SMILES IDX 54 76 46 77 47 78 53 79 55 80 48 81 49 82 50 83 51 84 52 85
REMARK H PARENT 76 35 42 46
REMARK Flexibility Score: inf
ROOT
ATOM      1  C   UNL A   1      33.441  30.912  27.663  1.00  0.00     0.274 C 
ENDROOT
BRANCH   1   2
ATOM      2  O   UNL A   1      33.244  30.297  26.373  1.00  0.00    -0.462 OA
BRANCH   2   3
ATOM      3  C   UNL A   1      32.133  29.540  26.215  1.00  0.00     0.306 C 
ATOM      4  O   UNL A   1      31.544  28.974  27.128  1.00  0.00    -0.252 OA
BRANCH   3   5
ATOM      5  C   UNL A   1      31.723  29.379  24.770  1.00  0.00     0.134 C 
BRANCH   5   6
ATOM      6  C   UNL A   1      31.456  27.956  24.288  1.00  0.00     0.089 C 
BRANCH   6   7
ATOM      7  S   UNL A   1      29.729  27.695  23.753  1.00  0.00    -0.093 SA
BRANCH   7   8
ATOM      8  C   UNL A   1      29.446  29.157  22.842  1.00  0.00     0.174 A 
ATOM      9  C   UNL A   1      28.091  32.534  21.664  1.00  0.00     0.081 C 
ATOM     10  C   UNL A   1      28.739  31.232  21.951  1.00  0.00     0.115 A 
ATOM     11  N   UNL A   1      29.325  30.480  21.043  1.00  0.00    -0.143 NA
ATOM     12  S   UNL A   1      28.744  30.560  23.531  1.00  0.00    -0.091 S 
ATOM     13  N   UNL A   1      29.742  29.272  21.567  1.00  0.00    -0.132 NA
ENDBRANCH   7   8
ENDBRANCH   6   7
ENDBRANCH   5   6
ENDBRANCH   3   5
ENDBRANCH   2   3
ENDBRANCH   1   2
BRANCH   1  14
ATOM     14  C   UNL A   1      34.900  31.322  27.874  1.00  0.00     0.275 C 
BRANCH  14  15
ATOM     15  O   UNL A   1      35.685  30.224  28.366  1.00  0.00    -0.458 OA
BRANCH  15  16
ATOM     16  C   UNL A   1      36.410  30.489  29.475  1.00  0.00     0.338 C 
ATOM     17  O   UNL A   1      36.007  30.876  30.559  1.00  0.00    -0.246 OA
BRANCH  16  18
ATOM     18  C   UNL A   1      37.802  30.107  29.243  1.00  0.00     0.060 A 
ATOM     19  C   UNL A   1      38.196  29.805  27.936  1.00  0.00     0.016 A 
ATOM     20  C   UNL A   1      38.693  30.002  30.311  1.00  0.00     0.016 A 
ATOM     21  C   UNL A   1      39.501  29.401  27.688  1.00  0.00     0.010 A 
ATOM     22  C   UNL A   1      40.003  29.603  30.059  1.00  0.00     0.010 A 
ATOM     23  C   UNL A   1      40.412  29.299  28.748  1.00  0.00    -0.014 A 
BRANCH  23  24
ATOM     24  C   UNL A   1      41.803  28.874  28.493  1.00  0.00     0.031 A 
ATOM     25  C   UNL A   1      42.903  29.893  28.492  1.00  0.00     0.074 A 
ATOM     26  C   UNL A   1      42.053  27.577  28.235  1.00  0.00     0.049 A 
ATOM     27  N   UNL A   1      44.163  29.744  28.182  1.00  0.00    -0.248 NA
ATOM     28  C   UNL A   1      42.533  31.264  28.879  1.00  0.00     0.031 C 
ATOM     29  C   UNL A   1      41.047  26.511  28.231  1.00  0.00     0.029 A 
ATOM     30  N   UNL A   1      43.220  26.938  27.914  1.00  0.00    -0.354 N 
ATOM     31  C   UNL A   1      44.737  31.001  28.319  1.00  0.00     0.074 A 
ATOM     32  C   UNL A   1      43.682  31.907  28.723  1.00  0.00     0.031 C 
ATOM     33  C   UNL A   1      41.643  25.351  27.911  1.00  0.00     0.029 A 
ATOM     34  C   UNL A   1      43.057  25.599  27.650  1.00  0.00     0.049 A 
ATOM     35  H   UNL A   1      44.092  27.393  27.874  1.00  0.00     0.167 HD
ATOM     36  C   UNL A   1      46.028  31.359  28.126  1.00  0.00     0.037 A 
ATOM     37  C   UNL A   1      43.946  24.685  27.218  1.00  0.00     0.037 A 
ATOM     38  C   UNL A   1      47.062  30.438  27.730  1.00  0.00     0.049 A 
ATOM     39  C   UNL A   1      45.367  25.116  26.983  1.00  0.00     0.074 A 
ATOM     40  C   UNL A   1      48.407  30.689  27.523  1.00  0.00     0.029 A 
ATOM     41  N   UNL A   1      46.863  29.087  27.483  1.00  0.00    -0.354 N 
ATOM     42  N   UNL A   1      45.901  26.306  27.129  1.00  0.00    -0.248 NA
ATOM     43  C   UNL A   1      46.308  24.084  26.528  1.00  0.00     0.031 C 
ATOM     44  C   UNL A   1      49.014  29.496  27.115  1.00  0.00     0.029 A 
ATOM     45  C   UNL A   1      48.058  28.493  27.110  1.00  0.00     0.049 A 
ATOM     46  H   UNL A   1      46.000  28.620  27.560  1.00  0.00     0.167 HD
ATOM     47  C   UNL A   1      47.245  26.162  26.805  1.00  0.00     0.074 A 
ATOM     48  C   UNL A   1      47.443  24.766  26.467  1.00  0.00     0.031 C 
ATOM     49  C   UNL A   1      48.226  27.097  26.787  1.00  0.00     0.037 A 
BRANCH  36  50
ATOM     50  C   UNL A   1      46.389  32.806  28.318  1.00  0.00     0.058 A 
ATOM     51  C   UNL A   1      46.831  33.299  29.556  1.00  0.00     0.135 A 
ATOM     52  C   UNL A   1      46.326  33.705  27.241  1.00  0.00     0.135 A 
ATOM     53  F   UNL A   1      46.893  32.487  30.624  1.00  0.00    -0.206 F 
ATOM     54  C   UNL A   1      47.178  34.637  29.724  1.00  0.00     0.059 A 
ATOM     55  C   UNL A   1      46.691  35.042  27.381  1.00  0.00     0.059 A 
ATOM     56  F   UNL A   1      45.906  33.288  26.036  1.00  0.00    -0.206 F 
ATOM     57  C   UNL A   1      47.104  35.500  28.631  1.00  0.00     0.060 A 
BRANCH  57  58
ATOM     58  S   UNL A   1      47.569  37.229  28.861  1.00  0.00     0.124 S 
ATOM     59  O   UNL A   1      46.417  37.919  28.289  1.00  0.00    -0.237 OA
ATOM     60  O   UNL A   1      47.707  37.326  30.310  1.00  0.00    -0.237 OA
ATOM     61  O   UNL A   1      48.812  37.352  28.107  1.00  0.00    -0.744 OA
ENDBRANCH  57  58
ENDBRANCH  36  50
BRANCH  37  62
ATOM     62  C   UNL A   1      43.512  23.285  26.972  1.00  0.00     0.058 A 
ATOM     63  C   UNL A   1      43.224  22.420  28.037  1.00  0.00     0.135 A 
ATOM     64  C   UNL A   1      43.360  22.789  25.668  1.00  0.00     0.135 A 
ATOM     65  F   UNL A   1      43.358  22.847  29.302  1.00  0.00    -0.206 F 
ATOM     66  C   UNL A   1      42.817  21.107  27.820  1.00  0.00     0.059 A 
ATOM     67  C   UNL A   1      42.930  21.488  25.424  1.00  0.00     0.059 A 
ATOM     68  F   UNL A   1      43.607  23.582  24.613  1.00  0.00    -0.206 F 
ATOM     69  C   UNL A   1      42.672  20.650  26.508  1.00  0.00     0.060 A 
BRANCH  69  70
ATOM     70  S   UNL A   1      42.102  18.958  26.236  1.00  0.00     0.124 S 
ATOM     71  O   UNL A   1      43.018  18.505  25.195  1.00  0.00    -0.237 OA
ATOM     72  O   UNL A   1      42.283  18.355  27.553  1.00  0.00    -0.237 OA
ATOM     73  O   UNL A   1      40.714  19.135  25.822  1.00  0.00    -0.744 OA
ENDBRANCH  69  70
ENDBRANCH  37  62
BRANCH  49  74
ATOM     74  C   UNL A   1      49.608  26.632  26.425  1.00  0.00     0.058 A 
ATOM     75  C   UNL A   1      50.439  25.999  27.362  1.00  0.00     0.135 A 
ATOM     76  C   UNL A   1      50.083  26.777  25.113  1.00  0.00     0.135 A 
ATOM     77  F   UNL A   1      50.031  25.842  28.632  1.00  0.00    -0.206 F 
ATOM     78  C   UNL A   1      51.705  25.543  27.013  1.00  0.00     0.059 A 
ATOM     79  C   UNL A   1      51.337  26.307  24.736  1.00  0.00     0.059 A 
ATOM     80  F   UNL A   1      49.321  27.368  24.179  1.00  0.00    -0.206 F 
ATOM     81  C   UNL A   1      52.145  25.702  25.697  1.00  0.00     0.060 A 
BRANCH  81  82
ATOM     82  S   UNL A   1      53.777  25.075  25.247  1.00  0.00     0.124 S 
ATOM     83  O   UNL A   1      53.920  25.580  23.886  1.00  0.00    -0.237 OA
ATOM     84  O   UNL A   1      54.640  25.695  26.247  1.00  0.00    -0.237 OA
ATOM     85  O   UNL A   1      53.628  23.627  25.368  1.00  0.00    -0.744 OA
ENDBRANCH  81  82
ENDBRANCH  49  74
ENDBRANCH  23  24
ENDBRANCH  16  18
ENDBRANCH  15  16
ENDBRANCH  14  15
ENDBRANCH   1  14
TORSDOF 17
ENDMDL
