MODEL 1
REMARK VINA RESULT:     -12.1      0.000      0.000
REMARK SMILES O=C(/C=C/c1ccc(Br)cc1-n1ccnc1)OCCOC(=O)c1ccc(-c2c3nc(c(-c4c(F)cc(S(=O)(=O)[O-])cc4F)c4ccc([nH]4)c(-c4c(F)cc(S(=O)(=O)[O-])cc4F)c4nc(c(-c5c(F)cc(S(=O)(=O)[O-])cc5F)c5ccc2[nH]5)C=C4)C=C3)cc1
REMARK SMILES IDX 19 1 18 2 17 3 2 4 1 5 3 6 4 7 5 8 6 9 11 10 7 11 10 12 8 13
REMARK SMILES IDX 9 14 12 15 13 16 16 17 14 18 15 19 20 20 21 21 22 22 23 23
REMARK SMILES IDX 24 24 88 25 25 26 87 27 26 28 27 29 28 30 81 31 29 32 86 33
REMARK SMILES IDX 80 34 82 35 30 36 85 37 79 38 78 39 31 41 65 42 44 43 64 44
REMARK SMILES IDX 45 45 48 46 63 47 83 48 46 49 47 50 62 52 84 53 49 54 32 55
REMARK SMILES IDX 33 56 42 57 34 58 35 59 41 60 43 61 36 62 37 63 38 64 39 65
REMARK SMILES IDX 40 66 66 67 67 68 76 69 68 70 69 71 75 72 77 73 70 74 71 75
REMARK SMILES IDX 72 76 73 77 74 78 50 79 51 80 60 81 52 82 53 83 59 84 61 85
REMARK SMILES IDX 54 86 55 87 56 88 57 89 58 90
REMARK H PARENT 82 40 48 51
REMARK Flexibility Score: inf
ROOT
ATOM      1  C   UNL A   1      38.446  21.668  25.638  1.00  0.00     0.275 C 
ENDROOT
BRANCH   1   2
ATOM      2  C   UNL A   1      36.943  21.631  25.391  1.00  0.00     0.275 C 
BRANCH   2   3
ATOM      3  O   UNL A   1      36.353  22.891  25.032  1.00  0.00    -0.459 OA
BRANCH   3   4
ATOM      4  C   UNL A   1      35.909  23.290  23.823  1.00  0.00     0.330 C 
ATOM      5  O   UNL A   1      36.509  22.950  22.804  1.00  0.00    -0.247 OA
BRANCH   4   6
ATOM      6  C   UNL A   1      34.758  24.202  23.654  1.00  0.00     0.094 C 
ATOM      7  C   UNL A   1      34.294  25.216  24.411  1.00  0.00     0.018 C 
BRANCH   7   8
ATOM      8  C   UNL A   1      33.113  26.024  24.020  1.00  0.00    -0.001 A 
ATOM      9  C   UNL A   1      33.321  27.152  23.205  1.00  0.00     0.011 A 
ATOM     10  C   UNL A   1      31.789  25.760  24.455  1.00  0.00     0.055 A 
ATOM     11  C   UNL A   1      32.262  27.984  22.832  1.00  0.00     0.016 A 
ATOM     12  C   UNL A   1      30.724  26.597  24.083  1.00  0.00     0.043 A 
ATOM     13  C   UNL A   1      30.970  27.697  23.264  1.00  0.00     0.020 A 
ATOM     14  Br  UNL A   1      29.542  28.806  22.719  1.00  0.00    -0.051 Br
BRANCH  10  15
ATOM     15  N   UNL A   1      31.482  24.692  25.329  1.00  0.00    -0.306 N 
ATOM     16  C   UNL A   1      31.197  23.392  24.993  1.00  0.00     0.113 A 
ATOM     17  C   UNL A   1      31.673  24.686  26.689  1.00  0.00     0.204 A 
ATOM     18  C   UNL A   1      31.068  22.709  26.176  1.00  0.00     0.131 A 
ATOM     19  N   UNL A   1      31.353  23.530  27.232  1.00  0.00    -0.245 NA
ENDBRANCH  10  15
ENDBRANCH   7   8
ENDBRANCH   4   6
ENDBRANCH   3   4
ENDBRANCH   2   3
ENDBRANCH   1   2
BRANCH   1  20
ATOM     20  O   UNL A   1      38.847  22.756  26.466  1.00  0.00    -0.458 OA
BRANCH  20  21
ATOM     21  C   UNL A   1      39.994  22.620  27.198  1.00  0.00     0.338 C 
ATOM     22  O   UNL A   1      40.363  21.645  27.798  1.00  0.00    -0.246 OA
BRANCH  21  23
ATOM     23  C   UNL A   1      40.590  23.980  27.273  1.00  0.00     0.060 A 
ATOM     24  C   UNL A   1      41.683  24.212  28.098  1.00  0.00     0.016 A 
ATOM     25  C   UNL A   1      39.867  25.054  26.760  1.00  0.00     0.016 A 
ATOM     26  C   UNL A   1      41.844  25.488  28.628  1.00  0.00     0.010 A 
ATOM     27  C   UNL A   1      39.981  26.300  27.320  1.00  0.00     0.010 A 
ATOM     28  C   UNL A   1      40.896  26.477  28.337  1.00  0.00    -0.014 A 
BRANCH  28  29
ATOM     29  C   UNL A   1      40.925  27.771  28.987  1.00  0.00     0.031 A 
ATOM     30  C   UNL A   1      41.984  28.644  28.436  1.00  0.00     0.074 A 
ATOM     31  C   UNL A   1      40.002  28.207  29.870  1.00  0.00     0.049 A 
ATOM     32  N   UNL A   1      43.145  28.857  28.953  1.00  0.00    -0.248 NA
ATOM     33  C   UNL A   1      41.841  29.148  27.058  1.00  0.00     0.031 C 
ATOM     34  C   UNL A   1      38.722  27.611  30.263  1.00  0.00     0.029 A 
ATOM     35  N   UNL A   1      40.023  29.362  30.592  1.00  0.00    -0.354 N 
ATOM     36  C   UNL A   1      43.787  29.725  28.081  1.00  0.00     0.074 A 
ATOM     37  C   UNL A   1      43.051  29.668  26.847  1.00  0.00     0.031 C 
ATOM     38  C   UNL A   1      38.013  28.502  31.001  1.00  0.00     0.029 A 
ATOM     39  C   UNL A   1      38.839  29.672  31.257  1.00  0.00     0.049 A 
ATOM     40  H   UNL A   1      40.819  29.939  30.640  1.00  0.00     0.167 HD
ATOM     41  C   UNL A   1      44.710  30.615  28.535  1.00  0.00     0.037 A 
ATOM     42  C   UNL A   1      38.578  30.822  31.940  1.00  0.00     0.037 A 
ATOM     43  C   UNL A   1      45.132  30.277  29.873  1.00  0.00     0.049 A 
ATOM     44  C   UNL A   1      39.899  31.420  32.286  1.00  0.00     0.074 A 
ATOM     45  C   UNL A   1      45.746  29.177  30.442  1.00  0.00     0.029 A 
ATOM     46  N   UNL A   1      44.549  30.961  30.913  1.00  0.00    -0.354 N 
ATOM     47  N   UNL A   1      40.753  30.859  33.102  1.00  0.00    -0.248 NA
ATOM     48  C   UNL A   1      40.471  32.368  31.340  1.00  0.00     0.031 C 
ATOM     49  C   UNL A   1      45.092  28.998  31.696  1.00  0.00     0.029 A 
ATOM     50  C   UNL A   1      44.179  30.041  31.862  1.00  0.00     0.049 A 
ATOM     51  H   UNL A   1      44.419  31.935  30.967  1.00  0.00     0.167 HD
ATOM     52  C   UNL A   1      41.993  31.050  32.509  1.00  0.00     0.074 A 
ATOM     53  C   UNL A   1      41.761  32.035  31.452  1.00  0.00     0.031 C 
ATOM     54  C   UNL A   1      43.030  30.189  32.733  1.00  0.00     0.037 A 
BRANCH  41  55
ATOM     55  C   UNL A   1      44.943  31.977  27.932  1.00  0.00     0.058 A 
ATOM     56  C   UNL A   1      46.206  32.271  27.383  1.00  0.00     0.135 A 
ATOM     57  C   UNL A   1      44.081  33.084  28.105  1.00  0.00     0.135 A 
ATOM     58  F   UNL A   1      47.107  31.296  27.178  1.00  0.00    -0.206 F 
ATOM     59  C   UNL A   1      46.612  33.575  27.101  1.00  0.00     0.059 A 
ATOM     60  C   UNL A   1      44.445  34.384  27.778  1.00  0.00     0.059 A 
ATOM     61  F   UNL A   1      42.883  32.982  28.692  1.00  0.00    -0.206 F 
ATOM     62  C   UNL A   1      45.725  34.626  27.316  1.00  0.00     0.060 A 
BRANCH  62  63
ATOM     63  S   UNL A   1      46.279  36.317  27.050  1.00  0.00     0.124 S 
ATOM     64  O   UNL A   1      45.059  37.068  27.322  1.00  0.00    -0.237 OA
ATOM     65  O   UNL A   1      47.345  36.443  28.039  1.00  0.00    -0.237 OA
ATOM     66  O   UNL A   1      46.720  36.310  25.658  1.00  0.00    -0.744 OA
ENDBRANCH  62  63
ENDBRANCH  41  55
BRANCH  42  67
ATOM     67  C   UNL A   1      37.320  31.627  31.947  1.00  0.00     0.058 A 
ATOM     68  C   UNL A   1      36.681  32.005  33.145  1.00  0.00     0.135 A 
ATOM     69  C   UNL A   1      36.887  32.297  30.785  1.00  0.00     0.135 A 
ATOM     70  F   UNL A   1      37.045  31.443  34.308  1.00  0.00    -0.206 F 
ATOM     71  C   UNL A   1      35.707  33.015  33.194  1.00  0.00     0.059 A 
ATOM     72  C   UNL A   1      35.918  33.302  30.808  1.00  0.00     0.059 A 
ATOM     73  F   UNL A   1      37.464  32.058  29.598  1.00  0.00    -0.206 F 
ATOM     74  C   UNL A   1      35.345  33.674  32.020  1.00  0.00     0.060 A 
BRANCH  74  75
ATOM     75  S   UNL A   1      34.216  35.090  32.091  1.00  0.00     0.124 S 
ATOM     76  O   UNL A   1      34.980  36.046  32.884  1.00  0.00    -0.237 OA
ATOM     77  O   UNL A   1      34.044  35.422  30.681  1.00  0.00    -0.237 OA
ATOM     78  O   UNL A   1      33.031  34.544  32.747  1.00  0.00    -0.744 OA
ENDBRANCH  74  75
ENDBRANCH  42  67
BRANCH  54  79
ATOM     79  C   UNL A   1      42.897  29.173  33.842  1.00  0.00     0.058 A 
ATOM     80  C   UNL A   1      43.082  29.450  35.210  1.00  0.00     0.135 A 
ATOM     81  C   UNL A   1      42.377  27.913  33.511  1.00  0.00     0.135 A 
ATOM     82  F   UNL A   1      43.487  30.659  35.619  1.00  0.00    -0.206 F 
ATOM     83  C   UNL A   1      42.783  28.507  36.198  1.00  0.00     0.059 A 
ATOM     84  C   UNL A   1      42.044  26.971  34.480  1.00  0.00     0.059 A 
ATOM     85  F   UNL A   1      42.124  27.608  32.228  1.00  0.00    -0.206 F 
ATOM     86  C   UNL A   1      42.256  27.272  35.823  1.00  0.00     0.060 A 
BRANCH  86  87
ATOM     87  S   UNL A   1      41.780  26.086  37.101  1.00  0.00     0.124 S 
ATOM     88  O   UNL A   1      42.909  26.157  38.022  1.00  0.00    -0.237 OA
ATOM     89  O   UNL A   1      40.523  26.642  37.596  1.00  0.00    -0.237 OA
ATOM     90  O   UNL A   1      41.650  24.828  36.370  1.00  0.00    -0.744 OA
ENDBRANCH  86  87
ENDBRANCH  54  79
ENDBRANCH  28  29
ENDBRANCH  21  23
ENDBRANCH  20  21
ENDBRANCH   1  20
TORSDOF 16
ENDMDL
MODEL 2
REMARK VINA RESULT:     -11.7      2.958      4.067
REMARK SMILES O=C(/C=C/c1ccc(Br)cc1-n1ccnc1)OCCOC(=O)c1ccc(-c2c3nc(c(-c4c(F)cc(S(=O)(=O)[O-])cc4F)c4ccc([nH]4)c(-c4c(F)cc(S(=O)(=O)[O-])cc4F)c4nc(c(-c5c(F)cc(S(=O)(=O)[O-])cc5F)c5ccc2[nH]5)C=C4)C=C3)cc1
REMARK SMILES IDX 19 1 18 2 17 3 2 4 1 5 3 6 4 7 5 8 6 9 11 10 7 11 10 12 8 13
REMARK SMILES IDX 9 14 12 15 13 16 16 17 14 18 15 19 20 20 21 21 22 22 23 23
REMARK SMILES IDX 24 24 88 25 25 26 87 27 26 28 27 29 28 30 81 31 29 32 86 33
REMARK SMILES IDX 80 34 82 35 30 36 85 37 79 38 78 39 31 41 65 42 44 43 64 44
REMARK SMILES IDX 45 45 48 46 63 47 83 48 46 49 47 50 62 52 84 53 49 54 32 55
REMARK SMILES IDX 33 56 42 57 34 58 35 59 41 60 43 61 36 62 37 63 38 64 39 65
REMARK SMILES IDX 40 66 66 67 67 68 76 69 68 70 69 71 75 72 77 73 70 74 71 75
REMARK SMILES IDX 72 76 73 77 74 78 50 79 51 80 60 81 52 82 53 83 59 84 61 85
REMARK SMILES IDX 54 86 55 87 56 88 57 89 58 90
REMARK H PARENT 82 40 48 51
REMARK Flexibility Score: inf
ROOT
ATOM      1  C   UNL A   1      42.284  20.428  26.243  1.00  0.00     0.275 C 
ENDROOT
BRANCH   1   2
ATOM      2  C   UNL A   1      41.111  21.398  26.275  1.00  0.00     0.275 C 
BRANCH   2   3
ATOM      3  O   UNL A   1      39.835  20.803  26.566  1.00  0.00    -0.459 OA
BRANCH   3   4
ATOM      4  C   UNL A   1      38.971  20.224  25.708  1.00  0.00     0.330 C 
ATOM      5  O   UNL A   1      39.161  19.070  25.327  1.00  0.00    -0.247 OA
BRANCH   4   6
ATOM      6  C   UNL A   1      37.820  20.946  25.123  1.00  0.00     0.094 C 
ATOM      7  C   UNL A   1      36.510  20.641  25.046  1.00  0.00     0.018 C 
BRANCH   7   8
ATOM      8  C   UNL A   1      35.518  21.549  24.423  1.00  0.00    -0.001 A 
ATOM      9  C   UNL A   1      35.944  22.833  24.035  1.00  0.00     0.011 A 
ATOM     10  C   UNL A   1      34.149  21.224  24.235  1.00  0.00     0.055 A 
ATOM     11  C   UNL A   1      35.055  23.757  23.480  1.00  0.00     0.016 A 
ATOM     12  C   UNL A   1      33.254  22.153  23.680  1.00  0.00     0.043 A 
ATOM     13  C   UNL A   1      33.720  23.410  23.296  1.00  0.00     0.020 A 
ATOM     14  Br  UNL A   1      32.538  24.654  22.509  1.00  0.00    -0.051 Br
BRANCH  10  15
ATOM     15  N   UNL A   1      33.605  19.988  24.651  1.00  0.00    -0.306 N 
ATOM     16  C   UNL A   1      33.737  18.767  24.037  1.00  0.00     0.113 A 
ATOM     17  C   UNL A   1      33.067  19.721  25.886  1.00  0.00     0.204 A 
ATOM     18  C   UNL A   1      33.124  17.855  24.859  1.00  0.00     0.131 A 
ATOM     19  N   UNL A   1      32.695  18.463  26.006  1.00  0.00    -0.245 NA
ENDBRANCH  10  15
ENDBRANCH   7   8
ENDBRANCH   4   6
ENDBRANCH   3   4
ENDBRANCH   2   3
ENDBRANCH   1   2
BRANCH   1  20
ATOM     20  O   UNL A   1      43.038  20.505  25.037  1.00  0.00    -0.458 OA
BRANCH  20  21
ATOM     21  C   UNL A   1      44.398  20.608  25.131  1.00  0.00     0.338 C 
ATOM     22  O   UNL A   1      45.194  19.708  25.188  1.00  0.00    -0.246 OA
BRANCH  21  23
ATOM     23  C   UNL A   1      44.680  22.049  25.359  1.00  0.00     0.060 A 
ATOM     24  C   UNL A   1      45.442  22.442  26.452  1.00  0.00     0.016 A 
ATOM     25  C   UNL A   1      43.934  22.994  24.658  1.00  0.00     0.016 A 
ATOM     26  C   UNL A   1      45.207  23.700  26.996  1.00  0.00     0.010 A 
ATOM     27  C   UNL A   1      43.652  24.213  25.219  1.00  0.00     0.010 A 
ATOM     28  C   UNL A   1      44.204  24.509  26.448  1.00  0.00    -0.014 A 
BRANCH  28  29
ATOM     29  C   UNL A   1      43.807  25.755  27.072  1.00  0.00     0.031 A 
ATOM     30  C   UNL A   1      44.755  26.850  26.771  1.00  0.00     0.074 A 
ATOM     31  C   UNL A   1      42.636  25.954  27.711  1.00  0.00     0.049 A 
ATOM     32  N   UNL A   1      45.694  27.282  27.540  1.00  0.00    -0.248 NA
ATOM     33  C   UNL A   1      44.827  27.365  25.392  1.00  0.00     0.031 C 
ATOM     34  C   UNL A   1      41.457  25.088  27.804  1.00  0.00     0.029 A 
ATOM     35  N   UNL A   1      42.245  27.060  28.405  1.00  0.00    -0.354 N 
ATOM     36  C   UNL A   1      46.319  28.297  26.830  1.00  0.00     0.074 A 
ATOM     37  C   UNL A   1      45.914  28.134  25.460  1.00  0.00     0.031 C 
ATOM     38  C   UNL A   1      40.425  25.783  28.347  1.00  0.00     0.029 A 
ATOM     39  C   UNL A   1      40.903  27.089  28.774  1.00  0.00     0.049 A 
ATOM     40  H   UNL A   1      42.868  27.788  28.629  1.00  0.00     0.167 HD
ATOM     41  C   UNL A   1      46.903  29.343  27.475  1.00  0.00     0.037 A 
ATOM     42  C   UNL A   1      40.254  28.132  29.364  1.00  0.00     0.037 A 
ATOM     43  C   UNL A   1      47.069  29.050  28.878  1.00  0.00     0.049 A 
ATOM     44  C   UNL A   1      41.303  28.980  29.999  1.00  0.00     0.074 A 
ATOM     45  C   UNL A   1      47.756  28.083  29.587  1.00  0.00     0.029 A 
ATOM     46  N   UNL A   1      46.132  29.557  29.747  1.00  0.00    -0.354 N 
ATOM     47  N   UNL A   1      42.046  28.580  30.998  1.00  0.00    -0.248 NA
ATOM     48  C   UNL A   1      41.862  30.062  29.201  1.00  0.00     0.031 C 
ATOM     49  C   UNL A   1      46.886  27.724  30.658  1.00  0.00     0.029 A 
ATOM     50  C   UNL A   1      45.759  28.544  30.595  1.00  0.00     0.049 A 
ATOM     51  H   UNL A   1      45.789  30.480  29.758  1.00  0.00     0.167 HD
ATOM     52  C   UNL A   1      43.320  29.049  30.706  1.00  0.00     0.074 A 
ATOM     53  C   UNL A   1      43.132  30.002  29.612  1.00  0.00     0.031 C 
ATOM     54  C   UNL A   1      44.436  28.416  31.174  1.00  0.00     0.037 A 
BRANCH  41  55
ATOM     55  C   UNL A   1      46.973  30.746  26.926  1.00  0.00     0.058 A 
ATOM     56  C   UNL A   1      48.209  31.420  26.938  1.00  0.00     0.135 A 
ATOM     57  C   UNL A   1      45.844  31.547  26.640  1.00  0.00     0.135 A 
ATOM     58  F   UNL A   1      49.347  30.757  27.202  1.00  0.00    -0.206 F 
ATOM     59  C   UNL A   1      48.309  32.799  26.756  1.00  0.00     0.059 A 
ATOM     60  C   UNL A   1      45.928  32.912  26.400  1.00  0.00     0.059 A 
ATOM     61  F   UNL A   1      44.593  31.074  26.676  1.00  0.00    -0.206 F 
ATOM     62  C   UNL A   1      47.158  33.537  26.501  1.00  0.00     0.060 A 
BRANCH  62  63
ATOM     63  S   UNL A   1      47.268  35.328  26.367  1.00  0.00     0.124 S 
ATOM     64  O   UNL A   1      45.969  35.657  25.793  1.00  0.00    -0.237 OA
ATOM     65  O   UNL A   1      47.474  35.720  27.758  1.00  0.00    -0.237 OA
ATOM     66  O   UNL A   1      48.417  35.528  25.489  1.00  0.00    -0.744 OA
ENDBRANCH  62  63
ENDBRANCH  41  55
BRANCH  42  67
ATOM     67  C   UNL A   1      38.887  28.655  29.069  1.00  0.00     0.058 A 
ATOM     68  C   UNL A   1      37.921  28.834  30.081  1.00  0.00     0.135 A 
ATOM     69  C   UNL A   1      38.601  29.275  27.836  1.00  0.00     0.135 A 
ATOM     70  F   UNL A   1      38.117  28.306  31.299  1.00  0.00    -0.206 F 
ATOM     71  C   UNL A   1      36.769  29.615  29.893  1.00  0.00     0.059 A 
ATOM     72  C   UNL A   1      37.461  30.052  27.625  1.00  0.00     0.059 A 
ATOM     73  F   UNL A   1      39.476  29.218  26.821  1.00  0.00    -0.206 F 
ATOM     74  C   UNL A   1      36.557  30.238  28.665  1.00  0.00     0.060 A 
BRANCH  74  75
ATOM     75  S   UNL A   1      35.166  31.382  28.462  1.00  0.00     0.124 S 
ATOM     76  O   UNL A   1      34.140  30.514  27.894  1.00  0.00    -0.237 OA
ATOM     77  O   UNL A   1      34.933  31.834  29.829  1.00  0.00    -0.237 OA
ATOM     78  O   UNL A   1      35.694  32.398  27.555  1.00  0.00    -0.744 OA
ENDBRANCH  74  75
ENDBRANCH  42  67
BRANCH  54  79
ATOM     79  C   UNL A   1      44.272  27.353  32.234  1.00  0.00     0.058 A 
ATOM     80  C   UNL A   1      44.009  27.610  33.594  1.00  0.00     0.135 A 
ATOM     81  C   UNL A   1      44.193  26.018  31.811  1.00  0.00     0.135 A 
ATOM     82  F   UNL A   1      43.972  28.863  34.063  1.00  0.00    -0.206 F 
ATOM     83  C   UNL A   1      43.704  26.582  34.491  1.00  0.00     0.059 A 
ATOM     84  C   UNL A   1      43.862  24.983  32.680  1.00  0.00     0.059 A 
ATOM     85  F   UNL A   1      44.377  25.714  30.516  1.00  0.00    -0.206 F 
ATOM     86  C   UNL A   1      43.625  25.271  34.022  1.00  0.00     0.060 A 
BRANCH  86  87
ATOM     87  S   UNL A   1      43.139  23.951  35.157  1.00  0.00     0.124 S 
ATOM     88  O   UNL A   1      44.055  24.154  36.274  1.00  0.00    -0.237 OA
ATOM     89  O   UNL A   1      41.737  24.263  35.422  1.00  0.00    -0.237 OA
ATOM     90  O   UNL A   1      43.361  22.733  34.381  1.00  0.00    -0.744 OA
ENDBRANCH  86  87
ENDBRANCH  54  79
ENDBRANCH  28  29
ENDBRANCH  21  23
ENDBRANCH  20  21
ENDBRANCH   1  20
TORSDOF 16
ENDMDL
MODEL 3
REMARK VINA RESULT:     -11.6      3.352      9.586
REMARK SMILES O=C(/C=C/c1ccc(Br)cc1-n1ccnc1)OCCOC(=O)c1ccc(-c2c3nc(c(-c4c(F)cc(S(=O)(=O)[O-])cc4F)c4ccc([nH]4)c(-c4c(F)cc(S(=O)(=O)[O-])cc4F)c4nc(c(-c5c(F)cc(S(=O)(=O)[O-])cc5F)c5ccc2[nH]5)C=C4)C=C3)cc1
REMARK SMILES IDX 19 1 18 2 17 3 2 4 1 5 3 6 4 7 5 8 6 9 11 10 7 11 10 12 8 13
REMARK SMILES IDX 9 14 12 15 13 16 16 17 14 18 15 19 20 20 21 21 22 22 23 23
REMARK SMILES IDX 24 24 88 25 25 26 87 27 26 28 27 29 28 30 81 31 29 32 86 33
REMARK SMILES IDX 80 34 82 35 30 36 85 37 79 38 78 39 31 41 65 42 44 43 64 44
REMARK SMILES IDX 45 45 48 46 63 47 83 48 46 49 47 50 62 52 84 53 49 54 32 55
REMARK SMILES IDX 33 56 42 57 34 58 35 59 41 60 43 61 36 62 37 63 38 64 39 65
REMARK SMILES IDX 40 66 66 67 67 68 76 69 68 70 69 71 75 72 77 73 70 74 71 75
REMARK SMILES IDX 72 76 73 77 74 78 50 79 51 80 60 81 52 82 53 83 59 84 61 85
REMARK SMILES IDX 54 86 55 87 56 88 57 89 58 90
REMARK H PARENT 82 40 48 51
REMARK Flexibility Score: inf
ROOT
ATOM      1  C   UNL A   1      33.427  31.048  27.286  1.00  0.00     0.275 C 
ENDROOT
BRANCH   1   2
ATOM      2  C   UNL A   1      32.614  29.761  27.271  1.00  0.00     0.275 C 
BRANCH   2   3
ATOM      3  O   UNL A   1      33.381  28.556  27.109  1.00  0.00    -0.459 OA
BRANCH   3   4
ATOM      4  C   UNL A   1      33.713  27.927  25.964  1.00  0.00     0.330 C 
ATOM      5  O   UNL A   1      34.108  28.576  24.996  1.00  0.00    -0.247 OA
BRANCH   4   6
ATOM      6  C   UNL A   1      33.549  26.469  25.776  1.00  0.00     0.094 C 
ATOM      7  C   UNL A   1      32.486  25.655  25.930  1.00  0.00     0.018 C 
BRANCH   7   8
ATOM      8  C   UNL A   1      32.553  24.200  25.653  1.00  0.00    -0.001 A 
ATOM      9  C   UNL A   1      32.624  23.318  26.747  1.00  0.00     0.011 A 
ATOM     10  C   UNL A   1      32.596  23.638  24.350  1.00  0.00     0.055 A 
ATOM     11  C   UNL A   1      32.731  21.937  26.562  1.00  0.00     0.016 A 
ATOM     12  C   UNL A   1      32.706  22.251  24.163  1.00  0.00     0.043 A 
ATOM     13  C   UNL A   1      32.761  21.411  25.274  1.00  0.00     0.020 A 
ATOM     14  Br  UNL A   1      32.865  19.541  25.038  1.00  0.00    -0.051 Br
BRANCH  10  15
ATOM     15  N   UNL A   1      32.597  24.439  23.185  1.00  0.00    -0.306 N 
ATOM     16  C   UNL A   1      31.541  25.129  22.644  1.00  0.00     0.113 A 
ATOM     17  C   UNL A   1      33.711  24.896  22.524  1.00  0.00     0.204 A 
ATOM     18  C   UNL A   1      32.047  25.835  21.582  1.00  0.00     0.131 A 
ATOM     19  N   UNL A   1      33.403  25.671  21.506  1.00  0.00    -0.245 NA
ENDBRANCH  10  15
ENDBRANCH   7   8
ENDBRANCH   4   6
ENDBRANCH   3   4
ENDBRANCH   2   3
ENDBRANCH   1   2
BRANCH   1  20
ATOM     20  O   UNL A   1      34.818  30.826  27.498  1.00  0.00    -0.458 OA
BRANCH  20  21
ATOM     21  C   UNL A   1      35.575  31.868  27.957  1.00  0.00     0.338 C 
ATOM     22  O   UNL A   1      35.517  33.018  27.608  1.00  0.00    -0.246 OA
BRANCH  21  23
ATOM     23  C   UNL A   1      36.621  31.260  28.820  1.00  0.00     0.060 A 
ATOM     24  C   UNL A   1      37.732  32.006  29.192  1.00  0.00     0.016 A 
ATOM     25  C   UNL A   1      36.625  29.878  28.990  1.00  0.00     0.016 A 
ATOM     26  C   UNL A   1      38.922  31.329  29.441  1.00  0.00     0.010 A 
ATOM     27  C   UNL A   1      37.804  29.203  29.176  1.00  0.00     0.010 A 
ATOM     28  C   UNL A   1      38.966  29.939  29.285  1.00  0.00    -0.014 A 
BRANCH  28  29
ATOM     29  C   UNL A   1      40.212  29.204  29.373  1.00  0.00     0.031 A 
ATOM     30  C   UNL A   1      40.634  28.997  30.776  1.00  0.00     0.074 A 
ATOM     31  C   UNL A   1      40.837  28.625  28.327  1.00  0.00     0.049 A 
ATOM     32  N   UNL A   1      41.512  29.686  31.419  1.00  0.00    -0.248 NA
ATOM     33  C   UNL A   1      39.841  28.093  31.628  1.00  0.00     0.031 C 
ATOM     34  C   UNL A   1      40.385  28.447  26.944  1.00  0.00     0.029 A 
ATOM     35  N   UNL A   1      42.054  28.013  28.321  1.00  0.00    -0.354 N 
ATOM     36  C   UNL A   1      41.558  29.134  32.692  1.00  0.00     0.074 A 
ATOM     37  C   UNL A   1      40.363  28.347  32.829  1.00  0.00     0.031 C 
ATOM     38  C   UNL A   1      41.232  27.608  26.295  1.00  0.00     0.029 A 
ATOM     39  C   UNL A   1      42.360  27.305  27.161  1.00  0.00     0.049 A 
ATOM     40  H   UNL A   1      42.673  28.066  29.084  1.00  0.00     0.167 HD
ATOM     41  C   UNL A   1      42.704  29.160  33.423  1.00  0.00     0.037 A 
ATOM     42  C   UNL A   1      43.456  26.519  26.966  1.00  0.00     0.037 A 
ATOM     43  C   UNL A   1      43.651  30.092  32.858  1.00  0.00     0.049 A 
ATOM     44  C   UNL A   1      44.478  26.959  27.957  1.00  0.00     0.074 A 
ATOM     45  C   UNL A   1      43.639  31.452  32.618  1.00  0.00     0.029 A 
ATOM     46  N   UNL A   1      44.645  29.579  32.060  1.00  0.00    -0.354 N 
ATOM     47  N   UNL A   1      45.039  28.140  27.938  1.00  0.00    -0.248 NA
ATOM     48  C   UNL A   1      44.493  26.284  29.247  1.00  0.00     0.031 C 
ATOM     49  C   UNL A   1      44.275  31.609  31.352  1.00  0.00     0.029 A 
ATOM     50  C   UNL A   1      44.713  30.353  30.928  1.00  0.00     0.049 A 
ATOM     51  H   UNL A   1      45.207  28.796  32.262  1.00  0.00     0.167 HD
ATOM     52  C   UNL A   1      45.093  28.533  29.268  1.00  0.00     0.074 A 
ATOM     53  C   UNL A   1      44.791  27.323  30.034  1.00  0.00     0.031 C 
ATOM     54  C   UNL A   1      45.093  29.852  29.622  1.00  0.00     0.037 A 
BRANCH  41  55
ATOM     55  C   UNL A   1      43.110  28.089  34.404  1.00  0.00     0.058 A 
ATOM     56  C   UNL A   1      43.350  28.449  35.744  1.00  0.00     0.135 A 
ATOM     57  C   UNL A   1      43.527  26.790  34.038  1.00  0.00     0.135 A 
ATOM     58  F   UNL A   1      42.996  29.662  36.200  1.00  0.00    -0.206 F 
ATOM     59  C   UNL A   1      44.024  27.612  36.633  1.00  0.00     0.059 A 
ATOM     60  C   UNL A   1      44.150  25.918  34.922  1.00  0.00     0.059 A 
ATOM     61  F   UNL A   1      43.448  26.331  32.784  1.00  0.00    -0.206 F 
ATOM     62  C   UNL A   1      44.432  26.353  36.204  1.00  0.00     0.060 A 
BRANCH  62  63
ATOM     63  S   UNL A   1      45.391  25.311  37.315  1.00  0.00     0.124 S 
ATOM     64  O   UNL A   1      45.592  24.122  36.495  1.00  0.00    -0.237 OA
ATOM     65  O   UNL A   1      46.572  26.134  37.553  1.00  0.00    -0.237 OA
ATOM     66  O   UNL A   1      44.507  25.144  38.465  1.00  0.00    -0.744 OA
ENDBRANCH  62  63
ENDBRANCH  41  55
BRANCH  42  67
ATOM     67  C   UNL A   1      43.528  25.186  26.296  1.00  0.00     0.058 A 
ATOM     68  C   UNL A   1      44.434  24.925  25.248  1.00  0.00     0.135 A 
ATOM     69  C   UNL A   1      42.921  24.054  26.874  1.00  0.00     0.135 A 
ATOM     70  F   UNL A   1      45.084  25.937  24.652  1.00  0.00    -0.206 F 
ATOM     71  C   UNL A   1      44.749  23.621  24.831  1.00  0.00     0.059 A 
ATOM     72  C   UNL A   1      43.216  22.749  26.475  1.00  0.00     0.059 A 
ATOM     73  F   UNL A   1      42.085  24.179  27.916  1.00  0.00    -0.206 F 
ATOM     74  C   UNL A   1      44.148  22.536  25.466  1.00  0.00     0.060 A 
BRANCH  74  75
ATOM     75  S   UNL A   1      44.670  20.850  25.056  1.00  0.00     0.124 S 
ATOM     76  O   UNL A   1      46.014  20.802  25.618  1.00  0.00    -0.237 OA
ATOM     77  O   UNL A   1      43.665  20.039  25.735  1.00  0.00    -0.237 OA
ATOM     78  O   UNL A   1      44.604  20.821  23.597  1.00  0.00    -0.744 OA
ENDBRANCH  74  75
ENDBRANCH  42  67
BRANCH  54  79
ATOM     79  C   UNL A   1      45.301  30.888  28.544  1.00  0.00     0.058 A 
ATOM     80  C   UNL A   1      44.282  31.409  27.723  1.00  0.00     0.135 A 
ATOM     81  C   UNL A   1      46.556  31.511  28.473  1.00  0.00     0.135 A 
ATOM     82  F   UNL A   1      43.031  30.936  27.795  1.00  0.00    -0.206 F 
ATOM     83  C   UNL A   1      44.510  32.484  26.859  1.00  0.00     0.059 A 
ATOM     84  C   UNL A   1      46.798  32.601  27.643  1.00  0.00     0.059 A 
ATOM     85  F   UNL A   1      47.555  31.098  29.271  1.00  0.00    -0.206 F 
ATOM     86  C   UNL A   1      45.771  33.079  26.831  1.00  0.00     0.060 A 
BRANCH  86  87
ATOM     87  S   UNL A   1      46.045  34.527  25.787  1.00  0.00     0.124 S 
ATOM     88  O   UNL A   1      45.120  34.290  24.684  1.00  0.00    -0.237 OA
ATOM     89  O   UNL A   1      45.699  35.631  26.678  1.00  0.00    -0.237 OA
ATOM     90  O   UNL A   1      47.462  34.438  25.442  1.00  0.00    -0.744 OA
ENDBRANCH  86  87
ENDBRANCH  54  79
ENDBRANCH  28  29
ENDBRANCH  21  23
ENDBRANCH  20  21
ENDBRANCH   1  20
TORSDOF 16
ENDMDL
