MODEL 1
REMARK VINA RESULT:     -10.8      0.000      0.000
REMARK SMILES O=C(OCCOC(=O)c1cc(SCc2csc(-c3ccsc3)n2)ccn1)c1ccc(-c2c3nc(c(-c4c(F)cc(S(=O)(=O)[O-])cc4F)c4ccc([nH]4)c(-c4c(F)cc(S(=O)(=O)[O-])cc4F)c4nc(c(-c5c(F)cc(S(=O)(=O)[O-])cc5F)c5ccc2[nH]5)C=C4)C=C3)cc1
REMARK SMILES IDX 5 1 4 2 3 3 2 4 1 5 27 6 28 7 92 8 29 9 91 10 30 11 31 12
REMARK SMILES IDX 32 13 85 14 33 15 90 16 84 17 86 18 34 19 89 20 83 21 82 22
REMARK SMILES IDX 35 24 69 25 48 26 68 27 49 28 52 29 67 30 87 31 50 32 51 33
REMARK SMILES IDX 66 35 88 36 53 37 36 38 37 39 46 40 38 41 39 42 45 43 47 44
REMARK SMILES IDX 40 45 41 46 42 47 43 48 44 49 70 50 71 51 80 52 72 53 73 54
REMARK SMILES IDX 79 55 81 56 74 57 75 58 76 59 77 60 78 61 54 62 55 63 64 64
REMARK SMILES IDX 56 65 57 66 63 67 65 68 58 69 59 70 60 71 61 72 62 73 6 74
REMARK SMILES IDX 7 75 8 76 9 77 10 78 26 79 11 80 25 81 24 82 12 83 13 84
REMARK SMILES IDX 14 85 15 86 23 87 16 88 17 89 18 90 19 91 22 92 20 93 21 94
REMARK H PARENT 86 23 52 34
REMARK Flexibility Score: inf
ROOT
ATOM      1  C   UNL A   1      46.526  23.992  26.264  1.00  0.00     0.275 C 
ENDROOT
BRANCH   1   2
ATOM      2  C   UNL A   1      45.281  24.434  27.044  1.00  0.00     0.275 C 
BRANCH   2   3
ATOM      3  O   UNL A   1      44.308  25.035  26.159  1.00  0.00    -0.458 OA
BRANCH   3   4
ATOM      4  C   UNL A   1      43.018  25.394  26.373  1.00  0.00     0.338 C 
ATOM      5  O   UNL A   1      42.147  24.852  25.690  1.00  0.00    -0.246 OA
BRANCH   4   6
ATOM      6  C   UNL A   1      42.576  26.431  27.367  1.00  0.00     0.060 A 
ATOM      7  C   UNL A   1      42.997  27.750  27.386  1.00  0.00     0.016 A 
ATOM      8  C   UNL A   1      41.616  26.062  28.335  1.00  0.00     0.016 A 
ATOM      9  C   UNL A   1      42.553  28.632  28.375  1.00  0.00     0.010 A 
ATOM     10  C   UNL A   1      41.167  26.960  29.331  1.00  0.00     0.010 A 
ATOM     11  C   UNL A   1      41.685  28.254  29.399  1.00  0.00    -0.014 A 
BRANCH  11  12
ATOM     12  C   UNL A   1      41.483  29.218  30.531  1.00  0.00     0.031 A 
ATOM     13  C   UNL A   1      40.286  30.121  30.555  1.00  0.00     0.074 A 
ATOM     14  C   UNL A   1      42.241  29.152  31.646  1.00  0.00     0.049 A 
ATOM     15  N   UNL A   1      39.863  30.887  31.529  1.00  0.00    -0.248 NA
ATOM     16  C   UNL A   1      39.459  30.171  29.343  1.00  0.00     0.031 C 
ATOM     17  C   UNL A   1      43.410  28.302  31.771  1.00  0.00     0.029 A 
ATOM     18  N   UNL A   1      42.139  29.740  32.888  1.00  0.00    -0.354 N 
ATOM     19  C   UNL A   1      38.730  31.519  31.043  1.00  0.00     0.074 A 
ATOM     20  C   UNL A   1      38.537  31.057  29.684  1.00  0.00     0.031 C 
ATOM     21  C   UNL A   1      43.866  28.342  33.028  1.00  0.00     0.029 A 
ATOM     22  C   UNL A   1      43.052  29.259  33.805  1.00  0.00     0.049 A 
ATOM     23  H   UNL A   1      41.477  30.437  33.101  1.00  0.00     0.167 HD
ATOM     24  C   UNL A   1      37.929  32.416  31.666  1.00  0.00     0.037 A 
ATOM     25  C   UNL A   1      43.235  29.509  35.119  1.00  0.00     0.037 A 
ATOM     26  C   UNL A   1      38.129  32.905  33.003  1.00  0.00     0.049 A 
ATOM     27  C   UNL A   1      42.364  30.539  35.771  1.00  0.00     0.074 A 
ATOM     28  C   UNL A   1      37.415  33.881  33.676  1.00  0.00     0.029 A 
ATOM     29  N   UNL A   1      39.121  32.470  33.871  1.00  0.00    -0.354 N 
ATOM     30  N   UNL A   1      41.320  31.155  35.276  1.00  0.00    -0.248 NA
ATOM     31  C   UNL A   1      42.725  30.952  37.134  1.00  0.00     0.031 C 
ATOM     32  C   UNL A   1      38.007  34.074  34.929  1.00  0.00     0.029 A 
ATOM     33  C   UNL A   1      39.062  33.185  35.058  1.00  0.00     0.049 A 
ATOM     34  H   UNL A   1      39.771  31.759  33.672  1.00  0.00     0.167 HD
ATOM     35  C   UNL A   1      40.926  32.064  36.246  1.00  0.00     0.074 A 
ATOM     36  C   UNL A   1      41.798  31.868  37.387  1.00  0.00     0.031 C 
ATOM     37  C   UNL A   1      39.952  33.004  36.177  1.00  0.00     0.037 A 
BRANCH  24  38
ATOM     38  C   UNL A   1      36.816  32.988  30.843  1.00  0.00     0.058 A 
ATOM     39  C   UNL A   1      37.034  34.009  29.906  1.00  0.00     0.135 A 
ATOM     40  C   UNL A   1      35.501  32.545  31.045  1.00  0.00     0.135 A 
ATOM     41  F   UNL A   1      38.271  34.488  29.701  1.00  0.00    -0.206 F 
ATOM     42  C   UNL A   1      35.976  34.598  29.221  1.00  0.00     0.059 A 
ATOM     43  C   UNL A   1      34.431  33.104  30.359  1.00  0.00     0.059 A 
ATOM     44  F   UNL A   1      35.244  31.579  31.942  1.00  0.00    -0.206 F 
ATOM     45  C   UNL A   1      34.677  34.145  29.464  1.00  0.00     0.060 A 
BRANCH  45  46
ATOM     46  S   UNL A   1      33.308  34.952  28.611  1.00  0.00     0.124 S 
ATOM     47  O   UNL A   1      34.012  35.953  27.814  1.00  0.00    -0.237 OA
ATOM     48  O   UNL A   1      32.713  33.850  27.862  1.00  0.00    -0.237 OA
ATOM     49  O   UNL A   1      32.491  35.479  29.700  1.00  0.00    -0.744 OA
ENDBRANCH  45  46
ENDBRANCH  24  38
BRANCH  25  50
ATOM     50  C   UNL A   1      44.300  28.802  35.896  1.00  0.00     0.058 A 
ATOM     51  C   UNL A   1      45.625  29.266  35.901  1.00  0.00     0.135 A 
ATOM     52  C   UNL A   1      44.017  27.655  36.658  1.00  0.00     0.135 A 
ATOM     53  F   UNL A   1      45.962  30.345  35.178  1.00  0.00    -0.206 F 
ATOM     54  C   UNL A   1      46.624  28.626  36.632  1.00  0.00     0.059 A 
ATOM     55  C   UNL A   1      44.990  27.023  37.428  1.00  0.00     0.059 A 
ATOM     56  F   UNL A   1      42.771  27.159  36.691  1.00  0.00    -0.206 F 
ATOM     57  C   UNL A   1      46.294  27.510  37.402  1.00  0.00     0.060 A 
BRANCH  57  58
ATOM     58  S   UNL A   1      47.569  26.736  38.422  1.00  0.00     0.124 S 
ATOM     59  O   UNL A   1      48.463  27.860  38.677  1.00  0.00    -0.237 OA
ATOM     60  O   UNL A   1      46.801  26.258  39.569  1.00  0.00    -0.237 OA
ATOM     61  O   UNL A   1      48.098  25.688  37.556  1.00  0.00    -0.744 OA
ENDBRANCH  57  58
ENDBRANCH  25  50
BRANCH  37  62
ATOM     62  C   UNL A   1      39.816  33.926  37.354  1.00  0.00     0.058 A 
ATOM     63  C   UNL A   1      40.446  35.181  37.368  1.00  0.00     0.135 A 
ATOM     64  C   UNL A   1      39.026  33.574  38.458  1.00  0.00     0.135 A 
ATOM     65  F   UNL A   1      41.223  35.559  36.340  1.00  0.00    -0.206 F 
ATOM     66  C   UNL A   1      40.313  36.048  38.446  1.00  0.00     0.059 A 
ATOM     67  C   UNL A   1      38.859  34.436  39.537  1.00  0.00     0.059 A 
ATOM     68  F   UNL A   1      38.400  32.386  38.491  1.00  0.00    -0.206 F 
ATOM     69  C   UNL A   1      39.515  35.667  39.526  1.00  0.00     0.060 A 
BRANCH  69  70
ATOM     70  S   UNL A   1      39.322  36.816  40.904  1.00  0.00     0.124 S 
ATOM     71  O   UNL A   1      38.580  37.905  40.277  1.00  0.00    -0.237 OA
ATOM     72  O   UNL A   1      38.578  36.019  41.875  1.00  0.00    -0.237 OA
ATOM     73  O   UNL A   1      40.698  37.127  41.280  1.00  0.00    -0.744 OA
ENDBRANCH  69  70
ENDBRANCH  37  62
ENDBRANCH  11  12
ENDBRANCH   4   6
ENDBRANCH   3   4
ENDBRANCH   2   3
ENDBRANCH   1   2
BRANCH   1  74
ATOM     74  O   UNL A   1      46.360  22.668  25.745  1.00  0.00    -0.457 OA
BRANCH  74  75
ATOM     75  C   UNL A   1      45.617  22.550  24.604  1.00  0.00     0.357 C 
ATOM     76  O   UNL A   1      45.709  23.226  23.605  1.00  0.00    -0.244 OA
BRANCH  75  77
ATOM     77  C   UNL A   1      44.761  21.345  24.791  1.00  0.00     0.149 A 
ATOM     78  C   UNL A   1      43.675  21.433  25.650  1.00  0.00     0.051 A 
ATOM     79  N   UNL A   1      45.186  20.196  24.212  1.00  0.00    -0.249 NA
ATOM     80  C   UNL A   1      42.996  20.276  25.987  1.00  0.00     0.012 A 
ATOM     81  C   UNL A   1      44.490  19.085  24.522  1.00  0.00     0.113 A 
ATOM     82  C   UNL A   1      43.393  19.081  25.373  1.00  0.00     0.035 A 
BRANCH  80  83
ATOM     83  S   UNL A   1      41.637  20.255  27.143  1.00  0.00    -0.120 SA
BRANCH  83  84
ATOM     84  C   UNL A   1      40.107  20.249  26.137  1.00  0.00     0.132 C 
BRANCH  84  85
ATOM     85  C   UNL A   1      39.316  21.533  26.096  1.00  0.00     0.062 A 
ATOM     86  C   UNL A   1      39.695  22.674  26.781  1.00  0.00     0.091 A 
ATOM     87  N   UNL A   1      38.046  21.632  25.496  1.00  0.00    -0.240 NA
ATOM     88  S   UNL A   1      38.581  23.934  26.530  1.00  0.00    -0.122 S 
ATOM     89  C   UNL A   1      37.600  22.883  25.576  1.00  0.00     0.124 A 
BRANCH  89  90
ATOM     90  C   UNL A   1      36.327  23.391  24.916  1.00  0.00     0.021 A 
ATOM     91  C   UNL A   1      35.431  24.378  25.435  1.00  0.00     0.023 A 
ATOM     92  C   UNL A   1      35.872  22.917  23.699  1.00  0.00     0.076 A 
ATOM     93  C   UNL A   1      34.310  24.550  24.649  1.00  0.00     0.065 A 
ATOM     94  S   UNL A   1      34.373  23.599  23.232  1.00  0.00    -0.152 S 
ENDBRANCH  89  90
ENDBRANCH  84  85
ENDBRANCH  83  84
ENDBRANCH  80  83
ENDBRANCH  75  77
ENDBRANCH  74  75
ENDBRANCH   1  74
TORSDOF 18
ENDMDL
MODEL 2
REMARK VINA RESULT:     -10.6      4.739     12.332
REMARK SMILES O=C(OCCOC(=O)c1cc(SCc2csc(-c3ccsc3)n2)ccn1)c1ccc(-c2c3nc(c(-c4c(F)cc(S(=O)(=O)[O-])cc4F)c4ccc([nH]4)c(-c4c(F)cc(S(=O)(=O)[O-])cc4F)c4nc(c(-c5c(F)cc(S(=O)(=O)[O-])cc5F)c5ccc2[nH]5)C=C4)C=C3)cc1
REMARK SMILES IDX 5 1 4 2 3 3 2 4 1 5 27 6 28 7 92 8 29 9 91 10 30 11 31 12
REMARK SMILES IDX 32 13 85 14 33 15 90 16 84 17 86 18 34 19 89 20 83 21 82 22
REMARK SMILES IDX 35 24 69 25 48 26 68 27 49 28 52 29 67 30 87 31 50 32 51 33
REMARK SMILES IDX 66 35 88 36 53 37 36 38 37 39 46 40 38 41 39 42 45 43 47 44
REMARK SMILES IDX 40 45 41 46 42 47 43 48 44 49 70 50 71 51 80 52 72 53 73 54
REMARK SMILES IDX 79 55 81 56 74 57 75 58 76 59 77 60 78 61 54 62 55 63 64 64
REMARK SMILES IDX 56 65 57 66 63 67 65 68 58 69 59 70 60 71 61 72 62 73 6 74
REMARK SMILES IDX 7 75 8 76 9 77 10 78 26 79 11 80 25 81 24 82 12 83 13 84
REMARK SMILES IDX 14 85 15 86 23 87 16 88 17 89 18 90 19 91 22 92 20 93 21 94
REMARK H PARENT 86 23 52 34
REMARK Flexibility Score: inf
ROOT
ATOM      1  C   UNL A   1      33.954  34.326  29.362  1.00  0.00     0.275 C 
ENDROOT
BRANCH   1   2
ATOM      2  C   UNL A   1      33.970  33.353  28.175  1.00  0.00     0.275 C 
BRANCH   2   3
ATOM      3  O   UNL A   1      33.894  31.984  28.634  1.00  0.00    -0.458 OA
BRANCH   3   4
ATOM      4  C   UNL A   1      34.370  30.838  28.086  1.00  0.00     0.338 C 
ATOM      5  O   UNL A   1      33.627  30.204  27.336  1.00  0.00    -0.246 OA
BRANCH   4   6
ATOM      6  C   UNL A   1      35.736  30.269  28.355  1.00  0.00     0.060 A 
ATOM      7  C   UNL A   1      36.159  29.744  29.565  1.00  0.00     0.016 A 
ATOM      8  C   UNL A   1      36.657  30.210  27.286  1.00  0.00     0.016 A 
ATOM      9  C   UNL A   1      37.463  29.268  29.725  1.00  0.00     0.010 A 
ATOM     10  C   UNL A   1      37.974  29.723  27.453  1.00  0.00     0.010 A 
ATOM     11  C   UNL A   1      38.415  29.299  28.707  1.00  0.00    -0.014 A 
BRANCH  11  12
ATOM     12  C   UNL A   1      39.837  28.993  29.075  1.00  0.00     0.031 A 
ATOM     13  C   UNL A   1      40.461  27.689  28.675  1.00  0.00     0.074 A 
ATOM     14  C   UNL A   1      40.648  29.947  29.580  1.00  0.00     0.049 A 
ATOM     15  N   UNL A   1      41.717  27.328  28.756  1.00  0.00    -0.248 NA
ATOM     16  C   UNL A   1      39.572  26.665  28.111  1.00  0.00     0.031 C 
ATOM     17  C   UNL A   1      40.184  31.261  29.983  1.00  0.00     0.029 A 
ATOM     18  N   UNL A   1      42.008  30.008  29.793  1.00  0.00    -0.354 N 
ATOM     19  C   UNL A   1      41.767  26.033  28.266  1.00  0.00     0.074 A 
ATOM     20  C   UNL A   1      40.415  25.665  27.901  1.00  0.00     0.031 C 
ATOM     21  C   UNL A   1      41.230  32.030  30.305  1.00  0.00     0.029 A 
ATOM     22  C   UNL A   1      42.451  31.257  30.178  1.00  0.00     0.049 A 
ATOM     23  H   UNL A   1      42.606  29.234  29.681  1.00  0.00     0.167 HD
ATOM     24  C   UNL A   1      42.840  25.216  28.145  1.00  0.00     0.037 A 
ATOM     25  C   UNL A   1      43.687  31.749  30.408  1.00  0.00     0.037 A 
ATOM     26  C   UNL A   1      44.182  25.559  28.533  1.00  0.00     0.049 A 
ATOM     27  C   UNL A   1      44.851  30.811  30.310  1.00  0.00     0.074 A 
ATOM     28  C   UNL A   1      45.309  24.756  28.525  1.00  0.00     0.029 A 
ATOM     29  N   UNL A   1      44.580  26.799  29.011  1.00  0.00    -0.354 N 
ATOM     30  N   UNL A   1      44.868  29.573  29.883  1.00  0.00    -0.248 NA
ATOM     31  C   UNL A   1      46.152  31.310  30.779  1.00  0.00     0.031 C 
ATOM     32  C   UNL A   1      46.377  25.494  29.048  1.00  0.00     0.029 A 
ATOM     33  C   UNL A   1      45.928  26.772  29.338  1.00  0.00     0.049 A 
ATOM     34  H   UNL A   1      43.992  27.583  29.103  1.00  0.00     0.167 HD
ATOM     35  C   UNL A   1      46.166  29.126  30.074  1.00  0.00     0.074 A 
ATOM     36  C   UNL A   1      46.926  30.249  30.588  1.00  0.00     0.031 C 
ATOM     37  C   UNL A   1      46.669  27.884  29.877  1.00  0.00     0.037 A 
BRANCH  24  38
ATOM     38  C   UNL A   1      42.559  23.829  27.652  1.00  0.00     0.058 A 
ATOM     39  C   UNL A   1      42.375  22.751  28.532  1.00  0.00     0.135 A 
ATOM     40  C   UNL A   1      42.537  23.571  26.274  1.00  0.00     0.135 A 
ATOM     41  F   UNL A   1      42.420  22.944  29.859  1.00  0.00    -0.206 F 
ATOM     42  C   UNL A   1      42.214  21.454  28.057  1.00  0.00     0.059 A 
ATOM     43  C   UNL A   1      42.358  22.286  25.777  1.00  0.00     0.059 A 
ATOM     44  F   UNL A   1      42.723  24.570  25.396  1.00  0.00    -0.206 F 
ATOM     45  C   UNL A   1      42.218  21.231  26.678  1.00  0.00     0.060 A 
BRANCH  45  46
ATOM     46  S   UNL A   1      42.062  19.538  26.077  1.00  0.00     0.124 S 
ATOM     47  O   UNL A   1      42.554  18.777  27.222  1.00  0.00    -0.237 OA
ATOM     48  O   UNL A   1      40.631  19.431  25.813  1.00  0.00    -0.237 OA
ATOM     49  O   UNL A   1      42.918  19.515  24.895  1.00  0.00    -0.744 OA
ENDBRANCH  45  46
ENDBRANCH  24  38
BRANCH  25  50
ATOM     50  C   UNL A   1      43.888  33.183  30.783  1.00  0.00     0.058 A 
ATOM     51  C   UNL A   1      44.123  34.164  29.806  1.00  0.00     0.135 A 
ATOM     52  C   UNL A   1      43.840  33.609  32.122  1.00  0.00     0.135 A 
ATOM     53  F   UNL A   1      44.198  33.818  28.511  1.00  0.00    -0.206 F 
ATOM     54  C   UNL A   1      44.297  35.506  30.139  1.00  0.00     0.059 A 
ATOM     55  C   UNL A   1      43.972  34.949  32.475  1.00  0.00     0.059 A 
ATOM     56  F   UNL A   1      43.625  32.719  33.103  1.00  0.00    -0.206 F 
ATOM     57  C   UNL A   1      44.209  35.890  31.477  1.00  0.00     0.060 A 
BRANCH  57  58
ATOM     58  S   UNL A   1      44.342  37.642  31.900  1.00  0.00     0.124 S 
ATOM     59  O   UNL A   1      45.776  37.782  32.126  1.00  0.00    -0.237 OA
ATOM     60  O   UNL A   1      43.818  38.291  30.701  1.00  0.00    -0.237 OA
ATOM     61  O   UNL A   1      43.498  37.763  33.084  1.00  0.00    -0.744 OA
ENDBRANCH  57  58
ENDBRANCH  25  50
BRANCH  37  62
ATOM     62  C   UNL A   1      48.102  27.664  30.269  1.00  0.00     0.058 A 
ATOM     63  C   UNL A   1      48.438  27.186  31.547  1.00  0.00     0.135 A 
ATOM     64  C   UNL A   1      49.143  27.894  29.358  1.00  0.00     0.135 A 
ATOM     65  F   UNL A   1      47.477  26.962  32.458  1.00  0.00    -0.206 F 
ATOM     66  C   UNL A   1      49.759  26.964  31.914  1.00  0.00     0.059 A 
ATOM     67  C   UNL A   1      50.471  27.655  29.697  1.00  0.00     0.059 A 
ATOM     68  F   UNL A   1      48.874  28.348  28.124  1.00  0.00    -0.206 F 
ATOM     69  C   UNL A   1      50.770  27.200  30.981  1.00  0.00     0.060 A 
BRANCH  69  70
ATOM     70  S   UNL A   1      52.480  26.874  31.458  1.00  0.00     0.124 S 
ATOM     71  O   UNL A   1      52.812  25.738  30.603  1.00  0.00    -0.237 OA
ATOM     72  O   UNL A   1      53.143  28.131  31.128  1.00  0.00    -0.237 OA
ATOM     73  O   UNL A   1      52.382  26.578  32.885  1.00  0.00    -0.744 OA
ENDBRANCH  69  70
ENDBRANCH  37  62
ENDBRANCH  11  12
ENDBRANCH   4   6
ENDBRANCH   3   4
ENDBRANCH   2   3
ENDBRANCH   1   2
BRANCH   1  74
ATOM     74  O   UNL A   1      35.134  34.178  30.158  1.00  0.00    -0.457 OA
BRANCH  74  75
ATOM     75  C   UNL A   1      34.964  33.657  31.409  1.00  0.00     0.357 C 
ATOM     76  O   UNL A   1      33.913  33.380  31.943  1.00  0.00    -0.244 OA
BRANCH  75  77
ATOM     77  C   UNL A   1      36.331  33.384  31.933  1.00  0.00     0.149 A 
ATOM     78  C   UNL A   1      36.599  32.127  32.458  1.00  0.00     0.051 A 
ATOM     79  N   UNL A   1      37.187  34.434  31.990  1.00  0.00    -0.249 NA
ATOM     80  C   UNL A   1      37.793  31.925  33.127  1.00  0.00     0.012 A 
ATOM     81  C   UNL A   1      38.360  34.207  32.612  1.00  0.00     0.113 A 
ATOM     82  C   UNL A   1      38.709  32.984  33.166  1.00  0.00     0.035 A 
BRANCH  80  83
ATOM     83  S   UNL A   1      38.210  30.377  33.910  1.00  0.00    -0.120 SA
BRANCH  83  84
ATOM     84  C   UNL A   1      39.801  30.653  34.775  1.00  0.00     0.132 C 
BRANCH  84  85
ATOM     85  C   UNL A   1      40.949  29.755  34.387  1.00  0.00     0.062 A 
ATOM     86  C   UNL A   1      41.974  30.159  33.550  1.00  0.00     0.091 A 
ATOM     87  N   UNL A   1      40.991  28.384  34.708  1.00  0.00    -0.240 NA
ATOM     88  S   UNL A   1      43.096  28.904  33.310  1.00  0.00    -0.122 S 
ATOM     89  C   UNL A   1      42.130  27.849  34.274  1.00  0.00     0.124 A 
BRANCH  89  90
ATOM     90  C   UNL A   1      42.581  26.425  34.562  1.00  0.00     0.021 A 
ATOM     91  C   UNL A   1      43.827  25.830  34.183  1.00  0.00     0.023 A 
ATOM     92  C   UNL A   1      41.792  25.509  35.232  1.00  0.00     0.076 A 
ATOM     93  C   UNL A   1      43.898  24.490  34.501  1.00  0.00     0.065 A 
ATOM     94  S   UNL A   1      42.510  23.959  35.342  1.00  0.00    -0.152 S 
ENDBRANCH  89  90
ENDBRANCH  84  85
ENDBRANCH  83  84
ENDBRANCH  80  83
ENDBRANCH  75  77
ENDBRANCH  74  75
ENDBRANCH   1  74
TORSDOF 18
ENDMDL
MODEL 3
REMARK VINA RESULT:     -10.6      2.761      4.984
REMARK SMILES O=C(OCCOC(=O)c1cc(SCc2csc(-c3ccsc3)n2)ccn1)c1ccc(-c2c3nc(c(-c4c(F)cc(S(=O)(=O)[O-])cc4F)c4ccc([nH]4)c(-c4c(F)cc(S(=O)(=O)[O-])cc4F)c4nc(c(-c5c(F)cc(S(=O)(=O)[O-])cc5F)c5ccc2[nH]5)C=C4)C=C3)cc1
REMARK SMILES IDX 5 1 4 2 3 3 2 4 1 5 27 6 28 7 92 8 29 9 91 10 30 11 31 12
REMARK SMILES IDX 32 13 85 14 33 15 90 16 84 17 86 18 34 19 89 20 83 21 82 22
REMARK SMILES IDX 35 24 69 25 48 26 68 27 49 28 52 29 67 30 87 31 50 32 51 33
REMARK SMILES IDX 66 35 88 36 53 37 36 38 37 39 46 40 38 41 39 42 45 43 47 44
REMARK SMILES IDX 40 45 41 46 42 47 43 48 44 49 70 50 71 51 80 52 72 53 73 54
REMARK SMILES IDX 79 55 81 56 74 57 75 58 76 59 77 60 78 61 54 62 55 63 64 64
REMARK SMILES IDX 56 65 57 66 63 67 65 68 58 69 59 70 60 71 61 72 62 73 6 74
REMARK SMILES IDX 7 75 8 76 9 77 10 78 26 79 11 80 25 81 24 82 12 83 13 84
REMARK SMILES IDX 14 85 15 86 23 87 16 88 17 89 18 90 19 91 22 92 20 93 21 94
REMARK H PARENT 86 23 52 34
REMARK Flexibility Score: inf
ROOT
ATOM      1  C   UNL A   1      37.628  23.150  25.746  1.00  0.00     0.275 C 
ENDROOT
BRANCH   1   2
ATOM      2  C   UNL A   1      38.949  22.777  26.431  1.00  0.00     0.275 C 
BRANCH   2   3
ATOM      3  O   UNL A   1      39.961  23.777  26.173  1.00  0.00    -0.458 OA
BRANCH   3   4
ATOM      4  C   UNL A   1      40.949  24.264  26.965  1.00  0.00     0.338 C 
ATOM      5  O   UNL A   1      42.019  23.655  26.992  1.00  0.00    -0.246 OA
BRANCH   4   6
ATOM      6  C   UNL A   1      40.819  25.482  27.836  1.00  0.00     0.060 A 
ATOM      7  C   UNL A   1      41.726  26.528  27.887  1.00  0.00     0.016 A 
ATOM      8  C   UNL A   1      39.662  25.614  28.634  1.00  0.00     0.016 A 
ATOM      9  C   UNL A   1      41.534  27.604  28.757  1.00  0.00     0.010 A 
ATOM     10  C   UNL A   1      39.470  26.708  29.509  1.00  0.00     0.010 A 
ATOM     11  C   UNL A   1      40.447  27.696  29.625  1.00  0.00    -0.014 A 
BRANCH  11  12
ATOM     12  C   UNL A   1      40.485  28.767  30.676  1.00  0.00     0.031 A 
ATOM     13  C   UNL A   1      39.438  29.840  30.704  1.00  0.00     0.074 A 
ATOM     14  C   UNL A   1      41.320  28.678  31.734  1.00  0.00     0.049 A 
ATOM     15  N   UNL A   1      39.215  30.737  31.632  1.00  0.00    -0.248 NA
ATOM     16  C   UNL A   1      38.525  29.917  29.557  1.00  0.00     0.031 C 
ATOM     17  C   UNL A   1      42.359  27.673  31.850  1.00  0.00     0.029 A 
ATOM     18  N   UNL A   1      41.411  29.373  32.920  1.00  0.00    -0.354 N 
ATOM     19  C   UNL A   1      38.147  31.493  31.175  1.00  0.00     0.074 A 
ATOM     20  C   UNL A   1      37.772  30.958  29.883  1.00  0.00     0.031 C 
ATOM     21  C   UNL A   1      42.924  27.745  33.061  1.00  0.00     0.029 A 
ATOM     22  C   UNL A   1      42.321  28.834  33.807  1.00  0.00     0.049 A 
ATOM     23  H   UNL A   1      40.877  30.176  33.116  1.00  0.00     0.167 HD
ATOM     24  C   UNL A   1      37.541  32.547  31.770  1.00  0.00     0.037 A 
ATOM     25  C   UNL A   1      42.651  29.157  35.076  1.00  0.00     0.037 A 
ATOM     26  C   UNL A   1      37.924  33.106  33.038  1.00  0.00     0.049 A 
ATOM     27  C   UNL A   1      41.997  30.356  35.692  1.00  0.00     0.074 A 
ATOM     28  C   UNL A   1      37.419  34.229  33.669  1.00  0.00     0.029 A 
ATOM     29  N   UNL A   1      38.915  32.597  33.866  1.00  0.00    -0.354 N 
ATOM     30  N   UNL A   1      41.014  31.082  35.221  1.00  0.00    -0.248 NA
ATOM     31  C   UNL A   1      42.530  30.818  36.981  1.00  0.00     0.031 C 
ATOM     32  C   UNL A   1      38.139  34.430  34.852  1.00  0.00     0.029 A 
ATOM     33  C   UNL A   1      39.062  33.405  34.984  1.00  0.00     0.049 A 
ATOM     34  H   UNL A   1      39.435  31.782  33.687  1.00  0.00     0.167 HD
ATOM     35  C   UNL A   1      40.840  32.115  36.129  1.00  0.00     0.074 A 
ATOM     36  C   UNL A   1      41.771  31.881  37.216  1.00  0.00     0.031 C 
ATOM     37  C   UNL A   1      40.010  33.182  36.046  1.00  0.00     0.037 A 
BRANCH  24  38
ATOM     38  C   UNL A   1      36.455  33.213  30.982  1.00  0.00     0.058 A 
ATOM     39  C   UNL A   1      36.732  34.002  29.855  1.00  0.00     0.135 A 
ATOM     40  C   UNL A   1      35.122  33.105  31.404  1.00  0.00     0.135 A 
ATOM     41  F   UNL A   1      37.996  34.160  29.432  1.00  0.00    -0.206 F 
ATOM     42  C   UNL A   1      35.723  34.693  29.194  1.00  0.00     0.059 A 
ATOM     43  C   UNL A   1      34.095  33.771  30.747  1.00  0.00     0.059 A 
ATOM     44  F   UNL A   1      34.812  32.373  32.486  1.00  0.00    -0.206 F 
ATOM     45  C   UNL A   1      34.409  34.580  29.655  1.00  0.00     0.060 A 
BRANCH  45  46
ATOM     46  S   UNL A   1      33.117  35.523  28.822  1.00  0.00     0.124 S 
ATOM     47  O   UNL A   1      32.360  36.044  29.957  1.00  0.00    -0.237 OA
ATOM     48  O   UNL A   1      33.886  36.508  28.068  1.00  0.00    -0.237 OA
ATOM     49  O   UNL A   1      32.428  34.521  28.016  1.00  0.00    -0.744 OA
ENDBRANCH  45  46
ENDBRANCH  24  38
BRANCH  25  50
ATOM     50  C   UNL A   1      43.666  28.363  35.834  1.00  0.00     0.058 A 
ATOM     51  C   UNL A   1      43.279  27.324  36.696  1.00  0.00     0.135 A 
ATOM     52  C   UNL A   1      45.043  28.615  35.709  1.00  0.00     0.135 A 
ATOM     53  F   UNL A   1      41.978  27.046  36.872  1.00  0.00    -0.206 F 
ATOM     54  C   UNL A   1      44.214  26.565  37.398  1.00  0.00     0.059 A 
ATOM     55  C   UNL A   1      45.997  27.845  36.369  1.00  0.00     0.059 A 
ATOM     56  F   UNL A   1      45.476  29.598  34.906  1.00  0.00    -0.206 F 
ATOM     57  C   UNL A   1      45.573  26.827  37.219  1.00  0.00     0.060 A 
BRANCH  57  58
ATOM     58  S   UNL A   1      46.787  25.784  38.057  1.00  0.00     0.124 S 
ATOM     59  O   UNL A   1      46.078  25.433  39.282  1.00  0.00    -0.237 OA
ATOM     60  O   UNL A   1      46.979  24.700  37.097  1.00  0.00    -0.237 OA
ATOM     61  O   UNL A   1      47.934  26.672  38.219  1.00  0.00    -0.744 OA
ENDBRANCH  57  58
ENDBRANCH  25  50
BRANCH  37  62
ATOM     62  C   UNL A   1      40.110  34.206  37.140  1.00  0.00     0.058 A 
ATOM     63  C   UNL A   1      41.028  35.266  37.058  1.00  0.00     0.135 A 
ATOM     64  C   UNL A   1      39.266  34.151  38.258  1.00  0.00     0.135 A 
ATOM     65  F   UNL A   1      41.867  35.355  36.013  1.00  0.00    -0.206 F 
ATOM     66  C   UNL A   1      41.117  36.227  38.058  1.00  0.00     0.059 A 
ATOM     67  C   UNL A   1      39.321  35.117  39.259  1.00  0.00     0.059 A 
ATOM     68  F   UNL A   1      38.370  33.159  38.381  1.00  0.00    -0.206 F 
ATOM     69  C   UNL A   1      40.258  36.145  39.154  1.00  0.00     0.060 A 
BRANCH  69  70
ATOM     70  S   UNL A   1      40.359  37.418  40.429  1.00  0.00     0.124 S 
ATOM     71  O   UNL A   1      41.167  36.752  41.446  1.00  0.00    -0.237 OA
ATOM     72  O   UNL A   1      41.009  38.518  39.724  1.00  0.00    -0.237 OA
ATOM     73  O   UNL A   1      38.963  37.649  40.788  1.00  0.00    -0.744 OA
ENDBRANCH  69  70
ENDBRANCH  37  62
ENDBRANCH  11  12
ENDBRANCH   4   6
ENDBRANCH   3   4
ENDBRANCH   2   3
ENDBRANCH   1   2
BRANCH   1  74
ATOM     74  O   UNL A   1      37.252  22.156  24.787  1.00  0.00    -0.457 OA
BRANCH  74  75
ATOM     75  C   UNL A   1      36.380  22.551  23.812  1.00  0.00     0.357 C 
ATOM     76  O   UNL A   1      36.653  23.137  22.788  1.00  0.00    -0.244 OA
BRANCH  75  77
ATOM     77  C   UNL A   1      35.049  22.006  24.201  1.00  0.00     0.149 A 
ATOM     78  C   UNL A   1      33.913  22.717  23.843  1.00  0.00     0.051 A 
ATOM     79  N   UNL A   1      35.046  20.914  25.005  1.00  0.00    -0.249 NA
ATOM     80  C   UNL A   1      32.692  22.332  24.368  1.00  0.00     0.012 A 
ATOM     81  C   UNL A   1      33.844  20.532  25.477  1.00  0.00     0.113 A 
ATOM     82  C   UNL A   1      32.658  21.186  25.173  1.00  0.00     0.035 A 
BRANCH  80  83
ATOM     83  S   UNL A   1      31.179  23.219  24.044  1.00  0.00    -0.120 SA
BRANCH  83  84
ATOM     84  C   UNL A   1      31.207  24.695  25.129  1.00  0.00     0.132 C 
BRANCH  84  85
ATOM     85  C   UNL A   1      31.292  26.037  24.447  1.00  0.00     0.062 A 
ATOM     86  C   UNL A   1      32.488  26.697  24.227  1.00  0.00     0.091 A 
ATOM     87  N   UNL A   1      30.157  26.807  24.124  1.00  0.00    -0.240 NA
ATOM     88  S   UNL A   1      32.229  28.187  23.449  1.00  0.00    -0.122 S 
ATOM     89  C   UNL A   1      30.525  27.923  23.501  1.00  0.00     0.124 A 
BRANCH  89  90
ATOM     90  C   UNL A   1      29.563  28.927  22.885  1.00  0.00     0.021 A 
ATOM     91  C   UNL A   1      28.153  29.012  23.116  1.00  0.00     0.023 A 
ATOM     92  C   UNL A   1      29.963  29.893  21.980  1.00  0.00     0.076 A 
ATOM     93  C   UNL A   1      27.539  29.966  22.330  1.00  0.00     0.065 A 
ATOM     94  S   UNL A   1      28.663  30.832  21.381  1.00  0.00    -0.152 S 
ENDBRANCH  89  90
ENDBRANCH  84  85
ENDBRANCH  83  84
ENDBRANCH  80  83
ENDBRANCH  75  77
ENDBRANCH  74  75
ENDBRANCH   1  74
TORSDOF 18
ENDMDL
