MODEL 1
REMARK VINA RESULT:     -11.9      0.000      0.000
REMARK SMILES CN1C(=O)/C(=C/c2ccc(OCC(=O)OCCOC(=O)c3ccc(-c4c5nc(c(-c6c(F)cc(S(=O)(=O)[O-])cc6F)c6ccc([nH]6)c(-c6c(F)cc(S(=O)(=O)[O-])cc6F)c6nc(c(-c7c(F)cc(S(=O)(=O)[O-])cc7F)c7ccc4[nH]7)C=C6)C=C5)cc3)c(Br)c2)C(=O)NC1=S
REMARK SMILES IDX 16 1 15 2 13 3 14 4 12 5 11 6 10 7 7 8 8 9 89 10 9 11 87 12
REMARK SMILES IDX 88 13 6 14 1 15 2 16 3 17 93 18 4 19 5 20 92 21 94 22 90 23
REMARK SMILES IDX 91 25 17 26 18 27 19 28 20 29 21 30 22 31 86 32 23 33 85 34
REMARK SMILES IDX 24 35 25 36 26 37 79 38 27 39 84 40 78 41 80 42 28 43 83 44
REMARK SMILES IDX 77 45 76 46 29 48 63 49 42 50 62 51 43 52 46 53 61 54 81 55
REMARK SMILES IDX 44 56 45 57 60 59 82 60 47 61 30 62 31 63 40 64 32 65 33 66
REMARK SMILES IDX 39 67 41 68 34 69 35 70 36 71 37 72 38 73 64 74 65 75 74 76
REMARK SMILES IDX 66 77 67 78 73 79 75 80 68 81 69 82 70 83 71 84 72 85 48 86
REMARK SMILES IDX 49 87 58 88 50 89 51 90 57 91 59 92 52 93 53 94 54 95 55 96
REMARK SMILES IDX 56 97
REMARK H PARENT 92 24 80 47 46 58
REMARK Flexibility Score: inf
ROOT
ATOM      1  C   UNL A   1      33.021  30.637  27.277  1.00  0.00     0.274 C 
ENDROOT
BRANCH   1   2
ATOM      2  O   UNL A   1      32.335  30.029  26.165  1.00  0.00    -0.460 OA
BRANCH   2   3
ATOM      3  C   UNL A   1      31.773  28.820  26.431  1.00  0.00     0.344 C 
ATOM      4  O   UNL A   1      31.532  28.393  27.557  1.00  0.00    -0.248 OA
BRANCH   3   5
ATOM      5  C   UNL A   1      31.548  27.974  25.181  1.00  0.00     0.352 C 
BRANCH   5   6
ATOM      6  O   UNL A   1      32.553  27.798  24.199  1.00  0.00    -0.481 OA
BRANCH   6   7
ATOM      7  C   UNL A   1      33.268  26.633  24.221  1.00  0.00     0.134 A 
ATOM      8  C   UNL A   1      34.659  24.216  24.661  1.00  0.00    -0.023 A 
ATOM      9  C   UNL A   1      34.476  25.115  25.708  1.00  0.00     0.012 A 
ATOM     10  C   UNL A   1      34.148  24.534  23.395  1.00  0.00     0.027 A 
ATOM     11  C   UNL A   1      33.792  26.315  25.484  1.00  0.00     0.048 A 
ATOM     12  C   UNL A   1      33.399  25.699  23.189  1.00  0.00     0.060 A 
ATOM     13  Br  UNL A   1      32.444  25.765  21.549  1.00  0.00    -0.047 Br
BRANCH   8  14
ATOM     14  C   UNL A   1      35.340  22.928  24.860  1.00  0.00     0.027 C 
ATOM     15  C   UNL A   1      35.513  18.128  24.464  1.00  0.00     0.156 C 
ATOM     16  N   UNL A   1      34.760  19.345  24.793  1.00  0.00    -0.288 N 
ATOM     17  C   UNL A   1      35.512  20.504  25.012  1.00  0.00     0.265 C 
ATOM     18  C   UNL A   1      33.372  19.298  24.867  1.00  0.00     0.182 C 
ATOM     19  O   UNL A   1      36.740  20.538  25.065  1.00  0.00    -0.268 OA
ATOM     20  C   UNL A   1      34.723  21.760  25.138  1.00  0.00     0.106 C 
ATOM     21  N   UNL A   1      32.732  20.457  25.204  1.00  0.00    -0.298 N 
ATOM     22  S   UNL A   1      32.373  17.979  24.622  1.00  0.00    -0.040 S 
ATOM     23  C   UNL A   1      33.284  21.673  25.456  1.00  0.00     0.263 C 
ATOM     24  H   UNL A   1      31.750  20.405  25.273  1.00  0.00     0.172 HD
ATOM     25  O   UNL A   1      32.616  22.584  25.932  1.00  0.00    -0.269 OA
ENDBRANCH   8  14
ENDBRANCH   6   7
ENDBRANCH   5   6
ENDBRANCH   3   5
ENDBRANCH   2   3
ENDBRANCH   1   2
BRANCH   1  26
ATOM     26  C   UNL A   1      34.533  30.474  27.152  1.00  0.00     0.275 C 
BRANCH  26  27
ATOM     27  O   UNL A   1      35.043  29.713  28.260  1.00  0.00    -0.458 OA
BRANCH  27  28
ATOM     28  C   UNL A   1      35.905  30.369  29.069  1.00  0.00     0.338 C 
ATOM     29  O   UNL A   1      35.660  31.332  29.777  1.00  0.00    -0.246 OA
BRANCH  28  30
ATOM     30  C   UNL A   1      37.259  29.794  28.945  1.00  0.00     0.060 A 
ATOM     31  C   UNL A   1      37.973  29.352  30.061  1.00  0.00     0.016 A 
ATOM     32  C   UNL A   1      37.856  29.778  27.683  1.00  0.00     0.016 A 
ATOM     33  C   UNL A   1      39.308  28.959  29.920  1.00  0.00     0.010 A 
ATOM     34  C   UNL A   1      39.164  29.314  27.535  1.00  0.00     0.010 A 
ATOM     35  C   UNL A   1      39.918  28.927  28.655  1.00  0.00    -0.014 A 
BRANCH  35  36
ATOM     36  C   UNL A   1      41.338  28.506  28.486  1.00  0.00     0.031 A 
ATOM     37  C   UNL A   1      42.454  29.512  28.617  1.00  0.00     0.074 A 
ATOM     38  C   UNL A   1      41.636  27.230  28.174  1.00  0.00     0.049 A 
ATOM     39  N   UNL A   1      43.723  29.382  28.326  1.00  0.00    -0.248 NA
ATOM     40  C   UNL A   1      42.092  30.843  29.133  1.00  0.00     0.031 C 
ATOM     41  C   UNL A   1      40.668  26.141  28.038  1.00  0.00     0.029 A 
ATOM     42  N   UNL A   1      42.845  26.633  27.909  1.00  0.00    -0.354 N 
ATOM     43  C   UNL A   1      44.300  30.625  28.560  1.00  0.00     0.074 A 
ATOM     44  C   UNL A   1      43.244  31.495  29.034  1.00  0.00     0.031 C 
ATOM     45  C   UNL A   1      41.321  25.006  27.746  1.00  0.00     0.029 A 
ATOM     46  C   UNL A   1      42.743  25.298  27.600  1.00  0.00     0.049 A 
ATOM     47  H   UNL A   1      43.703  27.116  27.938  1.00  0.00     0.167 HD
ATOM     48  C   UNL A   1      45.588  31.007  28.387  1.00  0.00     0.037 A 
ATOM     49  C   UNL A   1      43.678  24.409  27.209  1.00  0.00     0.037 A 
ATOM     50  C   UNL A   1      46.654  30.132  27.979  1.00  0.00     0.049 A 
ATOM     51  C   UNL A   1      45.101  24.855  27.032  1.00  0.00     0.074 A 
ATOM     52  C   UNL A   1      47.999  30.428  27.828  1.00  0.00     0.029 A 
ATOM     53  N   UNL A   1      46.503  28.790  27.667  1.00  0.00    -0.354 N 
ATOM     54  N   UNL A   1      45.620  26.044  27.223  1.00  0.00    -0.248 NA
ATOM     55  C   UNL A   1      46.061  23.845  26.565  1.00  0.00     0.031 C 
ATOM     56  C   UNL A   1      48.658  29.268  27.402  1.00  0.00     0.029 A 
ATOM     57  C   UNL A   1      47.727  28.246  27.314  1.00  0.00     0.049 A 
ATOM     58  H   UNL A   1      45.653  28.296  27.693  1.00  0.00     0.167 HD
ATOM     59  C   UNL A   1      46.969  25.923  26.908  1.00  0.00     0.074 A 
ATOM     60  C   UNL A   1      47.188  24.543  26.527  1.00  0.00     0.031 C 
ATOM     61  C   UNL A   1      47.936  26.873  26.932  1.00  0.00     0.037 A 
BRANCH  48  62
ATOM     62  C   UNL A   1      45.913  32.455  28.606  1.00  0.00     0.058 A 
ATOM     63  C   UNL A   1      46.308  32.946  29.858  1.00  0.00     0.135 A 
ATOM     64  C   UNL A   1      45.851  33.359  27.533  1.00  0.00     0.135 A 
ATOM     65  F   UNL A   1      46.372  32.122  30.916  1.00  0.00    -0.206 F 
ATOM     66  C   UNL A   1      46.593  34.295  30.049  1.00  0.00     0.059 A 
ATOM     67  C   UNL A   1      46.135  34.709  27.700  1.00  0.00     0.059 A 
ATOM     68  F   UNL A   1      45.491  32.933  26.312  1.00  0.00    -0.206 F 
ATOM     69  C   UNL A   1      46.476  35.172  28.970  1.00  0.00     0.060 A 
BRANCH  69  70
ATOM     70  S   UNL A   1      46.737  36.940  29.232  1.00  0.00     0.124 S 
ATOM     71  O   UNL A   1      47.668  37.252  28.150  1.00  0.00    -0.237 OA
ATOM     72  O   UNL A   1      45.395  37.494  29.096  1.00  0.00    -0.237 OA
ATOM     73  O   UNL A   1      47.299  36.996  30.578  1.00  0.00    -0.744 OA
ENDBRANCH  69  70
ENDBRANCH  48  62
BRANCH  49  74
ATOM     74  C   UNL A   1      43.279  23.003  26.947  1.00  0.00     0.058 A 
ATOM     75  C   UNL A   1      43.286  22.489  25.644  1.00  0.00     0.135 A 
ATOM     76  C   UNL A   1      42.947  22.132  27.997  1.00  0.00     0.135 A 
ATOM     77  F   UNL A   1      43.584  23.289  24.609  1.00  0.00    -0.206 F 
ATOM     78  C   UNL A   1      42.991  21.155  25.387  1.00  0.00     0.059 A 
ATOM     79  C   UNL A   1      42.669  20.789  27.769  1.00  0.00     0.059 A 
ATOM     80  F   UNL A   1      42.938  22.577  29.263  1.00  0.00    -0.206 F 
ATOM     81  C   UNL A   1      42.693  20.310  26.460  1.00  0.00     0.060 A 
BRANCH  81  82
ATOM     82  S   UNL A   1      42.415  18.555  26.132  1.00  0.00     0.124 S 
ATOM     83  O   UNL A   1      42.739  17.962  27.423  1.00  0.00    -0.237 OA
ATOM     84  O   UNL A   1      41.004  18.531  25.754  1.00  0.00    -0.237 OA
ATOM     85  O   UNL A   1      43.349  18.267  25.049  1.00  0.00    -0.744 OA
ENDBRANCH  81  82
ENDBRANCH  49  74
BRANCH  61  86
ATOM     86  C   UNL A   1      49.325  26.451  26.551  1.00  0.00     0.058 A 
ATOM     87  C   UNL A   1      49.818  26.646  25.252  1.00  0.00     0.135 A 
ATOM     88  C   UNL A   1      50.184  25.883  27.504  1.00  0.00     0.135 A 
ATOM     89  F   UNL A   1      49.032  27.180  24.303  1.00  0.00    -0.206 F 
ATOM     90  C   UNL A   1      51.113  26.272  24.904  1.00  0.00     0.059 A 
ATOM     91  C   UNL A   1      51.489  25.519  27.183  1.00  0.00     0.059 A 
ATOM     92  F   UNL A   1      49.762  25.685  28.763  1.00  0.00    -0.206 F 
ATOM     93  C   UNL A   1      51.940  25.707  25.877  1.00  0.00     0.060 A 
BRANCH  93  94
ATOM     94  S   UNL A   1      53.626  25.247  25.424  1.00  0.00     0.124 S 
ATOM     95  O   UNL A   1      53.770  25.901  24.127  1.00  0.00    -0.237 OA
ATOM     96  O   UNL A   1      54.413  25.818  26.512  1.00  0.00    -0.237 OA
ATOM     97  O   UNL A   1      53.581  23.788  25.391  1.00  0.00    -0.744 OA
ENDBRANCH  93  94
ENDBRANCH  61  86
ENDBRANCH  35  36
ENDBRANCH  28  30
ENDBRANCH  27  28
ENDBRANCH  26  27
ENDBRANCH   1  26
TORSDOF 17
ENDMDL
MODEL 2
REMARK VINA RESULT:     -11.8      6.820     11.779
REMARK SMILES CN1C(=O)/C(=C/c2ccc(OCC(=O)OCCOC(=O)c3ccc(-c4c5nc(c(-c6c(F)cc(S(=O)(=O)[O-])cc6F)c6ccc([nH]6)c(-c6c(F)cc(S(=O)(=O)[O-])cc6F)c6nc(c(-c7c(F)cc(S(=O)(=O)[O-])cc7F)c7ccc4[nH]7)C=C6)C=C5)cc3)c(Br)c2)C(=O)NC1=S
REMARK SMILES IDX 16 1 15 2 13 3 14 4 12 5 11 6 10 7 7 8 8 9 89 10 9 11 87 12
REMARK SMILES IDX 88 13 6 14 1 15 2 16 3 17 93 18 4 19 5 20 92 21 94 22 90 23
REMARK SMILES IDX 91 25 17 26 18 27 19 28 20 29 21 30 22 31 86 32 23 33 85 34
REMARK SMILES IDX 24 35 25 36 26 37 79 38 27 39 84 40 78 41 80 42 28 43 83 44
REMARK SMILES IDX 77 45 76 46 29 48 63 49 42 50 62 51 43 52 46 53 61 54 81 55
REMARK SMILES IDX 44 56 45 57 60 59 82 60 47 61 30 62 31 63 40 64 32 65 33 66
REMARK SMILES IDX 39 67 41 68 34 69 35 70 36 71 37 72 38 73 64 74 65 75 74 76
REMARK SMILES IDX 66 77 67 78 73 79 75 80 68 81 69 82 70 83 71 84 72 85 48 86
REMARK SMILES IDX 49 87 58 88 50 89 51 90 57 91 59 92 52 93 53 94 54 95 55 96
REMARK SMILES IDX 56 97
REMARK H PARENT 92 24 80 47 46 58
REMARK Flexibility Score: inf
ROOT
ATOM      1  C   UNL A   1      43.994  23.002  25.073  1.00  0.00     0.274 C 
ENDROOT
BRANCH   1   2
ATOM      2  O   UNL A   1      42.645  22.532  24.888  1.00  0.00    -0.460 OA
BRANCH   2   3
ATOM      3  C   UNL A   1      42.250  21.569  25.763  1.00  0.00     0.344 C 
ATOM      4  O   UNL A   1      42.553  20.382  25.683  1.00  0.00    -0.248 OA
BRANCH   3   5
ATOM      5  C   UNL A   1      41.293  22.087  26.833  1.00  0.00     0.352 C 
BRANCH   5   6
ATOM      6  O   UNL A   1      39.983  21.573  26.986  1.00  0.00    -0.481 OA
BRANCH   6   7
ATOM      7  C   UNL A   1      39.013  22.037  26.141  1.00  0.00     0.134 A 
ATOM      8  C   UNL A   1      36.865  22.618  24.404  1.00  0.00    -0.023 A 
ATOM      9  C   UNL A   1      37.357  21.318  24.493  1.00  0.00     0.012 A 
ATOM     10  C   UNL A   1      37.454  23.623  25.182  1.00  0.00     0.027 A 
ATOM     11  C   UNL A   1      38.427  21.036  25.350  1.00  0.00     0.048 A 
ATOM     12  C   UNL A   1      38.474  23.326  26.095  1.00  0.00     0.060 A 
ATOM     13  Br  UNL A   1      38.862  24.701  27.347  1.00  0.00    -0.047 Br
BRANCH   8  14
ATOM     14  C   UNL A   1      35.721  22.951  23.543  1.00  0.00     0.027 C 
ATOM     15  C   UNL A   1      31.492  25.137  22.785  1.00  0.00     0.156 C 
ATOM     16  N   UNL A   1      32.367  24.338  23.653  1.00  0.00    -0.288 N 
ATOM     17  C   UNL A   1      33.470  23.733  23.041  1.00  0.00     0.265 C 
ATOM     18  C   UNL A   1      32.075  24.222  25.009  1.00  0.00     0.182 C 
ATOM     19  O   UNL A   1      33.678  23.729  21.829  1.00  0.00    -0.268 OA
ATOM     20  C   UNL A   1      34.449  23.106  23.970  1.00  0.00     0.106 C 
ATOM     21  N   UNL A   1      32.912  23.443  25.756  1.00  0.00    -0.298 N 
ATOM     22  S   UNL A   1      30.796  24.899  25.846  1.00  0.00    -0.040 S 
ATOM     23  C   UNL A   1      34.023  22.777  25.345  1.00  0.00     0.263 C 
ATOM     24  H   UNL A   1      32.682  23.353  26.710  1.00  0.00     0.172 HD
ATOM     25  O   UNL A   1      34.577  21.962  26.073  1.00  0.00    -0.269 OA
ENDBRANCH   8  14
ENDBRANCH   6   7
ENDBRANCH   5   6
ENDBRANCH   3   5
ENDBRANCH   2   3
ENDBRANCH   1   2
BRANCH   1  26
ATOM     26  C   UNL A   1      44.050  24.526  25.115  1.00  0.00     0.275 C 
BRANCH  26  27
ATOM     27  O   UNL A   1      42.894  25.045  25.794  1.00  0.00    -0.458 OA
BRANCH  27  28
ATOM     28  C   UNL A   1      42.700  26.379  25.677  1.00  0.00     0.338 C 
ATOM     29  O   UNL A   1      42.764  27.044  24.656  1.00  0.00    -0.246 OA
BRANCH  28  30
ATOM     30  C   UNL A   1      42.450  26.976  27.004  1.00  0.00     0.060 A 
ATOM     31  C   UNL A   1      41.876  26.240  28.042  1.00  0.00     0.016 A 
ATOM     32  C   UNL A   1      42.722  28.334  27.178  1.00  0.00     0.016 A 
ATOM     33  C   UNL A   1      41.514  26.882  29.231  1.00  0.00     0.010 A 
ATOM     34  C   UNL A   1      42.427  28.955  28.393  1.00  0.00     0.010 A 
ATOM     35  C   UNL A   1      41.791  28.245  29.425  1.00  0.00    -0.014 A 
BRANCH  35  36
ATOM     36  C   UNL A   1      41.416  28.944  30.687  1.00  0.00     0.031 A 
ATOM     37  C   UNL A   1      40.204  29.840  30.733  1.00  0.00     0.074 A 
ATOM     38  C   UNL A   1      42.180  28.814  31.789  1.00  0.00     0.049 A 
ATOM     39  N   UNL A   1      39.824  30.670  31.671  1.00  0.00    -0.248 NA
ATOM     40  C   UNL A   1      39.307  29.806  29.565  1.00  0.00     0.031 C 
ATOM     41  C   UNL A   1      43.366  27.966  31.904  1.00  0.00     0.029 A 
ATOM     42  N   UNL A   1      42.073  29.403  33.026  1.00  0.00    -0.354 N 
ATOM     43  C   UNL A   1      38.686  31.303  31.185  1.00  0.00     0.074 A 
ATOM     44  C   UNL A   1      38.426  30.749  29.872  1.00  0.00     0.031 C 
ATOM     45  C   UNL A   1      43.859  28.064  33.148  1.00  0.00     0.029 A 
ATOM     46  C   UNL A   1      43.071  29.037  33.897  1.00  0.00     0.049 A 
ATOM     47  H   UNL A   1      41.350  30.027  33.266  1.00  0.00     0.167 HD
ATOM     48  C   UNL A   1      37.933  32.263  31.775  1.00  0.00     0.037 A 
ATOM     49  C   UNL A   1      43.348  29.458  35.148  1.00  0.00     0.037 A 
ATOM     50  C   UNL A   1      38.148  32.771  33.103  1.00  0.00     0.049 A 
ATOM     51  C   UNL A   1      42.495  30.518  35.782  1.00  0.00     0.074 A 
ATOM     52  C   UNL A   1      37.400  33.709  33.796  1.00  0.00     0.029 A 
ATOM     53  N   UNL A   1      39.176  32.378  33.945  1.00  0.00    -0.354 N 
ATOM     54  N   UNL A   1      41.444  31.130  35.293  1.00  0.00    -0.248 NA
ATOM     55  C   UNL A   1      42.877  30.958  37.131  1.00  0.00     0.031 C 
ATOM     56  C   UNL A   1      37.991  33.901  35.051  1.00  0.00     0.029 A 
ATOM     57  C   UNL A   1      39.090  33.063  35.147  1.00  0.00     0.049 A 
ATOM     58  H   UNL A   1      39.865  31.712  33.724  1.00  0.00     0.167 HD
ATOM     59  C   UNL A   1      41.034  32.023  36.277  1.00  0.00     0.074 A 
ATOM     60  C   UNL A   1      41.942  31.862  37.394  1.00  0.00     0.031 C 
ATOM     61  C   UNL A   1      40.000  32.899  36.252  1.00  0.00     0.037 A 
BRANCH  48  62
ATOM     62  C   UNL A   1      36.819  32.859  30.967  1.00  0.00     0.058 A 
ATOM     63  C   UNL A   1      37.055  33.813  29.967  1.00  0.00     0.135 A 
ATOM     64  C   UNL A   1      35.494  32.446  31.185  1.00  0.00     0.135 A 
ATOM     65  F   UNL A   1      38.302  34.247  29.730  1.00  0.00    -0.206 F 
ATOM     66  C   UNL A   1      36.008  34.367  29.235  1.00  0.00     0.059 A 
ATOM     67  C   UNL A   1      34.435  32.984  30.463  1.00  0.00     0.059 A 
ATOM     68  F   UNL A   1      35.220  31.525  32.122  1.00  0.00    -0.206 F 
ATOM     69  C   UNL A   1      34.700  33.966  29.511  1.00  0.00     0.060 A 
BRANCH  69  70
ATOM     70  S   UNL A   1      33.328  34.758  28.643  1.00  0.00     0.124 S 
ATOM     71  O   UNL A   1      32.464  35.129  29.761  1.00  0.00    -0.237 OA
ATOM     72  O   UNL A   1      33.976  35.863  27.945  1.00  0.00    -0.237 OA
ATOM     73  O   UNL A   1      32.820  33.693  27.784  1.00  0.00    -0.744 OA
ENDBRANCH  69  70
ENDBRANCH  48  62
BRANCH  49  74
ATOM     74  C   UNL A   1      44.505  28.872  35.871  1.00  0.00     0.058 A 
ATOM     75  C   UNL A   1      44.337  27.762  36.709  1.00  0.00     0.135 A 
ATOM     76  C   UNL A   1      45.805  29.370  35.690  1.00  0.00     0.135 A 
ATOM     77  F   UNL A   1      43.109  27.262  36.921  1.00  0.00    -0.206 F 
ATOM     78  C   UNL A   1      45.419  27.152  37.333  1.00  0.00     0.059 A 
ATOM     79  C   UNL A   1      46.906  28.765  36.286  1.00  0.00     0.059 A 
ATOM     80  F   UNL A   1      46.016  30.425  34.889  1.00  0.00    -0.206 F 
ATOM     81  C   UNL A   1      46.702  27.656  37.107  1.00  0.00     0.060 A 
BRANCH  81  82
ATOM     82  S   UNL A   1      48.115  26.796  37.835  1.00  0.00     0.124 S 
ATOM     83  O   UNL A   1      47.482  25.597  38.372  1.00  0.00    -0.237 OA
ATOM     84  O   UNL A   1      48.985  26.596  36.680  1.00  0.00    -0.237 OA
ATOM     85  O   UNL A   1      48.610  27.748  38.824  1.00  0.00    -0.744 OA
ENDBRANCH  81  82
ENDBRANCH  49  74
BRANCH  61  86
ATOM     86  C   UNL A   1      39.780  33.740  37.475  1.00  0.00     0.058 A 
ATOM     87  C   UNL A   1      38.924  33.325  38.506  1.00  0.00     0.135 A 
ATOM     88  C   UNL A   1      40.464  34.955  37.636  1.00  0.00     0.135 A 
ATOM     89  F   UNL A   1      38.243  32.173  38.395  1.00  0.00    -0.206 F 
ATOM     90  C   UNL A   1      38.736  34.097  39.648  1.00  0.00     0.059 A 
ATOM     91  C   UNL A   1      40.306  35.734  38.779  1.00  0.00     0.059 A 
ATOM     92  F   UNL A   1      41.303  35.392  36.683  1.00  0.00    -0.206 F 
ATOM     93  C   UNL A   1      39.430  35.301  39.775  1.00  0.00     0.060 A 
BRANCH  93  94
ATOM     94  S   UNL A   1      39.199  36.284  41.271  1.00  0.00     0.124 S 
ATOM     95  O   UNL A   1      40.459  36.056  41.970  1.00  0.00    -0.237 OA
ATOM     96  O   UNL A   1      39.004  37.629  40.739  1.00  0.00    -0.237 OA
ATOM     97  O   UNL A   1      38.020  35.686  41.890  1.00  0.00    -0.744 OA
ENDBRANCH  93  94
ENDBRANCH  61  86
ENDBRANCH  35  36
ENDBRANCH  28  30
ENDBRANCH  27  28
ENDBRANCH  26  27
ENDBRANCH   1  26
TORSDOF 17
ENDMDL
MODEL 3
REMARK VINA RESULT:     -11.8      5.428     12.380
REMARK SMILES CN1C(=O)/C(=C/c2ccc(OCC(=O)OCCOC(=O)c3ccc(-c4c5nc(c(-c6c(F)cc(S(=O)(=O)[O-])cc6F)c6ccc([nH]6)c(-c6c(F)cc(S(=O)(=O)[O-])cc6F)c6nc(c(-c7c(F)cc(S(=O)(=O)[O-])cc7F)c7ccc4[nH]7)C=C6)C=C5)cc3)c(Br)c2)C(=O)NC1=S
REMARK SMILES IDX 16 1 15 2 13 3 14 4 12 5 11 6 10 7 7 8 8 9 89 10 9 11 87 12
REMARK SMILES IDX 88 13 6 14 1 15 2 16 3 17 93 18 4 19 5 20 92 21 94 22 90 23
REMARK SMILES IDX 91 25 17 26 18 27 19 28 20 29 21 30 22 31 86 32 23 33 85 34
REMARK SMILES IDX 24 35 25 36 26 37 79 38 27 39 84 40 78 41 80 42 28 43 83 44
REMARK SMILES IDX 77 45 76 46 29 48 63 49 42 50 62 51 43 52 46 53 61 54 81 55
REMARK SMILES IDX 44 56 45 57 60 59 82 60 47 61 30 62 31 63 40 64 32 65 33 66
REMARK SMILES IDX 39 67 41 68 34 69 35 70 36 71 37 72 38 73 64 74 65 75 74 76
REMARK SMILES IDX 66 77 67 78 73 79 75 80 68 81 69 82 70 83 71 84 72 85 48 86
REMARK SMILES IDX 49 87 58 88 50 89 51 90 57 91 59 92 52 93 53 94 54 95 55 96
REMARK SMILES IDX 56 97
REMARK H PARENT 92 24 80 47 46 58
REMARK Flexibility Score: inf
ROOT
ATOM      1  C   UNL A   1      42.414  21.680  26.455  1.00  0.00     0.274 C 
ENDROOT
BRANCH   1   2
ATOM      2  O   UNL A   1      43.087  22.939  26.258  1.00  0.00    -0.460 OA
BRANCH   2   3
ATOM      3  C   UNL A   1      43.780  23.040  25.092  1.00  0.00     0.344 C 
ATOM      4  O   UNL A   1      43.374  22.652  24.000  1.00  0.00    -0.248 OA
BRANCH   3   5
ATOM      5  C   UNL A   1      45.184  23.608  25.276  1.00  0.00     0.352 C 
BRANCH   5   6
ATOM      6  O   UNL A   1      45.592  24.821  24.671  1.00  0.00    -0.481 OA
BRANCH   6   7
ATOM      7  C   UNL A   1      45.592  25.950  25.443  1.00  0.00     0.134 A 
ATOM      8  C   UNL A   1      45.190  28.237  27.048  1.00  0.00    -0.023 A 
ATOM      9  C   UNL A   1      44.172  27.785  26.212  1.00  0.00     0.012 A 
ATOM     10  C   UNL A   1      46.408  27.545  27.073  1.00  0.00     0.027 A 
ATOM     11  C   UNL A   1      44.378  26.655  25.413  1.00  0.00     0.048 A 
ATOM     12  C   UNL A   1      46.587  26.371  26.330  1.00  0.00     0.060 A 
ATOM     13  Br  UNL A   1      48.118  25.348  26.796  1.00  0.00    -0.047 Br
BRANCH   8  14
ATOM     14  C   UNL A   1      45.004  29.399  27.930  1.00  0.00     0.027 C 
ATOM     15  C   UNL A   1      43.473  33.897  28.737  1.00  0.00     0.156 C 
ATOM     16  N   UNL A   1      44.161  32.930  27.872  1.00  0.00    -0.288 N 
ATOM     17  C   UNL A   1      44.561  31.731  28.471  1.00  0.00     0.265 C 
ATOM     18  C   UNL A   1      44.374  33.232  26.531  1.00  0.00     0.182 C 
ATOM     19  O   UNL A   1      44.485  31.496  29.677  1.00  0.00    -0.268 OA
ATOM     20  C   UNL A   1      45.066  30.689  27.536  1.00  0.00     0.106 C 
ATOM     21  N   UNL A   1      45.043  32.303  25.787  1.00  0.00    -0.298 N 
ATOM     22  S   UNL A   1      43.938  34.622  25.709  1.00  0.00    -0.040 S 
ATOM     23  C   UNL A   1      45.512  31.091  26.188  1.00  0.00     0.263 C 
ATOM     24  H   UNL A   1      45.206  32.539  24.844  1.00  0.00     0.172 HD
ATOM     25  O   UNL A   1      46.259  30.435  25.473  1.00  0.00    -0.269 OA
ENDBRANCH   8  14
ENDBRANCH   6   7
ENDBRANCH   5   6
ENDBRANCH   3   5
ENDBRANCH   2   3
ENDBRANCH   1   2
BRANCH   1  26
ATOM     26  C   UNL A   1      40.971  21.887  26.904  1.00  0.00     0.275 C 
BRANCH  26  27
ATOM     27  O   UNL A   1      40.181  22.396  25.816  1.00  0.00    -0.458 OA
BRANCH  27  28
ATOM     28  C   UNL A   1      39.052  23.051  26.172  1.00  0.00     0.338 C 
ATOM     29  O   UNL A   1      37.903  22.711  25.941  1.00  0.00    -0.246 OA
BRANCH  28  30
ATOM     30  C   UNL A   1      39.389  24.317  26.851  1.00  0.00     0.060 A 
ATOM     31  C   UNL A   1      40.191  25.285  26.243  1.00  0.00     0.016 A 
ATOM     32  C   UNL A   1      38.957  24.495  28.167  1.00  0.00     0.016 A 
ATOM     33  C   UNL A   1      40.613  26.398  26.977  1.00  0.00     0.010 A 
ATOM     34  C   UNL A   1      39.319  25.644  28.871  1.00  0.00     0.010 A 
ATOM     35  C   UNL A   1      40.178  26.596  28.297  1.00  0.00    -0.014 A 
BRANCH  35  36
ATOM     36  C   UNL A   1      40.615  27.779  29.092  1.00  0.00     0.031 A 
ATOM     37  C   UNL A   1      41.955  27.781  29.784  1.00  0.00     0.074 A 
ATOM     38  C   UNL A   1      39.799  28.841  29.235  1.00  0.00     0.049 A 
ATOM     39  N   UNL A   1      42.430  28.627  30.662  1.00  0.00    -0.248 NA
ATOM     40  C   UNL A   1      42.878  26.683  29.451  1.00  0.00     0.031 C 
ATOM     41  C   UNL A   1      38.486  28.993  28.608  1.00  0.00     0.029 A 
ATOM     42  N   UNL A   1      39.955  29.997  29.961  1.00  0.00    -0.354 N 
ATOM     43  C   UNL A   1      43.675  28.133  31.036  1.00  0.00     0.074 A 
ATOM     44  C   UNL A   1      43.890  26.919  30.276  1.00  0.00     0.031 C 
ATOM     45  C   UNL A   1      37.969  30.183  28.950  1.00  0.00     0.029 A 
ATOM     46  C   UNL A   1      38.878  30.848  29.879  1.00  0.00     0.049 A 
ATOM     47  H   UNL A   1      40.761  30.198  30.490  1.00  0.00     0.167 HD
ATOM     48  C   UNL A   1      44.552  28.639  31.936  1.00  0.00     0.037 A 
ATOM     49  C   UNL A   1      38.627  32.016  30.503  1.00  0.00     0.037 A 
ATOM     50  C   UNL A   1      44.374  29.877  32.646  1.00  0.00     0.049 A 
ATOM     51  C   UNL A   1      39.618  32.560  31.490  1.00  0.00     0.074 A 
ATOM     52  C   UNL A   1      45.240  30.488  33.539  1.00  0.00     0.029 A 
ATOM     53  N   UNL A   1      43.265  30.700  32.538  1.00  0.00    -0.354 N 
ATOM     54  N   UNL A   1      40.773  32.059  31.857  1.00  0.00    -0.248 NA
ATOM     55  C   UNL A   1      39.263  33.817  32.164  1.00  0.00     0.031 C 
ATOM     56  C   UNL A   1      44.641  31.671  33.990  1.00  0.00     0.029 A 
ATOM     57  C   UNL A   1      43.416  31.808  33.356  1.00  0.00     0.049 A 
ATOM     58  H   UNL A   1      42.484  30.525  31.965  1.00  0.00     0.167 HD
ATOM     59  C   UNL A   1      41.286  32.944  32.799  1.00  0.00     0.074 A 
ATOM     60  C   UNL A   1      40.323  34.017  32.935  1.00  0.00     0.031 C 
ATOM     61  C   UNL A   1      42.451  32.869  33.489  1.00  0.00     0.037 A 
BRANCH  48  62
ATOM     62  C   UNL A   1      45.779  27.829  32.233  1.00  0.00     0.058 A 
ATOM     63  C   UNL A   1      47.006  28.080  31.603  1.00  0.00     0.135 A 
ATOM     64  C   UNL A   1      45.727  26.800  33.188  1.00  0.00     0.135 A 
ATOM     65  F   UNL A   1      47.102  29.047  30.676  1.00  0.00    -0.206 F 
ATOM     66  C   UNL A   1      48.132  27.311  31.880  1.00  0.00     0.059 A 
ATOM     67  C   UNL A   1      46.840  26.022  33.481  1.00  0.00     0.059 A 
ATOM     68  F   UNL A   1      44.578  26.530  33.828  1.00  0.00    -0.206 F 
ATOM     69  C   UNL A   1      48.031  26.266  32.799  1.00  0.00     0.060 A 
BRANCH  69  70
ATOM     70  S   UNL A   1      49.457  25.195  33.084  1.00  0.00     0.124 S 
ATOM     71  O   UNL A   1      50.376  26.117  33.745  1.00  0.00    -0.237 OA
ATOM     72  O   UNL A   1      48.907  24.134  33.922  1.00  0.00    -0.237 OA
ATOM     73  O   UNL A   1      49.839  24.787  31.736  1.00  0.00    -0.744 OA
ENDBRANCH  69  70
ENDBRANCH  48  62
BRANCH  49  74
ATOM     74  C   UNL A   1      37.363  32.738  30.210  1.00  0.00     0.058 A 
ATOM     75  C   UNL A   1      37.319  33.730  29.222  1.00  0.00     0.135 A 
ATOM     76  C   UNL A   1      36.166  32.408  30.866  1.00  0.00     0.135 A 
ATOM     77  F   UNL A   1      38.442  34.087  28.579  1.00  0.00    -0.206 F 
ATOM     78  C   UNL A   1      36.129  34.363  28.880  1.00  0.00     0.059 A 
ATOM     79  C   UNL A   1      34.960  33.010  30.528  1.00  0.00     0.059 A 
ATOM     80  F   UNL A   1      36.158  31.457  31.813  1.00  0.00    -0.206 F 
ATOM     81  C   UNL A   1      34.952  33.988  29.533  1.00  0.00     0.060 A 
BRANCH  81  82
ATOM     82  S   UNL A   1      33.392  34.737  29.011  1.00  0.00     0.124 S 
ATOM     83  O   UNL A   1      32.670  34.817  30.275  1.00  0.00    -0.237 OA
ATOM     84  O   UNL A   1      33.834  36.010  28.447  1.00  0.00    -0.237 OA
ATOM     85  O   UNL A   1      32.871  33.780  28.042  1.00  0.00    -0.744 OA
ENDBRANCH  81  82
ENDBRANCH  49  74
BRANCH  61  86
ATOM     86  C   UNL A   1      42.760  33.986  34.442  1.00  0.00     0.058 A 
ATOM     87  C   UNL A   1      42.363  33.931  35.787  1.00  0.00     0.135 A 
ATOM     88  C   UNL A   1      43.493  35.105  34.016  1.00  0.00     0.135 A 
ATOM     89  F   UNL A   1      41.654  32.885  36.240  1.00  0.00    -0.206 F 
ATOM     90  C   UNL A   1      42.666  34.959  36.675  1.00  0.00     0.059 A 
ATOM     91  C   UNL A   1      43.823  36.135  34.892  1.00  0.00     0.059 A 
ATOM     92  F   UNL A   1      43.903  35.200  32.742  1.00  0.00    -0.206 F 
ATOM     93  C   UNL A   1      43.396  36.058  36.217  1.00  0.00     0.060 A 
BRANCH  93  94
ATOM     94  S   UNL A   1      43.805  37.376  37.382  1.00  0.00     0.124 S 
ATOM     95  O   UNL A   1      44.043  38.499  36.482  1.00  0.00    -0.237 OA
ATOM     96  O   UNL A   1      42.599  37.461  38.199  1.00  0.00    -0.237 OA
ATOM     97  O   UNL A   1      44.985  36.862  38.071  1.00  0.00    -0.744 OA
ENDBRANCH  93  94
ENDBRANCH  61  86
ENDBRANCH  35  36
ENDBRANCH  28  30
ENDBRANCH  27  28
ENDBRANCH  26  27
ENDBRANCH   1  26
TORSDOF 17
ENDMDL
