MODEL 1
REMARK VINA RESULT:     -12.0      0.000      0.000
REMARK SMILES O=C(OCCOC(=O)[C@H]1Cc2[nH]cnc2CN1C(=O)N1CCC[C@H](O)C1)c1ccc(-c2c3nc(c(-c4c(F)cc(S(=O)(=O)[O-])cc4F)c4ccc([nH]4)c(-c4c(F)cc(S(=O)(=O)[O-])cc4F)c4nc(c(-c5c(F)cc(S(=O)(=O)[O-])cc5F)c5ccc2[nH]5)C=C4)C=C3)cc1
REMARK SMILES IDX 4 1 3 2 2 3 1 4 27 5 28 6 92 7 29 8 91 9 30 10 31 11 32 12
REMARK SMILES IDX 85 13 33 14 90 15 84 16 86 17 34 18 89 19 83 20 82 21 35 23
REMARK SMILES IDX 69 24 48 25 68 26 49 27 52 28 67 29 87 30 50 31 51 32 66 34
REMARK SMILES IDX 88 35 53 36 36 37 37 38 46 39 38 40 39 41 45 42 47 43 40 44
REMARK SMILES IDX 41 45 42 46 43 47 44 48 70 49 71 50 80 51 72 52 73 53 79 54
REMARK SMILES IDX 81 55 74 56 75 57 76 58 77 59 78 60 54 61 55 62 64 63 56 64
REMARK SMILES IDX 57 65 63 66 65 67 58 68 59 69 60 70 61 71 62 72 5 73 6 74
REMARK SMILES IDX 7 75 8 76 9 77 10 78 17 79 11 80 16 81 12 82 15 83 13 84
REMARK SMILES IDX 14 86 18 87 19 88 20 89 21 90 26 91 22 92 24 93 23 94 25 95
REMARK H PARENT 86 22 52 33 12 85 25 96
REMARK Flexibility Score: inf
ROOT
ATOM      1  C   UNL A   1      37.560  21.562  24.888  1.00  0.00     0.275 C 
ENDROOT
BRANCH   1   2
ATOM      2  O   UNL A   1      38.163  21.860  26.142  1.00  0.00    -0.458 OA
BRANCH   2   3
ATOM      3  C   UNL A   1      39.483  21.911  26.406  1.00  0.00     0.338 C 
ATOM      4  O   UNL A   1      40.170  20.918  26.168  1.00  0.00    -0.246 OA
BRANCH   3   5
ATOM      5  C   UNL A   1      40.172  23.132  26.930  1.00  0.00     0.060 A 
ATOM      6  C   UNL A   1      41.267  23.186  27.810  1.00  0.00     0.016 A 
ATOM      7  C   UNL A   1      39.610  24.340  26.489  1.00  0.00     0.016 A 
ATOM      8  C   UNL A   1      41.715  24.385  28.325  1.00  0.00     0.010 A 
ATOM      9  C   UNL A   1      40.052  25.543  26.993  1.00  0.00     0.010 A 
ATOM     10  C   UNL A   1      41.055  25.540  27.956  1.00  0.00    -0.014 A 
BRANCH  10  11
ATOM     11  C   UNL A   1      41.422  26.772  28.612  1.00  0.00     0.031 A 
ATOM     12  C   UNL A   1      42.635  27.437  28.068  1.00  0.00     0.074 A 
ATOM     13  C   UNL A   1      40.561  27.287  29.507  1.00  0.00     0.049 A 
ATOM     14  N   UNL A   1      43.741  27.735  28.667  1.00  0.00    -0.248 NA
ATOM     15  C   UNL A   1      42.679  27.664  26.611  1.00  0.00     0.031 C 
ATOM     16  C   UNL A   1      39.223  26.793  29.861  1.00  0.00     0.029 A 
ATOM     17  N   UNL A   1      40.634  28.465  30.168  1.00  0.00    -0.354 N 
ATOM     18  C   UNL A   1      44.510  28.420  27.727  1.00  0.00     0.074 A 
ATOM     19  C   UNL A   1      43.903  28.165  26.450  1.00  0.00     0.031 C 
ATOM     20  C   UNL A   1      38.524  27.786  30.451  1.00  0.00     0.029 A 
ATOM     21  C   UNL A   1      39.407  28.919  30.644  1.00  0.00     0.049 A 
ATOM     22  H   UNL A   1      41.478  28.956  30.302  1.00  0.00     0.167 HD
ATOM     23  C   UNL A   1      45.430  29.357  28.091  1.00  0.00     0.037 A 
ATOM     24  C   UNL A   1      39.163  30.191  31.045  1.00  0.00     0.037 A 
ATOM     25  C   UNL A   1      45.802  29.209  29.472  1.00  0.00     0.049 A 
ATOM     26  C   UNL A   1      40.496  30.806  31.324  1.00  0.00     0.074 A 
ATOM     27  C   UNL A   1      46.350  28.178  30.212  1.00  0.00     0.029 A 
ATOM     28  N   UNL A   1      45.235  30.065  30.389  1.00  0.00    -0.354 N 
ATOM     29  N   UNL A   1      41.291  30.390  32.276  1.00  0.00    -0.248 NA
ATOM     30  C   UNL A   1      41.155  31.513  30.232  1.00  0.00     0.031 C 
ATOM     31  C   UNL A   1      45.624  28.191  31.439  1.00  0.00     0.029 A 
ATOM     32  C   UNL A   1      44.755  29.284  31.410  1.00  0.00     0.049 A 
ATOM     33  H   UNL A   1      45.185  31.045  30.324  1.00  0.00     0.167 HD
ATOM     34  C   UNL A   1      42.568  30.424  31.727  1.00  0.00     0.074 A 
ATOM     35  C   UNL A   1      42.424  31.177  30.482  1.00  0.00     0.031 C 
ATOM     36  C   UNL A   1      43.564  29.597  32.169  1.00  0.00     0.037 A 
BRANCH  23  37
ATOM     37  C   UNL A   1      45.705  30.625  27.309  1.00  0.00     0.058 A 
ATOM     38  C   UNL A   1      47.036  30.969  26.998  1.00  0.00     0.135 A 
ATOM     39  C   UNL A   1      44.753  31.652  27.110  1.00  0.00     0.135 A 
ATOM     40  F   UNL A   1      48.027  30.073  27.144  1.00  0.00    -0.206 F 
ATOM     41  C   UNL A   1      47.404  32.258  26.609  1.00  0.00     0.059 A 
ATOM     42  C   UNL A   1      45.091  32.925  26.671  1.00  0.00     0.059 A 
ATOM     43  F   UNL A   1      43.460  31.507  27.421  1.00  0.00    -0.206 F 
ATOM     44  C   UNL A   1      46.423  33.235  26.469  1.00  0.00     0.060 A 
BRANCH  44  45
ATOM     45  S   UNL A   1      46.901  34.929  26.092  1.00  0.00     0.124 S 
ATOM     46  O   UNL A   1      45.618  35.514  25.723  1.00  0.00    -0.237 OA
ATOM     47  O   UNL A   1      47.468  35.371  27.361  1.00  0.00    -0.237 OA
ATOM     48  O   UNL A   1      47.862  34.769  25.005  1.00  0.00    -0.744 OA
ENDBRANCH  44  45
ENDBRANCH  23  37
BRANCH  24  49
ATOM     49  C   UNL A   1      37.923  30.975  30.804  1.00  0.00     0.058 A 
ATOM     50  C   UNL A   1      37.263  31.633  31.856  1.00  0.00     0.135 A 
ATOM     51  C   UNL A   1      37.495  31.307  29.500  1.00  0.00     0.135 A 
ATOM     52  F   UNL A   1      37.621  31.395  33.126  1.00  0.00    -0.206 F 
ATOM     53  C   UNL A   1      36.267  32.589  31.628  1.00  0.00     0.059 A 
ATOM     54  C   UNL A   1      36.497  32.246  29.250  1.00  0.00     0.059 A 
ATOM     55  F   UNL A   1      38.099  30.791  28.418  1.00  0.00    -0.206 F 
ATOM     56  C   UNL A   1      35.904  32.903  30.318  1.00  0.00     0.060 A 
BRANCH  56  57
ATOM     57  S   UNL A   1      34.746  34.259  30.012  1.00  0.00     0.124 S 
ATOM     58  O   UNL A   1      34.773  34.970  31.285  1.00  0.00    -0.237 OA
ATOM     59  O   UNL A   1      35.368  34.945  28.884  1.00  0.00    -0.237 OA
ATOM     60  O   UNL A   1      33.494  33.574  29.706  1.00  0.00    -0.744 OA
ENDBRANCH  56  57
ENDBRANCH  24  49
BRANCH  36  61
ATOM     61  C   UNL A   1      43.329  28.767  33.408  1.00  0.00     0.058 A 
ATOM     62  C   UNL A   1      43.396  29.267  34.721  1.00  0.00     0.135 A 
ATOM     63  C   UNL A   1      42.821  27.470  33.248  1.00  0.00     0.135 A 
ATOM     64  F   UNL A   1      43.751  30.535  34.958  1.00  0.00    -0.206 F 
ATOM     65  C   UNL A   1      43.018  28.500  35.826  1.00  0.00     0.059 A 
ATOM     66  C   UNL A   1      42.405  26.699  34.331  1.00  0.00     0.059 A 
ATOM     67  F   UNL A   1      42.660  26.960  32.016  1.00  0.00    -0.206 F 
ATOM     68  C   UNL A   1      42.520  27.216  35.619  1.00  0.00     0.060 A 
BRANCH  68  69
ATOM     69  S   UNL A   1      41.961  26.250  37.038  1.00  0.00     0.124 S 
ATOM     70  O   UNL A   1      41.885  24.904  36.480  1.00  0.00    -0.237 OA
ATOM     71  O   UNL A   1      43.025  26.473  38.013  1.00  0.00    -0.237 OA
ATOM     72  O   UNL A   1      40.678  26.858  37.380  1.00  0.00    -0.744 OA
ENDBRANCH  68  69
ENDBRANCH  36  61
ENDBRANCH  10  11
ENDBRANCH   3   5
ENDBRANCH   2   3
ENDBRANCH   1   2
BRANCH   1  73
ATOM     73  C   UNL A   1      36.744  22.701  24.274  1.00  0.00     0.274 C 
BRANCH  73  74
ATOM     74  O   UNL A   1      35.948  23.572  25.096  1.00  0.00    -0.461 OA
BRANCH  74  75
ATOM     75  C   UNL A   1      34.847  23.050  25.705  1.00  0.00     0.329 C 
ATOM     76  O   UNL A   1      34.332  23.523  26.720  1.00  0.00    -0.250 OA
BRANCH  75  77
ATOM     77  C   UNL A   1      34.337  21.771  25.043  1.00  0.00     0.203 C 
ATOM     78  C   UNL A   1      34.062  20.712  26.164  1.00  0.00     0.093 C 
ATOM     79  N   UNL A   1      33.278  21.838  23.959  1.00  0.00    -0.304 N 
ATOM     80  C   UNL A   1      33.309  19.566  25.623  1.00  0.00     0.042 A 
ATOM     81  C   UNL A   1      32.925  20.536  23.326  1.00  0.00     0.180 C 
ATOM     82  N   UNL A   1      32.922  18.433  26.272  1.00  0.00    -0.348 N 
ATOM     83  C   UNL A   1      32.772  19.485  24.366  1.00  0.00     0.081 A 
ATOM     84  C   UNL A   1      32.154  17.718  25.391  1.00  0.00     0.197 A 
ATOM     85  H   UNL A   1      33.148  18.178  27.195  1.00  0.00     0.167 HD
ATOM     86  N   UNL A   1      32.060  18.321  24.224  1.00  0.00    -0.240 NA
BRANCH  79  87
ATOM     87  C   UNL A   1      32.643  22.930  23.400  1.00  0.00     0.321 C 
ATOM     88  O   UNL A   1      32.693  23.165  22.188  1.00  0.00    -0.248 OA
BRANCH  87  89
ATOM     89  N   UNL A   1      31.874  23.759  24.197  1.00  0.00    -0.322 N 
ATOM     90  C   UNL A   1      31.112  24.811  23.524  1.00  0.00     0.121 C 
ATOM     91  C   UNL A   1      31.031  23.037  25.150  1.00  0.00     0.153 C 
ATOM     92  C   UNL A   1      30.518  25.837  24.492  1.00  0.00     0.024 C 
ATOM     93  C   UNL A   1      30.545  23.928  26.288  1.00  0.00     0.134 C 
ATOM     94  C   UNL A   1      29.973  25.275  25.817  1.00  0.00     0.035 C 
BRANCH  93  95
ATOM     95  O   UNL A   1      31.582  24.130  27.251  1.00  0.00    -0.391 OA
ATOM     96  H   UNL A   1      31.498  25.016  27.637  1.00  0.00     0.211 HD
ENDBRANCH  93  95
ENDBRANCH  87  89
ENDBRANCH  79  87
ENDBRANCH  75  77
ENDBRANCH  74  75
ENDBRANCH  73  74
ENDBRANCH   1  73
TORSDOF 17
ENDMDL
MODEL 2
REMARK VINA RESULT:     -11.8      3.014      8.926
REMARK SMILES O=C(OCCOC(=O)[C@H]1Cc2[nH]cnc2CN1C(=O)N1CCC[C@H](O)C1)c1ccc(-c2c3nc(c(-c4c(F)cc(S(=O)(=O)[O-])cc4F)c4ccc([nH]4)c(-c4c(F)cc(S(=O)(=O)[O-])cc4F)c4nc(c(-c5c(F)cc(S(=O)(=O)[O-])cc5F)c5ccc2[nH]5)C=C4)C=C3)cc1
REMARK SMILES IDX 4 1 3 2 2 3 1 4 27 5 28 6 92 7 29 8 91 9 30 10 31 11 32 12
REMARK SMILES IDX 85 13 33 14 90 15 84 16 86 17 34 18 89 19 83 20 82 21 35 23
REMARK SMILES IDX 69 24 48 25 68 26 49 27 52 28 67 29 87 30 50 31 51 32 66 34
REMARK SMILES IDX 88 35 53 36 36 37 37 38 46 39 38 40 39 41 45 42 47 43 40 44
REMARK SMILES IDX 41 45 42 46 43 47 44 48 70 49 71 50 80 51 72 52 73 53 79 54
REMARK SMILES IDX 81 55 74 56 75 57 76 58 77 59 78 60 54 61 55 62 64 63 56 64
REMARK SMILES IDX 57 65 63 66 65 67 58 68 59 69 60 70 61 71 62 72 5 73 6 74
REMARK SMILES IDX 7 75 8 76 9 77 10 78 17 79 11 80 16 81 12 82 15 83 13 84
REMARK SMILES IDX 14 86 18 87 19 88 20 89 21 90 26 91 22 92 24 93 23 94 25 95
REMARK H PARENT 86 22 52 33 12 85 25 96
REMARK Flexibility Score: inf
ROOT
ATOM      1  C   UNL A   1      32.719  30.293  26.566  1.00  0.00     0.275 C 
ENDROOT
BRANCH   1   2
ATOM      2  O   UNL A   1      34.108  30.376  26.860  1.00  0.00    -0.458 OA
BRANCH   2   3
ATOM      3  C   UNL A   1      34.687  31.157  27.794  1.00  0.00     0.338 C 
ATOM      4  O   UNL A   1      34.071  32.141  28.201  1.00  0.00    -0.246 OA
BRANCH   3   5
ATOM      5  C   UNL A   1      36.024  30.865  28.399  1.00  0.00     0.060 A 
ATOM      6  C   UNL A   1      36.937  31.784  28.943  1.00  0.00     0.016 A 
ATOM      7  C   UNL A   1      36.378  29.506  28.376  1.00  0.00     0.016 A 
ATOM      8  C   UNL A   1      38.199  31.393  29.340  1.00  0.00     0.010 A 
ATOM      9  C   UNL A   1      37.633  29.103  28.774  1.00  0.00     0.010 A 
ATOM     10  C   UNL A   1      38.547  30.066  29.189  1.00  0.00    -0.014 A 
BRANCH  10  11
ATOM     11  C   UNL A   1      39.913  29.686  29.458  1.00  0.00     0.031 A 
ATOM     12  C   UNL A   1      40.252  29.538  30.898  1.00  0.00     0.074 A 
ATOM     13  C   UNL A   1      40.685  29.335  28.414  1.00  0.00     0.049 A 
ATOM     14  N   UNL A   1      41.141  30.164  31.597  1.00  0.00    -0.248 NA
ATOM     15  C   UNL A   1      39.370  28.678  31.710  1.00  0.00     0.031 C 
ATOM     16  C   UNL A   1      40.293  29.205  27.005  1.00  0.00     0.029 A 
ATOM     17  N   UNL A   1      41.949  28.852  28.424  1.00  0.00    -0.354 N 
ATOM     18  C   UNL A   1      41.103  29.587  32.865  1.00  0.00     0.074 A 
ATOM     19  C   UNL A   1      39.877  28.841  32.931  1.00  0.00     0.031 C 
ATOM     20  C   UNL A   1      41.199  28.440  26.360  1.00  0.00     0.029 A 
ATOM     21  C   UNL A   1      42.292  28.157  27.267  1.00  0.00     0.049 A 
ATOM     22  H   UNL A   1      42.569  28.981  29.178  1.00  0.00     0.167 HD
ATOM     23  C   UNL A   1      42.199  29.547  33.674  1.00  0.00     0.037 A 
ATOM     24  C   UNL A   1      43.356  27.322  27.161  1.00  0.00     0.037 A 
ATOM     25  C   UNL A   1      43.179  30.518  33.266  1.00  0.00     0.049 A 
ATOM     26  C   UNL A   1      44.279  27.675  28.283  1.00  0.00     0.074 A 
ATOM     27  C   UNL A   1      43.163  31.892  33.118  1.00  0.00     0.029 A 
ATOM     28  N   UNL A   1      44.261  30.078  32.538  1.00  0.00    -0.354 N 
ATOM     29  N   UNL A   1      44.878  28.835  28.379  1.00  0.00    -0.248 NA
ATOM     30  C   UNL A   1      44.120  26.953  29.540  1.00  0.00     0.031 C 
ATOM     31  C   UNL A   1      43.875  32.130  31.906  1.00  0.00     0.029 A 
ATOM     32  C   UNL A   1      44.363  30.905  31.448  1.00  0.00     0.049 A 
ATOM     33  H   UNL A   1      44.846  29.318  32.757  1.00  0.00     0.167 HD
ATOM     34  C   UNL A   1      44.814  29.168  29.728  1.00  0.00     0.074 A 
ATOM     35  C   UNL A   1      44.383  27.942  30.400  1.00  0.00     0.031 C 
ATOM     36  C   UNL A   1      44.826  30.469  30.149  1.00  0.00     0.037 A 
BRANCH  23  37
ATOM     37  C   UNL A   1      42.539  28.388  34.587  1.00  0.00     0.058 A 
ATOM     38  C   UNL A   1      42.819  28.639  35.946  1.00  0.00     0.135 A 
ATOM     39  C   UNL A   1      42.883  27.095  34.128  1.00  0.00     0.135 A 
ATOM     40  F   UNL A   1      42.533  29.830  36.495  1.00  0.00    -0.206 F 
ATOM     41  C   UNL A   1      43.474  27.711  36.758  1.00  0.00     0.059 A 
ATOM     42  C   UNL A   1      43.484  26.138  34.934  1.00  0.00     0.059 A 
ATOM     43  F   UNL A   1      42.742  26.722  32.850  1.00  0.00    -0.206 F 
ATOM     44  C   UNL A   1      43.820  26.469  36.234  1.00  0.00     0.060 A 
BRANCH  44  45
ATOM     45  S   UNL A   1      44.776  25.317  37.232  1.00  0.00     0.124 S 
ATOM     46  O   UNL A   1      46.109  25.904  37.153  1.00  0.00    -0.237 OA
ATOM     47  O   UNL A   1      44.108  25.412  38.525  1.00  0.00    -0.237 OA
ATOM     48  O   UNL A   1      44.600  24.047  36.534  1.00  0.00    -0.744 OA
ENDBRANCH  44  45
ENDBRANCH  23  37
BRANCH  24  49
ATOM     49  C   UNL A   1      43.401  26.031  26.427  1.00  0.00     0.058 A 
ATOM     50  C   UNL A   1      44.347  25.804  25.413  1.00  0.00     0.135 A 
ATOM     51  C   UNL A   1      42.683  24.898  26.869  1.00  0.00     0.135 A 
ATOM     52  F   UNL A   1      45.091  26.820  24.949  1.00  0.00    -0.206 F 
ATOM     53  C   UNL A   1      44.595  24.527  24.897  1.00  0.00     0.059 A 
ATOM     54  C   UNL A   1      42.903  23.620  26.362  1.00  0.00     0.059 A 
ATOM     55  F   UNL A   1      41.802  24.985  27.878  1.00  0.00    -0.206 F 
ATOM     56  C   UNL A   1      43.879  23.436  25.393  1.00  0.00     0.060 A 
BRANCH  56  57
ATOM     57  S   UNL A   1      44.315  21.764  24.858  1.00  0.00     0.124 S 
ATOM     58  O   UNL A   1      43.136  21.004  25.256  1.00  0.00    -0.237 OA
ATOM     59  O   UNL A   1      44.506  21.941  23.422  1.00  0.00    -0.237 OA
ATOM     60  O   UNL A   1      45.531  21.473  25.613  1.00  0.00    -0.744 OA
ENDBRANCH  56  57
ENDBRANCH  24  49
BRANCH  36  61
ATOM     61  C   UNL A   1      45.111  31.560  29.145  1.00  0.00     0.058 A 
ATOM     62  C   UNL A   1      46.399  31.929  28.720  1.00  0.00     0.135 A 
ATOM     63  C   UNL A   1      44.029  32.109  28.442  1.00  0.00     0.135 A 
ATOM     64  F   UNL A   1      47.489  31.360  29.251  1.00  0.00    -0.206 F 
ATOM     65  C   UNL A   1      46.604  32.833  27.676  1.00  0.00     0.059 A 
ATOM     66  C   UNL A   1      44.208  32.987  27.376  1.00  0.00     0.059 A 
ATOM     67  F   UNL A   1      42.774  31.742  28.747  1.00  0.00    -0.206 F 
ATOM     68  C   UNL A   1      45.500  33.356  27.007  1.00  0.00     0.060 A 
BRANCH  68  69
ATOM     69  S   UNL A   1      45.763  34.468  25.609  1.00  0.00     0.124 S 
ATOM     70  O   UNL A   1      47.183  34.279  25.333  1.00  0.00    -0.237 OA
ATOM     71  O   UNL A   1      44.845  33.936  24.605  1.00  0.00    -0.237 OA
ATOM     72  O   UNL A   1      45.398  35.778  26.142  1.00  0.00    -0.744 OA
ENDBRANCH  68  69
ENDBRANCH  36  61
ENDBRANCH  10  11
ENDBRANCH   3   5
ENDBRANCH   2   3
ENDBRANCH   1   2
BRANCH   1  73
ATOM     73  C   UNL A   1      31.973  29.161  27.274  1.00  0.00     0.274 C 
BRANCH  73  74
ATOM     74  O   UNL A   1      32.494  27.821  27.286  1.00  0.00    -0.461 OA
BRANCH  74  75
ATOM     75  C   UNL A   1      31.849  26.875  26.548  1.00  0.00     0.329 C 
ATOM     76  O   UNL A   1      30.751  26.399  26.846  1.00  0.00    -0.250 OA
BRANCH  75  77
ATOM     77  C   UNL A   1      32.647  26.404  25.334  1.00  0.00     0.203 C 
ATOM     78  C   UNL A   1      33.658  25.304  25.805  1.00  0.00     0.093 C 
ATOM     79  N   UNL A   1      31.944  26.101  24.024  1.00  0.00    -0.304 N 
ATOM     80  C   UNL A   1      34.254  24.615  24.646  1.00  0.00     0.042 A 
ATOM     81  C   UNL A   1      32.834  25.736  22.887  1.00  0.00     0.180 C 
ATOM     82  N   UNL A   1      35.201  23.637  24.645  1.00  0.00    -0.348 N 
ATOM     83  C   UNL A   1      33.877  24.779  23.339  1.00  0.00     0.081 A 
ATOM     84  C   UNL A   1      35.351  23.234  23.345  1.00  0.00     0.197 A 
ATOM     85  H   UNL A   1      35.683  23.285  25.428  1.00  0.00     0.167 HD
ATOM     86  N   UNL A   1      34.576  23.919  22.529  1.00  0.00    -0.240 NA
BRANCH  79  87
ATOM     87  C   UNL A   1      30.607  26.191  23.690  1.00  0.00     0.321 C 
ATOM     88  O   UNL A   1      29.836  25.233  23.811  1.00  0.00    -0.248 OA
BRANCH  87  89
ATOM     89  N   UNL A   1      30.086  27.400  23.264  1.00  0.00    -0.322 N 
ATOM     90  C   UNL A   1      28.646  27.600  23.427  1.00  0.00     0.121 C 
ATOM     91  C   UNL A   1      30.829  28.561  23.751  1.00  0.00     0.153 C 
ATOM     92  C   UNL A   1      28.122  28.833  22.687  1.00  0.00     0.024 C 
ATOM     93  C   UNL A   1      30.537  29.822  22.943  1.00  0.00     0.134 C 
ATOM     94  C   UNL A   1      29.038  30.070  22.709  1.00  0.00     0.035 C 
BRANCH  93  95
ATOM     95  O   UNL A   1      31.245  29.802  21.701  1.00  0.00    -0.391 OA
ATOM     96  H   UNL A   1      30.799  29.200  21.084  1.00  0.00     0.211 HD
ENDBRANCH  93  95
ENDBRANCH  87  89
ENDBRANCH  79  87
ENDBRANCH  75  77
ENDBRANCH  74  75
ENDBRANCH  73  74
ENDBRANCH   1  73
TORSDOF 17
ENDMDL
MODEL 3
REMARK VINA RESULT:     -11.8      1.393      2.883
REMARK SMILES O=C(OCCOC(=O)[C@H]1Cc2[nH]cnc2CN1C(=O)N1CCC[C@H](O)C1)c1ccc(-c2c3nc(c(-c4c(F)cc(S(=O)(=O)[O-])cc4F)c4ccc([nH]4)c(-c4c(F)cc(S(=O)(=O)[O-])cc4F)c4nc(c(-c5c(F)cc(S(=O)(=O)[O-])cc5F)c5ccc2[nH]5)C=C4)C=C3)cc1
REMARK SMILES IDX 4 1 3 2 2 3 1 4 27 5 28 6 92 7 29 8 91 9 30 10 31 11 32 12
REMARK SMILES IDX 85 13 33 14 90 15 84 16 86 17 34 18 89 19 83 20 82 21 35 23
REMARK SMILES IDX 69 24 48 25 68 26 49 27 52 28 67 29 87 30 50 31 51 32 66 34
REMARK SMILES IDX 88 35 53 36 36 37 37 38 46 39 38 40 39 41 45 42 47 43 40 44
REMARK SMILES IDX 41 45 42 46 43 47 44 48 70 49 71 50 80 51 72 52 73 53 79 54
REMARK SMILES IDX 81 55 74 56 75 57 76 58 77 59 78 60 54 61 55 62 64 63 56 64
REMARK SMILES IDX 57 65 63 66 65 67 58 68 59 69 60 70 61 71 62 72 5 73 6 74
REMARK SMILES IDX 7 75 8 76 9 77 10 78 17 79 11 80 16 81 12 82 15 83 13 84
REMARK SMILES IDX 14 86 18 87 19 88 20 89 21 90 26 91 22 92 24 93 23 94 25 95
REMARK H PARENT 86 22 52 33 12 85 25 96
REMARK Flexibility Score: inf
ROOT
ATOM      1  C   UNL A   1      37.603  21.698  25.109  1.00  0.00     0.275 C 
ENDROOT
BRANCH   1   2
ATOM      2  O   UNL A   1      38.439  22.768  25.534  1.00  0.00    -0.458 OA
BRANCH   2   3
ATOM      3  C   UNL A   1      39.325  22.742  26.549  1.00  0.00     0.338 C 
ATOM      4  O   UNL A   1      39.663  21.651  27.006  1.00  0.00    -0.246 OA
BRANCH   3   5
ATOM      5  C   UNL A   1      39.959  23.970  27.120  1.00  0.00     0.060 A 
ATOM      6  C   UNL A   1      41.197  24.067  27.779  1.00  0.00     0.016 A 
ATOM      7  C   UNL A   1      39.183  25.132  26.984  1.00  0.00     0.016 A 
ATOM      8  C   UNL A   1      41.599  25.240  28.384  1.00  0.00     0.010 A 
ATOM      9  C   UNL A   1      39.576  26.310  27.579  1.00  0.00     0.010 A 
ATOM     10  C   UNL A   1      40.748  26.327  28.327  1.00  0.00    -0.014 A 
BRANCH  10  11
ATOM     11  C   UNL A   1      41.096  27.502  29.088  1.00  0.00     0.031 A 
ATOM     12  C   UNL A   1      42.219  28.302  28.532  1.00  0.00     0.074 A 
ATOM     13  C   UNL A   1      40.283  27.859  30.098  1.00  0.00     0.049 A 
ATOM     14  N   UNL A   1      43.352  28.607  29.075  1.00  0.00    -0.248 NA
ATOM     15  C   UNL A   1      42.129  28.687  27.110  1.00  0.00     0.031 C 
ATOM     16  C   UNL A   1      39.010  27.242  30.495  1.00  0.00     0.029 A 
ATOM     17  N   UNL A   1      40.343  28.962  30.880  1.00  0.00    -0.354 N 
ATOM     18  C   UNL A   1      43.999  29.439  28.162  1.00  0.00     0.074 A 
ATOM     19  C   UNL A   1      43.305  29.283  26.914  1.00  0.00     0.031 C 
ATOM     20  C   UNL A   1      38.306  28.117  31.244  1.00  0.00     0.029 A 
ATOM     21  C   UNL A   1      39.134  29.279  31.496  1.00  0.00     0.049 A 
ATOM     22  H   UNL A   1      41.164  29.491  31.004  1.00  0.00     0.167 HD
ATOM     23  C   UNL A   1      44.890  30.391  28.558  1.00  0.00     0.037 A 
ATOM     24  C   UNL A   1      38.851  30.481  32.054  1.00  0.00     0.037 A 
ATOM     25  C   UNL A   1      45.383  30.120  29.882  1.00  0.00     0.049 A 
ATOM     26  C   UNL A   1      40.165  31.151  32.299  1.00  0.00     0.074 A 
ATOM     27  C   UNL A   1      46.050  29.055  30.457  1.00  0.00     0.029 A 
ATOM     28  N   UNL A   1      44.846  30.833  30.929  1.00  0.00    -0.354 N 
ATOM     29  N   UNL A   1      41.059  30.689  33.135  1.00  0.00    -0.248 NA
ATOM     30  C   UNL A   1      40.689  32.013  31.246  1.00  0.00     0.031 C 
ATOM     31  C   UNL A   1      45.428  28.888  31.729  1.00  0.00     0.029 A 
ATOM     32  C   UNL A   1      44.498  29.916  31.890  1.00  0.00     0.049 A 
ATOM     33  H   UNL A   1      44.733  31.809  30.979  1.00  0.00     0.167 HD
ATOM     34  C   UNL A   1      42.282  30.867  32.498  1.00  0.00     0.074 A 
ATOM     35  C   UNL A   1      41.992  31.739  31.360  1.00  0.00     0.031 C 
ATOM     36  C   UNL A   1      43.357  30.066  32.767  1.00  0.00     0.037 A 
BRANCH  23  37
ATOM     37  C   UNL A   1      45.025  31.751  27.906  1.00  0.00     0.058 A 
ATOM     38  C   UNL A   1      46.246  32.106  27.296  1.00  0.00     0.135 A 
ATOM     39  C   UNL A   1      44.118  32.817  28.107  1.00  0.00     0.135 A 
ATOM     40  F   UNL A   1      47.185  31.177  27.052  1.00  0.00    -0.206 F 
ATOM     41  C   UNL A   1      46.576  33.429  26.996  1.00  0.00     0.059 A 
ATOM     42  C   UNL A   1      44.403  34.132  27.764  1.00  0.00     0.059 A 
ATOM     43  F   UNL A   1      42.945  32.658  28.731  1.00  0.00    -0.206 F 
ATOM     44  C   UNL A   1      45.652  34.437  27.255  1.00  0.00     0.060 A 
BRANCH  44  45
ATOM     45  S   UNL A   1      46.115  36.156  26.990  1.00  0.00     0.124 S 
ATOM     46  O   UNL A   1      46.895  36.059  25.761  1.00  0.00    -0.237 OA
ATOM     47  O   UNL A   1      44.814  36.804  26.876  1.00  0.00    -0.237 OA
ATOM     48  O   UNL A   1      46.870  36.487  28.196  1.00  0.00    -0.744 OA
ENDBRANCH  44  45
ENDBRANCH  23  37
BRANCH  24  49
ATOM     49  C   UNL A   1      37.553  31.202  31.998  1.00  0.00     0.058 A 
ATOM     50  C   UNL A   1      36.902  31.621  33.171  1.00  0.00     0.135 A 
ATOM     51  C   UNL A   1      37.041  31.720  30.787  1.00  0.00     0.135 A 
ATOM     52  F   UNL A   1      37.336  31.197  34.367  1.00  0.00    -0.206 F 
ATOM     53  C   UNL A   1      35.835  32.527  33.149  1.00  0.00     0.059 A 
ATOM     54  C   UNL A   1      35.973  32.612  30.740  1.00  0.00     0.059 A 
ATOM     55  F   UNL A   1      37.625  31.441  29.612  1.00  0.00    -0.206 F 
ATOM     56  C   UNL A   1      35.389  33.032  31.927  1.00  0.00     0.060 A 
BRANCH  56  57
ATOM     57  S   UNL A   1      34.132  34.332  31.903  1.00  0.00     0.124 S 
ATOM     58  O   UNL A   1      33.713  34.319  30.506  1.00  0.00    -0.237 OA
ATOM     59  O   UNL A   1      33.156  33.832  32.867  1.00  0.00    -0.237 OA
ATOM     60  O   UNL A   1      34.866  35.522  32.325  1.00  0.00    -0.744 OA
ENDBRANCH  56  57
ENDBRANCH  24  49
BRANCH  36  61
ATOM     61  C   UNL A   1      43.275  29.094  33.919  1.00  0.00     0.058 A 
ATOM     62  C   UNL A   1      43.462  29.445  35.268  1.00  0.00     0.135 A 
ATOM     63  C   UNL A   1      42.789  27.804  33.662  1.00  0.00     0.135 A 
ATOM     64  F   UNL A   1      43.804  30.693  35.614  1.00  0.00    -0.206 F 
ATOM     65  C   UNL A   1      43.221  28.545  36.309  1.00  0.00     0.059 A 
ATOM     66  C   UNL A   1      42.509  26.900  34.684  1.00  0.00     0.059 A 
ATOM     67  F   UNL A   1      42.517  27.428  32.401  1.00  0.00    -0.206 F 
ATOM     68  C   UNL A   1      42.741  27.274  36.005  1.00  0.00     0.060 A 
BRANCH  68  69
ATOM     69  S   UNL A   1      42.358  26.134  37.352  1.00  0.00     0.124 S 
ATOM     70  O   UNL A   1      40.942  26.402  37.584  1.00  0.00    -0.237 OA
ATOM     71  O   UNL A   1      42.668  24.833  36.764  1.00  0.00    -0.237 OA
ATOM     72  O   UNL A   1      43.258  26.555  38.422  1.00  0.00    -0.744 OA
ENDBRANCH  68  69
ENDBRANCH  36  61
ENDBRANCH  10  11
ENDBRANCH   3   5
ENDBRANCH   2   3
ENDBRANCH   1   2
BRANCH   1  73
ATOM     73  C   UNL A   1      36.301  22.123  24.429  1.00  0.00     0.274 C 
BRANCH  73  74
ATOM     74  O   UNL A   1      35.805  23.467  24.548  1.00  0.00    -0.461 OA
BRANCH  74  75
ATOM     75  C   UNL A   1      35.132  23.804  25.683  1.00  0.00     0.329 C 
ATOM     76  O   UNL A   1      35.455  23.431  26.812  1.00  0.00    -0.250 OA
BRANCH  75  77
ATOM     77  C   UNL A   1      33.884  24.646  25.422  1.00  0.00     0.203 C 
ATOM     78  C   UNL A   1      34.034  25.330  24.021  1.00  0.00     0.093 C 
ATOM     79  N   UNL A   1      32.505  24.083  25.708  1.00  0.00    -0.304 N 
ATOM     80  C   UNL A   1      32.755  25.923  23.592  1.00  0.00     0.042 A 
ATOM     81  C   UNL A   1      31.371  25.026  25.500  1.00  0.00     0.180 C 
ATOM     82  N   UNL A   1      32.497  26.635  22.460  1.00  0.00    -0.348 N 
ATOM     83  C   UNL A   1      31.552  25.773  24.228  1.00  0.00     0.081 A 
ATOM     84  C   UNL A   1      31.148  26.876  22.445  1.00  0.00     0.197 A 
ATOM     85  H   UNL A   1      33.151  26.921  21.782  1.00  0.00     0.167 HD
ATOM     86  N   UNL A   1      30.553  26.382  23.511  1.00  0.00    -0.240 NA
BRANCH  79  87
ATOM     87  C   UNL A   1      32.132  22.854  26.217  1.00  0.00     0.321 C 
ATOM     88  O   UNL A   1      31.624  22.737  27.337  1.00  0.00    -0.248 OA
BRANCH  87  89
ATOM     89  N   UNL A   1      32.269  21.719  25.437  1.00  0.00    -0.322 N 
ATOM     90  C   UNL A   1      32.331  21.911  23.988  1.00  0.00     0.121 C 
ATOM     91  C   UNL A   1      33.333  20.824  25.887  1.00  0.00     0.153 C 
ATOM     92  C   UNL A   1      32.204  20.603  23.202  1.00  0.00     0.024 C 
ATOM     93  C   UNL A   1      33.187  19.415  25.322  1.00  0.00     0.134 C 
ATOM     94  C   UNL A   1      32.918  19.382  23.809  1.00  0.00     0.035 C 
BRANCH  93  95
ATOM     95  O   UNL A   1      32.180  18.687  26.029  1.00  0.00    -0.391 OA
ATOM     96  H   UNL A   1      32.359  17.736  25.960  1.00  0.00     0.211 HD
ENDBRANCH  93  95
ENDBRANCH  87  89
ENDBRANCH  79  87
ENDBRANCH  75  77
ENDBRANCH  74  75
ENDBRANCH  73  74
ENDBRANCH   1  73
TORSDOF 17
ENDMDL
