MODEL 1
REMARK VINA RESULT:     -12.2      0.000      0.000
REMARK SMILES NS(=O)(=O)c1ccc(-n2ccnc2-c2ccc(O)c(C(=O)OCCOC(=O)c3ccc(-c4c5nc(c(-c6c(F)cc(S(=O)(=O)[O-])cc6F)c6ccc([nH]6)c(-c6c(F)cc(S(=O)(=O)[O-])cc6F)c6nc(c(-c7c(F)cc(S(=O)(=O)[O-])cc7F)c7ccc4[nH]7)C=C6)C=C5)cc3)c2)cc1
REMARK SMILES IDX 23 1 22 2 20 3 21 4 19 5 14 6 15 7 94 8 16 9 17 10 13 11
REMARK SMILES IDX 9 12 10 13 11 14 12 15 8 16 5 17 6 18 96 19 7 20 95 21 2 22
REMARK SMILES IDX 3 23 4 24 1 25 18 28 24 30 25 31 26 32 27 33 28 34 29 35
REMARK SMILES IDX 93 36 30 37 92 38 31 39 32 40 33 41 86 42 34 43 91 44 85 45
REMARK SMILES IDX 87 46 35 47 90 48 84 49 83 50 36 52 70 53 49 54 69 55 50 56
REMARK SMILES IDX 53 57 68 58 88 59 51 60 52 61 67 63 89 64 54 65 37 66 38 67
REMARK SMILES IDX 47 68 39 69 40 70 46 71 48 72 41 73 42 74 43 75 44 76 45 77
REMARK SMILES IDX 71 78 72 79 81 80 73 81 74 82 80 83 82 84 75 85 76 86 77 87
REMARK SMILES IDX 78 88 79 89 55 90 56 91 65 92 57 93 58 94 64 95 66 96 59 97
REMARK SMILES IDX 60 98 61 99 62 100 63 101
REMARK H PARENT 1 26 1 27 18 29 87 51 53 62
REMARK Flexibility Score: inf
ROOT
ATOM      1  C   UNL A   1      31.966  30.547  26.608  1.00  0.00     0.275 C 
ENDROOT
BRANCH   1   2
ATOM      2  O   UNL A   1      32.395  30.175  25.287  1.00  0.00    -0.458 OA
BRANCH   2   3
ATOM      3  C   UNL A   1      32.919  28.929  25.159  1.00  0.00     0.342 C 
ATOM      4  O   UNL A   1      34.069  28.595  25.413  1.00  0.00    -0.246 OA
BRANCH   3   5
ATOM      5  C   UNL A   1      31.884  27.943  24.760  1.00  0.00     0.102 A 
ATOM      6  C   UNL A   1      30.695  25.849  25.132  1.00  0.00     0.019 A 
ATOM      7  C   UNL A   1      29.919  26.090  23.995  1.00  0.00     0.016 A 
ATOM      8  C   UNL A   1      31.714  26.753  25.473  1.00  0.00     0.031 A 
ATOM      9  C   UNL A   1      30.104  27.261  23.258  1.00  0.00     0.048 A 
ATOM     10  C   UNL A   1      31.065  28.193  23.652  1.00  0.00     0.130 A 
BRANCH   6  11
ATOM     11  C   UNL A   1      30.407  24.713  26.014  1.00  0.00     0.144 A 
ATOM     12  N   UNL A   1      31.199  23.566  26.084  1.00  0.00    -0.300 N 
ATOM     13  C   UNL A   1      30.462  22.623  26.762  1.00  0.00     0.113 A 
ATOM     14  C   UNL A   1      29.353  23.290  27.225  1.00  0.00     0.132 A 
ATOM     15  N   UNL A   1      29.339  24.583  26.779  1.00  0.00    -0.236 NA
BRANCH  12  16
ATOM     16  C   UNL A   1      32.508  23.385  25.566  1.00  0.00     0.047 A 
ATOM     17  C   UNL A   1      35.062  22.908  24.565  1.00  0.00     0.082 A 
ATOM     18  C   UNL A   1      33.959  22.779  23.719  1.00  0.00     0.024 A 
ATOM     19  C   UNL A   1      34.898  23.279  25.904  1.00  0.00     0.024 A 
ATOM     20  C   UNL A   1      32.679  23.011  24.223  1.00  0.00     0.028 A 
ATOM     21  C   UNL A   1      33.619  23.541  26.403  1.00  0.00     0.028 A 
BRANCH  17  22
ATOM     22  S   UNL A   1      36.685  22.573  23.948  1.00  0.00     0.238 S 
ATOM     23  O   UNL A   1      36.754  22.993  22.564  1.00  0.00    -0.207 OA
ATOM     24  O   UNL A   1      37.073  21.256  24.382  1.00  0.00    -0.207 OA
BRANCH  22  25
ATOM     25  N   UNL A   1      37.658  23.656  24.785  1.00  0.00    -0.225 NA
ATOM     26  H   UNL A   1      37.318  24.606  24.633  1.00  0.00     0.137 HD
ATOM     27  H   UNL A   1      38.618  23.579  24.449  1.00  0.00     0.137 HD
ENDBRANCH  22  25
ENDBRANCH  17  22
ENDBRANCH  12  16
ENDBRANCH   6  11
BRANCH  10  28
ATOM     28  O   UNL A   1      31.147  29.333  22.897  1.00  0.00    -0.507 OA
ATOM     29  H   UNL A   1      30.544  29.473  22.194  1.00  0.00     0.293 HD
ENDBRANCH  10  28
ENDBRANCH   3   5
ENDBRANCH   2   3
ENDBRANCH   1   2
BRANCH   1  30
ATOM     30  C   UNL A   1      32.992  31.442  27.291  1.00  0.00     0.275 C 
BRANCH  30  31
ATOM     31  O   UNL A   1      33.982  30.674  27.974  1.00  0.00    -0.458 OA
BRANCH  31  32
ATOM     32  C   UNL A   1      34.770  31.379  28.820  1.00  0.00     0.338 C 
ATOM     33  O   UNL A   1      34.427  32.299  29.543  1.00  0.00    -0.246 OA
BRANCH  32  34
ATOM     34  C   UNL A   1      36.169  31.002  28.598  1.00  0.00     0.060 A 
ATOM     35  C   UNL A   1      36.449  29.666  28.295  1.00  0.00     0.016 A 
ATOM     36  C   UNL A   1      37.182  31.909  28.944  1.00  0.00     0.016 A 
ATOM     37  C   UNL A   1      37.735  29.201  28.487  1.00  0.00     0.010 A 
ATOM     38  C   UNL A   1      38.455  31.439  29.156  1.00  0.00     0.010 A 
ATOM     39  C   UNL A   1      38.702  30.079  28.987  1.00  0.00    -0.014 A 
BRANCH  39  40
ATOM     40  C   UNL A   1      40.048  29.587  29.207  1.00  0.00     0.031 A 
ATOM     41  C   UNL A   1      40.350  29.394  30.645  1.00  0.00     0.074 A 
ATOM     42  C   UNL A   1      40.844  29.199  28.192  1.00  0.00     0.049 A 
ATOM     43  N   UNL A   1      41.172  30.072  31.375  1.00  0.00    -0.248 NA
ATOM     44  C   UNL A   1      39.488  28.477  31.415  1.00  0.00     0.031 C 
ATOM     45  C   UNL A   1      40.506  29.092  26.769  1.00  0.00     0.029 A 
ATOM     46  N   UNL A   1      42.111  28.711  28.233  1.00  0.00    -0.354 N 
ATOM     47  C   UNL A   1      41.116  29.484  32.634  1.00  0.00     0.074 A 
ATOM     48  C   UNL A   1      39.915  28.696  32.660  1.00  0.00     0.031 C 
ATOM     49  C   UNL A   1      41.451  28.360  26.138  1.00  0.00     0.029 A 
ATOM     50  C   UNL A   1      42.517  28.049  27.076  1.00  0.00     0.049 A 
ATOM     51  H   UNL A   1      42.697  28.816  29.017  1.00  0.00     0.167 HD
ATOM     52  C   UNL A   1      42.214  29.453  33.438  1.00  0.00     0.037 A 
ATOM     53  C   UNL A   1      43.606  27.243  26.952  1.00  0.00     0.037 A 
ATOM     54  C   UNL A   1      43.194  30.420  33.010  1.00  0.00     0.049 A 
ATOM     55  C   UNL A   1      44.521  27.576  28.081  1.00  0.00     0.074 A 
ATOM     56  C   UNL A   1      43.189  31.790  32.831  1.00  0.00     0.029 A 
ATOM     57  N   UNL A   1      44.278  29.953  32.306  1.00  0.00    -0.354 N 
ATOM     58  N   UNL A   1      45.132  28.724  28.200  1.00  0.00    -0.248 NA
ATOM     59  C   UNL A   1      44.360  26.828  29.319  1.00  0.00     0.031 C 
ATOM     60  C   UNL A   1      43.963  32.013  31.656  1.00  0.00     0.029 A 
ATOM     61  C   UNL A   1      44.464  30.782  31.230  1.00  0.00     0.049 A 
ATOM     62  H   UNL A   1      44.824  29.166  32.535  1.00  0.00     0.167 HD
ATOM     63  C   UNL A   1      45.031  29.041  29.547  1.00  0.00     0.074 A 
ATOM     64  C   UNL A   1      44.605  27.804  30.197  1.00  0.00     0.031 C 
ATOM     65  C   UNL A   1      45.013  30.342  29.967  1.00  0.00     0.037 A 
BRANCH  52  66
ATOM     66  C   UNL A   1      42.567  28.285  34.331  1.00  0.00     0.058 A 
ATOM     67  C   UNL A   1      42.697  28.503  35.718  1.00  0.00     0.135 A 
ATOM     68  C   UNL A   1      43.058  27.043  33.866  1.00  0.00     0.135 A 
ATOM     69  F   UNL A   1      42.271  29.650  36.272  1.00  0.00    -0.206 F 
ATOM     70  C   UNL A   1      43.337  27.594  36.562  1.00  0.00     0.059 A 
ATOM     71  C   UNL A   1      43.648  26.099  34.698  1.00  0.00     0.059 A 
ATOM     72  F   UNL A   1      43.087  26.715  32.569  1.00  0.00    -0.206 F 
ATOM     73  C   UNL A   1      43.821  26.401  36.036  1.00  0.00     0.060 A 
BRANCH  73  74
ATOM     74  S   UNL A   1      44.724  25.265  37.100  1.00  0.00     0.124 S 
ATOM     75  O   UNL A   1      44.321  23.975  36.556  1.00  0.00    -0.237 OA
ATOM     76  O   UNL A   1      46.107  25.661  36.855  1.00  0.00    -0.237 OA
ATOM     77  O   UNL A   1      44.216  25.577  38.433  1.00  0.00    -0.744 OA
ENDBRANCH  73  74
ENDBRANCH  52  66
BRANCH  53  78
ATOM     78  C   UNL A   1      43.715  25.960  26.196  1.00  0.00     0.058 A 
ATOM     79  C   UNL A   1      44.826  25.688  25.372  1.00  0.00     0.135 A 
ATOM     80  C   UNL A   1      42.888  24.858  26.493  1.00  0.00     0.135 A 
ATOM     81  F   UNL A   1      45.680  26.670  25.048  1.00  0.00    -0.206 F 
ATOM     82  C   UNL A   1      45.130  24.395  24.924  1.00  0.00     0.059 A 
ATOM     83  C   UNL A   1      43.165  23.564  26.049  1.00  0.00     0.059 A 
ATOM     84  F   UNL A   1      41.832  24.982  27.308  1.00  0.00    -0.206 F 
ATOM     85  C   UNL A   1      44.304  23.334  25.288  1.00  0.00     0.060 A 
BRANCH  85  86
ATOM     86  S   UNL A   1      44.786  21.636  24.885  1.00  0.00     0.124 S 
ATOM     87  O   UNL A   1      43.806  20.857  25.633  1.00  0.00    -0.237 OA
ATOM     88  O   UNL A   1      44.646  21.611  23.432  1.00  0.00    -0.237 OA
ATOM     89  O   UNL A   1      46.159  21.548  25.375  1.00  0.00    -0.744 OA
ENDBRANCH  85  86
ENDBRANCH  53  78
BRANCH  65  90
ATOM     90  C   UNL A   1      45.410  31.416  28.986  1.00  0.00     0.058 A 
ATOM     91  C   UNL A   1      46.731  31.815  28.714  1.00  0.00     0.135 A 
ATOM     92  C   UNL A   1      44.398  31.975  28.191  1.00  0.00     0.135 A 
ATOM     93  F   UNL A   1      47.768  31.249  29.347  1.00  0.00    -0.206 F 
ATOM     94  C   UNL A   1      47.023  32.773  27.738  1.00  0.00     0.059 A 
ATOM     95  C   UNL A   1      44.668  32.903  27.192  1.00  0.00     0.059 A 
ATOM     96  F   UNL A   1      43.121  31.586  28.355  1.00  0.00    -0.206 F 
ATOM     97  C   UNL A   1      45.981  33.316  26.985  1.00  0.00     0.060 A 
BRANCH  97  98
ATOM     98  S   UNL A   1      46.353  34.537  25.708  1.00  0.00     0.124 S 
ATOM     99  O   UNL A   1      47.762  34.277  25.437  1.00  0.00    -0.237 OA
ATOM    100  O   UNL A   1      45.423  34.175  24.642  1.00  0.00    -0.237 OA
ATOM    101  O   UNL A   1      46.070  35.812  26.363  1.00  0.00    -0.744 OA
ENDBRANCH  97  98
ENDBRANCH  65  90
ENDBRANCH  39  40
ENDBRANCH  32  34
ENDBRANCH  31  32
ENDBRANCH  30  31
ENDBRANCH   1  30
TORSDOF 19
ENDMDL
MODEL 2
REMARK VINA RESULT:     -12.1      3.018      9.378
REMARK SMILES NS(=O)(=O)c1ccc(-n2ccnc2-c2ccc(O)c(C(=O)OCCOC(=O)c3ccc(-c4c5nc(c(-c6c(F)cc(S(=O)(=O)[O-])cc6F)c6ccc([nH]6)c(-c6c(F)cc(S(=O)(=O)[O-])cc6F)c6nc(c(-c7c(F)cc(S(=O)(=O)[O-])cc7F)c7ccc4[nH]7)C=C6)C=C5)cc3)c2)cc1
REMARK SMILES IDX 23 1 22 2 20 3 21 4 19 5 14 6 15 7 94 8 16 9 17 10 13 11
REMARK SMILES IDX 9 12 10 13 11 14 12 15 8 16 5 17 6 18 96 19 7 20 95 21 2 22
REMARK SMILES IDX 3 23 4 24 1 25 18 28 24 30 25 31 26 32 27 33 28 34 29 35
REMARK SMILES IDX 93 36 30 37 92 38 31 39 32 40 33 41 86 42 34 43 91 44 85 45
REMARK SMILES IDX 87 46 35 47 90 48 84 49 83 50 36 52 70 53 49 54 69 55 50 56
REMARK SMILES IDX 53 57 68 58 88 59 51 60 52 61 67 63 89 64 54 65 37 66 38 67
REMARK SMILES IDX 47 68 39 69 40 70 46 71 48 72 41 73 42 74 43 75 44 76 45 77
REMARK SMILES IDX 71 78 72 79 81 80 73 81 74 82 80 83 82 84 75 85 76 86 77 87
REMARK SMILES IDX 78 88 79 89 55 90 56 91 65 92 57 93 58 94 64 95 66 96 59 97
REMARK SMILES IDX 60 98 61 99 62 100 63 101
REMARK H PARENT 1 26 1 27 18 29 87 51 53 62
REMARK Flexibility Score: inf
ROOT
ATOM      1  C   UNL A   1      36.418  21.415  25.639  1.00  0.00     0.275 C 
ENDROOT
BRANCH   1   2
ATOM      2  O   UNL A   1      35.728  21.053  24.430  1.00  0.00    -0.458 OA
BRANCH   2   3
ATOM      3  C   UNL A   1      34.506  20.483  24.589  1.00  0.00     0.342 C 
ATOM      4  O   UNL A   1      34.280  19.356  25.006  1.00  0.00    -0.246 OA
BRANCH   3   5
ATOM      5  C   UNL A   1      33.416  21.444  24.289  1.00  0.00     0.102 A 
ATOM      6  C   UNL A   1      32.575  23.389  23.086  1.00  0.00     0.019 A 
ATOM      7  C   UNL A   1      31.341  23.250  23.726  1.00  0.00     0.016 A 
ATOM      8  C   UNL A   1      33.624  22.516  23.416  1.00  0.00     0.031 A 
ATOM      9  C   UNL A   1      31.134  22.201  24.625  1.00  0.00     0.048 A 
ATOM     10  C   UNL A   1      32.158  21.289  24.885  1.00  0.00     0.130 A 
BRANCH   6  11
ATOM     11  C   UNL A   1      32.762  24.378  22.019  1.00  0.00     0.144 A 
ATOM     12  N   UNL A   1      32.572  25.749  22.191  1.00  0.00    -0.300 N 
ATOM     13  C   UNL A   1      32.533  26.300  20.930  1.00  0.00     0.113 A 
ATOM     14  C   UNL A   1      32.881  25.281  20.076  1.00  0.00     0.132 A 
ATOM     15  N   UNL A   1      33.043  24.106  20.757  1.00  0.00    -0.236 NA
BRANCH  12  16
ATOM     16  C   UNL A   1      32.442  26.459  23.413  1.00  0.00     0.047 A 
ATOM     17  C   UNL A   1      32.195  27.955  25.748  1.00  0.00     0.082 A 
ATOM     18  C   UNL A   1      31.069  27.734  24.953  1.00  0.00     0.024 A 
ATOM     19  C   UNL A   1      33.441  27.429  25.388  1.00  0.00     0.024 A 
ATOM     20  C   UNL A   1      31.195  26.990  23.780  1.00  0.00     0.028 A 
ATOM     21  C   UNL A   1      33.562  26.658  24.229  1.00  0.00     0.028 A 
BRANCH  17  22
ATOM     22  S   UNL A   1      32.056  28.933  27.214  1.00  0.00     0.238 S 
ATOM     23  O   UNL A   1      31.316  28.183  28.208  1.00  0.00    -0.207 OA
ATOM     24  O   UNL A   1      31.704  30.276  26.833  1.00  0.00    -0.207 OA
BRANCH  22  25
ATOM     25  N   UNL A   1      33.629  29.001  27.796  1.00  0.00    -0.225 NA
ATOM     26  H   UNL A   1      33.816  29.935  28.164  1.00  0.00     0.137 HD
ATOM     27  H   UNL A   1      34.281  28.797  27.039  1.00  0.00     0.137 HD
ENDBRANCH  22  25
ENDBRANCH  17  22
ENDBRANCH  12  16
ENDBRANCH   6  11
BRANCH  10  28
ATOM     28  O   UNL A   1      31.852  20.267  25.744  1.00  0.00    -0.507 OA
ATOM     29  H   UNL A   1      31.444  19.488  25.419  1.00  0.00     0.293 HD
ENDBRANCH  10  28
ENDBRANCH   3   5
ENDBRANCH   2   3
ENDBRANCH   1   2
BRANCH   1  30
ATOM     30  C   UNL A   1      37.928  21.390  25.442  1.00  0.00     0.275 C 
BRANCH  30  31
ATOM     31  O   UNL A   1      38.527  22.621  25.845  1.00  0.00    -0.458 OA
BRANCH  31  32
ATOM     32  C   UNL A   1      39.664  22.494  26.569  1.00  0.00     0.338 C 
ATOM     33  O   UNL A   1      40.136  21.461  27.014  1.00  0.00    -0.246 OA
BRANCH  32  34
ATOM     34  C   UNL A   1      40.161  23.827  26.920  1.00  0.00     0.060 A 
ATOM     35  C   UNL A   1      41.357  23.914  27.638  1.00  0.00     0.016 A 
ATOM     36  C   UNL A   1      39.314  24.934  26.759  1.00  0.00     0.016 A 
ATOM     37  C   UNL A   1      41.632  25.080  28.325  1.00  0.00     0.010 A 
ATOM     38  C   UNL A   1      39.577  26.084  27.462  1.00  0.00     0.010 A 
ATOM     39  C   UNL A   1      40.698  26.121  28.287  1.00  0.00    -0.014 A 
BRANCH  39  40
ATOM     40  C   UNL A   1      40.976  27.338  29.023  1.00  0.00     0.031 A 
ATOM     41  C   UNL A   1      42.083  28.120  28.423  1.00  0.00     0.074 A 
ATOM     42  C   UNL A   1      40.188  27.763  30.030  1.00  0.00     0.049 A 
ATOM     43  N   UNL A   1      43.261  28.321  28.913  1.00  0.00    -0.248 NA
ATOM     44  C   UNL A   1      41.940  28.557  27.021  1.00  0.00     0.031 C 
ATOM     45  C   UNL A   1      38.917  27.190  30.485  1.00  0.00     0.029 A 
ATOM     46  N   UNL A   1      40.305  28.875  30.802  1.00  0.00    -0.354 N 
ATOM     47  C   UNL A   1      43.910  29.134  27.990  1.00  0.00     0.074 A 
ATOM     48  C   UNL A   1      43.158  29.039  26.769  1.00  0.00     0.031 C 
ATOM     49  C   UNL A   1      38.282  28.084  31.278  1.00  0.00     0.029 A 
ATOM     50  C   UNL A   1      39.146  29.234  31.485  1.00  0.00     0.049 A 
ATOM     51  H   UNL A   1      41.143  29.387  30.873  1.00  0.00     0.167 HD
ATOM     52  C   UNL A   1      44.831  30.051  28.394  1.00  0.00     0.037 A 
ATOM     53  C   UNL A   1      38.908  30.429  32.092  1.00  0.00     0.037 A 
ATOM     54  C   UNL A   1      45.304  29.755  29.724  1.00  0.00     0.049 A 
ATOM     55  C   UNL A   1      40.235  31.070  32.316  1.00  0.00     0.074 A 
ATOM     56  C   UNL A   1      45.919  28.666  30.313  1.00  0.00     0.029 A 
ATOM     57  N   UNL A   1      44.797  30.505  30.757  1.00  0.00    -0.354 N 
ATOM     58  N   UNL A   1      41.133  30.601  33.139  1.00  0.00    -0.248 NA
ATOM     59  C   UNL A   1      40.748  31.937  31.265  1.00  0.00     0.031 C 
ATOM     60  C   UNL A   1      45.336  28.569  31.609  1.00  0.00     0.029 A 
ATOM     61  C   UNL A   1      44.463  29.645  31.772  1.00  0.00     0.049 A 
ATOM     62  H   UNL A   1      44.695  31.485  30.768  1.00  0.00     0.167 HD
ATOM     63  C   UNL A   1      42.338  30.738  32.464  1.00  0.00     0.074 A 
ATOM     64  C   UNL A   1      42.046  31.628  31.343  1.00  0.00     0.031 C 
ATOM     65  C   UNL A   1      43.382  29.886  32.700  1.00  0.00     0.037 A 
BRANCH  52  66
ATOM     66  C   UNL A   1      44.986  31.418  27.767  1.00  0.00     0.058 A 
ATOM     67  C   UNL A   1      46.225  31.767  27.191  1.00  0.00     0.135 A 
ATOM     68  C   UNL A   1      44.084  32.491  27.955  1.00  0.00     0.135 A 
ATOM     69  F   UNL A   1      47.164  30.832  26.972  1.00  0.00    -0.206 F 
ATOM     70  C   UNL A   1      46.570  33.087  26.901  1.00  0.00     0.059 A 
ATOM     71  C   UNL A   1      44.385  33.805  27.621  1.00  0.00     0.059 A 
ATOM     72  F   UNL A   1      42.901  32.345  28.564  1.00  0.00    -0.206 F 
ATOM     73  C   UNL A   1      45.645  34.100  27.134  1.00  0.00     0.060 A 
BRANCH  73  74
ATOM     74  S   UNL A   1      46.115  35.813  26.845  1.00  0.00     0.124 S 
ATOM     75  O   UNL A   1      46.829  36.130  28.075  1.00  0.00    -0.237 OA
ATOM     76  O   UNL A   1      46.930  35.701  25.640  1.00  0.00    -0.237 OA
ATOM     77  O   UNL A   1      44.832  36.487  26.666  1.00  0.00    -0.744 OA
ENDBRANCH  73  74
ENDBRANCH  52  66
BRANCH  53  78
ATOM     78  C   UNL A   1      37.637  31.211  32.108  1.00  0.00     0.058 A 
ATOM     79  C   UNL A   1      37.061  31.646  33.319  1.00  0.00     0.135 A 
ATOM     80  C   UNL A   1      37.119  31.801  30.938  1.00  0.00     0.135 A 
ATOM     81  F   UNL A   1      37.499  31.154  34.488  1.00  0.00    -0.206 F 
ATOM     82  C   UNL A   1      36.080  32.646  33.368  1.00  0.00     0.059 A 
ATOM     83  C   UNL A   1      36.135  32.789  30.961  1.00  0.00     0.059 A 
ATOM     84  F   UNL A   1      37.622  31.506  29.730  1.00  0.00    -0.206 F 
ATOM     85  C   UNL A   1      35.640  33.230  32.182  1.00  0.00     0.060 A 
BRANCH  85  86
ATOM     86  S   UNL A   1      34.522  34.652  32.237  1.00  0.00     0.124 S 
ATOM     87  O   UNL A   1      33.370  34.106  32.947  1.00  0.00    -0.237 OA
ATOM     88  O   UNL A   1      35.312  35.639  32.968  1.00  0.00    -0.237 OA
ATOM     89  O   UNL A   1      34.296  34.963  30.828  1.00  0.00    -0.744 OA
ENDBRANCH  85  86
ENDBRANCH  53  78
BRANCH  65  90
ATOM     90  C   UNL A   1      43.315  28.995  33.915  1.00  0.00     0.058 A 
ATOM     91  C   UNL A   1      43.566  29.408  35.236  1.00  0.00     0.135 A 
ATOM     92  C   UNL A   1      42.848  27.685  33.734  1.00  0.00     0.135 A 
ATOM     93  F   UNL A   1      43.905  30.675  35.511  1.00  0.00    -0.206 F 
ATOM     94  C   UNL A   1      43.417  28.536  36.319  1.00  0.00     0.059 A 
ATOM     95  C   UNL A   1      42.660  26.811  34.798  1.00  0.00     0.059 A 
ATOM     96  F   UNL A   1      42.528  27.249  32.503  1.00  0.00    -0.206 F 
ATOM     97  C   UNL A   1      42.968  27.235  36.088  1.00  0.00     0.060 A 
BRANCH  97  98
ATOM     98  S   UNL A   1      42.753  26.111  37.483  1.00  0.00     0.124 S 
ATOM     99  O   UNL A   1      43.673  26.666  38.469  1.00  0.00    -0.237 OA
ATOM    100  O   UNL A   1      41.332  26.252  37.789  1.00  0.00    -0.237 OA
ATOM    101  O   UNL A   1      43.137  24.811  36.937  1.00  0.00    -0.744 OA
ENDBRANCH  97  98
ENDBRANCH  65  90
ENDBRANCH  39  40
ENDBRANCH  32  34
ENDBRANCH  31  32
ENDBRANCH  30  31
ENDBRANCH   1  30
TORSDOF 19
ENDMDL
MODEL 3
REMARK VINA RESULT:     -12.0      2.813      9.146
REMARK SMILES NS(=O)(=O)c1ccc(-n2ccnc2-c2ccc(O)c(C(=O)OCCOC(=O)c3ccc(-c4c5nc(c(-c6c(F)cc(S(=O)(=O)[O-])cc6F)c6ccc([nH]6)c(-c6c(F)cc(S(=O)(=O)[O-])cc6F)c6nc(c(-c7c(F)cc(S(=O)(=O)[O-])cc7F)c7ccc4[nH]7)C=C6)C=C5)cc3)c2)cc1
REMARK SMILES IDX 23 1 22 2 20 3 21 4 19 5 14 6 15 7 94 8 16 9 17 10 13 11
REMARK SMILES IDX 9 12 10 13 11 14 12 15 8 16 5 17 6 18 96 19 7 20 95 21 2 22
REMARK SMILES IDX 3 23 4 24 1 25 18 28 24 30 25 31 26 32 27 33 28 34 29 35
REMARK SMILES IDX 93 36 30 37 92 38 31 39 32 40 33 41 86 42 34 43 91 44 85 45
REMARK SMILES IDX 87 46 35 47 90 48 84 49 83 50 36 52 70 53 49 54 69 55 50 56
REMARK SMILES IDX 53 57 68 58 88 59 51 60 52 61 67 63 89 64 54 65 37 66 38 67
REMARK SMILES IDX 47 68 39 69 40 70 46 71 48 72 41 73 42 74 43 75 44 76 45 77
REMARK SMILES IDX 71 78 72 79 81 80 73 81 74 82 80 83 82 84 75 85 76 86 77 87
REMARK SMILES IDX 78 88 79 89 55 90 56 91 65 92 57 93 58 94 64 95 66 96 59 97
REMARK SMILES IDX 60 98 61 99 62 100 63 101
REMARK H PARENT 1 26 1 27 18 29 87 51 53 62
REMARK Flexibility Score: inf
ROOT
ATOM      1  C   UNL A   1      38.532  21.286  25.325  1.00  0.00     0.275 C 
ENDROOT
BRANCH   1   2
ATOM      2  O   UNL A   1      37.156  21.497  25.684  1.00  0.00    -0.458 OA
BRANCH   2   3
ATOM      3  C   UNL A   1      36.619  22.688  25.315  1.00  0.00     0.342 C 
ATOM      4  O   UNL A   1      37.142  23.788  25.432  1.00  0.00    -0.246 OA
BRANCH   3   5
ATOM      5  C   UNL A   1      35.316  22.506  24.628  1.00  0.00     0.102 A 
ATOM      6  C   UNL A   1      33.625  23.276  23.052  1.00  0.00     0.019 A 
ATOM      7  C   UNL A   1      32.851  22.147  23.333  1.00  0.00     0.016 A 
ATOM      8  C   UNL A   1      34.829  23.476  23.747  1.00  0.00     0.031 A 
ATOM      9  C   UNL A   1      33.315  21.189  24.238  1.00  0.00     0.048 A 
ATOM     10  C   UNL A   1      34.552  21.357  24.863  1.00  0.00     0.130 A 
BRANCH   6  11
ATOM     11  C   UNL A   1      33.238  24.207  21.987  1.00  0.00     0.144 A 
ATOM     12  N   UNL A   1      32.674  25.462  22.222  1.00  0.00    -0.300 N 
ATOM     13  C   UNL A   1      32.171  25.896  21.017  1.00  0.00     0.113 A 
ATOM     14  C   UNL A   1      32.611  24.984  20.088  1.00  0.00     0.132 A 
ATOM     15  N   UNL A   1      33.288  23.960  20.691  1.00  0.00    -0.236 NA
BRANCH  12  16
ATOM     16  C   UNL A   1      32.618  26.170  23.451  1.00  0.00     0.047 A 
ATOM     17  C   UNL A   1      32.447  27.648  25.804  1.00  0.00     0.082 A 
ATOM     18  C   UNL A   1      31.361  26.867  25.404  1.00  0.00     0.024 A 
ATOM     19  C   UNL A   1      33.618  27.690  25.039  1.00  0.00     0.024 A 
ATOM     20  C   UNL A   1      31.444  26.132  24.222  1.00  0.00     0.028 A 
ATOM     21  C   UNL A   1      33.715  26.931  23.870  1.00  0.00     0.028 A 
BRANCH  17  22
ATOM     22  S   UNL A   1      32.336  28.618  27.278  1.00  0.00     0.238 S 
ATOM     23  O   UNL A   1      33.673  28.872  27.772  1.00  0.00    -0.207 OA
ATOM     24  O   UNL A   1      31.292  28.069  28.105  1.00  0.00    -0.207 OA
BRANCH  22  25
ATOM     25  N   UNL A   1      31.779  30.105  26.734  1.00  0.00    -0.225 NA
ATOM     26  H   UNL A   1      30.998  29.962  26.093  1.00  0.00     0.137 HD
ATOM     27  H   UNL A   1      32.531  30.594  26.249  1.00  0.00     0.137 HD
ENDBRANCH  22  25
ENDBRANCH  17  22
ENDBRANCH  12  16
ENDBRANCH   6  11
BRANCH  10  28
ATOM     28  O   UNL A   1      34.947  20.347  25.699  1.00  0.00    -0.507 OA
ATOM     29  H   UNL A   1      35.648  19.777  25.448  1.00  0.00     0.293 HD
ENDBRANCH  10  28
ENDBRANCH   3   5
ENDBRANCH   2   3
ENDBRANCH   1   2
BRANCH   1  30
ATOM     30  C   UNL A   1      39.468  21.717  26.446  1.00  0.00     0.275 C 
BRANCH  30  31
ATOM     31  O   UNL A   1      40.456  20.722  26.713  1.00  0.00    -0.458 OA
BRANCH  31  32
ATOM     32  C   UNL A   1      41.680  20.977  26.196  1.00  0.00     0.338 C 
ATOM     33  O   UNL A   1      42.389  20.201  25.577  1.00  0.00    -0.246 OA
BRANCH  32  34
ATOM     34  C   UNL A   1      42.133  22.291  26.661  1.00  0.00     0.060 A 
ATOM     35  C   UNL A   1      42.419  22.442  28.021  1.00  0.00     0.016 A 
ATOM     36  C   UNL A   1      42.019  23.395  25.803  1.00  0.00     0.016 A 
ATOM     37  C   UNL A   1      42.441  23.717  28.553  1.00  0.00     0.010 A 
ATOM     38  C   UNL A   1      42.019  24.659  26.338  1.00  0.00     0.010 A 
ATOM     39  C   UNL A   1      42.166  24.803  27.716  1.00  0.00    -0.014 A 
BRANCH  39  40
ATOM     40  C   UNL A   1      42.170  26.139  28.276  1.00  0.00     0.031 A 
ATOM     41  C   UNL A   1      43.332  26.938  27.820  1.00  0.00     0.074 A 
ATOM     42  C   UNL A   1      41.134  26.622  28.988  1.00  0.00     0.049 A 
ATOM     43  N   UNL A   1      44.339  27.336  28.524  1.00  0.00    -0.248 NA
ATOM     44  C   UNL A   1      43.504  27.141  26.369  1.00  0.00     0.031 C 
ATOM     45  C   UNL A   1      39.833  25.989  29.232  1.00  0.00     0.029 A 
ATOM     46  N   UNL A   1      40.982  27.843  29.564  1.00  0.00    -0.354 N 
ATOM     47  C   UNL A   1      45.134  28.068  27.648  1.00  0.00     0.074 A 
ATOM     48  C   UNL A   1      44.710  27.710  26.322  1.00  0.00     0.031 C 
ATOM     49  C   UNL A   1      38.964  26.917  29.694  1.00  0.00     0.029 A 
ATOM     50  C   UNL A   1      39.668  28.172  29.893  1.00  0.00     0.049 A 
ATOM     51  H   UNL A   1      41.739  28.448  29.736  1.00  0.00     0.167 HD
ATOM     52  C   UNL A   1      45.863  29.129  28.089  1.00  0.00     0.037 A 
ATOM     53  C   UNL A   1      39.207  29.411  30.215  1.00  0.00     0.037 A 
ATOM     54  C   UNL A   1      46.018  29.089  29.522  1.00  0.00     0.049 A 
ATOM     55  C   UNL A   1      40.392  30.219  30.624  1.00  0.00     0.074 A 
ATOM     56  C   UNL A   1      46.546  28.174  30.413  1.00  0.00     0.029 A 
ATOM     57  N   UNL A   1      45.224  29.926  30.269  1.00  0.00    -0.354 N 
ATOM     58  N   UNL A   1      41.094  29.979  31.698  1.00  0.00    -0.248 NA
ATOM     59  C   UNL A   1      41.083  30.969  29.585  1.00  0.00     0.031 C 
ATOM     60  C   UNL A   1      45.673  28.209  31.539  1.00  0.00     0.029 A 
ATOM     61  C   UNL A   1      44.714  29.196  31.311  1.00  0.00     0.049 A 
ATOM     62  H   UNL A   1      45.054  30.880  30.088  1.00  0.00     0.167 HD
ATOM     63  C   UNL A   1      42.414  30.143  31.302  1.00  0.00     0.074 A 
ATOM     64  C   UNL A   1      42.342  30.819  30.009  1.00  0.00     0.031 C 
ATOM     65  C   UNL A   1      43.426  29.455  31.913  1.00  0.00     0.037 A 
BRANCH  52  66
ATOM     66  C   UNL A   1      46.070  30.396  27.289  1.00  0.00     0.058 A 
ATOM     67  C   UNL A   1      47.371  30.929  27.181  1.00  0.00     0.135 A 
ATOM     68  C   UNL A   1      45.028  31.257  26.871  1.00  0.00     0.135 A 
ATOM     69  F   UNL A   1      48.439  30.204  27.555  1.00  0.00    -0.206 F 
ATOM     70  C   UNL A   1      47.611  32.239  26.767  1.00  0.00     0.059 A 
ATOM     71  C   UNL A   1      45.250  32.545  26.402  1.00  0.00     0.059 A 
ATOM     72  F   UNL A   1      43.734  30.937  26.987  1.00  0.00    -0.206 F 
ATOM     73  C   UNL A   1      46.540  33.043  26.393  1.00  0.00     0.060 A 
BRANCH  73  74
ATOM     74  S   UNL A   1      46.833  34.760  25.942  1.00  0.00     0.124 S 
ATOM     75  O   UNL A   1      47.945  34.629  25.009  1.00  0.00    -0.237 OA
ATOM     76  O   UNL A   1      45.550  35.141  25.362  1.00  0.00    -0.237 OA
ATOM     77  O   UNL A   1      47.149  35.392  27.220  1.00  0.00    -0.744 OA
ENDBRANCH  73  74
ENDBRANCH  52  66
BRANCH  53  78
ATOM     78  C   UNL A   1      37.919  30.044  29.807  1.00  0.00     0.058 A 
ATOM     79  C   UNL A   1      37.102  30.711  30.742  1.00  0.00     0.135 A 
ATOM     80  C   UNL A   1      37.604  30.268  28.451  1.00  0.00     0.135 A 
ATOM     81  F   UNL A   1      37.333  30.573  32.057  1.00  0.00    -0.206 F 
ATOM     82  C   UNL A   1      36.081  31.590  30.357  1.00  0.00     0.059 A 
ATOM     83  C   UNL A   1      36.586  31.130  28.043  1.00  0.00     0.059 A 
ATOM     84  F   UNL A   1      38.342  29.730  27.469  1.00  0.00    -0.206 F 
ATOM     85  C   UNL A   1      35.846  31.811  29.001  1.00  0.00     0.060 A 
BRANCH  85  86
ATOM     86  S   UNL A   1      34.668  33.086  28.486  1.00  0.00     0.124 S 
ATOM     87  O   UNL A   1      33.594  32.289  27.905  1.00  0.00    -0.237 OA
ATOM     88  O   UNL A   1      34.358  33.750  29.749  1.00  0.00    -0.237 OA
ATOM     89  O   UNL A   1      35.432  33.891  27.537  1.00  0.00    -0.744 OA
ENDBRANCH  85  86
ENDBRANCH  53  78
BRANCH  65  90
ATOM     90  C   UNL A   1      43.129  28.754  33.214  1.00  0.00     0.058 A 
ATOM     91  C   UNL A   1      43.047  29.381  34.471  1.00  0.00     0.135 A 
ATOM     92  C   UNL A   1      42.785  27.395  33.156  1.00  0.00     0.135 A 
ATOM     93  F   UNL A   1      43.248  30.700  34.599  1.00  0.00    -0.206 F 
ATOM     94  C   UNL A   1      42.699  28.672  35.625  1.00  0.00     0.059 A 
ATOM     95  C   UNL A   1      42.403  26.678  34.284  1.00  0.00     0.059 A 
ATOM     96  F   UNL A   1      42.778  26.753  31.975  1.00  0.00    -0.206 F 
ATOM     97  C   UNL A   1      42.383  27.317  35.521  1.00  0.00     0.060 A 
BRANCH  97  98
ATOM     98  S   UNL A   1      41.912  26.399  37.002  1.00  0.00     0.124 S 
ATOM     99  O   UNL A   1      41.826  25.032  36.502  1.00  0.00    -0.237 OA
ATOM    100  O   UNL A   1      43.020  26.674  37.912  1.00  0.00    -0.237 OA
ATOM    101  O   UNL A   1      40.638  27.003  37.386  1.00  0.00    -0.744 OA
ENDBRANCH  97  98
ENDBRANCH  65  90
ENDBRANCH  39  40
ENDBRANCH  32  34
ENDBRANCH  31  32
ENDBRANCH  30  31
ENDBRANCH   1  30
TORSDOF 19
ENDMDL
