MODEL 1
REMARK VINA RESULT:     -12.4      0.000      0.000
REMARK SMILES O=C(OCCOC(=O)[C@H](c1c[nH]c2ccc(Br)cc12)[N@H+]1CCC[C@H](c2nc3ccccc3s2)C1)c1ccc(-c2c3nc(c(-c4c(F)cc(S(=O)(=O)[O-])cc4F)c4ccc([nH]4)c(-c4c(F)cc(S(=O)(=O)[O-])cc4F)c4nc(c(-c5c(F)cc(S(=O)(=O)[O-])cc5F)c5ccc2[nH]5)C=C4)C=C3)cc1
REMARK SMILES IDX 4 1 3 2 2 3 1 4 35 5 36 6 100 7 37 8 99 9 38 10 39 11 40 12
REMARK SMILES IDX 93 13 41 14 98 15 92 16 94 17 42 18 97 19 91 20 90 21 43 23
REMARK SMILES IDX 77 24 56 25 76 26 57 27 60 28 75 29 95 30 58 31 59 32 74 34
REMARK SMILES IDX 96 35 61 36 44 37 45 38 54 39 46 40 47 41 53 42 55 43 48 44
REMARK SMILES IDX 49 45 50 46 51 47 52 48 78 49 79 50 88 51 80 52 81 53 87 54
REMARK SMILES IDX 89 55 82 56 83 57 84 58 85 59 86 60 62 61 63 62 72 63 64 64
REMARK SMILES IDX 65 65 71 66 73 67 66 68 67 69 68 70 69 71 70 72 5 73 6 74
REMARK SMILES IDX 7 75 8 76 9 77 20 78 21 79 34 80 22 82 24 83 23 84 25 85
REMARK SMILES IDX 26 86 33 87 27 88 32 89 28 90 31 91 29 92 30 93 10 94 11 95
REMARK SMILES IDX 19 96 12 97 13 98 18 99 14 101 16 102 15 103 17 104
REMARK H PARENT 94 22 60 33 20 81 12 100
REMARK Flexibility Score: inf
ROOT
ATOM      1  C   UNL A   1      39.084  22.552  26.204  1.00  0.00     0.275 C 
ENDROOT
BRANCH   1   2
ATOM      2  O   UNL A   1      39.357  23.869  26.722  1.00  0.00    -0.458 OA
BRANCH   2   3
ATOM      3  C   UNL A   1      40.504  24.447  27.154  1.00  0.00     0.338 C 
ATOM      4  O   UNL A   1      41.569  23.960  26.771  1.00  0.00    -0.246 OA
BRANCH   3   5
ATOM      5  C   UNL A   1      40.586  25.581  28.140  1.00  0.00     0.060 A 
ATOM      6  C   UNL A   1      41.683  26.417  28.345  1.00  0.00     0.016 A 
ATOM      7  C   UNL A   1      39.444  25.811  28.940  1.00  0.00     0.016 A 
ATOM      8  C   UNL A   1      41.614  27.492  29.247  1.00  0.00     0.010 A 
ATOM      9  C   UNL A   1      39.375  26.877  29.856  1.00  0.00     0.010 A 
ATOM     10  C   UNL A   1      40.462  27.739  30.008  1.00  0.00    -0.014 A 
BRANCH  10  11
ATOM     11  C   UNL A   1      40.532  28.783  31.069  1.00  0.00     0.031 A 
ATOM     12  C   UNL A   1      39.507  29.863  31.049  1.00  0.00     0.074 A 
ATOM     13  C   UNL A   1      41.388  28.730  32.108  1.00  0.00     0.049 A 
ATOM     14  N   UNL A   1      39.271  30.772  31.953  1.00  0.00    -0.248 NA
ATOM     15  C   UNL A   1      38.642  29.930  29.862  1.00  0.00     0.031 C 
ATOM     16  C   UNL A   1      42.450  27.757  32.223  1.00  0.00     0.029 A 
ATOM     17  N   UNL A   1      41.480  29.448  33.286  1.00  0.00    -0.354 N 
ATOM     18  C   UNL A   1      38.235  31.531  31.444  1.00  0.00     0.074 A 
ATOM     19  C   UNL A   1      37.875  30.968  30.160  1.00  0.00     0.031 C 
ATOM     20  C   UNL A   1      43.002  27.865  33.443  1.00  0.00     0.029 A 
ATOM     21  C   UNL A   1      42.399  28.938  34.180  1.00  0.00     0.049 A 
ATOM     22  H   UNL A   1      40.940  30.251  33.468  1.00  0.00     0.167 HD
ATOM     23  C   UNL A   1      37.666  32.625  31.995  1.00  0.00     0.037 A 
ATOM     24  C   UNL A   1      42.756  29.264  35.441  1.00  0.00     0.037 A 
ATOM     25  C   UNL A   1      38.098  33.224  33.228  1.00  0.00     0.049 A 
ATOM     26  C   UNL A   1      42.157  30.506  35.991  1.00  0.00     0.074 A 
ATOM     27  C   UNL A   1      37.631  34.379  33.827  1.00  0.00     0.029 A 
ATOM     28  N   UNL A   1      39.117  32.737  34.038  1.00  0.00    -0.354 N 
ATOM     29  N   UNL A   1      41.215  31.243  35.466  1.00  0.00    -0.248 NA
ATOM     30  C   UNL A   1      42.709  31.005  37.255  1.00  0.00     0.031 C 
ATOM     31  C   UNL A   1      38.401  34.621  34.968  1.00  0.00     0.029 A 
ATOM     32  C   UNL A   1      39.303  33.580  35.121  1.00  0.00     0.049 A 
ATOM     33  H   UNL A   1      39.630  31.915  33.867  1.00  0.00     0.167 HD
ATOM     34  C   UNL A   1      41.074  32.318  36.318  1.00  0.00     0.074 A 
ATOM     35  C   UNL A   1      42.004  32.117  37.414  1.00  0.00     0.031 C 
ATOM     36  C   UNL A   1      40.250  33.379  36.187  1.00  0.00     0.037 A 
BRANCH  23  37
ATOM     37  C   UNL A   1      36.586  33.278  31.195  1.00  0.00     0.058 A 
ATOM     38  C   UNL A   1      36.876  34.088  30.086  1.00  0.00     0.135 A 
ATOM     39  C   UNL A   1      35.245  33.123  31.572  1.00  0.00     0.135 A 
ATOM     40  F   UNL A   1      38.150  34.307  29.721  1.00  0.00    -0.206 F 
ATOM     41  C   UNL A   1      35.868  34.731  29.381  1.00  0.00     0.059 A 
ATOM     42  C   UNL A   1      34.218  33.736  30.865  1.00  0.00     0.059 A 
ATOM     43  F   UNL A   1      34.924  32.384  32.645  1.00  0.00    -0.206 F 
ATOM     44  C   UNL A   1      34.541  34.546  29.778  1.00  0.00     0.060 A 
BRANCH  44  45
ATOM     45  S   UNL A   1      33.243  35.371  28.838  1.00  0.00     0.124 S 
ATOM     46  O   UNL A   1      32.614  34.246  28.157  1.00  0.00    -0.237 OA
ATOM     47  O   UNL A   1      32.454  36.003  29.886  1.00  0.00    -0.237 OA
ATOM     48  O   UNL A   1      33.986  36.291  27.974  1.00  0.00    -0.744 OA
ENDBRANCH  44  45
ENDBRANCH  23  37
BRANCH  24  49
ATOM     49  C   UNL A   1      43.792  28.528  36.234  1.00  0.00     0.058 A 
ATOM     50  C   UNL A   1      45.162  28.822  36.148  1.00  0.00     0.135 A 
ATOM     51  C   UNL A   1      43.429  27.433  37.030  1.00  0.00     0.135 A 
ATOM     52  F   UNL A   1      45.586  29.802  35.335  1.00  0.00    -0.206 F 
ATOM     53  C   UNL A   1      46.121  28.093  36.860  1.00  0.00     0.059 A 
ATOM     54  C   UNL A   1      44.360  26.712  37.778  1.00  0.00     0.059 A 
ATOM     55  F   UNL A   1      42.152  27.032  37.050  1.00  0.00    -0.206 F 
ATOM     56  C   UNL A   1      45.709  27.050  37.689  1.00  0.00     0.060 A 
BRANCH  56  57
ATOM     57  S   UNL A   1      46.910  26.152  38.703  1.00  0.00     0.124 S 
ATOM     58  O   UNL A   1      47.850  27.210  39.057  1.00  0.00    -0.237 OA
ATOM     59  O   UNL A   1      46.095  25.634  39.798  1.00  0.00    -0.237 OA
ATOM     60  O   UNL A   1      47.413  25.140  37.778  1.00  0.00    -0.744 OA
ENDBRANCH  56  57
ENDBRANCH  24  49
BRANCH  36  61
ATOM     61  C   UNL A   1      40.297  34.378  37.292  1.00  0.00     0.058 A 
ATOM     62  C   UNL A   1      39.423  34.316  38.385  1.00  0.00     0.135 A 
ATOM     63  C   UNL A   1      41.240  35.414  37.244  1.00  0.00     0.135 A 
ATOM     64  F   UNL A   1      38.483  33.358  38.450  1.00  0.00    -0.206 F 
ATOM     65  C   UNL A   1      39.475  35.263  39.398  1.00  0.00     0.059 A 
ATOM     66  C   UNL A   1      41.330  36.353  38.258  1.00  0.00     0.059 A 
ATOM     67  F   UNL A   1      42.084  35.513  36.204  1.00  0.00    -0.206 F 
ATOM     68  C   UNL A   1      40.437  36.274  39.327  1.00  0.00     0.060 A 
BRANCH  68  69
ATOM     69  S   UNL A   1      40.529  37.474  40.667  1.00  0.00     0.124 S 
ATOM     70  O   UNL A   1      39.232  37.293  41.312  1.00  0.00    -0.237 OA
ATOM     71  O   UNL A   1      41.686  37.004  41.424  1.00  0.00    -0.237 OA
ATOM     72  O   UNL A   1      40.716  38.743  39.973  1.00  0.00    -0.744 OA
ENDBRANCH  68  69
ENDBRANCH  36  61
ENDBRANCH  10  11
ENDBRANCH   3   5
ENDBRANCH   2   3
ENDBRANCH   1   2
BRANCH   1  73
ATOM     73  C   UNL A   1      37.812  22.467  25.367  1.00  0.00     0.274 C 
BRANCH  73  74
ATOM     74  O   UNL A   1      37.294  23.766  25.065  1.00  0.00    -0.457 OA
BRANCH  74  75
ATOM     75  C   UNL A   1      36.104  23.808  24.385  1.00  0.00     0.370 C 
ATOM     76  O   UNL A   1      36.020  23.518  23.193  1.00  0.00    -0.245 OA
BRANCH  75  77
ATOM     77  C   UNL A   1      34.919  24.177  25.322  1.00  0.00     0.328 C 
BRANCH  77  78
ATOM     78  N   UNL A   1      33.904  25.122  24.744  1.00  0.00    -0.319 N 
ATOM     79  C   UNL A   1      33.799  25.203  23.293  1.00  0.00     0.263 C 
ATOM     80  C   UNL A   1      32.590  25.206  25.382  1.00  0.00     0.274 C 
ATOM     81  H   UNL A   1      34.388  25.972  25.032  1.00  0.00     0.349 HD
ATOM     82  C   UNL A   1      32.883  26.309  22.750  1.00  0.00     0.062 C 
ATOM     83  C   UNL A   1      31.937  26.574  25.186  1.00  0.00     0.104 C 
ATOM     84  C   UNL A   1      31.765  26.814  23.676  1.00  0.00     0.022 C 
BRANCH  83  85
ATOM     85  C   UNL A   1      32.656  27.641  26.025  1.00  0.00     0.103 A 
ATOM     86  N   UNL A   1      33.937  27.632  26.350  1.00  0.00    -0.241 NA
ATOM     87  S   UNL A   1      31.781  28.943  26.757  1.00  0.00    -0.118 S 
ATOM     88  C   UNL A   1      34.317  28.840  26.918  1.00  0.00     0.082 A 
ATOM     89  C   UNL A   1      33.275  29.739  27.134  1.00  0.00     0.055 A 
ATOM     90  C   UNL A   1      35.637  29.249  27.212  1.00  0.00     0.030 A 
ATOM     91  C   UNL A   1      33.520  31.054  27.569  1.00  0.00     0.021 A 
ATOM     92  C   UNL A   1      35.893  30.565  27.615  1.00  0.00     0.002 A 
ATOM     93  C   UNL A   1      34.844  31.464  27.763  1.00  0.00     0.002 A 
ENDBRANCH  83  85
ENDBRANCH  77  78
BRANCH  77  94
ATOM     94  C   UNL A   1      34.244  22.915  25.856  1.00  0.00     0.046 A 
ATOM     95  C   UNL A   1      34.258  22.514  27.187  1.00  0.00     0.094 A 
ATOM     96  C   UNL A   1      33.568  21.866  25.135  1.00  0.00     0.010 A 
ATOM     97  N   UNL A   1      33.898  21.203  27.242  1.00  0.00    -0.361 N 
ATOM     98  C   UNL A   1      33.446  20.786  26.016  1.00  0.00     0.046 A 
ATOM     99  C   UNL A   1      33.096  21.692  23.815  1.00  0.00     0.026 A 
ATOM    100  H   UNL A   1      33.953  20.636  28.045  1.00  0.00     0.166 HD
ATOM    101  C   UNL A   1      32.965  19.529  25.637  1.00  0.00     0.028 A 
ATOM    102  C   UNL A   1      32.533  20.460  23.449  1.00  0.00     0.018 A 
ATOM    103  C   UNL A   1      32.494  19.386  24.333  1.00  0.00     0.018 A 
ATOM    104  Br  UNL A   1      31.797  20.244  21.716  1.00  0.00    -0.051 Br
ENDBRANCH  77  94
ENDBRANCH  75  77
ENDBRANCH  74  75
ENDBRANCH  73  74
ENDBRANCH   1  73
TORSDOF 17
ENDMDL
MODEL 2
REMARK VINA RESULT:     -11.8      1.794      4.597
REMARK SMILES O=C(OCCOC(=O)[C@H](c1c[nH]c2ccc(Br)cc12)[N@H+]1CCC[C@H](c2nc3ccccc3s2)C1)c1ccc(-c2c3nc(c(-c4c(F)cc(S(=O)(=O)[O-])cc4F)c4ccc([nH]4)c(-c4c(F)cc(S(=O)(=O)[O-])cc4F)c4nc(c(-c5c(F)cc(S(=O)(=O)[O-])cc5F)c5ccc2[nH]5)C=C4)C=C3)cc1
REMARK SMILES IDX 4 1 3 2 2 3 1 4 35 5 36 6 100 7 37 8 99 9 38 10 39 11 40 12
REMARK SMILES IDX 93 13 41 14 98 15 92 16 94 17 42 18 97 19 91 20 90 21 43 23
REMARK SMILES IDX 77 24 56 25 76 26 57 27 60 28 75 29 95 30 58 31 59 32 74 34
REMARK SMILES IDX 96 35 61 36 44 37 45 38 54 39 46 40 47 41 53 42 55 43 48 44
REMARK SMILES IDX 49 45 50 46 51 47 52 48 78 49 79 50 88 51 80 52 81 53 87 54
REMARK SMILES IDX 89 55 82 56 83 57 84 58 85 59 86 60 62 61 63 62 72 63 64 64
REMARK SMILES IDX 65 65 71 66 73 67 66 68 67 69 68 70 69 71 70 72 5 73 6 74
REMARK SMILES IDX 7 75 8 76 9 77 20 78 21 79 34 80 22 82 24 83 23 84 25 85
REMARK SMILES IDX 26 86 33 87 27 88 32 89 28 90 31 91 29 92 30 93 10 94 11 95
REMARK SMILES IDX 19 96 12 97 13 98 18 99 14 101 16 102 15 103 17 104
REMARK H PARENT 94 22 60 33 20 81 12 100
REMARK Flexibility Score: inf
ROOT
ATOM      1  C   UNL A   1      38.428  22.850  25.872  1.00  0.00     0.275 C 
ENDROOT
BRANCH   1   2
ATOM      2  O   UNL A   1      38.762  24.216  26.192  1.00  0.00    -0.458 OA
BRANCH   2   3
ATOM      3  C   UNL A   1      39.905  24.780  26.652  1.00  0.00     0.338 C 
ATOM      4  O   UNL A   1      40.967  24.411  26.149  1.00  0.00    -0.246 OA
BRANCH   3   5
ATOM      5  C   UNL A   1      39.992  25.753  27.796  1.00  0.00     0.060 A 
ATOM      6  C   UNL A   1      39.107  25.843  28.870  1.00  0.00     0.016 A 
ATOM      7  C   UNL A   1      41.068  26.669  27.771  1.00  0.00     0.016 A 
ATOM      8  C   UNL A   1      39.334  26.749  29.920  1.00  0.00     0.010 A 
ATOM      9  C   UNL A   1      41.291  27.589  28.813  1.00  0.00     0.010 A 
ATOM     10  C   UNL A   1      40.427  27.627  29.909  1.00  0.00    -0.014 A 
BRANCH  10  11
ATOM     11  C   UNL A   1      40.496  28.676  30.965  1.00  0.00     0.031 A 
ATOM     12  C   UNL A   1      39.476  29.761  30.933  1.00  0.00     0.074 A 
ATOM     13  C   UNL A   1      41.347  28.625  32.009  1.00  0.00     0.049 A 
ATOM     14  N   UNL A   1      39.240  30.676  31.831  1.00  0.00    -0.248 NA
ATOM     15  C   UNL A   1      38.618  29.825  29.742  1.00  0.00     0.031 C 
ATOM     16  C   UNL A   1      42.404  27.648  32.134  1.00  0.00     0.029 A 
ATOM     17  N   UNL A   1      41.436  29.349  33.183  1.00  0.00    -0.354 N 
ATOM     18  C   UNL A   1      38.210  31.437  31.312  1.00  0.00     0.074 A 
ATOM     19  C   UNL A   1      37.854  30.868  30.030  1.00  0.00     0.031 C 
ATOM     20  C   UNL A   1      42.950  27.760  33.356  1.00  0.00     0.029 A 
ATOM     21  C   UNL A   1      42.348  28.839  34.085  1.00  0.00     0.049 A 
ATOM     22  H   UNL A   1      40.898  30.155  33.358  1.00  0.00     0.167 HD
ATOM     23  C   UNL A   1      37.644  32.536  31.854  1.00  0.00     0.037 A 
ATOM     24  C   UNL A   1      42.700  29.171  35.346  1.00  0.00     0.037 A 
ATOM     25  C   UNL A   1      38.072  33.140  33.086  1.00  0.00     0.049 A 
ATOM     26  C   UNL A   1      42.104  30.419  35.886  1.00  0.00     0.074 A 
ATOM     27  C   UNL A   1      37.607  34.301  33.676  1.00  0.00     0.029 A 
ATOM     28  N   UNL A   1      39.084  32.653  33.904  1.00  0.00    -0.354 N 
ATOM     29  N   UNL A   1      41.168  31.157  35.351  1.00  0.00    -0.248 NA
ATOM     30  C   UNL A   1      42.652  30.923  37.149  1.00  0.00     0.031 C 
ATOM     31  C   UNL A   1      38.372  34.545  34.820  1.00  0.00     0.029 A 
ATOM     32  C   UNL A   1      39.268  33.502  34.984  1.00  0.00     0.049 A 
ATOM     33  H   UNL A   1      39.594  31.828  33.741  1.00  0.00     0.167 HD
ATOM     34  C   UNL A   1      41.028  32.237  36.196  1.00  0.00     0.074 A 
ATOM     35  C   UNL A   1      41.951  32.039  37.298  1.00  0.00     0.031 C 
ATOM     36  C   UNL A   1      40.209  33.302  36.055  1.00  0.00     0.037 A 
BRANCH  23  37
ATOM     37  C   UNL A   1      36.571  33.190  31.045  1.00  0.00     0.058 A 
ATOM     38  C   UNL A   1      36.870  33.990  29.931  1.00  0.00     0.135 A 
ATOM     39  C   UNL A   1      35.227  33.046  31.417  1.00  0.00     0.135 A 
ATOM     40  F   UNL A   1      38.147  34.199  29.570  1.00  0.00    -0.206 F 
ATOM     41  C   UNL A   1      35.868  34.634  29.217  1.00  0.00     0.059 A 
ATOM     42  C   UNL A   1      34.207  33.660  30.702  1.00  0.00     0.059 A 
ATOM     43  F   UNL A   1      34.898  32.316  32.495  1.00  0.00    -0.206 F 
ATOM     44  C   UNL A   1      34.539  34.459  29.610  1.00  0.00     0.060 A 
BRANCH  44  45
ATOM     45  S   UNL A   1      33.250  35.286  28.658  1.00  0.00     0.124 S 
ATOM     46  O   UNL A   1      34.039  36.150  27.789  1.00  0.00    -0.237 OA
ATOM     47  O   UNL A   1      32.580  34.169  28.007  1.00  0.00    -0.237 OA
ATOM     48  O   UNL A   1      32.464  35.975  29.683  1.00  0.00    -0.744 OA
ENDBRANCH  44  45
ENDBRANCH  23  37
BRANCH  24  49
ATOM     49  C   UNL A   1      43.728  28.434  36.148  1.00  0.00     0.058 A 
ATOM     50  C   UNL A   1      45.100  28.718  36.063  1.00  0.00     0.135 A 
ATOM     51  C   UNL A   1      43.355  27.350  36.953  1.00  0.00     0.135 A 
ATOM     52  F   UNL A   1      45.534  29.688  35.243  1.00  0.00    -0.206 F 
ATOM     53  C   UNL A   1      46.053  27.989  36.784  1.00  0.00     0.059 A 
ATOM     54  C   UNL A   1      44.279  26.629  37.710  1.00  0.00     0.059 A 
ATOM     55  F   UNL A   1      42.076  26.958  36.973  1.00  0.00    -0.206 F 
ATOM     56  C   UNL A   1      45.630  26.956  37.622  1.00  0.00     0.060 A 
BRANCH  56  57
ATOM     57  S   UNL A   1      46.822  26.059  38.647  1.00  0.00     0.124 S 
ATOM     58  O   UNL A   1      47.521  27.151  39.315  1.00  0.00    -0.237 OA
ATOM     59  O   UNL A   1      45.969  25.235  39.499  1.00  0.00    -0.237 OA
ATOM     60  O   UNL A   1      47.600  25.319  37.656  1.00  0.00    -0.744 OA
ENDBRANCH  56  57
ENDBRANCH  24  49
BRANCH  36  61
ATOM     61  C   UNL A   1      40.256  34.307  37.154  1.00  0.00     0.058 A 
ATOM     62  C   UNL A   1      41.158  35.380  37.140  1.00  0.00     0.135 A 
ATOM     63  C   UNL A   1      39.377  34.183  38.239  1.00  0.00     0.135 A 
ATOM     64  F   UNL A   1      42.039  35.513  36.135  1.00  0.00    -0.206 F 
ATOM     65  C   UNL A   1      41.194  36.299  38.180  1.00  0.00     0.059 A 
ATOM     66  C   UNL A   1      39.375  35.105  39.272  1.00  0.00     0.059 A 
ATOM     67  F   UNL A   1      38.509  33.160  38.293  1.00  0.00    -0.206 F 
ATOM     68  C   UNL A   1      40.294  36.154  39.238  1.00  0.00     0.060 A 
BRANCH  68  69
ATOM     69  S   UNL A   1      40.315  37.376  40.562  1.00  0.00     0.124 S 
ATOM     70  O   UNL A   1      41.250  36.769  41.504  1.00  0.00    -0.237 OA
ATOM     71  O   UNL A   1      40.795  38.571  39.872  1.00  0.00    -0.237 OA
ATOM     72  O   UNL A   1      38.924  37.427  40.997  1.00  0.00    -0.744 OA
ENDBRANCH  68  69
ENDBRANCH  36  61
ENDBRANCH  10  11
ENDBRANCH   3   5
ENDBRANCH   2   3
ENDBRANCH   1   2
BRANCH   1  73
ATOM     73  C   UNL A   1      36.961  22.638  25.515  1.00  0.00     0.274 C 
BRANCH  73  74
ATOM     74  O   UNL A   1      36.503  23.613  24.572  1.00  0.00    -0.457 OA
BRANCH  74  75
ATOM     75  C   UNL A   1      35.480  24.429  24.982  1.00  0.00     0.370 C 
ATOM     76  O   UNL A   1      35.641  25.306  25.828  1.00  0.00    -0.245 OA
BRANCH  75  77
ATOM     77  C   UNL A   1      34.170  24.147  24.194  1.00  0.00     0.328 C 
BRANCH  77  78
ATOM     78  N   UNL A   1      33.062  23.508  24.984  1.00  0.00    -0.319 N 
ATOM     79  C   UNL A   1      32.776  24.043  26.308  1.00  0.00     0.263 C 
ATOM     80  C   UNL A   1      31.835  23.132  24.281  1.00  0.00     0.274 C 
ATOM     81  H   UNL A   1      33.552  22.627  25.143  1.00  0.00     0.349 HD
ATOM     82  C   UNL A   1      31.766  23.246  27.147  1.00  0.00     0.062 C 
ATOM     83  C   UNL A   1      31.121  21.957  24.951  1.00  0.00     0.104 C 
ATOM     84  C   UNL A   1      30.756  22.371  26.387  1.00  0.00     0.022 C 
BRANCH  83  85
ATOM     85  C   UNL A   1      31.905  20.654  24.735  1.00  0.00     0.103 A 
ATOM     86  N   UNL A   1      32.228  19.785  25.677  1.00  0.00    -0.241 NA
ATOM     87  S   UNL A   1      32.570  20.256  23.187  1.00  0.00    -0.118 S 
ATOM     88  C   UNL A   1      32.734  18.616  25.124  1.00  0.00     0.082 A 
ATOM     89  C   UNL A   1      32.905  18.647  23.742  1.00  0.00     0.055 A 
ATOM     90  C   UNL A   1      33.006  17.413  25.814  1.00  0.00     0.030 A 
ATOM     91  C   UNL A   1      33.273  17.495  23.023  1.00  0.00     0.021 A 
ATOM     92  C   UNL A   1      33.342  16.254  25.104  1.00  0.00     0.002 A 
ATOM     93  C   UNL A   1      33.444  16.293  23.719  1.00  0.00     0.002 A 
ENDBRANCH  83  85
ENDBRANCH  77  78
BRANCH  77  94
ATOM     94  C   UNL A   1      33.679  25.414  23.497  1.00  0.00     0.046 A 
ATOM     95  C   UNL A   1      33.629  25.589  22.119  1.00  0.00     0.094 A 
ATOM     96  C   UNL A   1      33.278  26.674  24.070  1.00  0.00     0.010 A 
ATOM     97  N   UNL A   1      33.503  26.920  21.863  1.00  0.00    -0.361 N 
ATOM     98  C   UNL A   1      33.261  27.604  23.026  1.00  0.00     0.046 A 
ATOM     99  C   UNL A   1      32.981  27.142  25.370  1.00  0.00     0.026 A 
ATOM    100  H   UNL A   1      33.576  27.331  20.971  1.00  0.00     0.166 HD
ATOM    101  C   UNL A   1      33.052  28.974  23.212  1.00  0.00     0.028 A 
ATOM    102  C   UNL A   1      32.686  28.501  25.555  1.00  0.00     0.018 A 
ATOM    103  C   UNL A   1      32.749  29.410  24.502  1.00  0.00     0.018 A 
ATOM    104  Br  UNL A   1      32.181  29.126  27.271  1.00  0.00    -0.051 Br
ENDBRANCH  77  94
ENDBRANCH  75  77
ENDBRANCH  74  75
ENDBRANCH  73  74
ENDBRANCH   1  73
TORSDOF 17
ENDMDL
MODEL 3
REMARK VINA RESULT:     -11.7      0.880      7.948
REMARK SMILES O=C(OCCOC(=O)[C@H](c1c[nH]c2ccc(Br)cc12)[N@H+]1CCC[C@H](c2nc3ccccc3s2)C1)c1ccc(-c2c3nc(c(-c4c(F)cc(S(=O)(=O)[O-])cc4F)c4ccc([nH]4)c(-c4c(F)cc(S(=O)(=O)[O-])cc4F)c4nc(c(-c5c(F)cc(S(=O)(=O)[O-])cc5F)c5ccc2[nH]5)C=C4)C=C3)cc1
REMARK SMILES IDX 4 1 3 2 2 3 1 4 35 5 36 6 100 7 37 8 99 9 38 10 39 11 40 12
REMARK SMILES IDX 93 13 41 14 98 15 92 16 94 17 42 18 97 19 91 20 90 21 43 23
REMARK SMILES IDX 77 24 56 25 76 26 57 27 60 28 75 29 95 30 58 31 59 32 74 34
REMARK SMILES IDX 96 35 61 36 44 37 45 38 54 39 46 40 47 41 53 42 55 43 48 44
REMARK SMILES IDX 49 45 50 46 51 47 52 48 78 49 79 50 88 51 80 52 81 53 87 54
REMARK SMILES IDX 89 55 82 56 83 57 84 58 85 59 86 60 62 61 63 62 72 63 64 64
REMARK SMILES IDX 65 65 71 66 73 67 66 68 67 69 68 70 69 71 70 72 5 73 6 74
REMARK SMILES IDX 7 75 8 76 9 77 20 78 21 79 34 80 22 82 24 83 23 84 25 85
REMARK SMILES IDX 26 86 33 87 27 88 32 89 28 90 31 91 29 92 30 93 10 94 11 95
REMARK SMILES IDX 19 96 12 97 13 98 18 99 14 101 16 102 15 103 17 104
REMARK H PARENT 94 22 60 33 20 81 12 100
REMARK Flexibility Score: inf
ROOT
ATOM      1  C   UNL A   1      39.039  22.717  26.339  1.00  0.00     0.275 C 
ENDROOT
BRANCH   1   2
ATOM      2  O   UNL A   1      39.416  24.063  25.987  1.00  0.00    -0.458 OA
BRANCH   2   3
ATOM      3  C   UNL A   1      40.383  24.882  26.468  1.00  0.00     0.338 C 
ATOM      4  O   UNL A   1      41.491  24.833  25.933  1.00  0.00    -0.246 OA
BRANCH   3   5
ATOM      5  C   UNL A   1      40.240  25.782  27.665  1.00  0.00     0.060 A 
ATOM      6  C   UNL A   1      39.305  25.646  28.690  1.00  0.00     0.016 A 
ATOM      7  C   UNL A   1      41.134  26.874  27.750  1.00  0.00     0.016 A 
ATOM      8  C   UNL A   1      39.316  26.510  29.798  1.00  0.00     0.010 A 
ATOM      9  C   UNL A   1      41.140  27.751  28.852  1.00  0.00     0.010 A 
ATOM     10  C   UNL A   1      40.233  27.566  29.897  1.00  0.00    -0.014 A 
BRANCH  10  11
ATOM     11  C   UNL A   1      40.064  28.543  31.010  1.00  0.00     0.031 A 
ATOM     12  C   UNL A   1      41.076  28.533  32.102  1.00  0.00     0.074 A 
ATOM     13  C   UNL A   1      39.124  29.508  31.014  1.00  0.00     0.049 A 
ATOM     14  N   UNL A   1      41.225  29.388  33.075  1.00  0.00    -0.248 NA
ATOM     15  C   UNL A   1      42.036  27.420  32.102  1.00  0.00     0.031 C 
ATOM     16  C   UNL A   1      38.066  29.602  30.034  1.00  0.00     0.029 A 
ATOM     17  N   UNL A   1      38.926  30.621  31.810  1.00  0.00    -0.354 N 
ATOM     18  C   UNL A   1      42.292  28.915  33.814  1.00  0.00     0.074 A 
ATOM     19  C   UNL A   1      42.764  27.707  33.170  1.00  0.00     0.031 C 
ATOM     20  C   UNL A   1      37.413  30.761  30.216  1.00  0.00     0.029 A 
ATOM     21  C   UNL A   1      37.940  31.470  31.346  1.00  0.00     0.049 A 
ATOM     22  H   UNL A   1      39.441  30.792  32.631  1.00  0.00     0.167 HD
ATOM     23  C   UNL A   1      42.801  29.433  34.952  1.00  0.00     0.037 A 
ATOM     24  C   UNL A   1      37.476  32.671  31.752  1.00  0.00     0.037 A 
ATOM     25  C   UNL A   1      42.261  30.581  35.627  1.00  0.00     0.049 A 
ATOM     26  C   UNL A   1      38.013  33.181  33.039  1.00  0.00     0.074 A 
ATOM     27  C   UNL A   1      42.664  31.136  36.828  1.00  0.00     0.029 A 
ATOM     28  N   UNL A   1      41.183  31.336  35.180  1.00  0.00    -0.354 N 
ATOM     29  N   UNL A   1      38.988  32.686  33.753  1.00  0.00    -0.248 NA
ATOM     30  C   UNL A   1      37.352  34.357  33.614  1.00  0.00     0.031 C 
ATOM     31  C   UNL A   1      41.798  32.190  37.135  1.00  0.00     0.029 A 
ATOM     32  C   UNL A   1      40.898  32.339  36.093  1.00  0.00     0.049 A 
ATOM     33  H   UNL A   1      40.695  31.181  34.340  1.00  0.00     0.167 HD
ATOM     34  C   UNL A   1      39.045  33.469  34.886  1.00  0.00     0.074 A 
ATOM     35  C   UNL A   1      38.029  34.496  34.746  1.00  0.00     0.031 C 
ATOM     36  C   UNL A   1      39.867  33.334  35.949  1.00  0.00     0.037 A 
BRANCH  23  37
ATOM     37  C   UNL A   1      43.937  28.683  35.567  1.00  0.00     0.058 A 
ATOM     38  C   UNL A   1      43.724  27.636  36.477  1.00  0.00     0.135 A 
ATOM     39  C   UNL A   1      45.259  29.046  35.270  1.00  0.00     0.135 A 
ATOM     40  F   UNL A   1      42.475  27.288  36.830  1.00  0.00    -0.206 F 
ATOM     41  C   UNL A   1      44.788  26.978  37.080  1.00  0.00     0.059 A 
ATOM     42  C   UNL A   1      46.338  28.386  35.843  1.00  0.00     0.059 A 
ATOM     43  F   UNL A   1      45.509  30.063  34.430  1.00  0.00    -0.206 F 
ATOM     44  C   UNL A   1      46.092  27.360  36.753  1.00  0.00     0.060 A 
BRANCH  44  45
ATOM     45  S   UNL A   1      47.460  26.481  37.531  1.00  0.00     0.124 S 
ATOM     46  O   UNL A   1      48.611  27.139  36.925  1.00  0.00    -0.237 OA
ATOM     47  O   UNL A   1      47.242  26.756  38.944  1.00  0.00    -0.237 OA
ATOM     48  O   UNL A   1      47.244  25.092  37.123  1.00  0.00    -0.744 OA
ENDBRANCH  44  45
ENDBRANCH  23  37
BRANCH  24  49
ATOM     49  C   UNL A   1      36.385  33.424  31.055  1.00  0.00     0.058 A 
ATOM     50  C   UNL A   1      36.613  34.199  29.908  1.00  0.00     0.135 A 
ATOM     51  C   UNL A   1      35.092  33.459  31.595  1.00  0.00     0.135 A 
ATOM     52  F   UNL A   1      37.849  34.281  29.389  1.00  0.00    -0.206 F 
ATOM     53  C   UNL A   1      35.592  34.935  29.295  1.00  0.00     0.059 A 
ATOM     54  C   UNL A   1      34.047  34.154  30.986  1.00  0.00     0.059 A 
ATOM     55  F   UNL A   1      34.849  32.839  32.756  1.00  0.00    -0.206 F 
ATOM     56  C   UNL A   1      34.304  34.891  29.832  1.00  0.00     0.060 A 
BRANCH  56  57
ATOM     57  S   UNL A   1      32.937  35.746  29.009  1.00  0.00     0.124 S 
ATOM     58  O   UNL A   1      32.120  36.160  30.144  1.00  0.00    -0.237 OA
ATOM     59  O   UNL A   1      33.610  36.820  28.284  1.00  0.00    -0.237 OA
ATOM     60  O   UNL A   1      32.368  34.698  28.166  1.00  0.00    -0.744 OA
ENDBRANCH  56  57
ENDBRANCH  24  49
BRANCH  36  61
ATOM     61  C   UNL A   1      39.716  34.358  37.021  1.00  0.00     0.058 A 
ATOM     62  C   UNL A   1      38.890  34.150  38.134  1.00  0.00     0.135 A 
ATOM     63  C   UNL A   1      40.415  35.569  36.920  1.00  0.00     0.135 A 
ATOM     64  F   UNL A   1      38.177  33.018  38.249  1.00  0.00    -0.206 F 
ATOM     65  C   UNL A   1      38.753  35.122  39.115  1.00  0.00     0.059 A 
ATOM     66  C   UNL A   1      40.317  36.540  37.902  1.00  0.00     0.059 A 
ATOM     67  F   UNL A   1      41.204  35.808  35.860  1.00  0.00    -0.206 F 
ATOM     68  C   UNL A   1      39.477  36.311  38.992  1.00  0.00     0.060 A 
BRANCH  68  69
ATOM     69  S   UNL A   1      39.330  37.550  40.291  1.00  0.00     0.124 S 
ATOM     70  O   UNL A   1      38.248  38.385  39.779  1.00  0.00    -0.237 OA
ATOM     71  O   UNL A   1      39.004  36.735  41.460  1.00  0.00    -0.237 OA
ATOM     72  O   UNL A   1      40.649  38.171  40.317  1.00  0.00    -0.744 OA
ENDBRANCH  68  69
ENDBRANCH  36  61
ENDBRANCH  10  11
ENDBRANCH   3   5
ENDBRANCH   2   3
ENDBRANCH   1   2
BRANCH   1  73
ATOM     73  C   UNL A   1      37.638  22.325  25.880  1.00  0.00     0.274 C 
BRANCH  73  74
ATOM     74  O   UNL A   1      36.950  23.433  25.291  1.00  0.00    -0.457 OA
BRANCH  74  75
ATOM     75  C   UNL A   1      35.909  23.130  24.451  1.00  0.00     0.370 C 
ATOM     76  O   UNL A   1      36.082  22.578  23.366  1.00  0.00    -0.245 OA
BRANCH  75  77
ATOM     77  C   UNL A   1      34.536  23.497  25.082  1.00  0.00     0.328 C 
BRANCH  77  78
ATOM     78  N   UNL A   1      33.572  24.206  24.173  1.00  0.00    -0.319 N 
ATOM     79  C   UNL A   1      33.830  24.160  22.740  1.00  0.00     0.263 C 
ATOM     80  C   UNL A   1      32.141  24.106  24.464  1.00  0.00     0.274 C 
ATOM     81  H   UNL A   1      33.834  25.147  24.469  1.00  0.00     0.349 HD
ATOM     82  C   UNL A   1      32.927  25.047  21.870  1.00  0.00     0.062 C 
ATOM     83  C   UNL A   1      31.363  25.323  23.962  1.00  0.00     0.104 C 
ATOM     84  C   UNL A   1      31.548  25.416  22.437  1.00  0.00     0.022 C 
BRANCH  83  85
ATOM     85  C   UNL A   1      31.675  26.557  24.820  1.00  0.00     0.103 A 
ATOM     86  N   UNL A   1      32.581  26.619  25.780  1.00  0.00    -0.241 NA
ATOM     87  S   UNL A   1      30.736  28.004  24.681  1.00  0.00    -0.118 S 
ATOM     88  C   UNL A   1      32.770  27.927  26.205  1.00  0.00     0.082 A 
ATOM     89  C   UNL A   1      31.904  28.858  25.636  1.00  0.00     0.055 A 
ATOM     90  C   UNL A   1      33.782  28.386  27.077  1.00  0.00     0.030 A 
ATOM     91  C   UNL A   1      32.064  30.238  25.859  1.00  0.00     0.021 A 
ATOM     92  C   UNL A   1      33.968  29.759  27.279  1.00  0.00     0.002 A 
ATOM     93  C   UNL A   1      33.133  30.674  26.651  1.00  0.00     0.002 A 
ENDBRANCH  83  85
ENDBRANCH  77  78
BRANCH  77  94
ATOM     94  C   UNL A   1      33.887  22.264  25.707  1.00  0.00     0.046 A 
ATOM     95  C   UNL A   1      33.760  22.045  27.074  1.00  0.00     0.094 A 
ATOM     96  C   UNL A   1      33.380  21.076  25.068  1.00  0.00     0.010 A 
ATOM     97  N   UNL A   1      33.486  20.727  27.271  1.00  0.00    -0.361 N 
ATOM     98  C   UNL A   1      33.222  20.115  26.073  1.00  0.00     0.046 A 
ATOM     99  C   UNL A   1      33.091  20.690  23.741  1.00  0.00     0.026 A 
ATOM    100  H   UNL A   1      33.478  20.277  28.147  1.00  0.00     0.166 HD
ATOM    101  C   UNL A   1      32.879  18.783  25.822  1.00  0.00     0.028 A 
ATOM    102  C   UNL A   1      32.663  19.378  23.489  1.00  0.00     0.018 A 
ATOM    103  C   UNL A   1      32.586  18.430  24.506  1.00  0.00     0.018 A 
ATOM    104  Br  UNL A   1      32.168  18.874  21.731  1.00  0.00    -0.051 Br
ENDBRANCH  77  94
ENDBRANCH  75  77
ENDBRANCH  74  75
ENDBRANCH  73  74
ENDBRANCH   1  73
TORSDOF 17
ENDMDL
