MODEL 1
REMARK VINA RESULT:     -12.2      0.000      0.000
REMARK SMILES CN1N[C@H](C(=O)N[C@@H](CC2=c3ccccc3=NC2)C(=O)OCCOC(=O)c2ccc(-c3c4nc(c(-c5c(F)cc(S(=O)(=O)[O-])cc5F)c5ccc([nH]5)c(-c5c(F)cc(S(=O)(=O)[O-])cc5F)c5nc(c(-c6c(F)cc(S(=O)(=O)[O-])cc6F)c6ccc3[nH]6)C=C5)C=C4)cc2)c2ccccc2C1=O
REMARK SMILES IDX 23 1 22 2 21 3 19 4 20 5 8 6 7 7 5 8 6 9 4 11 1 12 2 13 3 14
REMARK SMILES IDX 99 15 98 17 100 18 93 19 97 20 94 21 96 22 95 23 9 24 10 25
REMARK SMILES IDX 11 26 18 27 12 28 16 29 17 30 13 31 15 32 14 33 24 34 25 35
REMARK SMILES IDX 26 36 27 37 28 38 92 39 29 40 91 41 30 42 31 43 32 44 85 45
REMARK SMILES IDX 33 46 90 47 84 48 86 49 34 50 89 51 83 52 82 53 35 55 69 56
REMARK SMILES IDX 48 57 68 58 49 59 52 60 67 61 87 62 50 63 51 64 66 66 88 67
REMARK SMILES IDX 53 68 36 69 37 70 46 71 38 72 39 73 45 74 47 75 40 76 41 77
REMARK SMILES IDX 42 78 43 79 44 80 70 81 71 82 80 83 72 84 73 85 79 86 81 87
REMARK SMILES IDX 74 88 75 89 76 90 77 91 78 92 54 93 55 94 64 95 56 96 57 97
REMARK SMILES IDX 63 98 65 99 58 100 59 101 60 102 61 103 62 104
REMARK H PARENT 7 10 3 16 86 54 52 65
REMARK Flexibility Score: inf
ROOT
ATOM      1  C   UNL A   1      32.424  30.380  26.887  1.00  0.00     0.275 C 
ENDROOT
BRANCH   1   2
ATOM      2  C   UNL A   1      31.796  29.405  25.893  1.00  0.00     0.274 C 
BRANCH   2   3
ATOM      3  O   UNL A   1      32.349  28.080  26.017  1.00  0.00    -0.461 OA
BRANCH   3   4
ATOM      4  C   UNL A   1      31.566  27.197  26.691  1.00  0.00     0.329 C 
ATOM      5  O   UNL A   1      30.920  27.477  27.697  1.00  0.00    -0.250 OA
BRANCH   4   6
ATOM      6  C   UNL A   1      31.621  25.775  26.130  1.00  0.00     0.196 C 
BRANCH   6   7
ATOM      7  N   UNL A   1      31.652  24.659  27.086  1.00  0.00    -0.341 N 
ATOM      8  C   UNL A   1      32.251  23.433  27.017  1.00  0.00     0.244 C 
ATOM      9  O   UNL A   1      31.847  22.570  27.807  1.00  0.00    -0.273 OA
ATOM     10  H   UNL A   1      31.157  24.823  27.921  1.00  0.00     0.164 HD
BRANCH   8  11
ATOM     11  C   UNL A   1      33.465  23.131  26.096  1.00  0.00     0.195 C 
ATOM     12  C   UNL A   1      37.083  23.830  26.079  1.00  0.00     0.169 C 
ATOM     13  N   UNL A   1      35.886  23.006  26.095  1.00  0.00    -0.276 N 
ATOM     14  N   UNL A   1      34.727  23.492  26.774  1.00  0.00    -0.215 NA
ATOM     15  C   UNL A   1      35.941  21.702  25.593  1.00  0.00     0.268 C 
ATOM     16  H   UNL A   1      34.787  24.509  26.829  1.00  0.00     0.149 HD
ATOM     17  C   UNL A   1      34.639  21.045  25.318  1.00  0.00     0.046 A 
ATOM     18  O   UNL A   1      36.987  21.122  25.324  1.00  0.00    -0.268 OA
ATOM     19  C   UNL A   1      33.438  21.716  25.566  1.00  0.00    -0.007 A 
ATOM     20  C   UNL A   1      34.631  19.775  24.727  1.00  0.00     0.014 A 
ATOM     21  C   UNL A   1      32.232  21.096  25.192  1.00  0.00     0.007 A 
ATOM     22  C   UNL A   1      33.426  19.157  24.402  1.00  0.00     0.001 A 
ATOM     23  C   UNL A   1      32.227  19.820  24.631  1.00  0.00     0.000 A 
ENDBRANCH   8  11
ENDBRANCH   6   7
BRANCH   6  24
ATOM     24  C   UNL A   1      30.424  25.663  25.148  1.00  0.00     0.070 C 
BRANCH  24  25
ATOM     25  C   UNL A   1      30.488  26.313  23.784  1.00  0.00    -0.037 C 
ATOM     26  C   UNL A   1      31.485  26.546  22.930  1.00  0.00     0.001 A 
ATOM     27  C   UNL A   1      29.347  27.215  23.400  1.00  0.00     0.174 C 
ATOM     28  C   UNL A   1      32.728  25.984  22.506  1.00  0.00     0.010 A 
ATOM     29  C   UNL A   1      31.217  27.995  22.722  1.00  0.00     0.065 A 
ATOM     30  N   UNL A   1      30.018  28.443  22.947  1.00  0.00    -0.280 NA
ATOM     31  C   UNL A   1      33.682  26.794  22.016  1.00  0.00     0.001 A 
ATOM     32  C   UNL A   1      32.400  28.837  22.433  1.00  0.00     0.028 A 
ATOM     33  C   UNL A   1      33.558  28.237  22.119  1.00  0.00     0.002 A 
ENDBRANCH  24  25
ENDBRANCH   6  24
ENDBRANCH   4   6
ENDBRANCH   3   4
ENDBRANCH   2   3
ENDBRANCH   1   2
BRANCH   1  34
ATOM     34  O   UNL A   1      33.703  29.916  27.354  1.00  0.00    -0.458 OA
BRANCH  34  35
ATOM     35  C   UNL A   1      34.619  30.895  27.542  1.00  0.00     0.338 C 
ATOM     36  O   UNL A   1      34.454  32.088  27.357  1.00  0.00    -0.246 OA
BRANCH  35  37
ATOM     37  C   UNL A   1      35.861  30.328  28.088  1.00  0.00     0.060 A 
ATOM     38  C   UNL A   1      37.078  30.519  27.431  1.00  0.00     0.016 A 
ATOM     39  C   UNL A   1      35.823  29.723  29.344  1.00  0.00     0.016 A 
ATOM     40  C   UNL A   1      38.266  30.099  28.045  1.00  0.00     0.010 A 
ATOM     41  C   UNL A   1      37.010  29.350  29.970  1.00  0.00     0.010 A 
ATOM     42  C   UNL A   1      38.246  29.530  29.329  1.00  0.00    -0.014 A 
BRANCH  42  43
ATOM     43  C   UNL A   1      39.491  29.111  30.032  1.00  0.00     0.031 A 
ATOM     44  C   UNL A   1      39.964  29.887  31.233  1.00  0.00     0.074 A 
ATOM     45  C   UNL A   1      40.249  28.107  29.546  1.00  0.00     0.049 A 
ATOM     46  N   UNL A   1      41.021  29.693  31.978  1.00  0.00    -0.248 NA
ATOM     47  C   UNL A   1      39.149  31.045  31.640  1.00  0.00     0.031 C 
ATOM     48  C   UNL A   1      39.946  27.312  28.356  1.00  0.00     0.029 A 
ATOM     49  N   UNL A   1      41.454  27.603  29.971  1.00  0.00    -0.354 N 
ATOM     50  C   UNL A   1      40.978  30.679  32.955  1.00  0.00     0.074 A 
ATOM     51  C   UNL A   1      39.858  31.538  32.644  1.00  0.00     0.031 C 
ATOM     52  C   UNL A   1      40.957  26.461  28.114  1.00  0.00     0.029 A 
ATOM     53  C   UNL A   1      41.963  26.615  29.158  1.00  0.00     0.049 A 
ATOM     54  H   UNL A   1      41.912  27.920  30.783  1.00  0.00     0.167 HD
ATOM     55  C   UNL A   1      41.755  30.816  34.057  1.00  0.00     0.037 A 
ATOM     56  C   UNL A   1      43.095  25.894  29.259  1.00  0.00     0.037 A 
ATOM     57  C   UNL A   1      42.860  29.952  34.370  1.00  0.00     0.049 A 
ATOM     58  C   UNL A   1      43.963  26.070  30.475  1.00  0.00     0.074 A 
ATOM     59  C   UNL A   1      43.667  29.953  35.494  1.00  0.00     0.029 A 
ATOM     60  N   UNL A   1      43.314  28.929  33.550  1.00  0.00    -0.354 N 
ATOM     61  N   UNL A   1      43.827  26.918  31.465  1.00  0.00    -0.248 NA
ATOM     62  C   UNL A   1      45.102  25.154  30.617  1.00  0.00     0.031 C 
ATOM     63  C   UNL A   1      44.619  28.938  35.346  1.00  0.00     0.029 A 
ATOM     64  C   UNL A   1      44.388  28.289  34.143  1.00  0.00     0.049 A 
ATOM     65  H   UNL A   1      42.928  28.693  32.676  1.00  0.00     0.167 HD
ATOM     66  C   UNL A   1      44.830  26.602  32.375  1.00  0.00     0.074 A 
ATOM     67  C   UNL A   1      45.571  25.492  31.811  1.00  0.00     0.031 C 
ATOM     68  C   UNL A   1      45.100  27.171  33.576  1.00  0.00     0.037 A 
BRANCH  55  69
ATOM     69  C   UNL A   1      41.371  31.896  35.029  1.00  0.00     0.058 A 
ATOM     70  C   UNL A   1      40.383  31.662  36.003  1.00  0.00     0.135 A 
ATOM     71  C   UNL A   1      41.975  33.161  35.002  1.00  0.00     0.135 A 
ATOM     72  F   UNL A   1      39.765  30.472  36.067  1.00  0.00    -0.206 F 
ATOM     73  C   UNL A   1      39.975  32.657  36.882  1.00  0.00     0.059 A 
ATOM     74  C   UNL A   1      41.601  34.166  35.892  1.00  0.00     0.059 A 
ATOM     75  F   UNL A   1      42.926  33.438  34.098  1.00  0.00    -0.206 F 
ATOM     76  C   UNL A   1      40.586  33.909  36.816  1.00  0.00     0.060 A 
BRANCH  76  77
ATOM     77  S   UNL A   1      40.027  35.192  37.956  1.00  0.00     0.124 S 
ATOM     78  O   UNL A   1      39.829  36.320  37.050  1.00  0.00    -0.237 OA
ATOM     79  O   UNL A   1      38.812  34.608  38.513  1.00  0.00    -0.237 OA
ATOM     80  O   UNL A   1      41.141  35.325  38.889  1.00  0.00    -0.744 OA
ENDBRANCH  76  77
ENDBRANCH  55  69
BRANCH  56  81
ATOM     81  C   UNL A   1      43.411  24.853  28.246  1.00  0.00     0.058 A 
ATOM     82  C   UNL A   1      44.234  25.152  27.150  1.00  0.00     0.135 A 
ATOM     83  C   UNL A   1      42.910  23.545  28.349  1.00  0.00     0.135 A 
ATOM     84  F   UNL A   1      44.736  26.388  27.009  1.00  0.00    -0.206 F 
ATOM     85  C   UNL A   1      44.532  24.202  26.180  1.00  0.00     0.059 A 
ATOM     86  C   UNL A   1      43.208  22.571  27.398  1.00  0.00     0.059 A 
ATOM     87  F   UNL A   1      42.131  23.205  29.387  1.00  0.00    -0.206 F 
ATOM     88  C   UNL A   1      44.013  22.913  26.311  1.00  0.00     0.060 A 
BRANCH  88  89
ATOM     89  S   UNL A   1      44.435  21.687  25.052  1.00  0.00     0.124 S 
ATOM     90  O   UNL A   1      45.825  21.396  25.379  1.00  0.00    -0.237 OA
ATOM     91  O   UNL A   1      43.477  20.622  25.335  1.00  0.00    -0.237 OA
ATOM     92  O   UNL A   1      44.217  22.401  23.798  1.00  0.00    -0.744 OA
ENDBRANCH  88  89
ENDBRANCH  56  81
BRANCH  68  93
ATOM     93  C   UNL A   1      46.213  26.577  34.389  1.00  0.00     0.058 A 
ATOM     94  C   UNL A   1      47.523  27.069  34.310  1.00  0.00     0.135 A 
ATOM     95  C   UNL A   1      45.946  25.553  35.312  1.00  0.00     0.135 A 
ATOM     96  F   UNL A   1      47.828  28.040  33.435  1.00  0.00    -0.206 F 
ATOM     97  C   UNL A   1      48.537  26.561  35.115  1.00  0.00     0.059 A 
ATOM     98  C   UNL A   1      46.939  25.047  36.144  1.00  0.00     0.059 A 
ATOM     99  F   UNL A   1      44.706  25.052  35.429  1.00  0.00    -0.206 F 
ATOM    100  C   UNL A   1      48.232  25.554  36.034  1.00  0.00     0.060 A 
BRANCH 100 101
ATOM    101  S   UNL A   1      49.544  24.949  37.118  1.00  0.00     0.124 S 
ATOM    102  O   UNL A   1      50.445  26.095  37.157  1.00  0.00    -0.237 OA
ATOM    103  O   UNL A   1      48.821  24.669  38.356  1.00  0.00    -0.237 OA
ATOM    104  O   UNL A   1      50.050  23.774  36.416  1.00  0.00    -0.744 OA
ENDBRANCH 100 101
ENDBRANCH  68  93
ENDBRANCH  42  43
ENDBRANCH  35  37
ENDBRANCH  34  35
ENDBRANCH   1  34
TORSDOF 18
ENDMDL
MODEL 2
REMARK VINA RESULT:     -12.2      2.564      3.315
REMARK SMILES CN1N[C@H](C(=O)N[C@@H](CC2=c3ccccc3=NC2)C(=O)OCCOC(=O)c2ccc(-c3c4nc(c(-c5c(F)cc(S(=O)(=O)[O-])cc5F)c5ccc([nH]5)c(-c5c(F)cc(S(=O)(=O)[O-])cc5F)c5nc(c(-c6c(F)cc(S(=O)(=O)[O-])cc6F)c6ccc3[nH]6)C=C5)C=C4)cc2)c2ccccc2C1=O
REMARK SMILES IDX 23 1 22 2 21 3 19 4 20 5 8 6 7 7 5 8 6 9 4 11 1 12 2 13 3 14
REMARK SMILES IDX 99 15 98 17 100 18 93 19 97 20 94 21 96 22 95 23 9 24 10 25
REMARK SMILES IDX 11 26 18 27 12 28 16 29 17 30 13 31 15 32 14 33 24 34 25 35
REMARK SMILES IDX 26 36 27 37 28 38 92 39 29 40 91 41 30 42 31 43 32 44 85 45
REMARK SMILES IDX 33 46 90 47 84 48 86 49 34 50 89 51 83 52 82 53 35 55 69 56
REMARK SMILES IDX 48 57 68 58 49 59 52 60 67 61 87 62 50 63 51 64 66 66 88 67
REMARK SMILES IDX 53 68 36 69 37 70 46 71 38 72 39 73 45 74 47 75 40 76 41 77
REMARK SMILES IDX 42 78 43 79 44 80 70 81 71 82 80 83 72 84 73 85 79 86 81 87
REMARK SMILES IDX 74 88 75 89 76 90 77 91 78 92 54 93 55 94 64 95 56 96 57 97
REMARK SMILES IDX 63 98 65 99 58 100 59 101 60 102 61 103 62 104
REMARK H PARENT 7 10 3 16 86 54 52 65
REMARK Flexibility Score: inf
ROOT
ATOM      1  C   UNL A   1      32.927  28.653  27.493  1.00  0.00     0.275 C 
ENDROOT
BRANCH   1   2
ATOM      2  C   UNL A   1      32.433  27.564  26.543  1.00  0.00     0.274 C 
BRANCH   2   3
ATOM      3  O   UNL A   1      31.038  27.266  26.746  1.00  0.00    -0.461 OA
BRANCH   3   4
ATOM      4  C   UNL A   1      30.696  25.969  26.531  1.00  0.00     0.329 C 
ATOM      5  O   UNL A   1      29.545  25.542  26.578  1.00  0.00    -0.250 OA
BRANCH   4   6
ATOM      6  C   UNL A   1      31.895  25.046  26.302  1.00  0.00     0.196 C 
BRANCH   6   7
ATOM      7  N   UNL A   1      32.215  24.063  27.346  1.00  0.00    -0.341 N 
ATOM      8  C   UNL A   1      32.956  22.915  27.301  1.00  0.00     0.244 C 
ATOM      9  O   UNL A   1      32.791  22.110  28.228  1.00  0.00    -0.273 OA
ATOM     10  H   UNL A   1      31.832  24.265  28.229  1.00  0.00     0.164 HD
BRANCH   8  11
ATOM     11  C   UNL A   1      34.049  22.649  26.231  1.00  0.00     0.195 C 
ATOM     12  C   UNL A   1      37.636  23.370  25.797  1.00  0.00     0.169 C 
ATOM     13  N   UNL A   1      36.452  22.538  25.932  1.00  0.00    -0.276 N 
ATOM     14  N   UNL A   1      35.383  22.996  26.762  1.00  0.00    -0.215 NA
ATOM     15  C   UNL A   1      36.448  21.252  25.385  1.00  0.00     0.268 C 
ATOM     16  H   UNL A   1      35.447  24.012  26.841  1.00  0.00     0.149 HD
ATOM     17  C   UNL A   1      35.124  20.596  25.250  1.00  0.00     0.046 A 
ATOM     18  O   UNL A   1      37.455  20.686  24.973  1.00  0.00    -0.268 OA
ATOM     19  C   UNL A   1      33.960  21.251  25.663  1.00  0.00    -0.007 A 
ATOM     20  C   UNL A   1      35.047  19.345  24.625  1.00  0.00     0.014 A 
ATOM     21  C   UNL A   1      32.720  20.636  25.418  1.00  0.00     0.007 A 
ATOM     22  C   UNL A   1      33.813  18.730  24.429  1.00  0.00     0.001 A 
ATOM     23  C   UNL A   1      32.649  19.378  24.823  1.00  0.00     0.000 A 
ENDBRANCH   8  11
ENDBRANCH   6   7
BRANCH   6  24
ATOM     24  C   UNL A   1      31.650  24.373  24.925  1.00  0.00     0.070 C 
BRANCH  24  25
ATOM     25  C   UNL A   1      31.427  25.212  23.688  1.00  0.00    -0.037 C 
ATOM     26  C   UNL A   1      32.151  26.154  23.082  1.00  0.00     0.001 A 
ATOM     27  C   UNL A   1      30.011  25.348  23.197  1.00  0.00     0.174 C 
ATOM     28  C   UNL A   1      33.512  26.517  22.847  1.00  0.00     0.010 A 
ATOM     29  C   UNL A   1      31.083  27.187  23.000  1.00  0.00     0.065 A 
ATOM     30  N   UNL A   1      29.843  26.800  23.036  1.00  0.00    -0.280 NA
ATOM     31  C   UNL A   1      33.823  27.811  22.655  1.00  0.00     0.001 A 
ATOM     32  C   UNL A   1      31.538  28.594  23.052  1.00  0.00     0.028 A 
ATOM     33  C   UNL A   1      32.846  28.855  22.903  1.00  0.00     0.002 A 
ENDBRANCH  24  25
ENDBRANCH   6  24
ENDBRANCH   4   6
ENDBRANCH   3   4
ENDBRANCH   2   3
ENDBRANCH   1   2
BRANCH   1  34
ATOM     34  O   UNL A   1      34.176  29.217  27.054  1.00  0.00    -0.458 OA
BRANCH  34  35
ATOM     35  C   UNL A   1      34.620  30.248  27.811  1.00  0.00     0.338 C 
ATOM     36  O   UNL A   1      33.972  31.212  28.176  1.00  0.00    -0.246 OA
BRANCH  35  37
ATOM     37  C   UNL A   1      36.016  30.015  28.213  1.00  0.00     0.060 A 
ATOM     38  C   UNL A   1      36.318  29.559  29.497  1.00  0.00     0.016 A 
ATOM     39  C   UNL A   1      37.015  30.116  27.246  1.00  0.00     0.016 A 
ATOM     40  C   UNL A   1      37.637  29.201  29.811  1.00  0.00     0.010 A 
ATOM     41  C   UNL A   1      38.315  29.717  27.548  1.00  0.00     0.010 A 
ATOM     42  C   UNL A   1      38.644  29.257  28.833  1.00  0.00    -0.014 A 
BRANCH  42  43
ATOM     43  C   UNL A   1      40.047  28.845  29.114  1.00  0.00     0.031 A 
ATOM     44  C   UNL A   1      41.021  29.852  29.668  1.00  0.00     0.074 A 
ATOM     45  C   UNL A   1      40.480  27.610  28.784  1.00  0.00     0.049 A 
ATOM     46  N   UNL A   1      42.284  29.698  29.973  1.00  0.00    -0.248 NA
ATOM     47  C   UNL A   1      40.512  31.215  29.896  1.00  0.00     0.031 C 
ATOM     48  C   UNL A   1      39.664  26.557  28.182  1.00  0.00     0.029 A 
ATOM     49  N   UNL A   1      41.726  27.040  28.875  1.00  0.00    -0.354 N 
ATOM     50  C   UNL A   1      42.706  30.930  30.455  1.00  0.00     0.074 A 
ATOM     51  C   UNL A   1      41.602  31.850  30.298  1.00  0.00     0.031 C 
ATOM     52  C   UNL A   1      40.435  25.492  27.908  1.00  0.00     0.029 A 
ATOM     53  C   UNL A   1      41.795  25.767  28.356  1.00  0.00     0.049 A 
ATOM     54  H   UNL A   1      42.500  27.500  29.274  1.00  0.00     0.167 HD
ATOM     55  C   UNL A   1      43.882  31.253  31.046  1.00  0.00     0.037 A 
ATOM     56  C   UNL A   1      42.827  24.906  28.279  1.00  0.00     0.037 A 
ATOM     57  C   UNL A   1      44.973  30.332  31.212  1.00  0.00     0.049 A 
ATOM     58  C   UNL A   1      44.136  25.283  28.919  1.00  0.00     0.074 A 
ATOM     59  C   UNL A   1      46.179  30.529  31.861  1.00  0.00     0.029 A 
ATOM     60  N   UNL A   1      44.988  29.035  30.721  1.00  0.00    -0.354 N 
ATOM     61  N   UNL A   1      44.473  26.409  29.499  1.00  0.00    -0.248 NA
ATOM     62  C   UNL A   1      45.183  24.253  28.946  1.00  0.00     0.031 C 
ATOM     63  C   UNL A   1      46.930  29.353  31.749  1.00  0.00     0.029 A 
ATOM     64  C   UNL A   1      46.180  28.416  31.054  1.00  0.00     0.049 A 
ATOM     65  H   UNL A   1      44.257  28.615  30.212  1.00  0.00     0.167 HD
ATOM     66  C   UNL A   1      45.750  26.205  30.008  1.00  0.00     0.074 A 
ATOM     67  C   UNL A   1      46.129  24.851  29.658  1.00  0.00     0.031 C 
ATOM     68  C   UNL A   1      46.530  27.059  30.715  1.00  0.00     0.037 A 
BRANCH  55  69
ATOM     69  C   UNL A   1      43.999  32.637  31.619  1.00  0.00     0.058 A 
ATOM     70  C   UNL A   1      43.536  32.914  32.918  1.00  0.00     0.135 A 
ATOM     71  C   UNL A   1      44.564  33.692  30.888  1.00  0.00     0.135 A 
ATOM     72  F   UNL A   1      42.975  31.943  33.657  1.00  0.00    -0.206 F 
ATOM     73  C   UNL A   1      43.587  34.194  33.453  1.00  0.00     0.059 A 
ATOM     74  C   UNL A   1      44.651  34.979  31.416  1.00  0.00     0.059 A 
ATOM     75  F   UNL A   1      45.026  33.484  29.646  1.00  0.00    -0.206 F 
ATOM     76  C   UNL A   1      44.141  35.223  32.692  1.00  0.00     0.060 A 
BRANCH  76  77
ATOM     77  S   UNL A   1      44.180  36.882  33.401  1.00  0.00     0.124 S 
ATOM     78  O   UNL A   1      43.234  36.750  34.506  1.00  0.00    -0.237 OA
ATOM     79  O   UNL A   1      45.581  37.027  33.783  1.00  0.00    -0.237 OA
ATOM     80  O   UNL A   1      43.743  37.733  32.299  1.00  0.00    -0.744 OA
ENDBRANCH  76  77
ENDBRANCH  55  69
BRANCH  56  81
ATOM     81  C   UNL A   1      42.634  23.558  27.684  1.00  0.00     0.058 A 
ATOM     82  C   UNL A   1      42.363  22.451  28.501  1.00  0.00     0.135 A 
ATOM     83  C   UNL A   1      42.706  23.345  26.298  1.00  0.00     0.135 A 
ATOM     84  F   UNL A   1      42.285  22.606  29.832  1.00  0.00    -0.206 F 
ATOM     85  C   UNL A   1      42.194  21.176  27.973  1.00  0.00     0.059 A 
ATOM     86  C   UNL A   1      42.524  22.079  25.743  1.00  0.00     0.059 A 
ATOM     87  F   UNL A   1      42.946  24.374  25.472  1.00  0.00    -0.206 F 
ATOM     88  C   UNL A   1      42.278  20.999  26.591  1.00  0.00     0.060 A 
BRANCH  88  89
ATOM     89  S   UNL A   1      42.029  19.338  25.923  1.00  0.00     0.124 S 
ATOM     90  O   UNL A   1      40.589  19.323  25.699  1.00  0.00    -0.237 OA
ATOM     91  O   UNL A   1      42.861  19.367  24.723  1.00  0.00    -0.237 OA
ATOM     92  O   UNL A   1      42.511  18.468  26.991  1.00  0.00    -0.744 OA
ENDBRANCH  88  89
ENDBRANCH  56  81
BRANCH  68  93
ATOM     93  C   UNL A   1      47.854  26.545  31.204  1.00  0.00     0.058 A 
ATOM     94  C   UNL A   1      47.978  25.900  32.443  1.00  0.00     0.135 A 
ATOM     95  C   UNL A   1      48.993  26.637  30.389  1.00  0.00     0.135 A 
ATOM     96  F   UNL A   1      46.919  25.798  33.261  1.00  0.00    -0.206 F 
ATOM     97  C   UNL A   1      49.192  25.366  32.861  1.00  0.00     0.059 A 
ATOM     98  C   UNL A   1      50.211  26.089  30.777  1.00  0.00     0.059 A 
ATOM     99  F   UNL A   1      48.923  27.240  29.192  1.00  0.00    -0.206 F 
ATOM    100  C   UNL A   1      50.301  25.459  32.017  1.00  0.00     0.060 A 
BRANCH 100 101
ATOM    101  S   UNL A   1      51.854  24.705  32.545  1.00  0.00     0.124 S 
ATOM    102  O   UNL A   1      51.908  25.096  33.950  1.00  0.00    -0.237 OA
ATOM    103  O   UNL A   1      51.614  23.287  32.291  1.00  0.00    -0.237 OA
ATOM    104  O   UNL A   1      52.848  25.331  31.679  1.00  0.00    -0.744 OA
ENDBRANCH 100 101
ENDBRANCH  68  93
ENDBRANCH  42  43
ENDBRANCH  35  37
ENDBRANCH  34  35
ENDBRANCH   1  34
TORSDOF 18
ENDMDL
MODEL 3
REMARK VINA RESULT:     -12.1      4.517      9.832
REMARK SMILES CN1N[C@H](C(=O)N[C@@H](CC2=c3ccccc3=NC2)C(=O)OCCOC(=O)c2ccc(-c3c4nc(c(-c5c(F)cc(S(=O)(=O)[O-])cc5F)c5ccc([nH]5)c(-c5c(F)cc(S(=O)(=O)[O-])cc5F)c5nc(c(-c6c(F)cc(S(=O)(=O)[O-])cc6F)c6ccc3[nH]6)C=C5)C=C4)cc2)c2ccccc2C1=O
REMARK SMILES IDX 23 1 22 2 21 3 19 4 20 5 8 6 7 7 5 8 6 9 4 11 1 12 2 13 3 14
REMARK SMILES IDX 99 15 98 17 100 18 93 19 97 20 94 21 96 22 95 23 9 24 10 25
REMARK SMILES IDX 11 26 18 27 12 28 16 29 17 30 13 31 15 32 14 33 24 34 25 35
REMARK SMILES IDX 26 36 27 37 28 38 92 39 29 40 91 41 30 42 31 43 32 44 85 45
REMARK SMILES IDX 33 46 90 47 84 48 86 49 34 50 89 51 83 52 82 53 35 55 69 56
REMARK SMILES IDX 48 57 68 58 49 59 52 60 67 61 87 62 50 63 51 64 66 66 88 67
REMARK SMILES IDX 53 68 36 69 37 70 46 71 38 72 39 73 45 74 47 75 40 76 41 77
REMARK SMILES IDX 42 78 43 79 44 80 70 81 71 82 80 83 72 84 73 85 79 86 81 87
REMARK SMILES IDX 74 88 75 89 76 90 77 91 78 92 54 93 55 94 64 95 56 96 57 97
REMARK SMILES IDX 63 98 65 99 58 100 59 101 60 102 61 103 62 104
REMARK H PARENT 7 10 3 16 86 54 52 65
REMARK Flexibility Score: inf
ROOT
ATOM      1  C   UNL A   1      39.209  21.104  25.397  1.00  0.00     0.275 C 
ENDROOT
BRANCH   1   2
ATOM      2  C   UNL A   1      38.125  20.031  25.313  1.00  0.00     0.274 C 
BRANCH   2   3
ATOM      3  O   UNL A   1      36.987  20.476  24.550  1.00  0.00    -0.461 OA
BRANCH   3   4
ATOM      4  C   UNL A   1      35.823  19.836  24.838  1.00  0.00     0.329 C 
ATOM      5  O   UNL A   1      35.661  18.622  24.739  1.00  0.00    -0.250 OA
BRANCH   4   6
ATOM      6  C   UNL A   1      34.682  20.778  25.224  1.00  0.00     0.196 C 
BRANCH   6   7
ATOM      7  N   UNL A   1      34.635  21.272  26.608  1.00  0.00    -0.341 N 
ATOM      8  C   UNL A   1      33.921  22.290  27.175  1.00  0.00     0.244 C 
ATOM      9  O   UNL A   1      34.314  22.701  28.275  1.00  0.00    -0.273 OA
ATOM     10  H   UNL A   1      35.217  20.785  27.234  1.00  0.00     0.164 HD
BRANCH   8  11
ATOM     11  C   UNL A   1      32.606  22.848  26.567  1.00  0.00     0.195 C 
ATOM     12  C   UNL A   1      28.985  22.394  27.083  1.00  0.00     0.169 C 
ATOM     13  N   UNL A   1      30.243  23.122  27.034  1.00  0.00    -0.276 N 
ATOM     14  N   UNL A   1      31.445  22.436  27.385  1.00  0.00    -0.215 NA
ATOM     15  C   UNL A   1      30.231  24.500  26.804  1.00  0.00     0.268 C 
ATOM     16  H   UNL A   1      31.297  21.435  27.257  1.00  0.00     0.149 HD
ATOM     17  C   UNL A   1      31.527  25.116  26.424  1.00  0.00     0.046 A 
ATOM     18  O   UNL A   1      29.217  25.188  26.846  1.00  0.00    -0.268 OA
ATOM     19  C   UNL A   1      32.681  24.336  26.316  1.00  0.00    -0.007 A 
ATOM     20  C   UNL A   1      31.559  26.477  26.091  1.00  0.00     0.014 A 
ATOM     21  C   UNL A   1      33.861  24.942  25.850  1.00  0.00     0.007 A 
ATOM     22  C   UNL A   1      32.747  27.071  25.673  1.00  0.00     0.001 A 
ATOM     23  C   UNL A   1      33.897  26.302  25.549  1.00  0.00     0.000 A 
ENDBRANCH   8  11
ENDBRANCH   6   7
BRANCH   6  24
ATOM     24  C   UNL A   1      34.728  21.940  24.196  1.00  0.00     0.070 C 
BRANCH  24  25
ATOM     25  C   UNL A   1      33.592  22.148  23.221  1.00  0.00    -0.037 C 
ATOM     26  C   UNL A   1      33.107  23.224  22.600  1.00  0.00     0.001 A 
ATOM     27  C   UNL A   1      32.531  21.082  23.167  1.00  0.00     0.174 C 
ATOM     28  C   UNL A   1      33.540  24.474  22.063  1.00  0.00     0.010 A 
ATOM     29  C   UNL A   1      31.682  23.035  22.984  1.00  0.00     0.065 A 
ATOM     30  N   UNL A   1      31.277  21.840  23.296  1.00  0.00    -0.280 NA
ATOM     31  C   UNL A   1      32.673  25.500  22.005  1.00  0.00     0.001 A 
ATOM     32  C   UNL A   1      30.884  24.272  23.136  1.00  0.00     0.028 A 
ATOM     33  C   UNL A   1      31.389  25.427  22.679  1.00  0.00     0.002 A 
ENDBRANCH  24  25
ENDBRANCH   6  24
ENDBRANCH   4   6
ENDBRANCH   3   4
ENDBRANCH   2   3
ENDBRANCH   1   2
BRANCH   1  34
ATOM     34  O   UNL A   1      39.092  21.888  26.597  1.00  0.00    -0.458 OA
BRANCH  34  35
ATOM     35  C   UNL A   1      38.402  23.043  26.446  1.00  0.00     0.338 C 
ATOM     36  O   UNL A   1      37.251  23.156  26.065  1.00  0.00    -0.246 OA
BRANCH  35  37
ATOM     37  C   UNL A   1      39.223  24.182  26.883  1.00  0.00     0.060 A 
ATOM     38  C   UNL A   1      39.905  24.965  25.950  1.00  0.00     0.016 A 
ATOM     39  C   UNL A   1      39.190  24.553  28.227  1.00  0.00     0.016 A 
ATOM     40  C   UNL A   1      40.558  26.132  26.374  1.00  0.00     0.010 A 
ATOM     41  C   UNL A   1      39.800  25.736  28.635  1.00  0.00     0.010 A 
ATOM     42  C   UNL A   1      40.494  26.539  27.716  1.00  0.00    -0.014 A 
BRANCH  42  43
ATOM     43  C   UNL A   1      41.137  27.794  28.197  1.00  0.00     0.031 A 
ATOM     44  C   UNL A   1      42.640  27.890  28.241  1.00  0.00     0.074 A 
ATOM     45  C   UNL A   1      40.390  28.805  28.687  1.00  0.00     0.049 A 
ATOM     46  N   UNL A   1      43.394  28.886  28.632  1.00  0.00    -0.248 NA
ATOM     47  C   UNL A   1      43.396  26.705  27.800  1.00  0.00     0.031 C 
ATOM     48  C   UNL A   1      38.930  28.821  28.766  1.00  0.00     0.029 A 
ATOM     49  N   UNL A   1      40.756  30.005  29.247  1.00  0.00    -0.354 N 
ATOM     50  C   UNL A   1      44.703  28.458  28.453  1.00  0.00     0.074 A 
ATOM     51  C   UNL A   1      44.645  27.078  28.028  1.00  0.00     0.031 C 
ATOM     52  C   UNL A   1      38.526  29.942  29.386  1.00  0.00     0.029 A 
ATOM     53  C   UNL A   1      39.696  30.750  29.710  1.00  0.00     0.049 A 
ATOM     54  H   UNL A   1      41.693  30.303  29.312  1.00  0.00     0.167 HD
ATOM     55  C   UNL A   1      45.850  29.171  28.561  1.00  0.00     0.037 A 
ATOM     56  C   UNL A   1      39.666  31.959  30.299  1.00  0.00     0.037 A 
ATOM     57  C   UNL A   1      45.902  30.547  28.971  1.00  0.00     0.049 A 
ATOM     58  C   UNL A   1      40.948  32.734  30.434  1.00  0.00     0.074 A 
ATOM     59  C   UNL A   1      46.999  31.387  29.043  1.00  0.00     0.029 A 
ATOM     60  N   UNL A   1      44.802  31.286  29.382  1.00  0.00    -0.354 N 
ATOM     61  N   UNL A   1      42.168  32.363  30.127  1.00  0.00    -0.248 NA
ATOM     62  C   UNL A   1      40.845  34.109  30.940  1.00  0.00     0.031 C 
ATOM     63  C   UNL A   1      46.563  32.632  29.512  1.00  0.00     0.029 A 
ATOM     64  C   UNL A   1      45.191  32.574  29.707  1.00  0.00     0.049 A 
ATOM     65  H   UNL A   1      43.880  30.945  29.434  1.00  0.00     0.167 HD
ATOM     66  C   UNL A   1      42.970  33.477  30.350  1.00  0.00     0.074 A 
ATOM     67  C   UNL A   1      42.098  34.531  30.828  1.00  0.00     0.031 C 
ATOM     68  C   UNL A   1      44.304  33.616  30.160  1.00  0.00     0.037 A 
BRANCH  55  69
ATOM     69  C   UNL A   1      47.120  28.481  28.149  1.00  0.00     0.058 A 
ATOM     70  C   UNL A   1      47.542  28.502  26.807  1.00  0.00     0.135 A 
ATOM     71  C   UNL A   1      47.922  27.798  29.075  1.00  0.00     0.135 A 
ATOM     72  F   UNL A   1      46.806  29.132  25.877  1.00  0.00    -0.206 F 
ATOM     73  C   UNL A   1      48.685  27.832  26.391  1.00  0.00     0.059 A 
ATOM     74  C   UNL A   1      49.088  27.143  28.685  1.00  0.00     0.059 A 
ATOM     75  F   UNL A   1      47.571  27.750  30.369  1.00  0.00    -0.206 F 
ATOM     76  C   UNL A   1      49.449  27.150  27.336  1.00  0.00     0.060 A 
BRANCH  76  77
ATOM     77  S   UNL A   1      50.921  26.272  26.770  1.00  0.00     0.124 S 
ATOM     78  O   UNL A   1      50.781  26.373  25.320  1.00  0.00    -0.237 OA
ATOM     79  O   UNL A   1      52.001  27.059  27.357  1.00  0.00    -0.237 OA
ATOM     80  O   UNL A   1      50.752  24.932  27.324  1.00  0.00    -0.744 OA
ENDBRANCH  76  77
ENDBRANCH  55  69
BRANCH  56  81
ATOM     81  C   UNL A   1      38.367  32.568  30.691  1.00  0.00     0.058 A 
ATOM     82  C   UNL A   1      37.888  32.440  32.003  1.00  0.00     0.135 A 
ATOM     83  C   UNL A   1      37.585  33.293  29.777  1.00  0.00     0.135 A 
ATOM     84  F   UNL A   1      38.601  31.756  32.911  1.00  0.00    -0.206 F 
ATOM     85  C   UNL A   1      36.670  32.985  32.392  1.00  0.00     0.059 A 
ATOM     86  C   UNL A   1      36.368  33.862  30.148  1.00  0.00     0.059 A 
ATOM     87  F   UNL A   1      38.007  33.458  28.515  1.00  0.00    -0.206 F 
ATOM     88  C   UNL A   1      35.915  33.694  31.457  1.00  0.00     0.060 A 
BRANCH  88  89
ATOM     89  S   UNL A   1      34.347  34.417  31.991  1.00  0.00     0.124 S 
ATOM     90  O   UNL A   1      33.667  34.620  30.718  1.00  0.00    -0.237 OA
ATOM     91  O   UNL A   1      33.803  33.364  32.844  1.00  0.00    -0.237 OA
ATOM     92  O   UNL A   1      34.755  35.632  32.689  1.00  0.00    -0.744 OA
ENDBRANCH  88  89
ENDBRANCH  56  81
BRANCH  68  93
ATOM     93  C   UNL A   1      44.904  34.968  30.420  1.00  0.00     0.058 A 
ATOM     94  C   UNL A   1      44.971  35.946  29.418  1.00  0.00     0.135 A 
ATOM     95  C   UNL A   1      45.349  35.308  31.708  1.00  0.00     0.135 A 
ATOM     96  F   UNL A   1      44.567  35.664  28.170  1.00  0.00    -0.206 F 
ATOM     97  C   UNL A   1      45.465  37.219  29.682  1.00  0.00     0.059 A 
ATOM     98  C   UNL A   1      45.825  36.582  31.999  1.00  0.00     0.059 A 
ATOM     99  F   UNL A   1      45.301  34.408  32.701  1.00  0.00    -0.206 F 
ATOM    100  C   UNL A   1      45.883  37.529  30.978  1.00  0.00     0.060 A 
BRANCH 100 101
ATOM    101  S   UNL A   1      46.462  39.205  31.321  1.00  0.00     0.124 S 
ATOM    102  O   UNL A   1      46.503  39.209  32.779  1.00  0.00    -0.237 OA
ATOM    103  O   UNL A   1      47.760  39.229  30.651  1.00  0.00    -0.237 OA
ATOM    104  O   UNL A   1      45.436  40.049  30.717  1.00  0.00    -0.744 OA
ENDBRANCH 100 101
ENDBRANCH  68  93
ENDBRANCH  42  43
ENDBRANCH  35  37
ENDBRANCH  34  35
ENDBRANCH   1  34
TORSDOF 18
ENDMDL
