MODEL 1
REMARK VINA RESULT:      -8.7      0.000      0.000
REMARK SMILES NS(=O)(=O)c1ccc(-n2nc(NC(=O)NCCCCCCCCCCC(=O)OCCOC(=O)c3ccc(-c4c5nc(c(-c6c(F)cc(S(=O)(=O)[O-])cc6F)c6ccc([nH]6)c(-c6c(F)cc(S(=O)(=O)[O-])cc6F)c6nc(c(-c7c(F)cc(S(=O)(=O)[O-])cc7F)c7ccc4[nH]7)C=C6)C=C5)cc3)cc2-c2ccccc2)cc1
REMARK SMILES IDX 23 1 22 2 21 3 20 4 19 5 18 6 17 7 16 8 15 9 12 10 13 11
REMARK SMILES IDX 14 13 11 15 9 16 10 17 101 18 100 19 8 20 5 21 6 22 109 23
REMARK SMILES IDX 7 24 108 25 2 26 3 27 4 28 1 29 102 32 103 33 107 34 104 35
REMARK SMILES IDX 106 36 105 37 24 38 25 39 26 40 27 41 28 42 29 43 30 44
REMARK SMILES IDX 31 45 32 46 33 47 34 48 35 49 99 50 36 51 98 52 37 53 38 54
REMARK SMILES IDX 39 55 92 56 40 57 97 58 91 59 93 60 41 61 96 62 90 63 89 64
REMARK SMILES IDX 42 66 76 67 55 68 75 69 56 70 59 71 74 72 94 73 57 74 58 75
REMARK SMILES IDX 73 77 95 78 60 79 43 80 44 81 53 82 45 83 46 84 52 85 54 86
REMARK SMILES IDX 47 87 48 88 49 89 50 90 51 91 77 92 78 93 87 94 79 95 80 96
REMARK SMILES IDX 86 97 88 98 81 99 82 100 83 101 84 102 85 103 61 104 62 105
REMARK SMILES IDX 71 106 63 107 64 108 70 109 72 110 65 111 66 112 67 113
REMARK SMILES IDX 68 114 69 115
REMARK H PARENT 12 12 15 14 1 30 1 31 93 65 59 76
REMARK Flexibility Score: inf
ROOT
ATOM      1  C   UNL A   1      33.682  27.414  23.984  1.00  0.00     0.001 C 
ENDROOT
BRANCH   1   2
ATOM      2  C   UNL A   1      32.403  26.630  24.259  1.00  0.00     0.000 C 
BRANCH   2   3
ATOM      3  C   UNL A   1      32.404  25.274  23.562  1.00  0.00     0.000 C 
BRANCH   3   4
ATOM      4  C   UNL A   1      32.761  24.121  24.502  1.00  0.00     0.000 C 
BRANCH   4   5
ATOM      5  C   UNL A   1      34.104  23.450  24.188  1.00  0.00     0.000 C 
BRANCH   5   6
ATOM      6  C   UNL A   1      35.184  23.666  25.258  1.00  0.00     0.002 C 
BRANCH   6   7
ATOM      7  C   UNL A   1      36.616  23.684  24.727  1.00  0.00     0.021 C 
BRANCH   7   8
ATOM      8  C   UNL A   1      37.686  23.687  25.804  1.00  0.00     0.117 C 
BRANCH   8   9
ATOM      9  N   UNL A   1      38.227  22.385  26.124  1.00  0.00    -0.338 N 
ATOM     10  N   UNL A   1      40.513  22.929  26.488  1.00  0.00    -0.291 N 
ATOM     11  C   UNL A   1      39.505  22.031  26.391  1.00  0.00     0.320 C 
ATOM     12  H   UNL A   1      41.409  22.560  26.315  1.00  0.00     0.173 HD
ATOM     13  O   UNL A   1      39.779  20.827  26.419  1.00  0.00    -0.248 OA
ATOM     14  H   UNL A   1      37.572  21.651  26.152  1.00  0.00     0.165 HD
BRANCH  10  15
ATOM     15  C   UNL A   1      40.497  24.272  26.789  1.00  0.00     0.157 A 
ATOM     16  N   UNL A   1      41.154  26.280  26.924  1.00  0.00    -0.231 N 
ATOM     17  N   UNL A   1      41.092  25.230  26.079  1.00  0.00    -0.149 NA
ATOM     18  C   UNL A   1      40.219  26.154  27.946  1.00  0.00     0.076 A 
ATOM     19  C   UNL A   1      39.814  24.832  27.892  1.00  0.00     0.078 A 
BRANCH  16  20
ATOM     20  C   UNL A   1      42.155  27.279  26.759  1.00  0.00     0.065 A 
ATOM     21  C   UNL A   1      44.101  29.266  26.650  1.00  0.00     0.082 A 
ATOM     22  C   UNL A   1      44.483  27.942  26.871  1.00  0.00     0.024 A 
ATOM     23  C   UNL A   1      42.762  29.595  26.411  1.00  0.00     0.024 A 
ATOM     24  C   UNL A   1      43.508  26.949  26.934  1.00  0.00     0.030 A 
ATOM     25  C   UNL A   1      41.786  28.592  26.438  1.00  0.00     0.030 A 
BRANCH  21  26
ATOM     26  S   UNL A   1      45.331  30.535  26.748  1.00  0.00     0.238 S 
ATOM     27  O   UNL A   1      44.752  31.771  26.248  1.00  0.00    -0.207 OA
ATOM     28  O   UNL A   1      46.567  30.005  26.250  1.00  0.00    -0.207 OA
BRANCH  26  29
ATOM     29  N   UNL A   1      45.523  30.783  28.393  1.00  0.00    -0.225 NA
ATOM     30  H   UNL A   1      44.613  30.741  28.852  1.00  0.00     0.137 HD
ATOM     31  H   UNL A   1      45.940  31.700  28.552  1.00  0.00     0.137 HD
ENDBRANCH  26  29
ENDBRANCH  21  26
ENDBRANCH  16  20
BRANCH  18  32
ATOM     32  C   UNL A   1      39.814  27.252  28.824  1.00  0.00     0.000 A 
ATOM     33  C   UNL A   1      40.340  27.331  30.123  1.00  0.00     0.010 A 
ATOM     34  C   UNL A   1      38.870  28.199  28.415  1.00  0.00     0.010 A 
ATOM     35  C   UNL A   1      39.896  28.305  31.015  1.00  0.00     0.001 A 
ATOM     36  C   UNL A   1      38.436  29.184  29.306  1.00  0.00     0.001 A 
ATOM     37  C   UNL A   1      38.941  29.230  30.606  1.00  0.00     0.000 A 
ENDBRANCH  18  32
ENDBRANCH  10  15
ENDBRANCH   8   9
ENDBRANCH   7   8
ENDBRANCH   6   7
ENDBRANCH   5   6
ENDBRANCH   4   5
ENDBRANCH   3   4
ENDBRANCH   2   3
ENDBRANCH   1   2
BRANCH   1  38
ATOM     38  C   UNL A   1      33.879  28.560  24.976  1.00  0.00     0.012 C 
BRANCH  38  39
ATOM     39  C   UNL A   1      32.627  29.353  25.371  1.00  0.00     0.123 C 
BRANCH  39  40
ATOM     40  C   UNL A   1      32.106  29.246  26.793  1.00  0.00     0.305 C 
ATOM     41  O   UNL A   1      31.683  28.195  27.261  1.00  0.00    -0.252 OA
BRANCH  40  42
ATOM     42  O   UNL A   1      32.205  30.408  27.487  1.00  0.00    -0.462 OA
BRANCH  42  43
ATOM     43  C   UNL A   1      33.048  31.449  26.953  1.00  0.00     0.274 C 
BRANCH  43  44
ATOM     44  C   UNL A   1      34.273  31.670  27.835  1.00  0.00     0.275 C 
BRANCH  44  45
ATOM     45  O   UNL A   1      33.832  32.104  29.117  1.00  0.00    -0.458 OA
BRANCH  45  46
ATOM     46  C   UNL A   1      34.457  33.212  29.573  1.00  0.00     0.338 C 
ATOM     47  O   UNL A   1      34.713  34.215  28.931  1.00  0.00    -0.246 OA
BRANCH  46  48
ATOM     48  C   UNL A   1      34.911  33.003  30.952  1.00  0.00     0.060 A 
ATOM     49  C   UNL A   1      35.199  34.166  31.678  1.00  0.00     0.016 A 
ATOM     50  C   UNL A   1      35.561  31.793  31.188  1.00  0.00     0.016 A 
ATOM     51  C   UNL A   1      36.403  34.222  32.336  1.00  0.00     0.010 A 
ATOM     52  C   UNL A   1      36.774  31.860  31.807  1.00  0.00     0.010 A 
ATOM     53  C   UNL A   1      37.227  33.104  32.252  1.00  0.00    -0.014 A 
BRANCH  53  54
ATOM     54  C   UNL A   1      38.607  33.209  32.663  1.00  0.00     0.031 A 
ATOM     55  C   UNL A   1      39.479  33.555  31.525  1.00  0.00     0.074 A 
ATOM     56  C   UNL A   1      38.946  33.194  33.967  1.00  0.00     0.049 A 
ATOM     57  N   UNL A   1      40.292  32.785  30.881  1.00  0.00    -0.248 NA
ATOM     58  C   UNL A   1      39.207  34.838  30.848  1.00  0.00     0.031 C 
ATOM     59  C   UNL A   1      38.068  33.131  35.142  1.00  0.00     0.029 A 
ATOM     60  N   UNL A   1      40.177  33.340  34.522  1.00  0.00    -0.354 N 
ATOM     61  C   UNL A   1      40.820  33.600  29.888  1.00  0.00     0.074 A 
ATOM     62  C   UNL A   1      39.898  34.688  29.720  1.00  0.00     0.031 C 
ATOM     63  C   UNL A   1      38.774  33.464  36.250  1.00  0.00     0.029 A 
ATOM     64  C   UNL A   1      40.167  33.637  35.883  1.00  0.00     0.049 A 
ATOM     65  H   UNL A   1      41.008  33.243  34.003  1.00  0.00     0.167 HD
ATOM     66  C   UNL A   1      42.138  33.548  29.556  1.00  0.00     0.037 A 
ATOM     67  C   UNL A   1      41.239  34.076  36.597  1.00  0.00     0.037 A 
ATOM     68  C   UNL A   1      42.754  32.344  30.050  1.00  0.00     0.049 A 
ATOM     69  C   UNL A   1      42.447  33.720  35.801  1.00  0.00     0.074 A 
ATOM     70  C   UNL A   1      42.571  30.993  29.831  1.00  0.00     0.029 A 
ATOM     71  N   UNL A   1      43.455  32.452  31.227  1.00  0.00    -0.354 N 
ATOM     72  N   UNL A   1      42.809  32.489  35.551  1.00  0.00    -0.248 NA
ATOM     73  C   UNL A   1      42.972  34.719  34.882  1.00  0.00     0.031 C 
ATOM     74  C   UNL A   1      42.805  30.373  31.094  1.00  0.00     0.029 A 
ATOM     75  C   UNL A   1      43.172  31.361  32.009  1.00  0.00     0.049 A 
ATOM     76  H   UNL A   1      44.060  33.190  31.469  1.00  0.00     0.167 HD
ATOM     77  C   UNL A   1      43.257  32.503  34.236  1.00  0.00     0.074 A 
ATOM     78  C   UNL A   1      43.413  33.918  33.907  1.00  0.00     0.031 C 
ATOM     79  C   UNL A   1      43.175  31.381  33.459  1.00  0.00     0.037 A 
BRANCH  66  80
ATOM     80  C   UNL A   1      42.936  34.773  29.173  1.00  0.00     0.058 A 
ATOM     81  C   UNL A   1      43.129  35.789  30.124  1.00  0.00     0.135 A 
ATOM     82  C   UNL A   1      43.304  35.105  27.845  1.00  0.00     0.135 A 
ATOM     83  F   UNL A   1      42.790  35.591  31.408  1.00  0.00    -0.206 F 
ATOM     84  C   UNL A   1      43.605  37.054  29.774  1.00  0.00     0.059 A 
ATOM     85  C   UNL A   1      43.843  36.331  27.488  1.00  0.00     0.059 A 
ATOM     86  F   UNL A   1      43.066  34.300  26.802  1.00  0.00    -0.206 F 
ATOM     87  C   UNL A   1      43.950  37.315  28.451  1.00  0.00     0.060 A 
BRANCH  87  88
ATOM     88  S   UNL A   1      44.469  38.969  27.972  1.00  0.00     0.124 S 
ATOM     89  O   UNL A   1      45.900  38.915  28.252  1.00  0.00    -0.237 OA
ATOM     90  O   UNL A   1      44.090  39.008  26.564  1.00  0.00    -0.237 OA
ATOM     91  O   UNL A   1      43.687  39.835  28.850  1.00  0.00    -0.744 OA
ENDBRANCH  87  88
ENDBRANCH  66  80
BRANCH  67  92
ATOM     92  C   UNL A   1      41.262  35.118  37.661  1.00  0.00     0.058 A 
ATOM     93  C   UNL A   1      40.482  36.287  37.572  1.00  0.00     0.135 A 
ATOM     94  C   UNL A   1      41.832  34.854  38.923  1.00  0.00     0.135 A 
ATOM     95  F   UNL A   1      39.874  36.602  36.418  1.00  0.00    -0.206 F 
ATOM     96  C   UNL A   1      40.254  37.124  38.674  1.00  0.00     0.059 A 
ATOM     97  C   UNL A   1      41.624  35.674  40.034  1.00  0.00     0.059 A 
ATOM     98  F   UNL A   1      42.538  33.734  39.139  1.00  0.00    -0.206 F 
ATOM     99  C   UNL A   1      40.817  36.799  39.908  1.00  0.00     0.060 A 
BRANCH  99 100
ATOM    100  S   UNL A   1      40.406  37.785  41.370  1.00  0.00     0.124 S 
ATOM    101  O   UNL A   1      40.736  39.135  40.927  1.00  0.00    -0.237 OA
ATOM    102  O   UNL A   1      38.986  37.501  41.547  1.00  0.00    -0.237 OA
ATOM    103  O   UNL A   1      41.282  37.239  42.405  1.00  0.00    -0.744 OA
ENDBRANCH  99 100
ENDBRANCH  67  92
BRANCH  79 104
ATOM    104  C   UNL A   1      42.858  30.077  34.151  1.00  0.00     0.058 A 
ATOM    105  C   UNL A   1      41.555  29.596  34.379  1.00  0.00     0.135 A 
ATOM    106  C   UNL A   1      43.917  29.213  34.457  1.00  0.00     0.135 A 
ATOM    107  F   UNL A   1      40.486  30.320  34.025  1.00  0.00    -0.206 F 
ATOM    108  C   UNL A   1      41.318  28.327  34.915  1.00  0.00     0.059 A 
ATOM    109  C   UNL A   1      43.706  27.934  34.964  1.00  0.00     0.059 A 
ATOM    110  F   UNL A   1      45.182  29.589  34.204  1.00  0.00    -0.206 F 
ATOM    111  C   UNL A   1      42.403  27.500  35.200  1.00  0.00     0.060 A 
BRANCH 111 112
ATOM    112  S   UNL A   1      42.099  25.824  35.807  1.00  0.00     0.124 S 
ATOM    113  O   UNL A   1      40.754  25.556  35.309  1.00  0.00    -0.237 OA
ATOM    114  O   UNL A   1      43.173  25.060  35.177  1.00  0.00    -0.237 OA
ATOM    115  O   UNL A   1      42.213  25.961  37.257  1.00  0.00    -0.744 OA
ENDBRANCH 111 112
ENDBRANCH  79 104
ENDBRANCH  53  54
ENDBRANCH  46  48
ENDBRANCH  45  46
ENDBRANCH  44  45
ENDBRANCH  43  44
ENDBRANCH  42  43
ENDBRANCH  40  42
ENDBRANCH  39  40
ENDBRANCH  38  39
ENDBRANCH   1  38
TORSDOF 29
ENDMDL
MODEL 2
REMARK VINA RESULT:      -8.7      4.645     11.239
REMARK SMILES NS(=O)(=O)c1ccc(-n2nc(NC(=O)NCCCCCCCCCCC(=O)OCCOC(=O)c3ccc(-c4c5nc(c(-c6c(F)cc(S(=O)(=O)[O-])cc6F)c6ccc([nH]6)c(-c6c(F)cc(S(=O)(=O)[O-])cc6F)c6nc(c(-c7c(F)cc(S(=O)(=O)[O-])cc7F)c7ccc4[nH]7)C=C6)C=C5)cc3)cc2-c2ccccc2)cc1
REMARK SMILES IDX 23 1 22 2 21 3 20 4 19 5 18 6 17 7 16 8 15 9 12 10 13 11
REMARK SMILES IDX 14 13 11 15 9 16 10 17 101 18 100 19 8 20 5 21 6 22 109 23
REMARK SMILES IDX 7 24 108 25 2 26 3 27 4 28 1 29 102 32 103 33 107 34 104 35
REMARK SMILES IDX 106 36 105 37 24 38 25 39 26 40 27 41 28 42 29 43 30 44
REMARK SMILES IDX 31 45 32 46 33 47 34 48 35 49 99 50 36 51 98 52 37 53 38 54
REMARK SMILES IDX 39 55 92 56 40 57 97 58 91 59 93 60 41 61 96 62 90 63 89 64
REMARK SMILES IDX 42 66 76 67 55 68 75 69 56 70 59 71 74 72 94 73 57 74 58 75
REMARK SMILES IDX 73 77 95 78 60 79 43 80 44 81 53 82 45 83 46 84 52 85 54 86
REMARK SMILES IDX 47 87 48 88 49 89 50 90 51 91 77 92 78 93 87 94 79 95 80 96
REMARK SMILES IDX 86 97 88 98 81 99 82 100 83 101 84 102 85 103 61 104 62 105
REMARK SMILES IDX 71 106 63 107 64 108 70 109 72 110 65 111 66 112 67 113
REMARK SMILES IDX 68 114 69 115
REMARK H PARENT 12 12 15 14 1 30 1 31 93 65 59 76
REMARK Flexibility Score: inf
ROOT
ATOM      1  C   UNL A   1      30.168  29.700  24.661  1.00  0.00     0.001 C 
ENDROOT
BRANCH   1   2
ATOM      2  C   UNL A   1      29.652  30.516  23.481  1.00  0.00     0.000 C 
BRANCH   2   3
ATOM      3  C   UNL A   1      30.021  29.884  22.144  1.00  0.00     0.000 C 
BRANCH   3   4
ATOM      4  C   UNL A   1      30.236  28.373  22.238  1.00  0.00     0.000 C 
BRANCH   4   5
ATOM      5  C   UNL A   1      31.707  27.957  22.371  1.00  0.00     0.000 C 
BRANCH   5   6
ATOM      6  C   UNL A   1      31.917  26.540  22.924  1.00  0.00     0.002 C 
BRANCH   6   7
ATOM      7  C   UNL A   1      30.885  25.514  22.462  1.00  0.00     0.021 C 
BRANCH   7   8
ATOM      8  C   UNL A   1      30.119  24.841  23.587  1.00  0.00     0.117 C 
BRANCH   8   9
ATOM      9  N   UNL A   1      29.745  25.718  24.674  1.00  0.00    -0.338 N 
ATOM     10  N   UNL A   1      30.749  24.599  26.516  1.00  0.00    -0.291 N 
ATOM     11  C   UNL A   1      29.989  25.592  25.999  1.00  0.00     0.320 C 
ATOM     12  H   UNL A   1      30.561  24.388  27.459  1.00  0.00     0.173 HD
ATOM     13  O   UNL A   1      29.387  26.343  26.773  1.00  0.00    -0.248 OA
ATOM     14  H   UNL A   1      29.240  26.523  24.414  1.00  0.00     0.165 HD
BRANCH  10  15
ATOM     15  C   UNL A   1      31.741  23.835  25.946  1.00  0.00     0.157 A 
ATOM     16  N   UNL A   1      32.756  22.121  25.227  1.00  0.00    -0.231 N 
ATOM     17  N   UNL A   1      31.549  22.724  25.235  1.00  0.00    -0.149 NA
ATOM     18  C   UNL A   1      33.771  23.031  25.503  1.00  0.00     0.076 A 
ATOM     19  C   UNL A   1      33.119  24.140  26.013  1.00  0.00     0.078 A 
BRANCH  16  20
ATOM     20  C   UNL A   1      32.855  20.712  25.053  1.00  0.00     0.065 A 
ATOM     21  C   UNL A   1      33.265  17.981  24.692  1.00  0.00     0.082 A 
ATOM     22  C   UNL A   1      33.304  18.518  25.980  1.00  0.00     0.024 A 
ATOM     23  C   UNL A   1      32.950  18.785  23.591  1.00  0.00     0.024 A 
ATOM     24  C   UNL A   1      33.108  19.886  26.159  1.00  0.00     0.030 A 
ATOM     25  C   UNL A   1      32.716  20.154  23.775  1.00  0.00     0.030 A 
BRANCH  21  26
ATOM     26  S   UNL A   1      33.689  16.278  24.465  1.00  0.00     0.238 S 
ATOM     27  O   UNL A   1      34.735  15.938  25.414  1.00  0.00    -0.207 OA
ATOM     28  O   UNL A   1      33.812  16.029  23.058  1.00  0.00    -0.207 OA
BRANCH  26  29
ATOM     29  N   UNL A   1      32.335  15.452  25.001  1.00  0.00    -0.225 NA
ATOM     30  H   UNL A   1      31.770  16.068  25.586  1.00  0.00     0.137 HD
ATOM     31  H   UNL A   1      32.626  14.640  25.545  1.00  0.00     0.137 HD
ENDBRANCH  26  29
ENDBRANCH  21  26
ENDBRANCH  16  20
BRANCH  18  32
ATOM     32  C   UNL A   1      35.190  22.774  25.257  1.00  0.00     0.000 A 
ATOM     33  C   UNL A   1      35.616  22.424  23.966  1.00  0.00     0.010 A 
ATOM     34  C   UNL A   1      36.127  22.819  26.293  1.00  0.00     0.010 A 
ATOM     35  C   UNL A   1      36.943  22.074  23.723  1.00  0.00     0.001 A 
ATOM     36  C   UNL A   1      37.461  22.482  26.045  1.00  0.00     0.001 A 
ATOM     37  C   UNL A   1      37.864  22.101  24.765  1.00  0.00     0.000 A 
ENDBRANCH  18  32
ENDBRANCH  10  15
ENDBRANCH   8   9
ENDBRANCH   7   8
ENDBRANCH   6   7
ENDBRANCH   5   6
ENDBRANCH   4   5
ENDBRANCH   3   4
ENDBRANCH   2   3
ENDBRANCH   1   2
BRANCH   1  38
ATOM     38  C   UNL A   1      31.396  30.338  25.309  1.00  0.00     0.012 C 
BRANCH  38  39
ATOM     39  C   UNL A   1      32.702  29.536  25.253  1.00  0.00     0.123 C 
BRANCH  39  40
ATOM     40  C   UNL A   1      33.465  29.280  26.541  1.00  0.00     0.305 C 
ATOM     41  O   UNL A   1      34.466  28.574  26.583  1.00  0.00    -0.252 OA
BRANCH  40  42
ATOM     42  O   UNL A   1      32.952  29.947  27.606  1.00  0.00    -0.462 OA
BRANCH  42  43
ATOM     43  C   UNL A   1      32.986  31.388  27.587  1.00  0.00     0.274 C 
BRANCH  43  44
ATOM     44  C   UNL A   1      34.420  31.905  27.637  1.00  0.00     0.275 C 
BRANCH  44  45
ATOM     45  O   UNL A   1      35.082  31.287  28.736  1.00  0.00    -0.458 OA
BRANCH  45  46
ATOM     46  C   UNL A   1      36.308  30.801  28.442  1.00  0.00     0.338 C 
ATOM     47  O   UNL A   1      36.721  30.495  27.338  1.00  0.00    -0.246 OA
BRANCH  46  48
ATOM     48  C   UNL A   1      37.066  30.566  29.677  1.00  0.00     0.060 A 
ATOM     49  C   UNL A   1      38.023  31.538  29.995  1.00  0.00     0.016 A 
ATOM     50  C   UNL A   1      37.205  29.229  30.044  1.00  0.00     0.016 A 
ATOM     51  C   UNL A   1      39.289  31.105  30.305  1.00  0.00     0.010 A 
ATOM     52  C   UNL A   1      38.471  28.797  30.313  1.00  0.00     0.010 A 
ATOM     53  C   UNL A   1      39.509  29.730  30.307  1.00  0.00    -0.014 A 
BRANCH  53  54
ATOM     54  C   UNL A   1      40.863  29.231  30.330  1.00  0.00     0.031 A 
ATOM     55  C   UNL A   1      41.326  29.003  31.712  1.00  0.00     0.074 A 
ATOM     56  C   UNL A   1      41.480  28.845  29.196  1.00  0.00     0.049 A 
ATOM     57  N   UNL A   1      42.151  29.716  32.404  1.00  0.00    -0.248 NA
ATOM     58  C   UNL A   1      40.568  28.021  32.511  1.00  0.00     0.031 C 
ATOM     59  C   UNL A   1      40.942  28.799  27.830  1.00  0.00     0.029 A 
ATOM     60  N   UNL A   1      42.717  28.303  29.049  1.00  0.00    -0.354 N 
ATOM     61  C   UNL A   1      42.197  29.083  33.639  1.00  0.00     0.074 A 
ATOM     62  C   UNL A   1      40.999  28.298  33.740  1.00  0.00     0.031 C 
ATOM     63  C   UNL A   1      41.763  28.054  27.049  1.00  0.00     0.029 A 
ATOM     64  C   UNL A   1      42.935  27.683  27.820  1.00  0.00     0.049 A 
ATOM     65  H   UNL A   1      43.402  28.346  29.753  1.00  0.00     0.167 HD
ATOM     66  C   UNL A   1      43.368  28.932  34.315  1.00  0.00     0.037 A 
ATOM     67  C   UNL A   1      43.978  26.859  27.533  1.00  0.00     0.037 A 
ATOM     68  C   UNL A   1      44.384  29.812  33.799  1.00  0.00     0.049 A 
ATOM     69  C   UNL A   1      45.024  27.135  28.557  1.00  0.00     0.074 A 
ATOM     70  C   UNL A   1      44.534  31.181  33.702  1.00  0.00     0.029 A 
ATOM     71  N   UNL A   1      45.277  29.263  32.910  1.00  0.00    -0.354 N 
ATOM     72  N   UNL A   1      45.643  28.282  28.665  1.00  0.00    -0.248 NA
ATOM     73  C   UNL A   1      45.034  26.310  29.756  1.00  0.00     0.031 C 
ATOM     74  C   UNL A   1      45.208  31.398  32.464  1.00  0.00     0.029 A 
ATOM     75  C   UNL A   1      45.488  30.157  31.891  1.00  0.00     0.049 A 
ATOM     76  H   UNL A   1      45.696  28.376  32.991  1.00  0.00     0.167 HD
ATOM     77  C   UNL A   1      45.759  28.503  30.032  1.00  0.00     0.074 A 
ATOM     78  C   UNL A   1      45.444  27.216  30.649  1.00  0.00     0.031 C 
ATOM     79  C   UNL A   1      45.814  29.774  30.532  1.00  0.00     0.037 A 
BRANCH  66  80
ATOM     80  C   UNL A   1      43.692  27.701  35.128  1.00  0.00     0.058 A 
ATOM     81  C   UNL A   1      44.034  27.848  36.484  1.00  0.00     0.135 A 
ATOM     82  C   UNL A   1      43.926  26.417  34.578  1.00  0.00     0.135 A 
ATOM     83  F   UNL A   1      43.877  29.030  37.100  1.00  0.00    -0.206 F 
ATOM     84  C   UNL A   1      44.608  26.812  37.222  1.00  0.00     0.059 A 
ATOM     85  C   UNL A   1      44.432  25.354  35.311  1.00  0.00     0.059 A 
ATOM     86  F   UNL A   1      43.777  26.145  33.276  1.00  0.00    -0.206 F 
ATOM     87  C   UNL A   1      44.811  25.571  36.621  1.00  0.00     0.060 A 
BRANCH  87  88
ATOM     88  S   UNL A   1      45.641  24.261  37.532  1.00  0.00     0.124 S 
ATOM     89  O   UNL A   1      45.214  23.080  36.791  1.00  0.00    -0.237 OA
ATOM     90  O   UNL A   1      47.043  24.638  37.390  1.00  0.00    -0.237 OA
ATOM     91  O   UNL A   1      45.096  24.392  38.881  1.00  0.00    -0.744 OA
ENDBRANCH  87  88
ENDBRANCH  66  80
BRANCH  67  92
ATOM     92  C   UNL A   1      43.956  25.603  26.732  1.00  0.00     0.058 A 
ATOM     93  C   UNL A   1      44.867  25.376  25.683  1.00  0.00     0.135 A 
ATOM     94  C   UNL A   1      43.225  24.478  27.166  1.00  0.00     0.135 A 
ATOM     95  F   UNL A   1      45.629  26.381  25.227  1.00  0.00    -0.206 F 
ATOM     96  C   UNL A   1      45.067  24.106  25.122  1.00  0.00     0.059 A 
ATOM     97  C   UNL A   1      43.402  23.205  26.621  1.00  0.00     0.059 A 
ATOM     98  F   UNL A   1      42.379  24.565  28.202  1.00  0.00    -0.206 F 
ATOM     99  C   UNL A   1      44.339  23.021  25.611  1.00  0.00     0.060 A 
BRANCH  99 100
ATOM    100  S   UNL A   1      44.697  21.353  25.003  1.00  0.00     0.124 S 
ATOM    101  O   UNL A   1      46.080  21.166  25.426  1.00  0.00    -0.237 OA
ATOM    102  O   UNL A   1      43.702  20.547  25.702  1.00  0.00    -0.237 OA
ATOM    103  O   UNL A   1      44.498  21.469  23.560  1.00  0.00    -0.744 OA
ENDBRANCH  99 100
ENDBRANCH  67  92
BRANCH  79 104
ATOM    104  C   UNL A   1      46.030  30.899  29.548  1.00  0.00     0.058 A 
ATOM    105  C   UNL A   1      44.994  31.615  28.920  1.00  0.00     0.135 A 
ATOM    106  C   UNL A   1      47.336  31.368  29.353  1.00  0.00     0.135 A 
ATOM    107  F   UNL A   1      43.712  31.291  29.131  1.00  0.00    -0.206 F 
ATOM    108  C   UNL A   1      45.247  32.727  28.111  1.00  0.00     0.059 A 
ATOM    109  C   UNL A   1      47.611  32.490  28.576  1.00  0.00     0.059 A 
ATOM    110  F   UNL A   1      48.363  30.766  29.975  1.00  0.00    -0.206 F 
ATOM    111  C   UNL A   1      46.561  33.160  27.949  1.00  0.00     0.060 A 
BRANCH 111 112
ATOM    112  S   UNL A   1      46.886  34.650  26.979  1.00  0.00     0.124 S 
ATOM    113  O   UNL A   1      48.160  35.103  27.528  1.00  0.00    -0.237 OA
ATOM    114  O   UNL A   1      46.932  34.136  25.612  1.00  0.00    -0.237 OA
ATOM    115  O   UNL A   1      45.739  35.505  27.274  1.00  0.00    -0.744 OA
ENDBRANCH 111 112
ENDBRANCH  79 104
ENDBRANCH  53  54
ENDBRANCH  46  48
ENDBRANCH  45  46
ENDBRANCH  44  45
ENDBRANCH  43  44
ENDBRANCH  42  43
ENDBRANCH  40  42
ENDBRANCH  39  40
ENDBRANCH  38  39
ENDBRANCH   1  38
TORSDOF 29
ENDMDL
MODEL 3
REMARK VINA RESULT:      -8.5      2.665      5.240
REMARK SMILES NS(=O)(=O)c1ccc(-n2nc(NC(=O)NCCCCCCCCCCC(=O)OCCOC(=O)c3ccc(-c4c5nc(c(-c6c(F)cc(S(=O)(=O)[O-])cc6F)c6ccc([nH]6)c(-c6c(F)cc(S(=O)(=O)[O-])cc6F)c6nc(c(-c7c(F)cc(S(=O)(=O)[O-])cc7F)c7ccc4[nH]7)C=C6)C=C5)cc3)cc2-c2ccccc2)cc1
REMARK SMILES IDX 23 1 22 2 21 3 20 4 19 5 18 6 17 7 16 8 15 9 12 10 13 11
REMARK SMILES IDX 14 13 11 15 9 16 10 17 101 18 100 19 8 20 5 21 6 22 109 23
REMARK SMILES IDX 7 24 108 25 2 26 3 27 4 28 1 29 102 32 103 33 107 34 104 35
REMARK SMILES IDX 106 36 105 37 24 38 25 39 26 40 27 41 28 42 29 43 30 44
REMARK SMILES IDX 31 45 32 46 33 47 34 48 35 49 99 50 36 51 98 52 37 53 38 54
REMARK SMILES IDX 39 55 92 56 40 57 97 58 91 59 93 60 41 61 96 62 90 63 89 64
REMARK SMILES IDX 42 66 76 67 55 68 75 69 56 70 59 71 74 72 94 73 57 74 58 75
REMARK SMILES IDX 73 77 95 78 60 79 43 80 44 81 53 82 45 83 46 84 52 85 54 86
REMARK SMILES IDX 47 87 48 88 49 89 50 90 51 91 77 92 78 93 87 94 79 95 80 96
REMARK SMILES IDX 86 97 88 98 81 99 82 100 83 101 84 102 85 103 61 104 62 105
REMARK SMILES IDX 71 106 63 107 64 108 70 109 72 110 65 111 66 112 67 113
REMARK SMILES IDX 68 114 69 115
REMARK H PARENT 12 12 15 14 1 30 1 31 93 65 59 76
REMARK Flexibility Score: inf
ROOT
ATOM      1  C   UNL A   1      32.463  28.758  22.758  1.00  0.00     0.001 C 
ENDROOT
BRANCH   1   2
ATOM      2  C   UNL A   1      31.061  29.296  22.498  1.00  0.00     0.000 C 
BRANCH   2   3
ATOM      3  C   UNL A   1      30.059  28.177  22.236  1.00  0.00     0.000 C 
BRANCH   3   4
ATOM      4  C   UNL A   1      29.022  28.031  23.351  1.00  0.00     0.000 C 
BRANCH   4   5
ATOM      5  C   UNL A   1      28.817  26.589  23.831  1.00  0.00     0.000 C 
BRANCH   5   6
ATOM      6  C   UNL A   1      29.732  26.171  24.990  1.00  0.00     0.002 C 
BRANCH   6   7
ATOM      7  C   UNL A   1      31.065  25.560  24.566  1.00  0.00     0.021 C 
BRANCH   7   8
ATOM      8  C   UNL A   1      30.963  24.550  23.437  1.00  0.00     0.117 C 
BRANCH   8   9
ATOM      9  N   UNL A   1      31.263  25.076  22.124  1.00  0.00    -0.338 N 
ATOM     10  N   UNL A   1      33.618  24.758  22.043  1.00  0.00    -0.291 N 
ATOM     11  C   UNL A   1      32.460  25.211  21.509  1.00  0.00     0.320 C 
ATOM     12  H   UNL A   1      34.426  25.217  21.718  1.00  0.00     0.173 HD
ATOM     13  O   UNL A   1      32.509  25.890  20.478  1.00  0.00    -0.248 OA
ATOM     14  H   UNL A   1      30.485  25.379  21.602  1.00  0.00     0.165 HD
BRANCH  10  15
ATOM     15  C   UNL A   1      33.856  23.764  22.964  1.00  0.00     0.157 A 
ATOM     16  N   UNL A   1      34.924  22.510  24.296  1.00  0.00    -0.231 N 
ATOM     17  N   UNL A   1      34.790  23.798  23.915  1.00  0.00    -0.149 NA
ATOM     18  C   UNL A   1      33.799  21.768  23.952  1.00  0.00     0.076 A 
ATOM     19  C   UNL A   1      33.115  22.563  23.049  1.00  0.00     0.078 A 
BRANCH  16  20
ATOM     20  C   UNL A   1      36.143  22.054  24.872  1.00  0.00     0.065 A 
ATOM     21  C   UNL A   1      38.631  21.248  25.827  1.00  0.00     0.082 A 
ATOM     22  C   UNL A   1      38.137  22.507  26.172  1.00  0.00     0.024 A 
ATOM     23  C   UNL A   1      37.860  20.360  25.068  1.00  0.00     0.024 A 
ATOM     24  C   UNL A   1      36.896  22.914  25.687  1.00  0.00     0.030 A 
ATOM     25  C   UNL A   1      36.596  20.754  24.611  1.00  0.00     0.030 A 
BRANCH  21  26
ATOM     26  S   UNL A   1      40.280  20.818  26.305  1.00  0.00     0.238 S 
ATOM     27  O   UNL A   1      40.371  20.900  27.753  1.00  0.00    -0.207 OA
ATOM     28  O   UNL A   1      41.193  21.499  25.434  1.00  0.00    -0.207 OA
BRANCH  26  29
ATOM     29  N   UNL A   1      40.385  19.183  25.958  1.00  0.00    -0.225 NA
ATOM     30  H   UNL A   1      39.566  18.896  25.423  1.00  0.00     0.137 HD
ATOM     31  H   UNL A   1      40.426  18.653  26.829  1.00  0.00     0.137 HD
ENDBRANCH  26  29
ENDBRANCH  21  26
ENDBRANCH  16  20
BRANCH  18  32
ATOM     32  C   UNL A   1      33.493  20.446  24.497  1.00  0.00     0.000 A 
ATOM     33  C   UNL A   1      33.371  20.280  25.886  1.00  0.00     0.010 A 
ATOM     34  C   UNL A   1      33.371  19.327  23.666  1.00  0.00     0.010 A 
ATOM     35  C   UNL A   1      33.182  19.016  26.440  1.00  0.00     0.001 A 
ATOM     36  C   UNL A   1      33.167  18.062  24.223  1.00  0.00     0.001 A 
ATOM     37  C   UNL A   1      33.083  17.906  25.607  1.00  0.00     0.000 A 
ENDBRANCH  18  32
ENDBRANCH  10  15
ENDBRANCH   8   9
ENDBRANCH   7   8
ENDBRANCH   6   7
ENDBRANCH   5   6
ENDBRANCH   4   5
ENDBRANCH   3   4
ENDBRANCH   2   3
ENDBRANCH   1   2
BRANCH   1  38
ATOM     38  C   UNL A   1      32.844  28.835  24.236  1.00  0.00     0.012 C 
BRANCH  38  39
ATOM     39  C   UNL A   1      31.741  29.263  25.212  1.00  0.00     0.123 C 
BRANCH  39  40
ATOM     40  C   UNL A   1      32.134  29.811  26.572  1.00  0.00     0.305 C 
ATOM     41  O   UNL A   1      32.047  29.148  27.600  1.00  0.00    -0.252 OA
BRANCH  40  42
ATOM     42  O   UNL A   1      32.627  31.075  26.516  1.00  0.00    -0.462 OA
BRANCH  42  43
ATOM     43  C   UNL A   1      33.279  31.603  27.689  1.00  0.00     0.274 C 
BRANCH  43  44
ATOM     44  C   UNL A   1      33.094  33.114  27.786  1.00  0.00     0.275 C 
BRANCH  44  45
ATOM     45  O   UNL A   1      33.831  33.586  28.909  1.00  0.00    -0.458 OA
BRANCH  45  46
ATOM     46  C   UNL A   1      35.117  33.172  28.941  1.00  0.00     0.338 C 
ATOM     47  O   UNL A   1      35.912  33.203  28.018  1.00  0.00    -0.246 OA
BRANCH  46  48
ATOM     48  C   UNL A   1      35.414  32.549  30.236  1.00  0.00     0.060 A 
ATOM     49  C   UNL A   1      35.310  33.390  31.351  1.00  0.00     0.016 A 
ATOM     50  C   UNL A   1      36.295  31.471  30.190  1.00  0.00     0.016 A 
ATOM     51  C   UNL A   1      36.362  33.407  32.233  1.00  0.00     0.010 A 
ATOM     52  C   UNL A   1      37.359  31.514  31.043  1.00  0.00     0.010 A 
ATOM     53  C   UNL A   1      37.434  32.561  31.962  1.00  0.00    -0.014 A 
BRANCH  53  54
ATOM     54  C   UNL A   1      38.678  32.746  32.672  1.00  0.00     0.031 A 
ATOM     55  C   UNL A   1      39.758  33.165  31.758  1.00  0.00     0.074 A 
ATOM     56  C   UNL A   1      38.718  32.728  34.018  1.00  0.00     0.049 A 
ATOM     57  N   UNL A   1      40.742  32.459  31.311  1.00  0.00    -0.248 NA
ATOM     58  C   UNL A   1      39.561  34.441  31.042  1.00  0.00     0.031 C 
ATOM     59  C   UNL A   1      37.606  32.590  34.967  1.00  0.00     0.029 A 
ATOM     60  N   UNL A   1      39.783  32.941  34.835  1.00  0.00    -0.354 N 
ATOM     61  C   UNL A   1      41.424  33.323  30.464  1.00  0.00     0.074 A 
ATOM     62  C   UNL A   1      40.494  34.354  30.096  1.00  0.00     0.031 C 
ATOM     63  C   UNL A   1      38.024  32.947  36.206  1.00  0.00     0.029 A 
ATOM     64  C   UNL A   1      39.450  33.213  36.161  1.00  0.00     0.049 A 
ATOM     65  H   UNL A   1      40.713  32.906  34.515  1.00  0.00     0.167 HD
ATOM     66  C   UNL A   1      42.784  33.360  30.434  1.00  0.00     0.037 A 
ATOM     67  C   UNL A   1      40.304  33.705  37.097  1.00  0.00     0.037 A 
ATOM     68  C   UNL A   1      43.350  32.188  31.050  1.00  0.00     0.049 A 
ATOM     69  C   UNL A   1      41.680  33.440  36.591  1.00  0.00     0.074 A 
ATOM     70  C   UNL A   1      43.309  30.833  30.791  1.00  0.00     0.029 A 
ATOM     71  N   UNL A   1      43.763  32.319  32.353  1.00  0.00    -0.354 N 
ATOM     72  N   UNL A   1      42.168  32.238  36.424  1.00  0.00    -0.248 NA
ATOM     73  C   UNL A   1      42.331  34.485  35.816  1.00  0.00     0.031 C 
ATOM     74  C   UNL A   1      43.295  30.206  32.072  1.00  0.00     0.029 A 
ATOM     75  C   UNL A   1      43.384  31.199  33.049  1.00  0.00     0.049 A 
ATOM     76  H   UNL A   1      44.250  33.088  32.727  1.00  0.00     0.167 HD
ATOM     77  C   UNL A   1      42.896  32.304  35.242  1.00  0.00     0.074 A 
ATOM     78  C   UNL A   1      43.029  33.732  34.961  1.00  0.00     0.031 C 
ATOM     79  C   UNL A   1      43.063  31.193  34.463  1.00  0.00     0.037 A 
BRANCH  66  80
ATOM     80  C   UNL A   1      43.565  34.638  30.243  1.00  0.00     0.058 A 
ATOM     81  C   UNL A   1      43.432  35.670  31.189  1.00  0.00     0.135 A 
ATOM     82  C   UNL A   1      44.242  34.992  29.049  1.00  0.00     0.135 A 
ATOM     83  F   UNL A   1      42.786  35.452  32.345  1.00  0.00    -0.206 F 
ATOM     84  C   UNL A   1      43.893  36.965  30.946  1.00  0.00     0.059 A 
ATOM     85  C   UNL A   1      44.768  36.253  28.817  1.00  0.00     0.059 A 
ATOM     86  F   UNL A   1      44.342  34.168  27.999  1.00  0.00    -0.206 F 
ATOM     87  C   UNL A   1      44.551  37.246  29.752  1.00  0.00     0.060 A 
BRANCH  87  88
ATOM     88  S   UNL A   1      45.060  38.933  29.386  1.00  0.00     0.124 S 
ATOM     89  O   UNL A   1      44.678  39.051  27.983  1.00  0.00    -0.237 OA
ATOM     90  O   UNL A   1      44.263  39.700  30.337  1.00  0.00    -0.237 OA
ATOM     91  O   UNL A   1      46.496  38.916  29.650  1.00  0.00    -0.744 OA
ENDBRANCH  87  88
ENDBRANCH  66  80
BRANCH  67  92
ATOM     92  C   UNL A   1      40.022  34.728  38.143  1.00  0.00     0.058 A 
ATOM     93  C   UNL A   1      40.075  34.419  39.516  1.00  0.00     0.135 A 
ATOM     94  C   UNL A   1      39.975  36.100  37.823  1.00  0.00     0.135 A 
ATOM     95  F   UNL A   1      40.155  33.140  39.914  1.00  0.00    -0.206 F 
ATOM     96  C   UNL A   1      40.114  35.410  40.508  1.00  0.00     0.059 A 
ATOM     97  C   UNL A   1      40.008  37.105  38.792  1.00  0.00     0.059 A 
ATOM     98  F   UNL A   1      39.990  36.510  36.546  1.00  0.00    -0.206 F 
ATOM     99  C   UNL A   1      40.097  36.754  40.133  1.00  0.00     0.060 A 
BRANCH  99 100
ATOM    100  S   UNL A   1      40.300  38.039  41.393  1.00  0.00     0.124 S 
ATOM    101  O   UNL A   1      40.379  37.252  42.619  1.00  0.00    -0.237 OA
ATOM    102  O   UNL A   1      41.536  38.692  40.974  1.00  0.00    -0.237 OA
ATOM    103  O   UNL A   1      39.092  38.849  41.249  1.00  0.00    -0.744 OA
ENDBRANCH  99 100
ENDBRANCH  67  92
BRANCH  79 104
ATOM    104  C   UNL A   1      42.684  29.860  35.062  1.00  0.00     0.058 A 
ATOM    105  C   UNL A   1      41.442  29.226  34.869  1.00  0.00     0.135 A 
ATOM    106  C   UNL A   1      43.674  29.128  35.731  1.00  0.00     0.135 A 
ATOM    107  F   UNL A   1      40.475  29.818  34.157  1.00  0.00    -0.206 F 
ATOM    108  C   UNL A   1      41.187  27.937  35.345  1.00  0.00     0.059 A 
ATOM    109  C   UNL A   1      43.453  27.832  36.190  1.00  0.00     0.059 A 
ATOM    110  F   UNL A   1      44.900  29.652  35.893  1.00  0.00    -0.206 F 
ATOM    111  C   UNL A   1      42.203  27.245  36.002  1.00  0.00     0.060 A 
BRANCH 111 112
ATOM    112  S   UNL A   1      41.907  25.545  36.540  1.00  0.00     0.124 S 
ATOM    113  O   UNL A   1      43.065  25.286  37.390  1.00  0.00    -0.237 OA
ATOM    114  O   UNL A   1      40.624  25.649  37.231  1.00  0.00    -0.237 OA
ATOM    115  O   UNL A   1      41.871  24.793  35.289  1.00  0.00    -0.744 OA
ENDBRANCH 111 112
ENDBRANCH  79 104
ENDBRANCH  53  54
ENDBRANCH  46  48
ENDBRANCH  45  46
ENDBRANCH  44  45
ENDBRANCH  43  44
ENDBRANCH  42  43
ENDBRANCH  40  42
ENDBRANCH  39  40
ENDBRANCH  38  39
ENDBRANCH   1  38
TORSDOF 29
ENDMDL
