MODEL 1
REMARK VINA RESULT:     -12.2      0.000      0.000
REMARK SMILES CC(C)(C)c1ccc(C(=O)N/C(=C/c2ccc(O)cc2)C(=O)OCCOC(=O)c2ccc(-c3c4nc(c(-c5c(F)cc(S(=O)(=O)[O-])cc5F)c5ccc([nH]5)c(-c5c(F)cc(S(=O)(=O)[O-])cc5F)c5nc(c(-c6c(F)cc(S(=O)(=O)[O-])cc6F)c6ccc3[nH]6)C=C5)C=C4)cc2)cc1
REMARK SMILES IDX 24 1 23 2 21 3 22 4 12 5 13 6 11 7 9 8 10 9 8 11 5 12 6 13
REMARK SMILES IDX 96 14 7 15 95 16 2 17 1 18 3 19 4 20 14 21 15 22 20 23 16 24
REMARK SMILES IDX 19 25 17 26 18 27 25 29 26 30 27 31 28 32 29 33 30 34 94 35
REMARK SMILES IDX 31 36 93 37 32 38 33 39 34 40 87 41 35 42 92 43 86 44 88 45
REMARK SMILES IDX 36 46 91 47 85 48 84 49 37 51 71 52 50 53 70 54 51 55 54 56
REMARK SMILES IDX 69 57 89 58 52 59 53 60 68 62 90 63 55 64 38 65 39 66 48 67
REMARK SMILES IDX 40 68 41 69 47 70 49 71 42 72 43 73 44 74 45 75 46 76 72 77
REMARK SMILES IDX 73 78 82 79 74 80 75 81 81 82 83 83 76 84 77 85 78 86 79 87
REMARK SMILES IDX 80 88 56 89 57 90 66 91 58 92 59 93 65 94 67 95 60 96 61 97
REMARK SMILES IDX 62 98 63 99 64 100
REMARK H PARENT 11 10 18 28 88 50 54 61
REMARK Flexibility Score: inf
ROOT
ATOM      1  C   UNL A   1      32.116  28.275  27.610  1.00  0.00     0.275 C 
ENDROOT
BRANCH   1   2
ATOM      2  O   UNL A   1      30.936  27.505  27.301  1.00  0.00    -0.457 OA
BRANCH   2   3
ATOM      3  C   UNL A   1      31.196  26.414  26.548  1.00  0.00     0.354 C 
ATOM      4  O   UNL A   1      32.337  26.050  26.349  1.00  0.00    -0.244 OA
BRANCH   3   5
ATOM      5  C   UNL A   1      30.056  25.643  25.960  1.00  0.00     0.128 C 
ATOM      6  C   UNL A   1      29.353  26.045  24.879  1.00  0.00     0.042 C 
BRANCH   5   7
ATOM      7  N   UNL A   1      29.650  24.464  26.588  1.00  0.00    -0.316 N 
ATOM      8  C   UNL A   1      30.262  23.239  26.840  1.00  0.00     0.255 C 
ATOM      9  O   UNL A   1      29.681  22.465  27.604  1.00  0.00    -0.269 OA
ATOM     10  H   UNL A   1      28.727  24.509  26.927  1.00  0.00     0.170 HD
BRANCH   8  11
ATOM     11  C   UNL A   1      31.557  22.796  26.244  1.00  0.00     0.040 A 
ATOM     12  C   UNL A   1      34.252  22.618  25.339  1.00  0.00    -0.043 A 
ATOM     13  C   UNL A   1      33.939  22.470  26.687  1.00  0.00     0.005 A 
ATOM     14  C   UNL A   1      33.162  22.686  24.437  1.00  0.00     0.005 A 
ATOM     15  C   UNL A   1      32.618  22.575  27.121  1.00  0.00     0.014 A 
ATOM     16  C   UNL A   1      31.822  22.749  24.878  1.00  0.00     0.014 A 
BRANCH  12  17
ATOM     17  C   UNL A   1      35.710  22.762  24.873  1.00  0.00    -0.013 C 
ATOM     18  C   UNL A   1      36.556  21.466  24.990  1.00  0.00     0.016 C 
ATOM     19  C   UNL A   1      36.441  23.817  25.733  1.00  0.00     0.016 C 
ATOM     20  C   UNL A   1      35.729  23.197  23.399  1.00  0.00     0.016 C 
ENDBRANCH  12  17
ENDBRANCH   8  11
ENDBRANCH   5   7
BRANCH   6  21
ATOM     21  C   UNL A   1      29.823  27.029  23.900  1.00  0.00    -0.023 A 
ATOM     22  C   UNL A   1      29.030  28.073  23.417  1.00  0.00     0.012 A 
ATOM     23  C   UNL A   1      31.164  26.928  23.497  1.00  0.00     0.012 A 
ATOM     24  C   UNL A   1      29.604  29.046  22.592  1.00  0.00     0.047 A 
ATOM     25  C   UNL A   1      31.740  27.909  22.696  1.00  0.00     0.047 A 
ATOM     26  C   UNL A   1      30.957  28.972  22.266  1.00  0.00     0.115 A 
BRANCH  26  27
ATOM     27  O   UNL A   1      31.502  29.985  21.533  1.00  0.00    -0.508 OA
ATOM     28  H   UNL A   1      32.371  29.902  21.194  1.00  0.00     0.293 HD
ENDBRANCH  26  27
ENDBRANCH   6  21
ENDBRANCH   3   5
ENDBRANCH   2   3
ENDBRANCH   1   2
BRANCH   1  29
ATOM     29  C   UNL A   1      32.274  29.628  26.872  1.00  0.00     0.275 C 
BRANCH  29  30
ATOM     30  O   UNL A   1      33.643  30.032  26.597  1.00  0.00    -0.458 OA
BRANCH  30  31
ATOM     31  C   UNL A   1      34.226  30.844  27.527  1.00  0.00     0.338 C 
ATOM     32  O   UNL A   1      33.671  31.787  28.074  1.00  0.00    -0.246 OA
BRANCH  31  33
ATOM     33  C   UNL A   1      35.558  30.325  27.989  1.00  0.00     0.060 A 
ATOM     34  C   UNL A   1      35.631  29.790  29.290  1.00  0.00     0.016 A 
ATOM     35  C   UNL A   1      36.705  30.304  27.194  1.00  0.00     0.016 A 
ATOM     36  C   UNL A   1      36.821  29.236  29.792  1.00  0.00     0.010 A 
ATOM     37  C   UNL A   1      37.910  29.768  27.708  1.00  0.00     0.010 A 
ATOM     38  C   UNL A   1      37.985  29.230  29.015  1.00  0.00    -0.014 A 
BRANCH  38  39
ATOM     39  C   UNL A   1      39.306  28.864  29.626  1.00  0.00     0.031 A 
ATOM     40  C   UNL A   1      39.788  29.727  30.765  1.00  0.00     0.074 A 
ATOM     41  C   UNL A   1      40.071  27.813  29.251  1.00  0.00     0.049 A 
ATOM     42  N   UNL A   1      40.875  29.622  31.487  1.00  0.00    -0.248 NA
ATOM     43  C   UNL A   1      38.907  30.839  31.161  1.00  0.00     0.031 C 
ATOM     44  C   UNL A   1      39.723  26.791  28.275  1.00  0.00     0.029 A 
ATOM     45  N   UNL A   1      41.338  27.434  29.653  1.00  0.00    -0.354 N 
ATOM     46  C   UNL A   1      40.786  30.624  32.444  1.00  0.00     0.074 A 
ATOM     47  C   UNL A   1      39.579  31.372  32.168  1.00  0.00     0.031 C 
ATOM     48  C   UNL A   1      40.768  25.974  28.065  1.00  0.00     0.029 A 
ATOM     49  C   UNL A   1      41.857  26.368  28.946  1.00  0.00     0.049 A 
ATOM     50  H   UNL A   1      41.827  27.885  30.379  1.00  0.00     0.167 HD
ATOM     51  C   UNL A   1      41.615  30.884  33.482  1.00  0.00     0.037 A 
ATOM     52  C   UNL A   1      43.052  25.743  29.009  1.00  0.00     0.037 A 
ATOM     53  C   UNL A   1      42.835  30.170  33.747  1.00  0.00     0.049 A 
ATOM     54  C   UNL A   1      44.025  26.133  30.089  1.00  0.00     0.074 A 
ATOM     55  C   UNL A   1      43.740  30.372  34.775  1.00  0.00     0.029 A 
ATOM     56  N   UNL A   1      43.336  29.133  32.973  1.00  0.00    -0.354 N 
ATOM     57  N   UNL A   1      43.898  27.050  31.018  1.00  0.00    -0.248 NA
ATOM     58  C   UNL A   1      45.279  25.370  30.167  1.00  0.00     0.031 C 
ATOM     59  C   UNL A   1      44.821  29.506  34.583  1.00  0.00     0.029 A 
ATOM     60  C   UNL A   1      44.556  28.711  33.481  1.00  0.00     0.049 A 
ATOM     61  H   UNL A   1      42.892  28.754  32.180  1.00  0.00     0.167 HD
ATOM     62  C   UNL A   1      45.025  26.933  31.825  1.00  0.00     0.074 A 
ATOM     63  C   UNL A   1      45.824  25.860  31.272  1.00  0.00     0.031 C 
ATOM     64  C   UNL A   1      45.352  27.641  32.933  1.00  0.00     0.037 A 
BRANCH  51  65
ATOM     65  C   UNL A   1      41.231  32.014  34.393  1.00  0.00     0.058 A 
ATOM     66  C   UNL A   1      40.461  31.802  35.549  1.00  0.00     0.135 A 
ATOM     67  C   UNL A   1      41.640  33.326  34.108  1.00  0.00     0.135 A 
ATOM     68  F   UNL A   1      40.021  30.572  35.854  1.00  0.00    -0.206 F 
ATOM     69  C   UNL A   1      40.085  32.856  36.374  1.00  0.00     0.059 A 
ATOM     70  C   UNL A   1      41.303  34.390  34.937  1.00  0.00     0.059 A 
ATOM     71  F   UNL A   1      42.371  33.584  33.012  1.00  0.00    -0.206 F 
ATOM     72  C   UNL A   1      40.512  34.148  36.059  1.00  0.00     0.060 A 
BRANCH  72  73
ATOM     73  S   UNL A   1      40.017  35.505  37.139  1.00  0.00     0.124 S 
ATOM     74  O   UNL A   1      38.841  34.941  37.797  1.00  0.00    -0.237 OA
ATOM     75  O   UNL A   1      41.194  35.676  37.984  1.00  0.00    -0.237 OA
ATOM     76  O   UNL A   1      39.750  36.600  36.211  1.00  0.00    -0.744 OA
ENDBRANCH  72  73
ENDBRANCH  51  65
BRANCH  52  77
ATOM     77  C   UNL A   1      43.387  24.644  28.053  1.00  0.00     0.058 A 
ATOM     78  C   UNL A   1      44.084  24.893  26.860  1.00  0.00     0.135 A 
ATOM     79  C   UNL A   1      42.986  23.321  28.303  1.00  0.00     0.135 A 
ATOM     80  F   UNL A   1      44.478  26.140  26.563  1.00  0.00    -0.206 F 
ATOM     81  C   UNL A   1      44.347  23.881  25.939  1.00  0.00     0.059 A 
ATOM     82  C   UNL A   1      43.260  22.287  27.408  1.00  0.00     0.059 A 
ATOM     83  F   UNL A   1      42.319  23.022  29.428  1.00  0.00    -0.206 F 
ATOM     84  C   UNL A   1      43.931  22.580  26.222  1.00  0.00     0.060 A 
BRANCH  84  85
ATOM     85  S   UNL A   1      44.301  21.273  25.029  1.00  0.00     0.124 S 
ATOM     86  O   UNL A   1      44.165  21.980  23.761  1.00  0.00    -0.237 OA
ATOM     87  O   UNL A   1      45.658  20.890  25.403  1.00  0.00    -0.237 OA
ATOM     88  O   UNL A   1      43.277  20.267  25.300  1.00  0.00    -0.744 OA
ENDBRANCH  84  85
ENDBRANCH  52  77
BRANCH  64  89
ATOM     89  C   UNL A   1      46.610  27.252  33.664  1.00  0.00     0.058 A 
ATOM     90  C   UNL A   1      46.610  26.312  34.706  1.00  0.00     0.135 A 
ATOM     91  C   UNL A   1      47.846  27.806  33.287  1.00  0.00     0.135 A 
ATOM     92  F   UNL A   1      45.459  25.751  35.111  1.00  0.00    -0.206 F 
ATOM     93  C   UNL A   1      47.781  25.963  35.372  1.00  0.00     0.059 A 
ATOM     94  C   UNL A   1      49.034  27.444  33.915  1.00  0.00     0.059 A 
ATOM     95  F   UNL A   1      47.911  28.700  32.288  1.00  0.00    -0.206 F 
ATOM     96  C   UNL A   1      48.989  26.535  34.969  1.00  0.00     0.060 A 
BRANCH  96  97
ATOM     97  S   UNL A   1      50.503  26.061  35.831  1.00  0.00     0.124 S 
ATOM     98  O   UNL A   1      50.082  26.132  37.226  1.00  0.00    -0.237 OA
ATOM     99  O   UNL A   1      50.750  24.719  35.312  1.00  0.00    -0.237 OA
ATOM    100  O   UNL A   1      51.465  27.076  35.414  1.00  0.00    -0.744 OA
ENDBRANCH  96  97
ENDBRANCH  64  89
ENDBRANCH  38  39
ENDBRANCH  31  33
ENDBRANCH  30  31
ENDBRANCH  29  30
ENDBRANCH   1  29
TORSDOF 19
ENDMDL
MODEL 2
REMARK VINA RESULT:     -12.0      4.501      9.991
REMARK SMILES CC(C)(C)c1ccc(C(=O)N/C(=C/c2ccc(O)cc2)C(=O)OCCOC(=O)c2ccc(-c3c4nc(c(-c5c(F)cc(S(=O)(=O)[O-])cc5F)c5ccc([nH]5)c(-c5c(F)cc(S(=O)(=O)[O-])cc5F)c5nc(c(-c6c(F)cc(S(=O)(=O)[O-])cc6F)c6ccc3[nH]6)C=C5)C=C4)cc2)cc1
REMARK SMILES IDX 24 1 23 2 21 3 22 4 12 5 13 6 11 7 9 8 10 9 8 11 5 12 6 13
REMARK SMILES IDX 96 14 7 15 95 16 2 17 1 18 3 19 4 20 14 21 15 22 20 23 16 24
REMARK SMILES IDX 19 25 17 26 18 27 25 29 26 30 27 31 28 32 29 33 30 34 94 35
REMARK SMILES IDX 31 36 93 37 32 38 33 39 34 40 87 41 35 42 92 43 86 44 88 45
REMARK SMILES IDX 36 46 91 47 85 48 84 49 37 51 71 52 50 53 70 54 51 55 54 56
REMARK SMILES IDX 69 57 89 58 52 59 53 60 68 62 90 63 55 64 38 65 39 66 48 67
REMARK SMILES IDX 40 68 41 69 47 70 49 71 42 72 43 73 44 74 45 75 46 76 72 77
REMARK SMILES IDX 73 78 82 79 74 80 75 81 81 82 83 83 76 84 77 85 78 86 79 87
REMARK SMILES IDX 80 88 56 89 57 90 66 91 58 92 59 93 65 94 67 95 60 96 61 97
REMARK SMILES IDX 62 98 63 99 64 100
REMARK H PARENT 11 10 18 28 88 50 54 61
REMARK Flexibility Score: inf
ROOT
ATOM      1  C   UNL A   1      36.363  20.636  25.014  1.00  0.00     0.275 C 
ENDROOT
BRANCH   1   2
ATOM      2  O   UNL A   1      35.328  21.245  25.815  1.00  0.00    -0.457 OA
BRANCH   2   3
ATOM      3  C   UNL A   1      34.246  21.611  25.095  1.00  0.00     0.354 C 
ATOM      4  O   UNL A   1      34.369  22.161  24.020  1.00  0.00    -0.244 OA
BRANCH   3   5
ATOM      5  C   UNL A   1      32.879  21.324  25.632  1.00  0.00     0.128 C 
ATOM      6  C   UNL A   1      32.094  20.317  25.193  1.00  0.00     0.042 C 
BRANCH   5   7
ATOM      7  N   UNL A   1      32.351  22.172  26.607  1.00  0.00    -0.316 N 
ATOM      8  C   UNL A   1      32.002  23.520  26.634  1.00  0.00     0.255 C 
ATOM      9  O   UNL A   1      31.368  23.918  27.613  1.00  0.00    -0.269 OA
ATOM     10  H   UNL A   1      32.189  21.716  27.464  1.00  0.00     0.170 HD
BRANCH   8  11
ATOM     11  C   UNL A   1      32.352  24.511  25.574  1.00  0.00     0.040 A 
ATOM     12  C   UNL A   1      32.779  26.885  24.060  1.00  0.00    -0.043 A 
ATOM     13  C   UNL A   1      33.645  26.527  25.090  1.00  0.00     0.005 A 
ATOM     14  C   UNL A   1      31.794  25.934  23.698  1.00  0.00     0.005 A 
ATOM     15  C   UNL A   1      33.417  25.371  25.835  1.00  0.00     0.014 A 
ATOM     16  C   UNL A   1      31.594  24.743  24.429  1.00  0.00     0.014 A 
BRANCH  12  17
ATOM     17  C   UNL A   1      32.861  28.272  23.399  1.00  0.00    -0.013 C 
ATOM     18  C   UNL A   1      31.578  28.699  22.636  1.00  0.00     0.016 C 
ATOM     19  C   UNL A   1      33.998  28.296  22.353  1.00  0.00     0.016 C 
ATOM     20  C   UNL A   1      33.132  29.330  24.479  1.00  0.00     0.016 C 
ENDBRANCH  12  17
ENDBRANCH   8  11
ENDBRANCH   5   7
BRANCH   6  21
ATOM     21  C   UNL A   1      32.577  19.144  24.458  1.00  0.00    -0.023 A 
ATOM     22  C   UNL A   1      32.359  18.948  23.092  1.00  0.00     0.012 A 
ATOM     23  C   UNL A   1      33.354  18.223  25.180  1.00  0.00     0.012 A 
ATOM     24  C   UNL A   1      32.976  17.871  22.447  1.00  0.00     0.047 A 
ATOM     25  C   UNL A   1      33.985  17.167  24.533  1.00  0.00     0.047 A 
ATOM     26  C   UNL A   1      33.806  17.012  23.164  1.00  0.00     0.115 A 
BRANCH  26  27
ATOM     27  O   UNL A   1      34.460  16.027  22.484  1.00  0.00    -0.508 OA
ATOM     28  H   UNL A   1      33.991  15.273  22.187  1.00  0.00     0.293 HD
ENDBRANCH  26  27
ENDBRANCH   6  21
ENDBRANCH   3   5
ENDBRANCH   2   3
ENDBRANCH   1   2
BRANCH   1  29
ATOM     29  C   UNL A   1      37.686  21.428  24.870  1.00  0.00     0.275 C 
BRANCH  29  30
ATOM     30  O   UNL A   1      37.972  22.366  25.943  1.00  0.00    -0.458 OA
BRANCH  30  31
ATOM     31  C   UNL A   1      39.280  22.462  26.321  1.00  0.00     0.338 C 
ATOM     32  O   UNL A   1      40.134  21.615  26.095  1.00  0.00    -0.246 OA
BRANCH  31  33
ATOM     33  C   UNL A   1      39.627  23.824  26.851  1.00  0.00     0.060 A 
ATOM     34  C   UNL A   1      40.215  24.739  25.955  1.00  0.00     0.016 A 
ATOM     35  C   UNL A   1      39.362  24.245  28.155  1.00  0.00     0.016 A 
ATOM     36  C   UNL A   1      40.530  26.052  26.345  1.00  0.00     0.010 A 
ATOM     37  C   UNL A   1      39.700  25.560  28.554  1.00  0.00     0.010 A 
ATOM     38  C   UNL A   1      40.291  26.480  27.656  1.00  0.00    -0.014 A 
BRANCH  38  39
ATOM     39  C   UNL A   1      40.840  27.789  28.140  1.00  0.00     0.031 A 
ATOM     40  C   UNL A   1      42.340  27.953  28.099  1.00  0.00     0.074 A 
ATOM     41  C   UNL A   1      40.095  28.830  28.578  1.00  0.00     0.049 A 
ATOM     42  N   UNL A   1      43.074  28.983  28.432  1.00  0.00    -0.248 NA
ATOM     43  C   UNL A   1      43.108  26.807  27.584  1.00  0.00     0.031 C 
ATOM     44  C   UNL A   1      38.643  28.923  28.567  1.00  0.00     0.029 A 
ATOM     45  N   UNL A   1      40.474  30.033  29.143  1.00  0.00    -0.354 N 
ATOM     46  C   UNL A   1      44.380  28.625  28.128  1.00  0.00     0.074 A 
ATOM     47  C   UNL A   1      44.349  27.259  27.653  1.00  0.00     0.031 C 
ATOM     48  C   UNL A   1      38.244  30.044  29.190  1.00  0.00     0.029 A 
ATOM     49  C   UNL A   1      39.419  30.801  29.593  1.00  0.00     0.049 A 
ATOM     50  H   UNL A   1      41.414  30.318  29.217  1.00  0.00     0.167 HD
ATOM     51  C   UNL A   1      45.506  29.373  28.203  1.00  0.00     0.037 A 
ATOM     52  C   UNL A   1      39.379  31.993  30.225  1.00  0.00     0.037 A 
ATOM     53  C   UNL A   1      45.556  30.720  28.705  1.00  0.00     0.049 A 
ATOM     54  C   UNL A   1      40.660  32.758  30.424  1.00  0.00     0.074 A 
ATOM     55  C   UNL A   1      46.658  31.550  28.822  1.00  0.00     0.029 A 
ATOM     56  N   UNL A   1      44.468  31.430  29.191  1.00  0.00    -0.354 N 
ATOM     57  N   UNL A   1      41.880  32.423  30.081  1.00  0.00    -0.248 NA
ATOM     58  C   UNL A   1      40.555  34.087  31.046  1.00  0.00     0.031 C 
ATOM     59  C   UNL A   1      46.249  32.734  29.444  1.00  0.00     0.029 A 
ATOM     60  C   UNL A   1      44.880  32.674  29.644  1.00  0.00     0.049 A 
ATOM     61  H   UNL A   1      43.541  31.099  29.212  1.00  0.00     0.167 HD
ATOM     62  C   UNL A   1      42.677  33.521  30.389  1.00  0.00     0.074 A 
ATOM     63  C   UNL A   1      41.801  34.527  30.949  1.00  0.00     0.031 C 
ATOM     64  C   UNL A   1      44.010  33.680  30.201  1.00  0.00     0.037 A 
BRANCH  51  65
ATOM     65  C   UNL A   1      46.784  28.726  27.751  1.00  0.00     0.058 A 
ATOM     66  C   UNL A   1      47.218  28.800  26.416  1.00  0.00     0.135 A 
ATOM     67  C   UNL A   1      47.586  28.025  28.665  1.00  0.00     0.135 A 
ATOM     68  F   UNL A   1      46.475  29.435  25.497  1.00  0.00    -0.206 F 
ATOM     69  C   UNL A   1      48.387  28.176  25.998  1.00  0.00     0.059 A 
ATOM     70  C   UNL A   1      48.776  27.421  28.275  1.00  0.00     0.059 A 
ATOM     71  F   UNL A   1      47.214  27.918  29.950  1.00  0.00    -0.206 F 
ATOM     72  C   UNL A   1      49.161  27.488  26.937  1.00  0.00     0.060 A 
BRANCH  72  73
ATOM     73  S   UNL A   1      50.676  26.684  26.379  1.00  0.00     0.124 S 
ATOM     74  O   UNL A   1      50.461  26.625  24.935  1.00  0.00    -0.237 OA
ATOM     75  O   UNL A   1      51.706  27.614  26.828  1.00  0.00    -0.237 OA
ATOM     76  O   UNL A   1      50.653  25.398  27.068  1.00  0.00    -0.744 OA
ENDBRANCH  72  73
ENDBRANCH  51  65
BRANCH  52  77
ATOM     77  C   UNL A   1      38.077  32.570  30.678  1.00  0.00     0.058 A 
ATOM     78  C   UNL A   1      37.273  33.336  29.818  1.00  0.00     0.135 A 
ATOM     79  C   UNL A   1      37.626  32.392  31.996  1.00  0.00     0.135 A 
ATOM     80  F   UNL A   1      37.661  33.551  28.553  1.00  0.00    -0.206 F 
ATOM     81  C   UNL A   1      36.086  33.924  30.253  1.00  0.00     0.059 A 
ATOM     82  C   UNL A   1      36.430  32.950  32.447  1.00  0.00     0.059 A 
ATOM     83  F   UNL A   1      38.350  31.667  32.862  1.00  0.00    -0.206 F 
ATOM     84  C   UNL A   1      35.673  33.725  31.571  1.00  0.00     0.060 A 
BRANCH  84  85
ATOM     85  S   UNL A   1      34.120  34.476  32.115  1.00  0.00     0.124 S 
ATOM     86  O   UNL A   1      34.590  35.689  32.774  1.00  0.00    -0.237 OA
ATOM     87  O   UNL A   1      33.413  34.668  30.852  1.00  0.00    -0.237 OA
ATOM     88  O   UNL A   1      33.546  33.463  32.997  1.00  0.00    -0.744 OA
ENDBRANCH  84  85
ENDBRANCH  52  77
BRANCH  64  89
ATOM     89  C   UNL A   1      44.611  35.014  30.560  1.00  0.00     0.058 A 
ATOM     90  C   UNL A   1      45.167  35.269  31.823  1.00  0.00     0.135 A 
ATOM     91  C   UNL A   1      44.662  36.044  29.606  1.00  0.00     0.135 A 
ATOM     92  F   UNL A   1      45.144  34.322  32.776  1.00  0.00    -0.206 F 
ATOM     93  C   UNL A   1      45.718  36.507  32.140  1.00  0.00     0.059 A 
ATOM     94  C   UNL A   1      45.240  37.278  29.889  1.00  0.00     0.059 A 
ATOM     95  F   UNL A   1      44.158  35.855  28.376  1.00  0.00    -0.206 F 
ATOM     96  C   UNL A   1      45.750  37.506  31.165  1.00  0.00     0.060 A 
BRANCH  96  97
ATOM     97  S   UNL A   1      46.482  39.102  31.584  1.00  0.00     0.124 S 
ATOM     98  O   UNL A   1      45.490  40.030  31.052  1.00  0.00    -0.237 OA
ATOM     99  O   UNL A   1      46.568  39.033  33.039  1.00  0.00    -0.237 OA
ATOM    100  O   UNL A   1      47.763  39.084  30.884  1.00  0.00    -0.744 OA
ENDBRANCH  96  97
ENDBRANCH  64  89
ENDBRANCH  38  39
ENDBRANCH  31  33
ENDBRANCH  30  31
ENDBRANCH  29  30
ENDBRANCH   1  29
TORSDOF 19
ENDMDL
MODEL 3
REMARK VINA RESULT:     -11.9      2.205      3.014
REMARK SMILES CC(C)(C)c1ccc(C(=O)N/C(=C/c2ccc(O)cc2)C(=O)OCCOC(=O)c2ccc(-c3c4nc(c(-c5c(F)cc(S(=O)(=O)[O-])cc5F)c5ccc([nH]5)c(-c5c(F)cc(S(=O)(=O)[O-])cc5F)c5nc(c(-c6c(F)cc(S(=O)(=O)[O-])cc6F)c6ccc3[nH]6)C=C5)C=C4)cc2)cc1
REMARK SMILES IDX 24 1 23 2 21 3 22 4 12 5 13 6 11 7 9 8 10 9 8 11 5 12 6 13
REMARK SMILES IDX 96 14 7 15 95 16 2 17 1 18 3 19 4 20 14 21 15 22 20 23 16 24
REMARK SMILES IDX 19 25 17 26 18 27 25 29 26 30 27 31 28 32 29 33 30 34 94 35
REMARK SMILES IDX 31 36 93 37 32 38 33 39 34 40 87 41 35 42 92 43 86 44 88 45
REMARK SMILES IDX 36 46 91 47 85 48 84 49 37 51 71 52 50 53 70 54 51 55 54 56
REMARK SMILES IDX 69 57 89 58 52 59 53 60 68 62 90 63 55 64 38 65 39 66 48 67
REMARK SMILES IDX 40 68 41 69 47 70 49 71 42 72 43 73 44 74 45 75 46 76 72 77
REMARK SMILES IDX 73 78 82 79 74 80 75 81 81 82 83 83 76 84 77 85 78 86 79 87
REMARK SMILES IDX 80 88 56 89 57 90 66 91 58 92 59 93 65 94 67 95 60 96 61 97
REMARK SMILES IDX 62 98 63 99 64 100
REMARK H PARENT 11 10 18 28 88 50 54 61
REMARK Flexibility Score: inf
ROOT
ATOM      1  C   UNL A   1      32.844  28.009  25.406  1.00  0.00     0.275 C 
ENDROOT
BRANCH   1   2
ATOM      2  O   UNL A   1      32.448  26.708  25.888  1.00  0.00    -0.457 OA
BRANCH   2   3
ATOM      3  C   UNL A   1      31.182  26.678  26.356  1.00  0.00     0.354 C 
ATOM      4  O   UNL A   1      30.815  27.454  27.214  1.00  0.00    -0.244 OA
BRANCH   3   5
ATOM      5  C   UNL A   1      30.220  25.677  25.798  1.00  0.00     0.128 C 
ATOM      6  C   UNL A   1      29.398  25.923  24.754  1.00  0.00     0.042 C 
BRANCH   5   7
ATOM      7  N   UNL A   1      30.115  24.431  26.416  1.00  0.00    -0.316 N 
ATOM      8  C   UNL A   1      31.034  23.455  26.794  1.00  0.00     0.255 C 
ATOM      9  O   UNL A   1      30.623  22.539  27.508  1.00  0.00    -0.269 OA
ATOM     10  H   UNL A   1      29.186  24.187  26.634  1.00  0.00     0.170 HD
BRANCH   8  11
ATOM     11  C   UNL A   1      32.470  23.435  26.384  1.00  0.00     0.040 A 
ATOM     12  C   UNL A   1      35.035  22.712  25.379  1.00  0.00    -0.043 A 
ATOM     13  C   UNL A   1      33.997  23.048  24.515  1.00  0.00     0.005 A 
ATOM     14  C   UNL A   1      34.803  22.914  26.762  1.00  0.00     0.005 A 
ATOM     15  C   UNL A   1      32.741  23.385  25.018  1.00  0.00     0.014 A 
ATOM     16  C   UNL A   1      33.540  23.297  27.265  1.00  0.00     0.014 A 
BRANCH  12  17
ATOM     17  C   UNL A   1      36.341  22.095  24.851  1.00  0.00    -0.013 C 
ATOM     18  C   UNL A   1      37.606  22.458  25.673  1.00  0.00     0.016 C 
ATOM     19  C   UNL A   1      36.619  22.590  23.414  1.00  0.00     0.016 C 
ATOM     20  C   UNL A   1      36.211  20.564  24.851  1.00  0.00     0.016 C 
ENDBRANCH  12  17
ENDBRANCH   8  11
ENDBRANCH   5   7
BRANCH   6  21
ATOM     21  C   UNL A   1      29.593  26.999  23.777  1.00  0.00    -0.023 A 
ATOM     22  C   UNL A   1      28.800  28.148  23.731  1.00  0.00     0.012 A 
ATOM     23  C   UNL A   1      30.683  26.867  22.901  1.00  0.00     0.012 A 
ATOM     24  C   UNL A   1      29.146  29.185  22.857  1.00  0.00     0.047 A 
ATOM     25  C   UNL A   1      31.039  27.908  22.051  1.00  0.00     0.047 A 
ATOM     26  C   UNL A   1      30.276  29.069  22.051  1.00  0.00     0.115 A 
BRANCH  26  27
ATOM     27  O   UNL A   1      30.631  30.134  21.277  1.00  0.00    -0.508 OA
ATOM     28  H   UNL A   1      31.458  30.137  20.836  1.00  0.00     0.293 HD
ENDBRANCH  26  27
ENDBRANCH   6  21
ENDBRANCH   3   5
ENDBRANCH   2   3
ENDBRANCH   1   2
BRANCH   1  29
ATOM     29  C   UNL A   1      34.024  28.692  26.142  1.00  0.00     0.275 C 
BRANCH  29  30
ATOM     30  O   UNL A   1      33.727  29.178  27.479  1.00  0.00    -0.458 OA
BRANCH  30  31
ATOM     31  C   UNL A   1      34.422  30.281  27.883  1.00  0.00     0.338 C 
ATOM     32  O   UNL A   1      33.926  31.383  28.081  1.00  0.00    -0.246 OA
BRANCH  31  33
ATOM     33  C   UNL A   1      35.833  29.959  28.283  1.00  0.00     0.060 A 
ATOM     34  C   UNL A   1      36.831  30.076  27.296  1.00  0.00     0.016 A 
ATOM     35  C   UNL A   1      36.214  29.597  29.576  1.00  0.00     0.016 A 
ATOM     36  C   UNL A   1      38.186  29.843  27.587  1.00  0.00     0.010 A 
ATOM     37  C   UNL A   1      37.576  29.339  29.864  1.00  0.00     0.010 A 
ATOM     38  C   UNL A   1      38.579  29.456  28.873  1.00  0.00    -0.014 A 
BRANCH  38  39
ATOM     39  C   UNL A   1      39.978  28.977  29.129  1.00  0.00     0.031 A 
ATOM     40  C   UNL A   1      40.936  29.971  29.736  1.00  0.00     0.074 A 
ATOM     41  C   UNL A   1      40.427  27.724  28.881  1.00  0.00     0.049 A 
ATOM     42  N   UNL A   1      42.189  29.815  30.081  1.00  0.00    -0.248 NA
ATOM     43  C   UNL A   1      40.395  31.311  30.018  1.00  0.00     0.031 C 
ATOM     44  C   UNL A   1      39.632  26.591  28.430  1.00  0.00     0.029 A 
ATOM     45  N   UNL A   1      41.699  27.191  28.970  1.00  0.00    -0.354 N 
ATOM     46  C   UNL A   1      42.570  31.020  30.658  1.00  0.00     0.074 A 
ATOM     47  C   UNL A   1      41.442  31.920  30.550  1.00  0.00     0.031 C 
ATOM     48  C   UNL A   1      40.428  25.540  28.172  1.00  0.00     0.029 A 
ATOM     49  C   UNL A   1      41.799  25.894  28.505  1.00  0.00     0.049 A 
ATOM     50  H   UNL A   1      42.465  27.691  29.332  1.00  0.00     0.167 HD
ATOM     51  C   UNL A   1      43.740  31.344  31.255  1.00  0.00     0.037 A 
ATOM     52  C   UNL A   1      42.853  25.060  28.387  1.00  0.00     0.037 A 
ATOM     53  C   UNL A   1      44.880  30.470  31.338  1.00  0.00     0.049 A 
ATOM     54  C   UNL A   1      44.188  25.486  28.937  1.00  0.00     0.074 A 
ATOM     55  C   UNL A   1      46.111  30.721  31.920  1.00  0.00     0.029 A 
ATOM     56  N   UNL A   1      44.943  29.189  30.810  1.00  0.00    -0.354 N 
ATOM     57  N   UNL A   1      44.513  26.611  29.526  1.00  0.00    -0.248 NA
ATOM     58  C   UNL A   1      45.286  24.512  28.857  1.00  0.00     0.031 C 
ATOM     59  C   UNL A   1      46.940  29.620  31.683  1.00  0.00     0.029 A 
ATOM     60  C   UNL A   1      46.204  28.652  31.021  1.00  0.00     0.049 A 
ATOM     61  H   UNL A   1      44.202  28.730  30.352  1.00  0.00     0.167 HD
ATOM     62  C   UNL A   1      45.832  26.457  29.940  1.00  0.00     0.074 A 
ATOM     63  C   UNL A   1      46.245  25.132  29.530  1.00  0.00     0.031 C 
ATOM     64  C   UNL A   1      46.617  27.332  30.615  1.00  0.00     0.037 A 
BRANCH  51  65
ATOM     65  C   UNL A   1      43.846  32.722  31.841  1.00  0.00     0.058 A 
ATOM     66  C   UNL A   1      43.399  33.008  33.142  1.00  0.00     0.135 A 
ATOM     67  C   UNL A   1      44.404  33.771  31.094  1.00  0.00     0.135 A 
ATOM     68  F   UNL A   1      42.834  32.048  33.890  1.00  0.00    -0.206 F 
ATOM     69  C   UNL A   1      43.474  34.292  33.670  1.00  0.00     0.059 A 
ATOM     70  C   UNL A   1      44.519  35.055  31.614  1.00  0.00     0.059 A 
ATOM     71  F   UNL A   1      44.840  33.553  29.842  1.00  0.00    -0.206 F 
ATOM     72  C   UNL A   1      44.038  35.310  32.897  1.00  0.00     0.060 A 
BRANCH  72  73
ATOM     73  S   UNL A   1      44.129  36.970  33.595  1.00  0.00     0.124 S 
ATOM     74  O   UNL A   1      44.290  37.785  32.394  1.00  0.00    -0.237 OA
ATOM     75  O   UNL A   1      42.844  37.092  34.276  1.00  0.00    -0.237 OA
ATOM     76  O   UNL A   1      45.295  36.909  34.471  1.00  0.00    -0.744 OA
ENDBRANCH  72  73
ENDBRANCH  51  65
BRANCH  52  77
ATOM     77  C   UNL A   1      42.689  23.710  27.766  1.00  0.00     0.058 A 
ATOM     78  C   UNL A   1      42.520  22.556  28.548  1.00  0.00     0.135 A 
ATOM     79  C   UNL A   1      42.729  23.546  26.372  1.00  0.00     0.135 A 
ATOM     80  F   UNL A   1      42.489  22.651  29.885  1.00  0.00    -0.206 F 
ATOM     81  C   UNL A   1      42.425  21.289  27.974  1.00  0.00     0.059 A 
ATOM     82  C   UNL A   1      42.611  22.292  25.774  1.00  0.00     0.059 A 
ATOM     83  F   UNL A   1      42.885  24.613  25.574  1.00  0.00    -0.206 F 
ATOM     84  C   UNL A   1      42.472  21.167  26.585  1.00  0.00     0.060 A 
BRANCH  84  85
ATOM     85  S   UNL A   1      42.324  19.520  25.854  1.00  0.00     0.124 S 
ATOM     86  O   UNL A   1      42.667  18.662  26.983  1.00  0.00    -0.237 OA
ATOM     87  O   UNL A   1      40.926  19.494  25.435  1.00  0.00    -0.237 OA
ATOM     88  O   UNL A   1      43.297  19.544  24.765  1.00  0.00    -0.744 OA
ENDBRANCH  84  85
ENDBRANCH  52  77
BRANCH  64  89
ATOM     89  C   UNL A   1      47.998  26.873  31.005  1.00  0.00     0.058 A 
ATOM     90  C   UNL A   1      49.109  27.047  30.166  1.00  0.00     0.135 A 
ATOM     91  C   UNL A   1      48.216  26.280  32.261  1.00  0.00     0.135 A 
ATOM     92  F   UNL A   1      48.961  27.605  28.954  1.00  0.00    -0.206 F 
ATOM     93  C   UNL A   1      50.379  26.617  30.541  1.00  0.00     0.059 A 
ATOM     94  C   UNL A   1      49.483  25.875  32.671  1.00  0.00     0.059 A 
ATOM     95  F   UNL A   1      47.193  26.100  33.112  1.00  0.00    -0.206 F 
ATOM     96  C   UNL A   1      50.555  26.032  31.796  1.00  0.00     0.060 A 
BRANCH  96  97
ATOM     97  S   UNL A   1      52.211  25.494  32.275  1.00  0.00     0.124 S 
ATOM     98  O   UNL A   1      52.058  24.043  32.282  1.00  0.00    -0.237 OA
ATOM     99  O   UNL A   1      53.038  26.038  31.204  1.00  0.00    -0.237 OA
ATOM    100  O   UNL A   1      52.403  26.110  33.585  1.00  0.00    -0.744 OA
ENDBRANCH  96  97
ENDBRANCH  64  89
ENDBRANCH  38  39
ENDBRANCH  31  33
ENDBRANCH  30  31
ENDBRANCH  29  30
ENDBRANCH   1  29
TORSDOF 19
ENDMDL
