MODEL 1
REMARK VINA RESULT:     -11.7      0.000      0.000
REMARK SMILES O=C(OCCOC(=O)c1c(-c2ccc(Cl)cc2)noc1CO[C@@H]1CCCCO1)c1ccc(-c2c3nc(c(-c4c(F)cc(S(=O)(=O)[O-])cc4F)c4ccc([nH]4)c(-c4c(F)cc(S(=O)(=O)[O-])cc4F)c4nc(c(-c5c(F)cc(S(=O)(=O)[O-])cc5F)c5ccc2[nH]5)C=C4)C=C3)cc1
REMARK SMILES IDX 4 1 3 2 2 3 1 4 29 5 30 6 94 7 31 8 93 9 32 10 33 11 34 12
REMARK SMILES IDX 87 13 35 14 92 15 86 16 88 17 36 18 91 19 85 20 84 21 37 23
REMARK SMILES IDX 71 24 50 25 70 26 51 27 54 28 69 29 89 30 52 31 53 32 68 34
REMARK SMILES IDX 90 35 55 36 38 37 39 38 48 39 40 40 41 41 47 42 49 43 42 44
REMARK SMILES IDX 43 45 44 46 45 47 46 48 72 49 73 50 82 51 74 52 75 53 81 54
REMARK SMILES IDX 83 55 76 56 77 57 78 58 79 59 80 60 56 61 57 62 66 63 58 64
REMARK SMILES IDX 59 65 65 66 67 67 60 68 61 69 62 70 63 71 64 72 5 73 6 74
REMARK SMILES IDX 7 75 8 76 9 77 10 78 20 79 18 80 19 81 11 82 12 83 17 84
REMARK SMILES IDX 13 85 16 86 14 87 15 88 21 89 22 90 23 91 24 92 28 93 25 94
REMARK SMILES IDX 27 95 26 96
REMARK H PARENT 88 22 54 33
REMARK Flexibility Score: inf
ROOT
ATOM      1  C   UNL A   1      32.150  30.159  27.031  1.00  0.00     0.275 C 
ENDROOT
BRANCH   1   2
ATOM      2  O   UNL A   1      33.588  30.215  27.056  1.00  0.00    -0.458 OA
BRANCH   2   3
ATOM      3  C   UNL A   1      34.448  30.657  28.002  1.00  0.00     0.338 C 
ATOM      4  O   UNL A   1      34.193  31.712  28.580  1.00  0.00    -0.246 OA
BRANCH   3   5
ATOM      5  C   UNL A   1      35.767  30.017  28.294  1.00  0.00     0.060 A 
ATOM      6  C   UNL A   1      36.230  29.642  29.555  1.00  0.00     0.016 A 
ATOM      7  C   UNL A   1      36.645  29.873  27.201  1.00  0.00     0.016 A 
ATOM      8  C   UNL A   1      37.524  29.131  29.716  1.00  0.00     0.010 A 
ATOM      9  C   UNL A   1      37.922  29.328  27.345  1.00  0.00     0.010 A 
ATOM     10  C   UNL A   1      38.388  29.010  28.620  1.00  0.00    -0.014 A 
BRANCH  10  11
ATOM     11  C   UNL A   1      39.842  28.850  28.869  1.00  0.00     0.031 A 
ATOM     12  C   UNL A   1      40.483  27.561  28.440  1.00  0.00     0.074 A 
ATOM     13  C   UNL A   1      40.575  29.851  29.386  1.00  0.00     0.049 A 
ATOM     14  N   UNL A   1      41.742  27.216  28.466  1.00  0.00    -0.248 NA
ATOM     15  C   UNL A   1      39.582  26.504  27.949  1.00  0.00     0.031 C 
ATOM     16  C   UNL A   1      40.023  31.086  29.920  1.00  0.00     0.029 A 
ATOM     17  N   UNL A   1      41.927  30.009  29.531  1.00  0.00    -0.354 N 
ATOM     18  C   UNL A   1      41.776  25.897  28.036  1.00  0.00     0.074 A 
ATOM     19  C   UNL A   1      40.414  25.491  27.781  1.00  0.00     0.031 C 
ATOM     20  C   UNL A   1      41.018  31.926  30.244  1.00  0.00     0.029 A 
ATOM     21  C   UNL A   1      42.288  31.257  29.991  1.00  0.00     0.049 A 
ATOM     22  H   UNL A   1      42.579  29.300  29.327  1.00  0.00     0.167 HD
ATOM     23  C   UNL A   1      42.854  25.099  27.861  1.00  0.00     0.037 A 
ATOM     24  C   UNL A   1      43.511  31.790  30.181  1.00  0.00     0.037 A 
ATOM     25  C   UNL A   1      44.200  25.540  28.104  1.00  0.00     0.049 A 
ATOM     26  C   UNL A   1      44.702  30.919  29.881  1.00  0.00     0.074 A 
ATOM     27  C   UNL A   1      45.381  24.838  27.971  1.00  0.00     0.029 A 
ATOM     28  N   UNL A   1      44.536  26.823  28.523  1.00  0.00    -0.354 N 
ATOM     29  N   UNL A   1      44.721  29.677  29.453  1.00  0.00    -0.248 NA
ATOM     30  C   UNL A   1      46.030  31.503  30.097  1.00  0.00     0.031 C 
ATOM     31  C   UNL A   1      46.433  25.693  28.322  1.00  0.00     0.029 A 
ATOM     32  C   UNL A   1      45.907  26.937  28.642  1.00  0.00     0.049 A 
ATOM     33  H   UNL A   1      43.891  27.544  28.707  1.00  0.00     0.167 HD
ATOM     34  C   UNL A   1      46.060  29.325  29.360  1.00  0.00     0.074 A 
ATOM     35  C   UNL A   1      46.822  30.501  29.738  1.00  0.00     0.031 C 
ATOM     36  C   UNL A   1      46.615  28.137  29.017  1.00  0.00     0.037 A 
BRANCH  23  37
ATOM     37  C   UNL A   1      42.590  23.689  27.413  1.00  0.00     0.058 A 
ATOM     38  C   UNL A   1      42.433  22.642  28.336  1.00  0.00     0.135 A 
ATOM     39  C   UNL A   1      42.563  23.367  26.047  1.00  0.00     0.135 A 
ATOM     40  F   UNL A   1      42.483  22.889  29.655  1.00  0.00    -0.206 F 
ATOM     41  C   UNL A   1      42.307  21.319  27.921  1.00  0.00     0.059 A 
ATOM     42  C   UNL A   1      42.411  22.054  25.610  1.00  0.00     0.059 A 
ATOM     43  F   UNL A   1      42.718  24.327  25.122  1.00  0.00    -0.206 F 
ATOM     44  C   UNL A   1      42.308  21.034  26.556  1.00  0.00     0.060 A 
BRANCH  44  45
ATOM     45  S   UNL A   1      42.185  19.311  26.033  1.00  0.00     0.124 S 
ATOM     46  O   UNL A   1      43.089  19.289  24.887  1.00  0.00    -0.237 OA
ATOM     47  O   UNL A   1      42.646  18.590  27.215  1.00  0.00    -0.237 OA
ATOM     48  O   UNL A   1      40.768  19.152  25.720  1.00  0.00    -0.744 OA
ENDBRANCH  44  45
ENDBRANCH  23  37
BRANCH  24  49
ATOM     49  C   UNL A   1      43.666  33.197  30.647  1.00  0.00     0.058 A 
ATOM     50  C   UNL A   1      43.727  33.503  32.016  1.00  0.00     0.135 A 
ATOM     51  C   UNL A   1      43.781  34.264  29.742  1.00  0.00     0.135 A 
ATOM     52  F   UNL A   1      43.619  32.525  32.928  1.00  0.00    -0.206 F 
ATOM     53  C   UNL A   1      43.882  34.812  32.470  1.00  0.00     0.059 A 
ATOM     54  C   UNL A   1      43.964  35.577  30.170  1.00  0.00     0.059 A 
ATOM     55  F   UNL A   1      43.743  34.029  28.421  1.00  0.00    -0.206 F 
ATOM     56  C   UNL A   1      44.001  35.844  31.538  1.00  0.00     0.060 A 
BRANCH  56  57
ATOM     57  S   UNL A   1      44.251  37.532  32.133  1.00  0.00     0.124 S 
ATOM     58  O   UNL A   1      43.807  38.316  30.986  1.00  0.00    -0.237 OA
ATOM     59  O   UNL A   1      43.386  37.579  33.308  1.00  0.00    -0.237 OA
ATOM     60  O   UNL A   1      45.683  37.581  32.416  1.00  0.00    -0.744 OA
ENDBRANCH  56  57
ENDBRANCH  24  49
BRANCH  36  61
ATOM     61  C   UNL A   1      48.112  28.064  29.030  1.00  0.00     0.058 A 
ATOM     62  C   UNL A   1      48.809  27.654  30.177  1.00  0.00     0.135 A 
ATOM     63  C   UNL A   1      48.845  28.343  27.868  1.00  0.00     0.135 A 
ATOM     64  F   UNL A   1      48.145  27.382  31.311  1.00  0.00    -0.206 F 
ATOM     65  C   UNL A   1      50.193  27.536  30.173  1.00  0.00     0.059 A 
ATOM     66  C   UNL A   1      50.228  28.212  27.837  1.00  0.00     0.059 A 
ATOM     67  F   UNL A   1      48.216  28.728  26.747  1.00  0.00    -0.206 F 
ATOM     68  C   UNL A   1      50.893  27.816  28.998  1.00  0.00     0.060 A 
BRANCH  68  69
ATOM     69  S   UNL A   1      52.686  27.619  28.991  1.00  0.00     0.124 S 
ATOM     70  O   UNL A   1      53.099  28.664  29.922  1.00  0.00    -0.237 OA
ATOM     71  O   UNL A   1      52.854  26.247  29.461  1.00  0.00    -0.237 OA
ATOM     72  O   UNL A   1      53.044  27.842  27.593  1.00  0.00    -0.744 OA
ENDBRANCH  68  69
ENDBRANCH  36  61
ENDBRANCH  10  11
ENDBRANCH   3   5
ENDBRANCH   2   3
ENDBRANCH   1   2
BRANCH   1  73
ATOM     73  C   UNL A   1      31.599  28.902  26.373  1.00  0.00     0.275 C 
BRANCH  73  74
ATOM     74  O   UNL A   1      32.629  28.141  25.732  1.00  0.00    -0.458 OA
BRANCH  74  75
ATOM     75  C   UNL A   1      32.448  27.874  24.409  1.00  0.00     0.344 C 
ATOM     76  O   UNL A   1      32.894  28.571  23.498  1.00  0.00    -0.246 OA
BRANCH  75  77
ATOM     77  C   UNL A   1      31.676  26.681  24.188  1.00  0.00     0.133 A 
ATOM     78  C   UNL A   1      32.102  25.320  24.162  1.00  0.00     0.128 A 
ATOM     79  C   UNL A   1      30.334  26.624  23.857  1.00  0.00     0.177 A 
ATOM     80  N   UNL A   1      31.069  24.513  23.881  1.00  0.00    -0.079 NA
ATOM     81  O   UNL A   1      29.973  25.324  23.705  1.00  0.00    -0.357 OA
BRANCH  78  82
ATOM     82  C   UNL A   1      33.431  24.751  24.379  1.00  0.00     0.005 A 
ATOM     83  C   UNL A   1      34.133  24.120  23.346  1.00  0.00     0.012 A 
ATOM     84  C   UNL A   1      34.039  24.857  25.638  1.00  0.00     0.012 A 
ATOM     85  C   UNL A   1      35.430  23.641  23.545  1.00  0.00     0.021 A 
ATOM     86  C   UNL A   1      35.325  24.348  25.850  1.00  0.00     0.021 A 
ATOM     87  C   UNL A   1      36.018  23.753  24.799  1.00  0.00     0.041 A 
ATOM     88  Cl  UNL A   1      37.607  23.144  25.054  1.00  0.00    -0.084 Cl
ENDBRANCH  78  82
BRANCH  79  89
ATOM     89  C   UNL A   1      29.290  27.638  23.559  1.00  0.00     0.242 C 
BRANCH  89  90
ATOM     90  O   UNL A   1      29.610  28.305  22.355  1.00  0.00    -0.345 OA
BRANCH  90  91
ATOM     91  C   UNL A   1      29.902  29.697  22.348  1.00  0.00     0.250 C 
ATOM     92  C   UNL A   1      29.537  30.583  23.551  1.00  0.00     0.062 C 
ATOM     93  O   UNL A   1      29.449  30.309  21.139  1.00  0.00    -0.353 OA
ATOM     94  C   UNL A   1      28.077  31.031  23.566  1.00  0.00     0.008 C 
ATOM     95  C   UNL A   1      28.050  30.542  21.101  1.00  0.00     0.163 C 
ATOM     96  C   UNL A   1      27.641  31.521  22.192  1.00  0.00     0.029 C 
ENDBRANCH  90  91
ENDBRANCH  89  90
ENDBRANCH  79  89
ENDBRANCH  75  77
ENDBRANCH  74  75
ENDBRANCH  73  74
ENDBRANCH   1  73
TORSDOF 18
ENDMDL
MODEL 2
REMARK VINA RESULT:     -11.6      1.752      3.908
REMARK SMILES O=C(OCCOC(=O)c1c(-c2ccc(Cl)cc2)noc1CO[C@@H]1CCCCO1)c1ccc(-c2c3nc(c(-c4c(F)cc(S(=O)(=O)[O-])cc4F)c4ccc([nH]4)c(-c4c(F)cc(S(=O)(=O)[O-])cc4F)c4nc(c(-c5c(F)cc(S(=O)(=O)[O-])cc5F)c5ccc2[nH]5)C=C4)C=C3)cc1
REMARK SMILES IDX 4 1 3 2 2 3 1 4 29 5 30 6 94 7 31 8 93 9 32 10 33 11 34 12
REMARK SMILES IDX 87 13 35 14 92 15 86 16 88 17 36 18 91 19 85 20 84 21 37 23
REMARK SMILES IDX 71 24 50 25 70 26 51 27 54 28 69 29 89 30 52 31 53 32 68 34
REMARK SMILES IDX 90 35 55 36 38 37 39 38 48 39 40 40 41 41 47 42 49 43 42 44
REMARK SMILES IDX 43 45 44 46 45 47 46 48 72 49 73 50 82 51 74 52 75 53 81 54
REMARK SMILES IDX 83 55 76 56 77 57 78 58 79 59 80 60 56 61 57 62 66 63 58 64
REMARK SMILES IDX 59 65 65 66 67 67 60 68 61 69 62 70 63 71 64 72 5 73 6 74
REMARK SMILES IDX 7 75 8 76 9 77 10 78 20 79 18 80 19 81 11 82 12 83 17 84
REMARK SMILES IDX 13 85 16 86 14 87 15 88 21 89 22 90 23 91 24 92 28 93 25 94
REMARK SMILES IDX 27 95 26 96
REMARK H PARENT 88 22 54 33
REMARK Flexibility Score: inf
ROOT
ATOM      1  C   UNL A   1      32.878  29.979  26.266  1.00  0.00     0.275 C 
ENDROOT
BRANCH   1   2
ATOM      2  O   UNL A   1      33.338  30.158  27.618  1.00  0.00    -0.458 OA
BRANCH   2   3
ATOM      3  C   UNL A   1      34.420  30.801  28.115  1.00  0.00     0.338 C 
ATOM      4  O   UNL A   1      34.366  32.023  28.248  1.00  0.00    -0.246 OA
BRANCH   3   5
ATOM      5  C   UNL A   1      35.733  30.140  28.382  1.00  0.00     0.060 A 
ATOM      6  C   UNL A   1      36.167  29.657  29.617  1.00  0.00     0.016 A 
ATOM      7  C   UNL A   1      36.638  30.093  27.303  1.00  0.00     0.016 A 
ATOM      8  C   UNL A   1      37.459  29.136  29.764  1.00  0.00     0.010 A 
ATOM      9  C   UNL A   1      37.913  29.540  27.430  1.00  0.00     0.010 A 
ATOM     10  C   UNL A   1      38.349  29.112  28.683  1.00  0.00    -0.014 A 
BRANCH  10  11
ATOM     11  C   UNL A   1      39.797  28.933  28.952  1.00  0.00     0.031 A 
ATOM     12  C   UNL A   1      40.430  27.640  28.522  1.00  0.00     0.074 A 
ATOM     13  C   UNL A   1      40.533  29.921  29.489  1.00  0.00     0.049 A 
ATOM     14  N   UNL A   1      41.683  27.280  28.565  1.00  0.00    -0.248 NA
ATOM     15  C   UNL A   1      39.523  26.597  28.010  1.00  0.00     0.031 C 
ATOM     16  C   UNL A   1      39.988  31.158  30.025  1.00  0.00     0.029 A 
ATOM     17  N   UNL A   1      41.885  30.062  29.656  1.00  0.00    -0.354 N 
ATOM     18  C   UNL A   1      41.709  25.964  28.125  1.00  0.00     0.074 A 
ATOM     19  C   UNL A   1      40.347  25.576  27.846  1.00  0.00     0.031 C 
ATOM     20  C   UNL A   1      40.988  31.984  30.370  1.00  0.00     0.029 A 
ATOM     21  C   UNL A   1      42.254  31.302  30.132  1.00  0.00     0.049 A 
ATOM     22  H   UNL A   1      42.532  29.347  29.456  1.00  0.00     0.167 HD
ATOM     23  C   UNL A   1      42.780  25.155  27.959  1.00  0.00     0.037 A 
ATOM     24  C   UNL A   1      43.480  31.819  30.344  1.00  0.00     0.037 A 
ATOM     25  C   UNL A   1      44.127  25.578  28.226  1.00  0.00     0.049 A 
ATOM     26  C   UNL A   1      44.665  30.936  30.055  1.00  0.00     0.074 A 
ATOM     27  C   UNL A   1      45.301  24.863  28.106  1.00  0.00     0.029 A 
ATOM     28  N   UNL A   1      44.472  26.853  28.661  1.00  0.00    -0.354 N 
ATOM     29  N   UNL A   1      44.676  29.697  29.617  1.00  0.00    -0.248 NA
ATOM     30  C   UNL A   1      45.996  31.503  30.296  1.00  0.00     0.031 C 
ATOM     31  C   UNL A   1      46.358  25.703  28.480  1.00  0.00     0.029 A 
ATOM     32  C   UNL A   1      45.842  26.950  28.802  1.00  0.00     0.049 A 
ATOM     33  H   UNL A   1      43.832  27.580  28.841  1.00  0.00     0.167 HD
ATOM     34  C   UNL A   1      46.012  29.331  29.542  1.00  0.00     0.074 A 
ATOM     35  C   UNL A   1      46.782  30.494  29.940  1.00  0.00     0.031 C 
ATOM     36  C   UNL A   1      46.558  28.139  29.197  1.00  0.00     0.037 A 
BRANCH  23  37
ATOM     37  C   UNL A   1      42.507  23.752  27.496  1.00  0.00     0.058 A 
ATOM     38  C   UNL A   1      42.363  22.692  28.407  1.00  0.00     0.135 A 
ATOM     39  C   UNL A   1      42.458  23.449  26.127  1.00  0.00     0.135 A 
ATOM     40  F   UNL A   1      42.434  22.921  29.728  1.00  0.00    -0.206 F 
ATOM     41  C   UNL A   1      42.227  21.376  27.976  1.00  0.00     0.059 A 
ATOM     42  C   UNL A   1      42.296  22.143  25.673  1.00  0.00     0.059 A 
ATOM     43  F   UNL A   1      42.599  24.422  25.213  1.00  0.00    -0.206 F 
ATOM     44  C   UNL A   1      42.206  21.110  26.607  1.00  0.00     0.060 A 
BRANCH  44  45
ATOM     45  S   UNL A   1      42.072  19.394  26.061  1.00  0.00     0.124 S 
ATOM     46  O   UNL A   1      40.641  19.285  25.792  1.00  0.00    -0.237 OA
ATOM     47  O   UNL A   1      42.940  19.369  24.888  1.00  0.00    -0.237 OA
ATOM     48  O   UNL A   1      42.555  18.634  27.210  1.00  0.00    -0.744 OA
ENDBRANCH  44  45
ENDBRANCH  23  37
BRANCH  24  49
ATOM     49  C   UNL A   1      43.644  33.220  30.824  1.00  0.00     0.058 A 
ATOM     50  C   UNL A   1      43.805  33.503  32.190  1.00  0.00     0.135 A 
ATOM     51  C   UNL A   1      43.669  34.305  29.934  1.00  0.00     0.135 A 
ATOM     52  F   UNL A   1      43.787  32.507  33.088  1.00  0.00    -0.206 F 
ATOM     53  C   UNL A   1      43.971  34.806  32.656  1.00  0.00     0.059 A 
ATOM     54  C   UNL A   1      43.859  35.614  30.371  1.00  0.00     0.059 A 
ATOM     55  F   UNL A   1      43.532  34.094  28.615  1.00  0.00    -0.206 F 
ATOM     56  C   UNL A   1      43.998  35.857  31.737  1.00  0.00     0.060 A 
BRANCH  56  57
ATOM     57  S   UNL A   1      44.261  37.539  32.344  1.00  0.00     0.124 S 
ATOM     58  O   UNL A   1      44.018  38.326  31.141  1.00  0.00    -0.237 OA
ATOM     59  O   UNL A   1      43.253  37.653  33.394  1.00  0.00    -0.237 OA
ATOM     60  O   UNL A   1      45.644  37.515  32.814  1.00  0.00    -0.744 OA
ENDBRANCH  56  57
ENDBRANCH  24  49
BRANCH  36  61
ATOM     61  C   UNL A   1      48.054  28.048  29.232  1.00  0.00     0.058 A 
ATOM     62  C   UNL A   1      48.730  27.640  30.392  1.00  0.00     0.135 A 
ATOM     63  C   UNL A   1      48.807  28.308  28.079  1.00  0.00     0.135 A 
ATOM     64  F   UNL A   1      48.046  27.386  31.519  1.00  0.00    -0.206 F 
ATOM     65  C   UNL A   1      50.112  27.505  30.409  1.00  0.00     0.059 A 
ATOM     66  C   UNL A   1      50.188  28.161  28.068  1.00  0.00     0.059 A 
ATOM     67  F   UNL A   1      48.198  28.692  26.945  1.00  0.00    -0.206 F 
ATOM     68  C   UNL A   1      50.832  27.767  29.242  1.00  0.00     0.060 A 
BRANCH  68  69
ATOM     69  S   UNL A   1      52.623  27.548  29.262  1.00  0.00     0.124 S 
ATOM     70  O   UNL A   1      52.813  26.596  28.174  1.00  0.00    -0.237 OA
ATOM     71  O   UNL A   1      53.108  28.901  29.015  1.00  0.00    -0.237 OA
ATOM     72  O   UNL A   1      52.883  27.032  30.603  1.00  0.00    -0.744 OA
ENDBRANCH  68  69
ENDBRANCH  36  61
ENDBRANCH  10  11
ENDBRANCH   3   5
ENDBRANCH   2   3
ENDBRANCH   1   2
BRANCH   1  73
ATOM     73  C   UNL A   1      31.795  28.917  26.125  1.00  0.00     0.275 C 
BRANCH  73  74
ATOM     74  O   UNL A   1      32.346  27.597  26.068  1.00  0.00    -0.458 OA
BRANCH  74  75
ATOM     75  C   UNL A   1      31.467  26.585  25.831  1.00  0.00     0.344 C 
ATOM     76  O   UNL A   1      30.631  26.194  26.645  1.00  0.00    -0.246 OA
BRANCH  75  77
ATOM     77  C   UNL A   1      31.620  26.019  24.518  1.00  0.00     0.133 A 
ATOM     78  C   UNL A   1      31.099  26.475  23.270  1.00  0.00     0.128 A 
ATOM     79  C   UNL A   1      32.253  24.829  24.209  1.00  0.00     0.177 A 
ATOM     80  N   UNL A   1      31.443  25.632  22.285  1.00  0.00    -0.079 NA
ATOM     81  O   UNL A   1      32.169  24.620  22.869  1.00  0.00    -0.357 OA
BRANCH  78  82
ATOM     82  C   UNL A   1      30.289  27.654  22.969  1.00  0.00     0.005 A 
ATOM     83  C   UNL A   1      30.837  28.772  22.330  1.00  0.00     0.012 A 
ATOM     84  C   UNL A   1      28.926  27.667  23.297  1.00  0.00     0.012 A 
ATOM     85  C   UNL A   1      30.039  29.866  21.985  1.00  0.00     0.021 A 
ATOM     86  C   UNL A   1      28.132  28.775  22.984  1.00  0.00     0.021 A 
ATOM     87  C   UNL A   1      28.690  29.864  22.319  1.00  0.00     0.041 A 
ATOM     88  Cl  UNL A   1      27.709  31.218  21.915  1.00  0.00    -0.084 Cl
ENDBRANCH  78  82
BRANCH  79  89
ATOM     89  C   UNL A   1      32.889  23.748  25.005  1.00  0.00     0.242 C 
BRANCH  89  90
ATOM     90  O   UNL A   1      33.884  23.114  24.227  1.00  0.00    -0.345 OA
BRANCH  90  91
ATOM     91  C   UNL A   1      35.144  23.737  24.007  1.00  0.00     0.250 C 
ATOM     92  C   UNL A   1      36.268  22.997  23.261  1.00  0.00     0.062 C 
ATOM     93  O   UNL A   1      35.655  24.303  25.215  1.00  0.00    -0.353 OA
ATOM     94  C   UNL A   1      37.057  22.029  24.139  1.00  0.00     0.008 C 
ATOM     95  C   UNL A   1      36.215  23.349  26.105  1.00  0.00     0.163 C 
ATOM     96  C   UNL A   1      37.421  22.670  25.471  1.00  0.00     0.029 C 
ENDBRANCH  90  91
ENDBRANCH  89  90
ENDBRANCH  79  89
ENDBRANCH  75  77
ENDBRANCH  74  75
ENDBRANCH  73  74
ENDBRANCH   1  73
TORSDOF 18
ENDMDL
MODEL 3
REMARK VINA RESULT:     -11.4      3.754      9.318
REMARK SMILES O=C(OCCOC(=O)c1c(-c2ccc(Cl)cc2)noc1CO[C@@H]1CCCCO1)c1ccc(-c2c3nc(c(-c4c(F)cc(S(=O)(=O)[O-])cc4F)c4ccc([nH]4)c(-c4c(F)cc(S(=O)(=O)[O-])cc4F)c4nc(c(-c5c(F)cc(S(=O)(=O)[O-])cc5F)c5ccc2[nH]5)C=C4)C=C3)cc1
REMARK SMILES IDX 4 1 3 2 2 3 1 4 29 5 30 6 94 7 31 8 93 9 32 10 33 11 34 12
REMARK SMILES IDX 87 13 35 14 92 15 86 16 88 17 36 18 91 19 85 20 84 21 37 23
REMARK SMILES IDX 71 24 50 25 70 26 51 27 54 28 69 29 89 30 52 31 53 32 68 34
REMARK SMILES IDX 90 35 55 36 38 37 39 38 48 39 40 40 41 41 47 42 49 43 42 44
REMARK SMILES IDX 43 45 44 46 45 47 46 48 72 49 73 50 82 51 74 52 75 53 81 54
REMARK SMILES IDX 83 55 76 56 77 57 78 58 79 59 80 60 56 61 57 62 66 63 58 64
REMARK SMILES IDX 59 65 65 66 67 67 60 68 61 69 62 70 63 71 64 72 5 73 6 74
REMARK SMILES IDX 7 75 8 76 9 77 10 78 20 79 18 80 19 81 11 82 12 83 17 84
REMARK SMILES IDX 13 85 16 86 14 87 15 88 21 89 22 90 23 91 24 92 28 93 25 94
REMARK SMILES IDX 27 95 26 96
REMARK H PARENT 88 22 54 33
REMARK Flexibility Score: inf
ROOT
ATOM      1  C   UNL A   1      36.929  23.243  24.939  1.00  0.00     0.275 C 
ENDROOT
BRANCH   1   2
ATOM      2  O   UNL A   1      38.139  22.529  25.254  1.00  0.00    -0.458 OA
BRANCH   2   3
ATOM      3  C   UNL A   1      39.141  22.811  26.118  1.00  0.00     0.338 C 
ATOM      4  O   UNL A   1      39.841  21.885  26.526  1.00  0.00    -0.246 OA
BRANCH   3   5
ATOM      5  C   UNL A   1      39.367  24.159  26.724  1.00  0.00     0.060 A 
ATOM      6  C   UNL A   1      40.152  25.175  26.180  1.00  0.00     0.016 A 
ATOM      7  C   UNL A   1      38.806  24.370  27.999  1.00  0.00     0.016 A 
ATOM      8  C   UNL A   1      40.361  26.368  26.886  1.00  0.00     0.010 A 
ATOM      9  C   UNL A   1      38.976  25.570  28.693  1.00  0.00     0.010 A 
ATOM     10  C   UNL A   1      39.808  26.554  28.159  1.00  0.00    -0.014 A 
BRANCH  10  11
ATOM     11  C   UNL A   1      40.356  27.624  29.028  1.00  0.00     0.031 A 
ATOM     12  C   UNL A   1      39.470  28.800  29.326  1.00  0.00     0.074 A 
ATOM     13  C   UNL A   1      41.570  27.510  29.593  1.00  0.00     0.049 A 
ATOM     14  N   UNL A   1      39.681  29.813  30.121  1.00  0.00    -0.248 NA
ATOM     15  C   UNL A   1      38.187  28.863  28.602  1.00  0.00     0.031 C 
ATOM     16  C   UNL A   1      42.529  26.462  29.282  1.00  0.00     0.029 A 
ATOM     17  N   UNL A   1      42.201  28.253  30.555  1.00  0.00    -0.354 N 
ATOM     18  C   UNL A   1      38.583  30.647  29.962  1.00  0.00     0.074 A 
ATOM     19  C   UNL A   1      37.719  30.041  28.977  1.00  0.00     0.031 C 
ATOM     20  C   UNL A   1      43.588  26.557  30.101  1.00  0.00     0.029 A 
ATOM     21  C   UNL A   1      43.404  27.718  30.962  1.00  0.00     0.049 A 
ATOM     22  H   UNL A   1      41.832  29.090  30.919  1.00  0.00     0.167 HD
ATOM     23  C   UNL A   1      38.317  31.814  30.594  1.00  0.00     0.037 A 
ATOM     24  C   UNL A   1      44.251  28.127  31.926  1.00  0.00     0.037 A 
ATOM     25  C   UNL A   1      39.188  32.380  31.586  1.00  0.00     0.049 A 
ATOM     26  C   UNL A   1      43.885  29.371  32.690  1.00  0.00     0.074 A 
ATOM     27  C   UNL A   1      39.043  33.553  32.299  1.00  0.00     0.029 A 
ATOM     28  N   UNL A   1      40.373  31.791  32.011  1.00  0.00    -0.354 N 
ATOM     29  N   UNL A   1      42.831  30.141  32.544  1.00  0.00    -0.248 NA
ATOM     30  C   UNL A   1      44.818  29.815  33.732  1.00  0.00     0.031 C 
ATOM     31  C   UNL A   1      40.149  33.680  33.149  1.00  0.00     0.029 A 
ATOM     32  C   UNL A   1      40.965  32.569  32.987  1.00  0.00     0.049 A 
ATOM     33  H   UNL A   1      40.737  30.943  31.667  1.00  0.00     0.167 HD
ATOM     34  C   UNL A   1      42.977  31.167  33.467  1.00  0.00     0.074 A 
ATOM     35  C   UNL A   1      44.203  30.897  34.195  1.00  0.00     0.031 C 
ATOM     36  C   UNL A   1      42.187  32.248  33.684  1.00  0.00     0.037 A 
BRANCH  23  37
ATOM     37  C   UNL A   1      37.057  32.529  30.196  1.00  0.00     0.058 A 
ATOM     38  C   UNL A   1      37.039  33.456  29.141  1.00  0.00     0.135 A 
ATOM     39  C   UNL A   1      35.870  32.341  30.922  1.00  0.00     0.135 A 
ATOM     40  F   UNL A   1      38.155  33.698  28.434  1.00  0.00    -0.206 F 
ATOM     41  C   UNL A   1      35.903  34.204  28.849  1.00  0.00     0.059 A 
ATOM     42  C   UNL A   1      34.715  33.060  30.630  1.00  0.00     0.059 A 
ATOM     43  F   UNL A   1      35.833  31.475  31.947  1.00  0.00    -0.206 F 
ATOM     44  C   UNL A   1      34.749  34.008  29.606  1.00  0.00     0.060 A 
BRANCH  44  45
ATOM     45  S   UNL A   1      33.295  35.015  29.244  1.00  0.00     0.124 S 
ATOM     46  O   UNL A   1      32.643  35.065  30.549  1.00  0.00    -0.237 OA
ATOM     47  O   UNL A   1      33.887  36.268  28.785  1.00  0.00    -0.237 OA
ATOM     48  O   UNL A   1      32.595  34.245  28.221  1.00  0.00    -0.744 OA
ENDBRANCH  44  45
ENDBRANCH  23  37
BRANCH  24  49
ATOM     49  C   UNL A   1      45.489  27.354  32.231  1.00  0.00     0.058 A 
ATOM     50  C   UNL A   1      46.696  27.630  31.569  1.00  0.00     0.135 A 
ATOM     51  C   UNL A   1      45.504  26.343  33.205  1.00  0.00     0.135 A 
ATOM     52  F   UNL A   1      46.742  28.583  30.627  1.00  0.00    -0.206 F 
ATOM     53  C   UNL A   1      47.865  26.925  31.850  1.00  0.00     0.059 A 
ATOM     54  C   UNL A   1      46.665  25.642  33.522  1.00  0.00     0.059 A 
ATOM     55  F   UNL A   1      44.382  26.044  33.879  1.00  0.00    -0.206 F 
ATOM     56  C   UNL A   1      47.840  25.932  32.830  1.00  0.00     0.060 A 
BRANCH  56  57
ATOM     57  S   UNL A   1      49.371  25.055  33.222  1.00  0.00     0.124 S 
ATOM     58  O   UNL A   1      49.927  24.827  31.893  1.00  0.00    -0.237 OA
ATOM     59  O   UNL A   1      50.082  26.025  34.051  1.00  0.00    -0.237 OA
ATOM     60  O   UNL A   1      48.907  23.863  33.926  1.00  0.00    -0.744 OA
ENDBRANCH  56  57
ENDBRANCH  24  49
BRANCH  36  61
ATOM     61  C   UNL A   1      42.628  33.201  34.752  1.00  0.00     0.058 A 
ATOM     62  C   UNL A   1      43.475  34.280  34.458  1.00  0.00     0.135 A 
ATOM     63  C   UNL A   1      42.146  33.070  36.062  1.00  0.00     0.135 A 
ATOM     64  F   UNL A   1      43.962  34.439  33.218  1.00  0.00    -0.206 F 
ATOM     65  C   UNL A   1      43.842  35.194  35.438  1.00  0.00     0.059 A 
ATOM     66  C   UNL A   1      42.484  33.984  37.053  1.00  0.00     0.059 A 
ATOM     67  F   UNL A   1      41.325  32.057  36.383  1.00  0.00    -0.206 F 
ATOM     68  C   UNL A   1      43.340  35.038  36.731  1.00  0.00     0.060 A 
BRANCH  68  69
ATOM     69  S   UNL A   1      43.788  36.255  37.986  1.00  0.00     0.124 S 
ATOM     70  O   UNL A   1      42.485  36.811  38.332  1.00  0.00    -0.237 OA
ATOM     71  O   UNL A   1      44.420  35.431  39.012  1.00  0.00    -0.237 OA
ATOM     72  O   UNL A   1      44.689  37.156  37.274  1.00  0.00    -0.744 OA
ENDBRANCH  68  69
ENDBRANCH  36  61
ENDBRANCH  10  11
ENDBRANCH   3   5
ENDBRANCH   2   3
ENDBRANCH   1   2
BRANCH   1  73
ATOM     73  C   UNL A   1      36.457  23.040  23.506  1.00  0.00     0.275 C 
BRANCH  73  74
ATOM     74  O   UNL A   1      35.430  23.970  23.146  1.00  0.00    -0.458 OA
BRANCH  74  75
ATOM     75  C   UNL A   1      34.176  23.460  23.000  1.00  0.00     0.344 C 
ATOM     76  O   UNL A   1      33.666  23.185  21.915  1.00  0.00    -0.246 OA
BRANCH  75  77
ATOM     77  C   UNL A   1      33.507  23.274  24.259  1.00  0.00     0.133 A 
ATOM     78  C   UNL A   1      33.153  22.063  24.925  1.00  0.00     0.128 A 
ATOM     79  C   UNL A   1      32.978  24.270  25.060  1.00  0.00     0.177 A 
ATOM     80  N   UNL A   1      32.499  22.330  26.065  1.00  0.00    -0.079 NA
ATOM     81  O   UNL A   1      32.404  23.699  26.151  1.00  0.00    -0.357 OA
BRANCH  78  82
ATOM     82  C   UNL A   1      33.391  20.675  24.532  1.00  0.00     0.005 A 
ATOM     83  C   UNL A   1      34.556  19.998  24.911  1.00  0.00     0.012 A 
ATOM     84  C   UNL A   1      32.428  19.986  23.783  1.00  0.00     0.012 A 
ATOM     85  C   UNL A   1      34.744  18.652  24.589  1.00  0.00     0.021 A 
ATOM     86  C   UNL A   1      32.627  18.647  23.429  1.00  0.00     0.021 A 
ATOM     87  C   UNL A   1      33.780  17.984  23.845  1.00  0.00     0.041 A 
ATOM     88  Cl  UNL A   1      34.017  16.332  23.428  1.00  0.00    -0.084 Cl
ENDBRANCH  78  82
BRANCH  79  89
ATOM     89  C   UNL A   1      32.835  25.743  24.934  1.00  0.00     0.242 C 
BRANCH  89  90
ATOM     90  O   UNL A   1      31.951  26.041  23.872  1.00  0.00    -0.345 OA
BRANCH  90  91
ATOM     91  C   UNL A   1      32.103  27.232  23.109  1.00  0.00     0.250 C 
ATOM     92  C   UNL A   1      32.445  28.566  23.793  1.00  0.00     0.062 C 
ATOM     93  O   UNL A   1      31.001  27.413  22.217  1.00  0.00    -0.353 OA
ATOM     94  C   UNL A   1      31.237  29.275  24.401  1.00  0.00     0.008 C 
ATOM     95  C   UNL A   1      29.824  27.895  22.846  1.00  0.00     0.163 C 
ATOM     96  C   UNL A   1      30.062  29.279  23.434  1.00  0.00     0.029 C 
ENDBRANCH  90  91
ENDBRANCH  89  90
ENDBRANCH  79  89
ENDBRANCH  75  77
ENDBRANCH  74  75
ENDBRANCH  73  74
ENDBRANCH   1  73
TORSDOF 18
ENDMDL
