MODEL 1
REMARK VINA RESULT:     -11.3      0.000      0.000
REMARK SMILES O=C(OCCOC(=O)[C@H]1C[N@H+](Cc2ccc(Cl)c(Cl)c2)CC12CCCCC2)c1ccc(-c2c3nc(c(-c4c(F)cc(S(=O)(=O)[O-])cc4F)c4ccc([nH]4)c(-c4c(F)cc(S(=O)(=O)[O-])cc4F)c4nc(c(-c5c(F)cc(S(=O)(=O)[O-])cc5F)c5ccc2[nH]5)C=C4)C=C3)cc1
REMARK SMILES IDX 4 1 3 2 2 3 1 4 28 5 29 6 93 7 30 8 92 9 31 10 32 11 33 12
REMARK SMILES IDX 86 13 34 14 91 15 85 16 87 17 35 18 90 19 84 20 83 21 36 23
REMARK SMILES IDX 70 24 49 25 69 26 50 27 53 28 68 29 88 30 51 31 52 32 67 34
REMARK SMILES IDX 89 35 54 36 37 37 38 38 47 39 39 40 40 41 46 42 48 43 41 44
REMARK SMILES IDX 42 45 43 46 44 47 45 48 71 49 72 50 81 51 73 52 74 53 80 54
REMARK SMILES IDX 82 55 75 56 76 57 77 58 78 59 79 60 55 61 56 62 65 63 57 64
REMARK SMILES IDX 58 65 64 66 66 67 59 68 60 69 61 70 62 71 63 72 5 73 6 74
REMARK SMILES IDX 7 75 8 76 9 77 10 78 22 79 11 80 21 81 23 82 27 83 24 85
REMARK SMILES IDX 26 86 25 87 12 88 13 89 14 90 20 91 15 92 18 93 16 94 19 95
REMARK SMILES IDX 17 96
REMARK H PARENT 87 22 53 33 11 84
REMARK Flexibility Score: inf
ROOT
ATOM      1  C   UNL A   1      32.360  29.044  27.237  1.00  0.00     0.275 C 
ENDROOT
BRANCH   1   2
ATOM      2  O   UNL A   1      33.677  29.575  27.045  1.00  0.00    -0.458 OA
BRANCH   2   3
ATOM      3  C   UNL A   1      34.420  30.342  27.874  1.00  0.00     0.338 C 
ATOM      4  O   UNL A   1      33.955  31.424  28.232  1.00  0.00    -0.246 OA
BRANCH   3   5
ATOM      5  C   UNL A   1      35.801  29.986  28.338  1.00  0.00     0.060 A 
ATOM      6  C   UNL A   1      36.190  29.556  29.609  1.00  0.00     0.016 A 
ATOM      7  C   UNL A   1      36.806  30.095  27.372  1.00  0.00     0.016 A 
ATOM      8  C   UNL A   1      37.513  29.185  29.886  1.00  0.00     0.010 A 
ATOM      9  C   UNL A   1      38.108  29.650  27.623  1.00  0.00     0.010 A 
ATOM     10  C   UNL A   1      38.488  29.201  28.890  1.00  0.00    -0.014 A 
BRANCH  10  11
ATOM     11  C   UNL A   1      39.900  28.823  29.170  1.00  0.00     0.031 A 
ATOM     12  C   UNL A   1      40.866  29.891  29.632  1.00  0.00     0.074 A 
ATOM     13  C   UNL A   1      40.341  27.575  28.895  1.00  0.00     0.049 A 
ATOM     14  N   UNL A   1      42.166  29.836  29.762  1.00  0.00    -0.248 NA
ATOM     15  C   UNL A   1      40.299  31.223  29.912  1.00  0.00     0.031 C 
ATOM     16  C   UNL A   1      39.547  26.497  28.287  1.00  0.00     0.029 A 
ATOM     17  N   UNL A   1      41.600  27.031  28.986  1.00  0.00    -0.354 N 
ATOM     18  C   UNL A   1      42.559  31.129  30.100  1.00  0.00     0.074 A 
ATOM     19  C   UNL A   1      41.388  31.966  30.008  1.00  0.00     0.031 C 
ATOM     20  C   UNL A   1      40.346  25.452  28.013  1.00  0.00     0.029 A 
ATOM     21  C   UNL A   1      41.705  25.775  28.427  1.00  0.00     0.049 A 
ATOM     22  H   UNL A   1      42.358  27.496  29.410  1.00  0.00     0.167 HD
ATOM     23  C   UNL A   1      43.762  31.570  30.540  1.00  0.00     0.037 A 
ATOM     24  C   UNL A   1      42.782  24.984  28.257  1.00  0.00     0.037 A 
ATOM     25  C   UNL A   1      44.897  30.702  30.700  1.00  0.00     0.049 A 
ATOM     26  C   UNL A   1      44.096  25.449  28.825  1.00  0.00     0.074 A 
ATOM     27  C   UNL A   1      46.128  30.975  31.266  1.00  0.00     0.029 A 
ATOM     28  N   UNL A   1      44.922  29.375  30.298  1.00  0.00    -0.354 N 
ATOM     29  N   UNL A   1      44.416  26.630  29.297  1.00  0.00    -0.248 NA
ATOM     30  C   UNL A   1      45.172  24.453  28.906  1.00  0.00     0.031 C 
ATOM     31  C   UNL A   1      46.903  29.812  31.196  1.00  0.00     0.029 A 
ATOM     32  C   UNL A   1      46.137  28.805  30.627  1.00  0.00     0.049 A 
ATOM     33  H   UNL A   1      44.182  28.907  29.847  1.00  0.00     0.167 HD
ATOM     34  C   UNL A   1      45.708  26.501  29.794  1.00  0.00     0.074 A 
ATOM     35  C   UNL A   1      46.107  25.128  29.557  1.00  0.00     0.031 C 
ATOM     36  C   UNL A   1      46.488  27.425  30.409  1.00  0.00     0.037 A 
BRANCH  23  37
ATOM     37  C   UNL A   1      43.866  33.015  30.962  1.00  0.00     0.058 A 
ATOM     38  C   UNL A   1      44.320  34.004  30.069  1.00  0.00     0.135 A 
ATOM     39  C   UNL A   1      43.513  33.428  32.256  1.00  0.00     0.135 A 
ATOM     40  F   UNL A   1      44.676  33.675  28.816  1.00  0.00    -0.206 F 
ATOM     41  C   UNL A   1      44.481  35.328  30.458  1.00  0.00     0.059 A 
ATOM     42  C   UNL A   1      43.625  34.759  32.656  1.00  0.00     0.059 A 
ATOM     43  F   UNL A   1      43.063  32.537  33.153  1.00  0.00    -0.206 F 
ATOM     44  C   UNL A   1      44.130  35.698  31.755  1.00  0.00     0.060 A 
BRANCH  44  45
ATOM     45  S   UNL A   1      44.321  37.428  32.230  1.00  0.00     0.124 S 
ATOM     46  O   UNL A   1      43.493  37.495  33.432  1.00  0.00    -0.237 OA
ATOM     47  O   UNL A   1      45.760  37.534  32.449  1.00  0.00    -0.237 OA
ATOM     48  O   UNL A   1      43.811  38.158  31.074  1.00  0.00    -0.744 OA
ENDBRANCH  44  45
ENDBRANCH  23  37
BRANCH  24  49
ATOM     49  C   UNL A   1      42.660  23.644  27.622  1.00  0.00     0.058 A 
ATOM     50  C   UNL A   1      42.417  22.506  28.405  1.00  0.00     0.135 A 
ATOM     51  C   UNL A   1      42.807  23.462  26.238  1.00  0.00     0.135 A 
ATOM     52  F   UNL A   1      42.262  22.629  29.732  1.00  0.00    -0.206 F 
ATOM     53  C   UNL A   1      42.371  21.231  27.851  1.00  0.00     0.059 A 
ATOM     54  C   UNL A   1      42.746  22.197  25.656  1.00  0.00     0.059 A 
ATOM     55  F   UNL A   1      43.006  24.523  25.438  1.00  0.00    -0.206 F 
ATOM     56  C   UNL A   1      42.543  21.086  26.474  1.00  0.00     0.060 A 
BRANCH  56  57
ATOM     57  S   UNL A   1      42.472  19.420  25.776  1.00  0.00     0.124 S 
ATOM     58  O   UNL A   1      41.091  19.352  25.313  1.00  0.00    -0.237 OA
ATOM     59  O   UNL A   1      43.492  19.488  24.732  1.00  0.00    -0.237 OA
ATOM     60  O   UNL A   1      42.803  18.565  26.911  1.00  0.00    -0.744 OA
ENDBRANCH  56  57
ENDBRANCH  24  49
BRANCH  36  61
ATOM     61  C   UNL A   1      47.804  26.954  30.955  1.00  0.00     0.058 A 
ATOM     62  C   UNL A   1      47.911  26.316  32.199  1.00  0.00     0.135 A 
ATOM     63  C   UNL A   1      48.972  27.119  30.193  1.00  0.00     0.135 A 
ATOM     64  F   UNL A   1      46.823  26.144  32.966  1.00  0.00    -0.206 F 
ATOM     65  C   UNL A   1      49.139  25.889  32.687  1.00  0.00     0.059 A 
ATOM     66  C   UNL A   1      50.205  26.668  30.647  1.00  0.00     0.059 A 
ATOM     67  F   UNL A   1      48.920  27.714  28.991  1.00  0.00    -0.206 F 
ATOM     68  C   UNL A   1      50.281  26.068  31.902  1.00  0.00     0.060 A 
BRANCH  68  69
ATOM     69  S   UNL A   1      51.866  25.490  32.539  1.00  0.00     0.124 S 
ATOM     70  O   UNL A   1      52.730  25.666  31.376  1.00  0.00    -0.237 OA
ATOM     71  O   UNL A   1      52.107  26.401  33.653  1.00  0.00    -0.237 OA
ATOM     72  O   UNL A   1      51.596  24.106  32.916  1.00  0.00    -0.744 OA
ENDBRANCH  68  69
ENDBRANCH  36  61
ENDBRANCH  10  11
ENDBRANCH   3   5
ENDBRANCH   2   3
ENDBRANCH   1   2
BRANCH   1  73
ATOM     73  C   UNL A   1      32.117  27.684  26.578  1.00  0.00     0.274 C 
BRANCH  73  74
ATOM     74  O   UNL A   1      30.941  26.999  27.052  1.00  0.00    -0.462 OA
BRANCH  74  75
ATOM     75  C   UNL A   1      30.383  26.069  26.210  1.00  0.00     0.315 C 
ATOM     76  O   UNL A   1      29.189  25.974  25.987  1.00  0.00    -0.252 OA
BRANCH  75  77
ATOM     77  C   UNL A   1      31.452  25.113  25.678  1.00  0.00     0.166 C 
ATOM     78  C   UNL A   1      31.030  23.685  26.044  1.00  0.00     0.278 C 
ATOM     79  C   UNL A   1      31.739  25.099  24.135  1.00  0.00     0.038 C 
ATOM     80  N   UNL A   1      31.279  22.851  24.882  1.00  0.00    -0.330 N 
ATOM     81  C   UNL A   1      31.266  23.695  23.695  1.00  0.00     0.270 C 
ATOM     82  C   UNL A   1      31.055  26.238  23.341  1.00  0.00     0.014 C 
ATOM     83  C   UNL A   1      33.260  25.247  23.908  1.00  0.00     0.014 C 
ATOM     84  H   UNL A   1      30.505  22.195  24.773  1.00  0.00     0.348 HD
ATOM     85  C   UNL A   1      31.528  26.371  21.888  1.00  0.00     0.001 C 
ATOM     86  C   UNL A   1      33.728  25.341  22.466  1.00  0.00     0.001 C 
ATOM     87  C   UNL A   1      33.042  26.504  21.775  1.00  0.00     0.000 C 
BRANCH  80  88
ATOM     88  C   UNL A   1      32.224  21.741  24.999  1.00  0.00     0.299 C 
BRANCH  88  89
ATOM     89  C   UNL A   1      33.680  22.076  25.236  1.00  0.00     0.008 A 
ATOM     90  C   UNL A   1      34.155  22.388  26.515  1.00  0.00     0.011 A 
ATOM     91  C   UNL A   1      34.585  22.134  24.159  1.00  0.00     0.031 A 
ATOM     92  C   UNL A   1      35.464  22.854  26.682  1.00  0.00     0.022 A 
ATOM     93  C   UNL A   1      35.896  22.600  24.335  1.00  0.00     0.060 A 
ATOM     94  C   UNL A   1      36.325  23.002  25.598  1.00  0.00     0.059 A 
ATOM     95  Cl  UNL A   1      36.911  22.704  22.942  1.00  0.00    -0.083 Cl
ATOM     96  Cl  UNL A   1      37.858  23.739  25.881  1.00  0.00    -0.083 Cl
ENDBRANCH  88  89
ENDBRANCH  80  88
ENDBRANCH  75  77
ENDBRANCH  74  75
ENDBRANCH  73  74
ENDBRANCH   1  73
TORSDOF 16
ENDMDL
MODEL 2
REMARK VINA RESULT:     -11.3      1.066      1.870
REMARK SMILES O=C(OCCOC(=O)[C@H]1C[N@H+](Cc2ccc(Cl)c(Cl)c2)CC12CCCCC2)c1ccc(-c2c3nc(c(-c4c(F)cc(S(=O)(=O)[O-])cc4F)c4ccc([nH]4)c(-c4c(F)cc(S(=O)(=O)[O-])cc4F)c4nc(c(-c5c(F)cc(S(=O)(=O)[O-])cc5F)c5ccc2[nH]5)C=C4)C=C3)cc1
REMARK SMILES IDX 4 1 3 2 2 3 1 4 28 5 29 6 93 7 30 8 92 9 31 10 32 11 33 12
REMARK SMILES IDX 86 13 34 14 91 15 85 16 87 17 35 18 90 19 84 20 83 21 36 23
REMARK SMILES IDX 70 24 49 25 69 26 50 27 53 28 68 29 88 30 51 31 52 32 67 34
REMARK SMILES IDX 89 35 54 36 37 37 38 38 47 39 39 40 40 41 46 42 48 43 41 44
REMARK SMILES IDX 42 45 43 46 44 47 45 48 71 49 72 50 81 51 73 52 74 53 80 54
REMARK SMILES IDX 82 55 75 56 76 57 77 58 78 59 79 60 55 61 56 62 65 63 57 64
REMARK SMILES IDX 58 65 64 66 66 67 59 68 60 69 61 70 62 71 63 72 5 73 6 74
REMARK SMILES IDX 7 75 8 76 9 77 10 78 22 79 11 80 21 81 23 82 27 83 24 85
REMARK SMILES IDX 26 86 25 87 12 88 13 89 14 90 20 91 15 92 18 93 16 94 19 95
REMARK SMILES IDX 17 96
REMARK H PARENT 87 22 53 33 11 84
REMARK Flexibility Score: inf
ROOT
ATOM      1  C   UNL A   1      32.350  29.910  27.246  1.00  0.00     0.275 C 
ENDROOT
BRANCH   1   2
ATOM      2  O   UNL A   1      33.739  29.712  27.540  1.00  0.00    -0.458 OA
BRANCH   2   3
ATOM      3  C   UNL A   1      34.603  30.529  28.184  1.00  0.00     0.338 C 
ATOM      4  O   UNL A   1      34.245  31.684  28.410  1.00  0.00    -0.246 OA
BRANCH   3   5
ATOM      5  C   UNL A   1      35.994  30.136  28.584  1.00  0.00     0.060 A 
ATOM      6  C   UNL A   1      36.429  29.703  29.839  1.00  0.00     0.016 A 
ATOM      7  C   UNL A   1      36.954  30.211  27.571  1.00  0.00     0.016 A 
ATOM      8  C   UNL A   1      37.753  29.296  30.056  1.00  0.00     0.010 A 
ATOM      9  C   UNL A   1      38.254  29.730  27.764  1.00  0.00     0.010 A 
ATOM     10  C   UNL A   1      38.680  29.277  29.015  1.00  0.00    -0.014 A 
BRANCH  10  11
ATOM     11  C   UNL A   1      40.092  28.860  29.231  1.00  0.00     0.031 A 
ATOM     12  C   UNL A   1      41.113  29.905  29.624  1.00  0.00     0.074 A 
ATOM     13  C   UNL A   1      40.481  27.594  28.958  1.00  0.00     0.049 A 
ATOM     14  N   UNL A   1      42.415  29.812  29.690  1.00  0.00    -0.248 NA
ATOM     15  C   UNL A   1      40.601  31.259  29.907  1.00  0.00     0.031 C 
ATOM     16  C   UNL A   1      39.625  26.532  28.411  1.00  0.00     0.029 A 
ATOM     17  N   UNL A   1      41.725  27.012  28.996  1.00  0.00    -0.354 N 
ATOM     18  C   UNL A   1      42.864  31.098  29.983  1.00  0.00     0.074 A 
ATOM     19  C   UNL A   1      41.716  31.969  29.934  1.00  0.00     0.031 C 
ATOM     20  C   UNL A   1      40.377  25.457  28.118  1.00  0.00     0.029 A 
ATOM     21  C   UNL A   1      41.764  25.744  28.457  1.00  0.00     0.049 A 
ATOM     22  H   UNL A   1      42.517  27.461  29.373  1.00  0.00     0.167 HD
ATOM     23  C   UNL A   1      44.101  31.508  30.354  1.00  0.00     0.037 A 
ATOM     24  C   UNL A   1      42.806  24.918  28.248  1.00  0.00     0.037 A 
ATOM     25  C   UNL A   1      45.215  30.609  30.474  1.00  0.00     0.049 A 
ATOM     26  C   UNL A   1      44.162  25.351  28.740  1.00  0.00     0.074 A 
ATOM     27  C   UNL A   1      46.481  30.852  30.972  1.00  0.00     0.029 A 
ATOM     28  N   UNL A   1      45.179  29.274  30.096  1.00  0.00    -0.354 N 
ATOM     29  N   UNL A   1      44.541  26.529  29.173  1.00  0.00    -0.248 NA
ATOM     30  C   UNL A   1      45.209  24.324  28.787  1.00  0.00     0.031 C 
ATOM     31  C   UNL A   1      47.215  29.664  30.885  1.00  0.00     0.029 A 
ATOM     32  C   UNL A   1      46.392  28.672  30.374  1.00  0.00     0.049 A 
ATOM     33  H   UNL A   1      44.404  28.822  29.692  1.00  0.00     0.167 HD
ATOM     34  C   UNL A   1      45.851  26.369  29.608  1.00  0.00     0.074 A 
ATOM     35  C   UNL A   1      46.196  24.980  29.377  1.00  0.00     0.031 C 
ATOM     36  C   UNL A   1      46.690  27.278  30.165  1.00  0.00     0.037 A 
BRANCH  23  37
ATOM     37  C   UNL A   1      44.269  32.956  30.743  1.00  0.00     0.058 A 
ATOM     38  C   UNL A   1      44.679  33.921  29.802  1.00  0.00     0.135 A 
ATOM     39  C   UNL A   1      44.023  33.397  32.053  1.00  0.00     0.135 A 
ATOM     40  F   UNL A   1      44.933  33.564  28.532  1.00  0.00    -0.206 F 
ATOM     41  C   UNL A   1      44.899  35.246  30.156  1.00  0.00     0.059 A 
ATOM     42  C   UNL A   1      44.196  34.732  32.420  1.00  0.00     0.059 A 
ATOM     43  F   UNL A   1      43.620  32.531  32.995  1.00  0.00    -0.206 F 
ATOM     44  C   UNL A   1      44.654  35.644  31.469  1.00  0.00     0.060 A 
BRANCH  44  45
ATOM     45  S   UNL A   1      44.921  37.376  31.899  1.00  0.00     0.124 S 
ATOM     46  O   UNL A   1      45.012  37.995  30.579  1.00  0.00    -0.237 OA
ATOM     47  O   UNL A   1      43.719  37.695  32.663  1.00  0.00    -0.237 OA
ATOM     48  O   UNL A   1      46.160  37.350  32.668  1.00  0.00    -0.744 OA
ENDBRANCH  44  45
ENDBRANCH  23  37
BRANCH  24  49
ATOM     49  C   UNL A   1      42.612  23.571  27.645  1.00  0.00     0.058 A 
ATOM     50  C   UNL A   1      42.382  22.454  28.461  1.00  0.00     0.135 A 
ATOM     51  C   UNL A   1      42.677  23.362  26.259  1.00  0.00     0.135 A 
ATOM     52  F   UNL A   1      42.304  22.603  29.792  1.00  0.00    -0.206 F 
ATOM     53  C   UNL A   1      42.269  21.172  27.934  1.00  0.00     0.059 A 
ATOM     54  C   UNL A   1      42.548  22.089  25.704  1.00  0.00     0.059 A 
ATOM     55  F   UNL A   1      42.860  24.403  25.430  1.00  0.00    -0.206 F 
ATOM     56  C   UNL A   1      42.360  20.998  26.553  1.00  0.00     0.060 A 
BRANCH  56  57
ATOM     57  S   UNL A   1      42.204  19.324  25.890  1.00  0.00     0.124 S 
ATOM     58  O   UNL A   1      43.056  19.392  24.709  1.00  0.00    -0.237 OA
ATOM     59  O   UNL A   1      42.709  18.515  26.995  1.00  0.00    -0.237 OA
ATOM     60  O   UNL A   1      40.773  19.197  25.631  1.00  0.00    -0.744 OA
ENDBRANCH  56  57
ENDBRANCH  24  49
BRANCH  36  61
ATOM     61  C   UNL A   1      48.016  26.776  30.653  1.00  0.00     0.058 A 
ATOM     62  C   UNL A   1      49.176  26.852  29.869  1.00  0.00     0.135 A 
ATOM     63  C   UNL A   1      48.126  26.242  31.947  1.00  0.00     0.135 A 
ATOM     64  F   UNL A   1      49.120  27.346  28.623  1.00  0.00    -0.206 F 
ATOM     65  C   UNL A   1      50.396  26.380  30.339  1.00  0.00     0.059 A 
ATOM     66  C   UNL A   1      49.342  25.797  32.449  1.00  0.00     0.059 A 
ATOM     67  F   UNL A   1      47.045  26.158  32.740  1.00  0.00    -0.206 F 
ATOM     68  C   UNL A   1      50.468  25.855  31.631  1.00  0.00     0.060 A 
BRANCH  68  69
ATOM     69  S   UNL A   1      52.062  25.265  32.236  1.00  0.00     0.124 S 
ATOM     70  O   UNL A   1      52.187  25.999  33.491  1.00  0.00    -0.237 OA
ATOM     71  O   UNL A   1      51.837  23.829  32.359  1.00  0.00    -0.237 OA
ATOM     72  O   UNL A   1      52.992  25.660  31.183  1.00  0.00    -0.744 OA
ENDBRANCH  68  69
ENDBRANCH  36  61
ENDBRANCH  10  11
ENDBRANCH   3   5
ENDBRANCH   2   3
ENDBRANCH   1   2
BRANCH   1  73
ATOM     73  C   UNL A   1      32.010  29.940  25.754  1.00  0.00     0.274 C 
BRANCH  73  74
ATOM     74  O   UNL A   1      31.891  28.638  25.149  1.00  0.00    -0.462 OA
BRANCH  74  75
ATOM     75  C   UNL A   1      33.059  28.001  24.812  1.00  0.00     0.315 C 
ATOM     76  O   UNL A   1      34.040  28.562  24.355  1.00  0.00    -0.252 OA
BRANCH  75  77
ATOM     77  C   UNL A   1      32.920  26.488  24.992  1.00  0.00     0.166 C 
ATOM     78  C   UNL A   1      31.895  26.240  26.105  1.00  0.00     0.278 C 
ATOM     79  C   UNL A   1      32.447  25.631  23.765  1.00  0.00     0.038 C 
ATOM     80  N   UNL A   1      31.036  25.155  25.665  1.00  0.00    -0.330 N 
ATOM     81  C   UNL A   1      31.064  25.104  24.210  1.00  0.00     0.270 C 
ATOM     82  C   UNL A   1      32.392  26.400  22.424  1.00  0.00     0.014 C 
ATOM     83  C   UNL A   1      33.429  24.456  23.567  1.00  0.00     0.014 C 
ATOM     84  H   UNL A   1      30.073  25.368  25.925  1.00  0.00     0.348 HD
ATOM     85  C   UNL A   1      32.170  25.512  21.192  1.00  0.00     0.001 C 
ATOM     86  C   UNL A   1      33.184  23.556  22.368  1.00  0.00     0.001 C 
ATOM     87  C   UNL A   1      33.187  24.381  21.095  1.00  0.00     0.000 C 
BRANCH  80  88
ATOM     88  C   UNL A   1      30.994  23.924  26.454  1.00  0.00     0.299 C 
BRANCH  88  89
ATOM     89  C   UNL A   1      32.074  22.893  26.215  1.00  0.00     0.008 A 
ATOM     90  C   UNL A   1      33.346  23.028  26.783  1.00  0.00     0.011 A 
ATOM     91  C   UNL A   1      31.839  21.794  25.367  1.00  0.00     0.031 A 
ATOM     92  C   UNL A   1      34.375  22.154  26.414  1.00  0.00     0.022 A 
ATOM     93  C   UNL A   1      32.874  20.921  25.003  1.00  0.00     0.060 A 
ATOM     94  C   UNL A   1      34.160  21.127  25.499  1.00  0.00     0.059 A 
ATOM     95  Cl  UNL A   1      32.505  19.645  23.900  1.00  0.00    -0.083 Cl
ATOM     96  Cl  UNL A   1      35.525  20.208  24.982  1.00  0.00    -0.083 Cl
ENDBRANCH  88  89
ENDBRANCH  80  88
ENDBRANCH  75  77
ENDBRANCH  74  75
ENDBRANCH  73  74
ENDBRANCH   1  73
TORSDOF 16
ENDMDL
MODEL 3
REMARK VINA RESULT:     -11.2      2.800      3.765
REMARK SMILES O=C(OCCOC(=O)[C@H]1C[N@H+](Cc2ccc(Cl)c(Cl)c2)CC12CCCCC2)c1ccc(-c2c3nc(c(-c4c(F)cc(S(=O)(=O)[O-])cc4F)c4ccc([nH]4)c(-c4c(F)cc(S(=O)(=O)[O-])cc4F)c4nc(c(-c5c(F)cc(S(=O)(=O)[O-])cc5F)c5ccc2[nH]5)C=C4)C=C3)cc1
REMARK SMILES IDX 4 1 3 2 2 3 1 4 28 5 29 6 93 7 30 8 92 9 31 10 32 11 33 12
REMARK SMILES IDX 86 13 34 14 91 15 85 16 87 17 35 18 90 19 84 20 83 21 36 23
REMARK SMILES IDX 70 24 49 25 69 26 50 27 53 28 68 29 88 30 51 31 52 32 67 34
REMARK SMILES IDX 89 35 54 36 37 37 38 38 47 39 39 40 40 41 46 42 48 43 41 44
REMARK SMILES IDX 42 45 43 46 44 47 45 48 71 49 72 50 81 51 73 52 74 53 80 54
REMARK SMILES IDX 82 55 75 56 76 57 77 58 78 59 79 60 55 61 56 62 65 63 57 64
REMARK SMILES IDX 58 65 64 66 66 67 59 68 60 69 61 70 62 71 63 72 5 73 6 74
REMARK SMILES IDX 7 75 8 76 9 77 10 78 22 79 11 80 21 81 23 82 27 83 24 85
REMARK SMILES IDX 26 86 25 87 12 88 13 89 14 90 20 91 15 92 18 93 16 94 19 95
REMARK SMILES IDX 17 96
REMARK H PARENT 87 22 53 33 11 84
REMARK Flexibility Score: inf
ROOT
ATOM      1  C   UNL A   1      32.346  29.943  25.827  1.00  0.00     0.275 C 
ENDROOT
BRANCH   1   2
ATOM      2  O   UNL A   1      33.298  29.761  26.882  1.00  0.00    -0.458 OA
BRANCH   2   3
ATOM      3  C   UNL A   1      34.273  30.594  27.310  1.00  0.00     0.338 C 
ATOM      4  O   UNL A   1      34.083  31.805  27.205  1.00  0.00    -0.246 OA
BRANCH   3   5
ATOM      5  C   UNL A   1      35.595  30.136  27.849  1.00  0.00     0.060 A 
ATOM      6  C   UNL A   1      36.827  30.126  27.190  1.00  0.00     0.016 A 
ATOM      7  C   UNL A   1      35.579  29.673  29.168  1.00  0.00     0.016 A 
ATOM      8  C   UNL A   1      38.006  29.736  27.841  1.00  0.00     0.010 A 
ATOM      9  C   UNL A   1      36.763  29.361  29.843  1.00  0.00     0.010 A 
ATOM     10  C   UNL A   1      37.996  29.373  29.187  1.00  0.00    -0.014 A 
BRANCH  10  11
ATOM     11  C   UNL A   1      39.236  28.944  29.891  1.00  0.00     0.031 A 
ATOM     12  C   UNL A   1      39.733  29.762  31.063  1.00  0.00     0.074 A 
ATOM     13  C   UNL A   1      39.973  27.917  29.414  1.00  0.00     0.049 A 
ATOM     14  N   UNL A   1      40.868  29.687  31.707  1.00  0.00    -0.248 NA
ATOM     15  C   UNL A   1      38.865  30.863  31.520  1.00  0.00     0.031 C 
ATOM     16  C   UNL A   1      39.689  27.151  28.191  1.00  0.00     0.029 A 
ATOM     17  N   UNL A   1      41.177  27.407  29.836  1.00  0.00    -0.354 N 
ATOM     18  C   UNL A   1      40.853  30.749  32.608  1.00  0.00     0.074 A 
ATOM     19  C   UNL A   1      39.674  31.530  32.325  1.00  0.00     0.031 C 
ATOM     20  C   UNL A   1      40.712  26.316  27.938  1.00  0.00     0.029 A 
ATOM     21  C   UNL A   1      41.721  26.477  28.976  1.00  0.00     0.049 A 
ATOM     22  H   UNL A   1      41.613  27.682  30.676  1.00  0.00     0.167 HD
ATOM     23  C   UNL A   1      41.690  31.005  33.643  1.00  0.00     0.037 A 
ATOM     24  C   UNL A   1      42.907  25.841  29.017  1.00  0.00     0.037 A 
ATOM     25  C   UNL A   1      42.815  30.169  33.957  1.00  0.00     0.049 A 
ATOM     26  C   UNL A   1      43.791  26.070  30.214  1.00  0.00     0.074 A 
ATOM     27  C   UNL A   1      43.660  30.221  35.050  1.00  0.00     0.029 A 
ATOM     28  N   UNL A   1      43.239  29.109  33.168  1.00  0.00    -0.354 N 
ATOM     29  N   UNL A   1      43.679  26.975  31.157  1.00  0.00    -0.248 NA
ATOM     30  C   UNL A   1      44.918  25.147  30.393  1.00  0.00     0.031 C 
ATOM     31  C   UNL A   1      44.604  29.197  34.915  1.00  0.00     0.029 A 
ATOM     32  C   UNL A   1      44.318  28.482  33.762  1.00  0.00     0.049 A 
ATOM     33  H   UNL A   1      42.831  28.843  32.313  1.00  0.00     0.167 HD
ATOM     34  C   UNL A   1      44.680  26.687  32.078  1.00  0.00     0.074 A 
ATOM     35  C   UNL A   1      45.388  25.528  31.571  1.00  0.00     0.031 C 
ATOM     36  C   UNL A   1      44.977  27.308  33.247  1.00  0.00     0.037 A 
BRANCH  23  37
ATOM     37  C   UNL A   1      41.352  32.167  34.545  1.00  0.00     0.058 A 
ATOM     38  C   UNL A   1      40.633  31.977  35.740  1.00  0.00     0.135 A 
ATOM     39  C   UNL A   1      41.740  33.477  34.228  1.00  0.00     0.135 A 
ATOM     40  F   UNL A   1      40.228  30.747  36.101  1.00  0.00    -0.206 F 
ATOM     41  C   UNL A   1      40.258  33.041  36.551  1.00  0.00     0.059 A 
ATOM     42  C   UNL A   1      41.414  34.556  35.049  1.00  0.00     0.059 A 
ATOM     43  F   UNL A   1      42.437  33.726  33.109  1.00  0.00    -0.206 F 
ATOM     44  C   UNL A   1      40.654  34.330  36.198  1.00  0.00     0.060 A 
BRANCH  44  45
ATOM     45  S   UNL A   1      40.181  35.694  37.280  1.00  0.00     0.124 S 
ATOM     46  O   UNL A   1      39.924  36.759  36.313  1.00  0.00    -0.237 OA
ATOM     47  O   UNL A   1      39.004  35.160  37.958  1.00  0.00    -0.237 OA
ATOM     48  O   UNL A   1      41.356  35.882  38.125  1.00  0.00    -0.744 OA
ENDBRANCH  44  45
ENDBRANCH  23  37
BRANCH  24  49
ATOM     49  C   UNL A   1      43.291  24.860  27.967  1.00  0.00     0.058 A 
ATOM     50  C   UNL A   1      42.913  23.513  28.080  1.00  0.00     0.135 A 
ATOM     51  C   UNL A   1      44.057  25.229  26.851  1.00  0.00     0.135 A 
ATOM     52  F   UNL A   1      42.174  23.113  29.125  1.00  0.00    -0.206 F 
ATOM     53  C   UNL A   1      43.318  22.558  27.154  1.00  0.00     0.059 A 
ATOM     54  C   UNL A   1      44.460  24.293  25.898  1.00  0.00     0.059 A 
ATOM     55  F   UNL A   1      44.416  26.511  26.675  1.00  0.00    -0.206 F 
ATOM     56  C   UNL A   1      44.098  22.957  26.068  1.00  0.00     0.060 A 
BRANCH  56  57
ATOM     57  S   UNL A   1      44.606  21.700  24.873  1.00  0.00     0.124 S 
ATOM     58  O   UNL A   1      43.633  20.643  25.124  1.00  0.00    -0.237 OA
ATOM     59  O   UNL A   1      44.462  22.412  23.607  1.00  0.00    -0.237 OA
ATOM     60  O   UNL A   1      45.980  21.400  25.263  1.00  0.00    -0.744 OA
ENDBRANCH  56  57
ENDBRANCH  24  49
BRANCH  36  61
ATOM     61  C   UNL A   1      46.044  26.687  34.099  1.00  0.00     0.058 A 
ATOM     62  C   UNL A   1      47.391  27.066  34.001  1.00  0.00     0.135 A 
ATOM     63  C   UNL A   1      45.697  25.719  35.055  1.00  0.00     0.135 A 
ATOM     64  F   UNL A   1      47.772  27.981  33.096  1.00  0.00    -0.206 F 
ATOM     65  C   UNL A   1      48.365  26.478  34.798  1.00  0.00     0.059 A 
ATOM     66  C   UNL A   1      46.650  25.144  35.886  1.00  0.00     0.059 A 
ATOM     67  F   UNL A   1      44.419  25.331  35.194  1.00  0.00    -0.206 F 
ATOM     68  C   UNL A   1      47.984  25.519  35.739  1.00  0.00     0.060 A 
BRANCH  68  69
ATOM     69  S   UNL A   1      49.255  24.779  36.783  1.00  0.00     0.124 S 
ATOM     70  O   UNL A   1      50.468  25.102  36.039  1.00  0.00    -0.237 OA
ATOM     71  O   UNL A   1      49.076  25.489  38.045  1.00  0.00    -0.237 OA
ATOM     72  O   UNL A   1      48.893  23.365  36.809  1.00  0.00    -0.744 OA
ENDBRANCH  68  69
ENDBRANCH  36  61
ENDBRANCH  10  11
ENDBRANCH   3   5
ENDBRANCH   2   3
ENDBRANCH   1   2
BRANCH   1  73
ATOM     73  C   UNL A   1      31.569  28.682  25.442  1.00  0.00     0.274 C 
BRANCH  73  74
ATOM     74  O   UNL A   1      32.230  27.856  24.464  1.00  0.00    -0.462 OA
BRANCH  74  75
ATOM     75  C   UNL A   1      31.449  26.957  23.780  1.00  0.00     0.315 C 
ATOM     76  O   UNL A   1      30.313  27.184  23.403  1.00  0.00    -0.252 OA
BRANCH  75  77
ATOM     77  C   UNL A   1      32.163  25.610  23.651  1.00  0.00     0.166 C 
ATOM     78  C   UNL A   1      33.662  25.887  23.485  1.00  0.00     0.278 C 
ATOM     79  C   UNL A   1      32.038  24.584  24.833  1.00  0.00     0.038 C 
ATOM     80  N   UNL A   1      34.371  24.934  24.321  1.00  0.00    -0.330 N 
ATOM     81  C   UNL A   1      33.478  24.500  25.387  1.00  0.00     0.270 C 
ATOM     82  C   UNL A   1      31.001  24.970  25.915  1.00  0.00     0.014 C 
ATOM     83  C   UNL A   1      31.603  23.216  24.263  1.00  0.00     0.014 C 
ATOM     84  H   UNL A   1      35.150  25.408  24.777  1.00  0.00     0.348 HD
ATOM     85  C   UNL A   1      30.704  23.859  26.932  1.00  0.00     0.001 C 
ATOM     86  C   UNL A   1      31.345  22.108  25.271  1.00  0.00     0.001 C 
ATOM     87  C   UNL A   1      30.290  22.552  26.266  1.00  0.00     0.000 C 
BRANCH  80  88
ATOM     88  C   UNL A   1      35.294  23.991  23.689  1.00  0.00     0.299 C 
BRANCH  88  89
ATOM     89  C   UNL A   1      36.335  23.329  24.564  1.00  0.00     0.008 A 
ATOM     90  C   UNL A   1      37.072  24.063  25.500  1.00  0.00     0.011 A 
ATOM     91  C   UNL A   1      36.625  21.958  24.416  1.00  0.00     0.031 A 
ATOM     92  C   UNL A   1      38.141  23.463  26.176  1.00  0.00     0.022 A 
ATOM     93  C   UNL A   1      37.697  21.364  25.099  1.00  0.00     0.060 A 
ATOM     94  C   UNL A   1      38.485  22.132  25.953  1.00  0.00     0.059 A 
ATOM     95  Cl  UNL A   1      38.021  19.695  24.799  1.00  0.00    -0.083 Cl
ATOM     96  Cl  UNL A   1      39.916  21.532  26.706  1.00  0.00    -0.083 Cl
ENDBRANCH  88  89
ENDBRANCH  80  88
ENDBRANCH  75  77
ENDBRANCH  74  75
ENDBRANCH  73  74
ENDBRANCH   1  73
TORSDOF 16
ENDMDL
