MODEL 1
REMARK VINA RESULT:     -11.4      0.000      0.000
REMARK SMILES Cc1cc(OC(F)(F)F)cc2c1O[C@H](C(F)(F)F)C(C(=O)OCCOC(=O)c1ccc(-c3c4nc(c(-c5c(F)cc(S(=O)(=O)[O-])cc5F)c5ccc([nH]5)c(-c5c(F)cc(S(=O)(=O)[O-])cc5F)c5nc(c(-c6c(F)cc(S(=O)(=O)[O-])cc6F)c6ccc3[nH]6)C=C5)C=C4)cc1)=C2
REMARK SMILES IDX 24 1 23 2 22 3 20 4 21 5 19 6 1 7 2 8 3 9 12 10 4 11 11 12
REMARK SMILES IDX 13 13 10 14 94 15 14 16 5 17 6 18 7 19 8 20 9 21 15 22 16 23
REMARK SMILES IDX 17 24 18 25 25 26 26 27 27 28 28 29 29 30 93 31 30 32 92 33
REMARK SMILES IDX 31 34 32 35 33 36 86 37 34 38 91 39 85 40 87 41 35 42 90 43
REMARK SMILES IDX 84 44 83 45 36 47 70 48 49 49 69 50 50 51 53 52 68 53 88 54
REMARK SMILES IDX 51 55 52 56 67 58 89 59 54 60 37 61 38 62 47 63 39 64 40 65
REMARK SMILES IDX 46 66 48 67 41 68 42 69 43 70 44 71 45 72 71 73 72 74 81 75
REMARK SMILES IDX 73 76 74 77 80 78 82 79 75 80 76 81 77 82 78 83 79 84 55 85
REMARK SMILES IDX 56 86 65 87 57 88 58 89 64 90 66 91 59 92 60 93 61 94 62 95
REMARK SMILES IDX 63 96
REMARK H PARENT 87 46 53 57
REMARK Flexibility Score: inf
ROOT
ATOM      1  C   UNL A   1      32.519  30.117  27.147  1.00  0.00     0.275 C 
ENDROOT
BRANCH   1   2
ATOM      2  C   UNL A   1      32.218  29.793  25.684  1.00  0.00     0.275 C 
BRANCH   2   3
ATOM      3  O   UNL A   1      32.219  28.369  25.454  1.00  0.00    -0.459 OA
BRANCH   3   4
ATOM      4  C   UNL A   1      33.261  27.903  24.726  1.00  0.00     0.338 C 
ATOM      5  O   UNL A   1      34.139  28.568  24.207  1.00  0.00    -0.246 OA
BRANCH   4   6
ATOM      6  C   UNL A   1      33.207  26.432  24.634  1.00  0.00     0.087 C 
ATOM      7  C   UNL A   1      32.292  21.607  23.156  1.00  0.00     0.048 C 
ATOM      8  C   UNL A   1      33.342  22.307  23.972  1.00  0.00    -0.005 A 
ATOM      9  C   UNL A   1      34.418  21.568  24.501  1.00  0.00     0.054 A 
ATOM     10  C   UNL A   1      33.248  23.681  24.241  1.00  0.00     0.131 A 
ATOM     11  C   UNL A   1      35.398  22.187  25.278  1.00  0.00     0.130 A 
ATOM     12  C   UNL A   1      34.231  24.302  25.009  1.00  0.00     0.021 A 
ATOM     13  O   UNL A   1      32.161  24.350  23.745  1.00  0.00    -0.475 OA
ATOM     14  C   UNL A   1      35.294  23.554  25.532  1.00  0.00     0.058 A 
ATOM     15  C   UNL A   1      34.177  25.732  25.232  1.00  0.00     0.027 C 
ATOM     16  C   UNL A   1      32.159  25.804  23.767  1.00  0.00     0.316 C 
BRANCH  11  17
ATOM     17  O   UNL A   1      36.492  21.595  25.839  1.00  0.00    -0.406 OA
BRANCH  17  18
ATOM     18  C   UNL A   1      37.586  21.280  24.997  1.00  0.00     0.573 C 
ATOM     19  F   UNL A   1      38.750  21.710  25.533  1.00  0.00    -0.132 F 
ATOM     20  F   UNL A   1      37.663  19.949  24.780  1.00  0.00    -0.132 F 
ATOM     21  F   UNL A   1      37.419  21.890  23.804  1.00  0.00    -0.132 F 
ENDBRANCH  17  18
ENDBRANCH  11  17
BRANCH  16  22
ATOM     22  C   UNL A   1      32.238  26.324  22.322  1.00  0.00     0.430 C 
ATOM     23  F   UNL A   1      33.525  26.448  21.914  1.00  0.00    -0.167 F 
ATOM     24  F   UNL A   1      31.644  25.471  21.451  1.00  0.00    -0.167 F 
ATOM     25  F   UNL A   1      31.647  27.530  22.175  1.00  0.00    -0.167 F 
ENDBRANCH  16  22
ENDBRANCH   4   6
ENDBRANCH   3   4
ENDBRANCH   2   3
ENDBRANCH   1   2
BRANCH   1  26
ATOM     26  O   UNL A   1      33.823  29.637  27.513  1.00  0.00    -0.458 OA
BRANCH  26  27
ATOM     27  C   UNL A   1      34.604  30.527  28.166  1.00  0.00     0.338 C 
ATOM     28  O   UNL A   1      34.267  31.598  28.644  1.00  0.00    -0.246 OA
BRANCH  27  29
ATOM     29  C   UNL A   1      35.969  29.999  28.277  1.00  0.00     0.060 A 
ATOM     30  C   UNL A   1      36.399  29.486  29.498  1.00  0.00     0.016 A 
ATOM     31  C   UNL A   1      36.866  30.140  27.220  1.00  0.00     0.016 A 
ATOM     32  C   UNL A   1      37.749  29.236  29.709  1.00  0.00     0.010 A 
ATOM     33  C   UNL A   1      38.201  29.757  27.394  1.00  0.00     0.010 A 
ATOM     34  C   UNL A   1      38.665  29.338  28.652  1.00  0.00    -0.014 A 
BRANCH  34  35
ATOM     35  C   UNL A   1      40.094  28.990  28.886  1.00  0.00     0.031 A 
ATOM     36  C   UNL A   1      41.027  29.975  29.541  1.00  0.00     0.074 A 
ATOM     37  C   UNL A   1      40.537  27.764  28.538  1.00  0.00     0.049 A 
ATOM     38  N   UNL A   1      42.308  29.860  29.780  1.00  0.00    -0.248 NA
ATOM     39  C   UNL A   1      40.452  31.258  29.980  1.00  0.00     0.031 C 
ATOM     40  C   UNL A   1      39.719  26.718  27.917  1.00  0.00     0.029 A 
ATOM     41  N   UNL A   1      41.769  27.175  28.675  1.00  0.00    -0.354 N 
ATOM     42  C   UNL A   1      42.697  31.058  30.370  1.00  0.00     0.074 A 
ATOM     43  C   UNL A   1      41.523  31.900  30.427  1.00  0.00     0.031 C 
ATOM     44  C   UNL A   1      40.449  25.601  27.789  1.00  0.00     0.029 A 
ATOM     45  C   UNL A   1      41.809  25.872  28.235  1.00  0.00     0.049 A 
ATOM     46  H   UNL A   1      42.549  27.640  29.054  1.00  0.00     0.167 HD
ATOM     47  C   UNL A   1      43.918  31.414  30.835  1.00  0.00     0.037 A 
ATOM     48  C   UNL A   1      42.831  24.995  28.171  1.00  0.00     0.037 A 
ATOM     49  C   UNL A   1      45.072  30.550  30.799  1.00  0.00     0.049 A 
ATOM     50  C   UNL A   1      44.187  25.432  28.644  1.00  0.00     0.074 A 
ATOM     51  C   UNL A   1      46.355  30.814  31.246  1.00  0.00     0.029 A 
ATOM     52  N   UNL A   1      45.080  29.256  30.297  1.00  0.00    -0.354 N 
ATOM     53  N   UNL A   1      44.539  26.577  29.180  1.00  0.00    -0.248 NA
ATOM     54  C   UNL A   1      45.290  24.475  28.491  1.00  0.00     0.031 C 
ATOM     55  C   UNL A   1      47.149  29.698  30.974  1.00  0.00     0.029 A 
ATOM     56  C   UNL A   1      46.350  28.716  30.407  1.00  0.00     0.049 A 
ATOM     57  H   UNL A   1      44.299  28.791  29.920  1.00  0.00     0.167 HD
ATOM     58  C   UNL A   1      45.897  26.471  29.446  1.00  0.00     0.074 A 
ATOM     59  C   UNL A   1      46.304  25.147  29.021  1.00  0.00     0.031 C 
ATOM     60  C   UNL A   1      46.731  27.388  29.991  1.00  0.00     0.037 A 
BRANCH  47  61
ATOM     61  C   UNL A   1      44.084  32.794  31.412  1.00  0.00     0.058 A 
ATOM     62  C   UNL A   1      43.924  33.045  32.783  1.00  0.00     0.135 A 
ATOM     63  C   UNL A   1      44.469  33.869  30.592  1.00  0.00     0.135 A 
ATOM     64  F   UNL A   1      43.542  32.059  33.611  1.00  0.00    -0.206 F 
ATOM     65  C   UNL A   1      44.120  34.315  33.319  1.00  0.00     0.059 A 
ATOM     66  C   UNL A   1      44.697  35.141  31.110  1.00  0.00     0.059 A 
ATOM     67  F   UNL A   1      44.638  33.685  29.273  1.00  0.00    -0.206 F 
ATOM     68  C   UNL A   1      44.510  35.356  32.474  1.00  0.00     0.060 A 
BRANCH  68  69
ATOM     69  S   UNL A   1      44.770  36.993  33.191  1.00  0.00     0.124 S 
ATOM     70  O   UNL A   1      45.525  36.667  34.397  1.00  0.00    -0.237 OA
ATOM     71  O   UNL A   1      45.519  37.676  32.142  1.00  0.00    -0.237 OA
ATOM     72  O   UNL A   1      43.415  37.487  33.416  1.00  0.00    -0.744 OA
ENDBRANCH  68  69
ENDBRANCH  47  61
BRANCH  48  73
ATOM     73  C   UNL A   1      42.597  23.626  27.638  1.00  0.00     0.058 A 
ATOM     74  C   UNL A   1      42.630  23.373  26.259  1.00  0.00     0.135 A 
ATOM     75  C   UNL A   1      42.385  22.534  28.496  1.00  0.00     0.135 A 
ATOM     76  F   UNL A   1      42.821  24.383  25.397  1.00  0.00    -0.206 F 
ATOM     77  C   UNL A   1      42.462  22.089  25.749  1.00  0.00     0.059 A 
ATOM     78  C   UNL A   1      42.243  21.237  28.012  1.00  0.00     0.059 A 
ATOM     79  F   UNL A   1      42.359  22.718  29.826  1.00  0.00    -0.206 F 
ATOM     80  C   UNL A   1      42.277  21.026  26.635  1.00  0.00     0.060 A 
BRANCH  80  81
ATOM     81  S   UNL A   1      42.122  19.356  25.964  1.00  0.00     0.124 S 
ATOM     82  O   UNL A   1      42.620  18.548  27.071  1.00  0.00    -0.237 OA
ATOM     83  O   UNL A   1      40.688  19.265  25.702  1.00  0.00    -0.237 OA
ATOM     84  O   UNL A   1      42.969  19.390  24.776  1.00  0.00    -0.744 OA
ENDBRANCH  80  81
ENDBRANCH  48  73
BRANCH  60  85
ATOM     85  C   UNL A   1      48.167  27.000  30.193  1.00  0.00     0.058 A 
ATOM     86  C   UNL A   1      49.157  27.354  29.265  1.00  0.00     0.135 A 
ATOM     87  C   UNL A   1      48.572  26.381  31.387  1.00  0.00     0.135 A 
ATOM     88  F   UNL A   1      48.819  27.936  28.105  1.00  0.00    -0.206 F 
ATOM     89  C   UNL A   1      50.504  27.119  29.520  1.00  0.00     0.059 A 
ATOM     90  C   UNL A   1      49.914  26.159  31.674  1.00  0.00     0.059 A 
ATOM     91  F   UNL A   1      47.661  26.029  32.308  1.00  0.00    -0.206 F 
ATOM     92  C   UNL A   1      50.874  26.535  30.735  1.00  0.00     0.060 A 
BRANCH  92  93
ATOM     93  S   UNL A   1      52.631  26.331  31.091  1.00  0.00     0.124 S 
ATOM     94  O   UNL A   1      52.921  27.540  31.855  1.00  0.00    -0.237 OA
ATOM     95  O   UNL A   1      52.650  25.083  31.849  1.00  0.00    -0.237 OA
ATOM     96  O   UNL A   1      53.242  26.263  29.767  1.00  0.00    -0.744 OA
ENDBRANCH  92  93
ENDBRANCH  60  85
ENDBRANCH  34  35
ENDBRANCH  27  29
ENDBRANCH  26  27
ENDBRANCH   1  26
TORSDOF 17
ENDMDL
MODEL 2
REMARK VINA RESULT:     -11.3      5.012     10.019
REMARK SMILES Cc1cc(OC(F)(F)F)cc2c1O[C@H](C(F)(F)F)C(C(=O)OCCOC(=O)c1ccc(-c3c4nc(c(-c5c(F)cc(S(=O)(=O)[O-])cc5F)c5ccc([nH]5)c(-c5c(F)cc(S(=O)(=O)[O-])cc5F)c5nc(c(-c6c(F)cc(S(=O)(=O)[O-])cc6F)c6ccc3[nH]6)C=C5)C=C4)cc1)=C2
REMARK SMILES IDX 24 1 23 2 22 3 20 4 21 5 19 6 1 7 2 8 3 9 12 10 4 11 11 12
REMARK SMILES IDX 13 13 10 14 94 15 14 16 5 17 6 18 7 19 8 20 9 21 15 22 16 23
REMARK SMILES IDX 17 24 18 25 25 26 26 27 27 28 28 29 29 30 93 31 30 32 92 33
REMARK SMILES IDX 31 34 32 35 33 36 86 37 34 38 91 39 85 40 87 41 35 42 90 43
REMARK SMILES IDX 84 44 83 45 36 47 70 48 49 49 69 50 50 51 53 52 68 53 88 54
REMARK SMILES IDX 51 55 52 56 67 58 89 59 54 60 37 61 38 62 47 63 39 64 40 65
REMARK SMILES IDX 46 66 48 67 41 68 42 69 43 70 44 71 45 72 71 73 72 74 81 75
REMARK SMILES IDX 73 76 74 77 80 78 82 79 75 80 76 81 77 82 78 83 79 84 55 85
REMARK SMILES IDX 56 86 65 87 57 88 58 89 64 90 66 91 59 92 60 93 61 94 62 95
REMARK SMILES IDX 63 96
REMARK H PARENT 87 46 53 57
REMARK Flexibility Score: inf
ROOT
ATOM      1  C   UNL A   1      39.584  22.705  26.475  1.00  0.00     0.275 C 
ENDROOT
BRANCH   1   2
ATOM      2  C   UNL A   1      38.369  22.112  25.763  1.00  0.00     0.275 C 
BRANCH   2   3
ATOM      3  O   UNL A   1      37.375  23.124  25.496  1.00  0.00    -0.459 OA
BRANCH   3   4
ATOM      4  C   UNL A   1      36.574  22.878  24.433  1.00  0.00     0.338 C 
ATOM      5  O   UNL A   1      36.900  22.351  23.385  1.00  0.00    -0.246 OA
BRANCH   4   6
ATOM      6  C   UNL A   1      35.201  23.340  24.706  1.00  0.00     0.087 C 
ATOM      7  C   UNL A   1      30.320  23.682  26.243  1.00  0.00     0.048 C 
ATOM      8  C   UNL A   1      31.434  24.650  25.958  1.00  0.00    -0.005 A 
ATOM      9  C   UNL A   1      31.222  26.028  26.148  1.00  0.00     0.054 A 
ATOM     10  C   UNL A   1      32.672  24.200  25.475  1.00  0.00     0.131 A 
ATOM     11  C   UNL A   1      32.231  26.953  25.874  1.00  0.00     0.130 A 
ATOM     12  C   UNL A   1      33.684  25.121  25.210  1.00  0.00     0.021 A 
ATOM     13  O   UNL A   1      32.819  22.856  25.263  1.00  0.00    -0.475 OA
ATOM     14  C   UNL A   1      33.459  26.490  25.400  1.00  0.00     0.058 A 
ATOM     15  C   UNL A   1      34.987  24.658  24.778  1.00  0.00     0.027 C 
ATOM     16  C   UNL A   1      34.149  22.321  25.025  1.00  0.00     0.316 C 
BRANCH  11  17
ATOM     17  O   UNL A   1      32.163  28.307  26.024  1.00  0.00    -0.406 OA
BRANCH  17  18
ATOM     18  C   UNL A   1      32.171  28.836  27.338  1.00  0.00     0.573 C 
ATOM     19  F   UNL A   1      31.168  28.312  28.077  1.00  0.00    -0.132 F 
ATOM     20  F   UNL A   1      33.349  28.588  27.952  1.00  0.00    -0.132 F 
ATOM     21  F   UNL A   1      32.001  30.173  27.280  1.00  0.00    -0.132 F 
ENDBRANCH  17  18
ENDBRANCH  11  17
BRANCH  16  22
ATOM     22  C   UNL A   1      34.557  21.448  26.222  1.00  0.00     0.430 C 
ATOM     23  F   UNL A   1      33.499  20.750  26.705  1.00  0.00    -0.167 F 
ATOM     24  F   UNL A   1      35.491  20.528  25.875  1.00  0.00    -0.167 F 
ATOM     25  F   UNL A   1      35.063  22.175  27.243  1.00  0.00    -0.167 F 
ENDBRANCH  16  22
ENDBRANCH   4   6
ENDBRANCH   3   4
ENDBRANCH   2   3
ENDBRANCH   1   2
BRANCH   1  26
ATOM     26  O   UNL A   1      39.538  24.142  26.442  1.00  0.00    -0.458 OA
BRANCH  26  27
ATOM     27  C   UNL A   1      40.709  24.763  26.706  1.00  0.00     0.338 C 
ATOM     28  O   UNL A   1      41.798  24.537  26.204  1.00  0.00    -0.246 OA
BRANCH  27  29
ATOM     29  C   UNL A   1      40.491  25.832  27.689  1.00  0.00     0.060 A 
ATOM     30  C   UNL A   1      41.404  26.880  27.763  1.00  0.00     0.016 A 
ATOM     31  C   UNL A   1      39.466  25.726  28.628  1.00  0.00     0.016 A 
ATOM     32  C   UNL A   1      41.379  27.748  28.847  1.00  0.00     0.010 A 
ATOM     33  C   UNL A   1      39.361  26.685  29.642  1.00  0.00     0.010 A 
ATOM     34  C   UNL A   1      40.339  27.683  29.785  1.00  0.00    -0.014 A 
BRANCH  34  35
ATOM     35  C   UNL A   1      40.292  28.674  30.896  1.00  0.00     0.031 A 
ATOM     36  C   UNL A   1      39.284  29.793  30.884  1.00  0.00     0.074 A 
ATOM     37  C   UNL A   1      41.140  28.536  31.936  1.00  0.00     0.049 A 
ATOM     38  N   UNL A   1      39.130  30.770  31.741  1.00  0.00    -0.248 NA
ATOM     39  C   UNL A   1      38.328  29.828  29.764  1.00  0.00     0.031 C 
ATOM     40  C   UNL A   1      42.144  27.476  32.069  1.00  0.00     0.029 A 
ATOM     41  N   UNL A   1      41.282  29.264  33.090  1.00  0.00    -0.354 N 
ATOM     42  C   UNL A   1      38.084  31.546  31.254  1.00  0.00     0.074 A 
ATOM     43  C   UNL A   1      37.657  30.945  30.010  1.00  0.00     0.031 C 
ATOM     44  C   UNL A   1      42.750  27.583  33.260  1.00  0.00     0.029 A 
ATOM     45  C   UNL A   1      42.243  28.768  33.941  1.00  0.00     0.049 A 
ATOM     46  H   UNL A   1      40.747  30.065  33.291  1.00  0.00     0.167 HD
ATOM     47  C   UNL A   1      37.522  32.649  31.804  1.00  0.00     0.037 A 
ATOM     48  C   UNL A   1      42.688  29.224  35.128  1.00  0.00     0.037 A 
ATOM     49  C   UNL A   1      37.938  33.218  33.061  1.00  0.00     0.049 A 
ATOM     50  C   UNL A   1      42.086  30.479  35.691  1.00  0.00     0.074 A 
ATOM     51  C   UNL A   1      37.433  34.333  33.707  1.00  0.00     0.029 A 
ATOM     52  N   UNL A   1      38.950  32.712  33.865  1.00  0.00    -0.354 N 
ATOM     53  N   UNL A   1      41.111  31.210  35.205  1.00  0.00    -0.248 NA
ATOM     54  C   UNL A   1      42.648  30.985  36.950  1.00  0.00     0.031 C 
ATOM     55  C   UNL A   1      38.169  34.527  34.878  1.00  0.00     0.029 A 
ATOM     56  C   UNL A   1      39.097  33.503  34.991  1.00  0.00     0.049 A 
ATOM     57  H   UNL A   1      39.484  31.911  33.665  1.00  0.00     0.167 HD
ATOM     58  C   UNL A   1      40.930  32.250  36.106  1.00  0.00     0.074 A 
ATOM     59  C   UNL A   1      41.890  32.051  37.173  1.00  0.00     0.031 C 
ATOM     60  C   UNL A   1      40.049  33.277  36.052  1.00  0.00     0.037 A 
BRANCH  47  61
ATOM     61  C   UNL A   1      36.407  33.327  31.054  1.00  0.00     0.058 A 
ATOM     62  C   UNL A   1      35.080  33.289  31.510  1.00  0.00     0.135 A 
ATOM     63  C   UNL A   1      36.677  34.077  29.897  1.00  0.00     0.135 A 
ATOM     64  F   UNL A   1      34.761  32.575  32.602  1.00  0.00    -0.206 F 
ATOM     65  C   UNL A   1      34.059  33.953  30.837  1.00  0.00     0.059 A 
ATOM     66  C   UNL A   1      35.677  34.771  29.222  1.00  0.00     0.059 A 
ATOM     67  F   UNL A   1      37.929  34.149  29.416  1.00  0.00    -0.206 F 
ATOM     68  C   UNL A   1      34.368  34.695  29.695  1.00  0.00     0.060 A 
BRANCH  68  69
ATOM     69  S   UNL A   1      33.031  35.558  28.843  1.00  0.00     0.124 S 
ATOM     70  O   UNL A   1      32.439  34.479  28.058  1.00  0.00    -0.237 OA
ATOM     71  O   UNL A   1      32.222  36.052  29.952  1.00  0.00    -0.237 OA
ATOM     72  O   UNL A   1      33.724  36.584  28.069  1.00  0.00    -0.744 OA
ENDBRANCH  68  69
ENDBRANCH  47  61
BRANCH  48  73
ATOM     73  C   UNL A   1      43.759  28.484  35.849  1.00  0.00     0.058 A 
ATOM     74  C   UNL A   1      43.446  27.454  36.747  1.00  0.00     0.135 A 
ATOM     75  C   UNL A   1      45.118  28.757  35.618  1.00  0.00     0.135 A 
ATOM     76  F   UNL A   1      42.163  27.160  37.008  1.00  0.00    -0.206 F 
ATOM     77  C   UNL A   1      44.438  26.720  37.390  1.00  0.00     0.059 A 
ATOM     78  C   UNL A   1      46.128  28.018  36.227  1.00  0.00     0.059 A 
ATOM     79  F   UNL A   1      45.474  29.723  34.756  1.00  0.00    -0.206 F 
ATOM     80  C   UNL A   1      45.778  27.006  37.117  1.00  0.00     0.060 A 
BRANCH  80  81
ATOM     81  S   UNL A   1      47.055  26.006  37.911  1.00  0.00     0.124 S 
ATOM     82  O   UNL A   1      47.752  27.004  38.714  1.00  0.00    -0.237 OA
ATOM     83  O   UNL A   1      46.262  25.031  38.654  1.00  0.00    -0.237 OA
ATOM     84  O   UNL A   1      47.808  25.464  36.785  1.00  0.00    -0.744 OA
ENDBRANCH  80  81
ENDBRANCH  48  73
BRANCH  60  85
ATOM     85  C   UNL A   1      40.049  34.263  37.185  1.00  0.00     0.058 A 
ATOM     86  C   UNL A   1      40.724  35.488  37.089  1.00  0.00     0.135 A 
ATOM     87  C   UNL A   1      39.260  34.030  38.323  1.00  0.00     0.135 A 
ATOM     88  F   UNL A   1      41.499  35.752  36.026  1.00  0.00    -0.206 F 
ATOM     89  C   UNL A   1      40.606  36.457  38.079  1.00  0.00     0.059 A 
ATOM     90  C   UNL A   1      39.108  34.994  39.314  1.00  0.00     0.059 A 
ATOM     91  F   UNL A   1      38.591  32.874  38.458  1.00  0.00    -0.206 F 
ATOM     92  C   UNL A   1      39.783  36.207  39.181  1.00  0.00     0.060 A 
BRANCH  92  93
ATOM     93  S   UNL A   1      39.564  37.516  40.404  1.00  0.00     0.124 S 
ATOM     94  O   UNL A   1      38.761  38.483  39.663  1.00  0.00    -0.237 OA
ATOM     95  O   UNL A   1      38.874  36.816  41.484  1.00  0.00    -0.237 OA
ATOM     96  O   UNL A   1      40.929  37.933  40.706  1.00  0.00    -0.744 OA
ENDBRANCH  92  93
ENDBRANCH  60  85
ENDBRANCH  34  35
ENDBRANCH  27  29
ENDBRANCH  26  27
ENDBRANCH   1  26
TORSDOF 17
ENDMDL
MODEL 3
REMARK VINA RESULT:     -11.3      0.962      1.877
REMARK SMILES Cc1cc(OC(F)(F)F)cc2c1O[C@H](C(F)(F)F)C(C(=O)OCCOC(=O)c1ccc(-c3c4nc(c(-c5c(F)cc(S(=O)(=O)[O-])cc5F)c5ccc([nH]5)c(-c5c(F)cc(S(=O)(=O)[O-])cc5F)c5nc(c(-c6c(F)cc(S(=O)(=O)[O-])cc6F)c6ccc3[nH]6)C=C5)C=C4)cc1)=C2
REMARK SMILES IDX 24 1 23 2 22 3 20 4 21 5 19 6 1 7 2 8 3 9 12 10 4 11 11 12
REMARK SMILES IDX 13 13 10 14 94 15 14 16 5 17 6 18 7 19 8 20 9 21 15 22 16 23
REMARK SMILES IDX 17 24 18 25 25 26 26 27 27 28 28 29 29 30 93 31 30 32 92 33
REMARK SMILES IDX 31 34 32 35 33 36 86 37 34 38 91 39 85 40 87 41 35 42 90 43
REMARK SMILES IDX 84 44 83 45 36 47 70 48 49 49 69 50 50 51 53 52 68 53 88 54
REMARK SMILES IDX 51 55 52 56 67 58 89 59 54 60 37 61 38 62 47 63 39 64 40 65
REMARK SMILES IDX 46 66 48 67 41 68 42 69 43 70 44 71 45 72 71 73 72 74 81 75
REMARK SMILES IDX 73 76 74 77 80 78 82 79 75 80 76 81 77 82 78 83 79 84 55 85
REMARK SMILES IDX 56 86 65 87 57 88 58 89 64 90 66 91 59 92 60 93 61 94 62 95
REMARK SMILES IDX 63 96
REMARK H PARENT 87 46 53 57
REMARK Flexibility Score: inf
ROOT
ATOM      1  C   UNL A   1      33.377  29.254  26.010  1.00  0.00     0.275 C 
ENDROOT
BRANCH   1   2
ATOM      2  C   UNL A   1      32.135  28.405  26.281  1.00  0.00     0.275 C 
BRANCH   2   3
ATOM      3  O   UNL A   1      32.299  27.064  25.773  1.00  0.00    -0.459 OA
BRANCH   3   4
ATOM      4  C   UNL A   1      31.388  26.165  26.215  1.00  0.00     0.338 C 
ATOM      5  O   UNL A   1      30.339  26.413  26.781  1.00  0.00    -0.246 OA
BRANCH   4   6
ATOM      6  C   UNL A   1      31.832  24.792  25.913  1.00  0.00     0.087 C 
ATOM      7  C   UNL A   1      32.407  20.126  23.864  1.00  0.00     0.048 C 
ATOM      8  C   UNL A   1      33.272  21.082  24.635  1.00  0.00    -0.005 A 
ATOM      9  C   UNL A   1      34.611  20.741  24.909  1.00  0.00     0.054 A 
ATOM     10  C   UNL A   1      32.755  22.295  25.115  1.00  0.00     0.131 A 
ATOM     11  C   UNL A   1      35.433  21.600  25.640  1.00  0.00     0.130 A 
ATOM     12  C   UNL A   1      33.579  23.158  25.837  1.00  0.00     0.021 A 
ATOM     13  O   UNL A   1      31.437  22.565  24.864  1.00  0.00    -0.475 OA
ATOM     14  C   UNL A   1      34.907  22.805  26.105  1.00  0.00     0.058 A 
ATOM     15  C   UNL A   1      33.071  24.442  26.274  1.00  0.00     0.027 C 
ATOM     16  C   UNL A   1      30.935  23.908  25.101  1.00  0.00     0.316 C 
BRANCH  11  17
ATOM     17  O   UNL A   1      36.743  21.399  25.965  1.00  0.00    -0.406 OA
BRANCH  17  18
ATOM     18  C   UNL A   1      37.690  21.336  24.913  1.00  0.00     0.573 C 
ATOM     19  F   UNL A   1      37.854  20.066  24.483  1.00  0.00    -0.132 F 
ATOM     20  F   UNL A   1      37.310  22.110  23.872  1.00  0.00    -0.132 F 
ATOM     21  F   UNL A   1      38.880  21.790  25.359  1.00  0.00    -0.132 F 
ENDBRANCH  17  18
ENDBRANCH  11  17
BRANCH  16  22
ATOM     22  C   UNL A   1      30.581  24.553  23.752  1.00  0.00     0.430 C 
ATOM     23  F   UNL A   1      31.669  25.123  23.179  1.00  0.00    -0.167 F 
ATOM     24  F   UNL A   1      30.121  23.636  22.865  1.00  0.00    -0.167 F 
ATOM     25  F   UNL A   1      29.636  25.512  23.870  1.00  0.00    -0.167 F 
ENDBRANCH  16  22
ENDBRANCH   4   6
ENDBRANCH   3   4
ENDBRANCH   2   3
ENDBRANCH   1   2
BRANCH   1  26
ATOM     26  O   UNL A   1      34.419  28.939  26.949  1.00  0.00    -0.458 OA
BRANCH  26  27
ATOM     27  C   UNL A   1      34.766  29.943  27.785  1.00  0.00     0.338 C 
ATOM     28  O   UNL A   1      34.042  30.819  28.232  1.00  0.00    -0.246 OA
BRANCH  27  29
ATOM     29  C   UNL A   1      36.183  29.819  28.147  1.00  0.00     0.060 A 
ATOM     30  C   UNL A   1      37.153  30.071  27.181  1.00  0.00     0.016 A 
ATOM     31  C   UNL A   1      36.549  29.317  29.395  1.00  0.00     0.016 A 
ATOM     32  C   UNL A   1      38.472  29.702  27.408  1.00  0.00     0.010 A 
ATOM     33  C   UNL A   1      37.900  29.076  29.669  1.00  0.00     0.010 A 
ATOM     34  C   UNL A   1      38.871  29.228  28.666  1.00  0.00    -0.014 A 
BRANCH  34  35
ATOM     35  C   UNL A   1      40.306  28.911  28.908  1.00  0.00     0.031 A 
ATOM     36  C   UNL A   1      41.213  29.916  29.569  1.00  0.00     0.074 A 
ATOM     37  C   UNL A   1      40.778  27.696  28.562  1.00  0.00     0.049 A 
ATOM     38  N   UNL A   1      42.495  29.829  29.815  1.00  0.00    -0.248 NA
ATOM     39  C   UNL A   1      40.609  31.186  30.004  1.00  0.00     0.031 C 
ATOM     40  C   UNL A   1      39.986  26.632  27.936  1.00  0.00     0.029 A 
ATOM     41  N   UNL A   1      42.021  27.133  28.706  1.00  0.00    -0.354 N 
ATOM     42  C   UNL A   1      42.855  31.034  30.407  1.00  0.00     0.074 A 
ATOM     43  C   UNL A   1      41.663  31.851  30.458  1.00  0.00     0.031 C 
ATOM     44  C   UNL A   1      40.740  25.531  27.812  1.00  0.00     0.029 A 
ATOM     45  C   UNL A   1      42.092  25.831  28.266  1.00  0.00     0.049 A 
ATOM     46  H   UNL A   1      42.789  27.615  29.089  1.00  0.00     0.167 HD
ATOM     47  C   UNL A   1      44.066  31.417  30.879  1.00  0.00     0.037 A 
ATOM     48  C   UNL A   1      43.133  24.977  28.208  1.00  0.00     0.037 A 
ATOM     49  C   UNL A   1      45.238  30.578  30.850  1.00  0.00     0.049 A 
ATOM     50  C   UNL A   1      44.477  25.443  28.688  1.00  0.00     0.074 A 
ATOM     51  C   UNL A   1      46.512  30.870  31.304  1.00  0.00     0.029 A 
ATOM     52  N   UNL A   1      45.277  29.285  30.348  1.00  0.00    -0.354 N 
ATOM     53  N   UNL A   1      44.800  26.595  29.227  1.00  0.00    -0.248 NA
ATOM     54  C   UNL A   1      45.601  24.510  28.542  1.00  0.00     0.031 C 
ATOM     55  C   UNL A   1      47.332  29.771  31.036  1.00  0.00     0.029 A 
ATOM     56  C   UNL A   1      46.558  28.773  30.464  1.00  0.00     0.049 A 
ATOM     57  H   UNL A   1      44.509  28.804  29.966  1.00  0.00     0.167 HD
ATOM     58  C   UNL A   1      46.159  26.518  29.500  1.00  0.00     0.074 A 
ATOM     59  C   UNL A   1      46.598  25.203  29.077  1.00  0.00     0.031 C 
ATOM     60  C   UNL A   1      46.969  27.453  30.051  1.00  0.00     0.037 A 
BRANCH  47  61
ATOM     61  C   UNL A   1      44.198  32.800  31.457  1.00  0.00     0.058 A 
ATOM     62  C   UNL A   1      44.471  33.915  30.650  1.00  0.00     0.135 A 
ATOM     63  C   UNL A   1      43.986  33.023  32.828  1.00  0.00     0.135 A 
ATOM     64  F   UNL A   1      44.697  33.759  29.336  1.00  0.00    -0.206 F 
ATOM     65  C   UNL A   1      44.549  35.198  31.183  1.00  0.00     0.059 A 
ATOM     66  C   UNL A   1      44.033  34.301  33.379  1.00  0.00     0.059 A 
ATOM     67  F   UNL A   1      43.720  31.993  33.647  1.00  0.00    -0.206 F 
ATOM     68  C   UNL A   1      44.326  35.382  32.550  1.00  0.00     0.060 A 
BRANCH  68  69
ATOM     69  S   UNL A   1      44.420  37.056  33.219  1.00  0.00     0.124 S 
ATOM     70  O   UNL A   1      45.807  37.112  33.672  1.00  0.00    -0.237 OA
ATOM     71  O   UNL A   1      44.100  37.875  32.055  1.00  0.00    -0.237 OA
ATOM     72  O   UNL A   1      43.417  37.057  34.280  1.00  0.00    -0.744 OA
ENDBRANCH  68  69
ENDBRANCH  47  61
BRANCH  48  73
ATOM     73  C   UNL A   1      42.931  23.603  27.673  1.00  0.00     0.058 A 
ATOM     74  C   UNL A   1      42.605  22.538  28.524  1.00  0.00     0.135 A 
ATOM     75  C   UNL A   1      43.012  23.337  26.296  1.00  0.00     0.135 A 
ATOM     76  F   UNL A   1      42.524  22.738  29.848  1.00  0.00    -0.206 F 
ATOM     77  C   UNL A   1      42.365  21.258  28.031  1.00  0.00     0.059 A 
ATOM     78  C   UNL A   1      42.748  22.073  25.777  1.00  0.00     0.059 A 
ATOM     79  F   UNL A   1      43.306  24.324  25.435  1.00  0.00    -0.206 F 
ATOM     80  C   UNL A   1      42.431  21.038  26.654  1.00  0.00     0.060 A 
BRANCH  80  81
ATOM     81  S   UNL A   1      42.058  19.388  26.022  1.00  0.00     0.124 S 
ATOM     82  O   UNL A   1      42.851  19.356  24.799  1.00  0.00    -0.237 OA
ATOM     83  O   UNL A   1      42.526  18.532  27.109  1.00  0.00    -0.237 OA
ATOM     84  O   UNL A   1      40.611  19.418  25.835  1.00  0.00    -0.744 OA
ENDBRANCH  80  81
ENDBRANCH  48  73
BRANCH  60  85
ATOM     85  C   UNL A   1      48.413  27.096  30.260  1.00  0.00     0.058 A 
ATOM     86  C   UNL A   1      49.391  27.413  29.306  1.00  0.00     0.135 A 
ATOM     87  C   UNL A   1      48.836  26.549  31.483  1.00  0.00     0.135 A 
ATOM     88  F   UNL A   1      49.035  27.927  28.119  1.00  0.00    -0.206 F 
ATOM     89  C   UNL A   1      50.742  27.211  29.562  1.00  0.00     0.059 A 
ATOM     90  C   UNL A   1      50.183  26.361  31.769  1.00  0.00     0.059 A 
ATOM     91  F   UNL A   1      47.937  26.234  32.429  1.00  0.00    -0.206 F 
ATOM     92  C   UNL A   1      51.130  26.699  30.803  1.00  0.00     0.060 A 
BRANCH  92  93
ATOM     93  S   UNL A   1      52.893  26.538  31.154  1.00  0.00     0.124 S 
ATOM     94  O   UNL A   1      53.461  26.514  29.810  1.00  0.00    -0.237 OA
ATOM     95  O   UNL A   1      53.164  27.742  31.934  1.00  0.00    -0.237 OA
ATOM     96  O   UNL A   1      52.980  25.284  31.895  1.00  0.00    -0.744 OA
ENDBRANCH  92  93
ENDBRANCH  60  85
ENDBRANCH  34  35
ENDBRANCH  27  29
ENDBRANCH  26  27
ENDBRANCH   1  26
TORSDOF 17
ENDMDL
