MODEL 1
REMARK VINA RESULT:     -10.7      0.000      0.000
REMARK SMILES CCOC(=O)[C@H]1CCCN(c2cc(C(=O)OCCOC(=O)c3ccc(-c4c5nc(c(-c6c(F)cc(S(=O)(=O)[O-])cc6F)c6ccc([nH]6)c(-c6c(F)cc(S(=O)(=O)[O-])cc6F)c6nc(c(-c7c(F)cc(S(=O)(=O)[O-])cc7F)c7ccc4[nH]7)C=C6)C=C5)cc3)c3cc(NC(=O)c4ccc(Cl)cc4)ccc3n2)C1
REMARK SMILES IDX 17 1 16 2 14 3 15 4 13 5 11 6 12 7 104 8 103 9 88 10 102 11
REMARK SMILES IDX 89 12 101 13 90 14 10 15 6 16 7 17 105 18 8 19 9 20 4 21
REMARK SMILES IDX 5 22 3 23 2 24 1 25 91 26 92 27 93 29 94 30 95 31 100 32
REMARK SMILES IDX 96 33 99 34 97 35 98 36 18 37 19 38 20 39 21 40 22 41 23 42
REMARK SMILES IDX 87 43 24 44 86 45 25 46 26 47 27 48 80 49 28 50 85 51 79 52
REMARK SMILES IDX 81 53 29 54 84 55 78 56 77 57 30 59 64 60 43 61 63 62 44 63
REMARK SMILES IDX 47 64 62 65 82 66 45 67 46 68 61 70 83 71 48 72 31 73 32 74
REMARK SMILES IDX 41 75 33 76 34 77 40 78 42 79 35 80 36 81 37 82 38 83 39 84
REMARK SMILES IDX 65 85 66 86 75 87 67 88 68 89 74 90 76 91 69 92 70 93 71 94
REMARK SMILES IDX 72 95 73 96 49 97 50 98 59 99 51 100 52 101 58 102 60 103
REMARK SMILES IDX 53 104 54 105 55 106 56 107 57 108
REMARK H PARENT 91 28 81 58 47 69
REMARK Flexibility Score: inf
ROOT
ATOM      1  C   UNL A   1      48.639  24.384  37.376  1.00  0.00     0.275 C 
ENDROOT
BRANCH   1   2
ATOM      2  O   UNL A   1      49.207  23.262  38.081  1.00  0.00    -0.458 OA
BRANCH   2   3
ATOM      3  C   UNL A   1      49.340  22.115  37.372  1.00  0.00     0.339 C 
ATOM      4  O   UNL A   1      50.221  21.858  36.569  1.00  0.00    -0.246 OA
BRANCH   3   5
ATOM      5  C   UNL A   1      48.304  21.129  37.752  1.00  0.00     0.073 A 
ATOM      6  C   UNL A   1      47.719  19.210  39.066  1.00  0.00     0.130 A 
ATOM      7  C   UNL A   1      48.568  20.272  38.811  1.00  0.00     0.063 A 
ATOM      8  N   UNL A   1      46.720  18.898  38.219  1.00  0.00    -0.231 NA
ATOM      9  C   UNL A   1      46.472  19.714  37.174  1.00  0.00     0.074 A 
ATOM     10  C   UNL A   1      47.199  20.892  36.939  1.00  0.00     0.017 A 
ATOM     11  C   UNL A   1      45.478  19.392  36.259  1.00  0.00     0.031 A 
ATOM     12  C   UNL A   1      46.854  21.748  35.884  1.00  0.00     0.037 A 
ATOM     13  C   UNL A   1      45.221  20.192  35.130  1.00  0.00     0.028 A 
ATOM     14  C   UNL A   1      45.935  21.372  34.926  1.00  0.00     0.042 A 
BRANCH   6  15
ATOM     15  N   UNL A   1      47.896  18.501  40.227  1.00  0.00    -0.356 N 
ATOM     16  C   UNL A   1      46.775  18.404  42.372  1.00  0.00     0.118 C 
ATOM     17  C   UNL A   1      48.124  18.103  43.037  1.00  0.00     0.019 C 
ATOM     18  C   UNL A   1      46.727  17.970  40.913  1.00  0.00     0.133 C 
ATOM     19  C   UNL A   1      49.297  18.602  42.181  1.00  0.00     0.022 C 
ATOM     20  C   UNL A   1      49.198  18.115  40.729  1.00  0.00     0.118 C 
BRANCH  16  21
ATOM     21  C   UNL A   1      45.611  17.782  43.102  1.00  0.00     0.310 C 
ATOM     22  O   UNL A   1      45.152  18.173  44.164  1.00  0.00    -0.252 OA
BRANCH  21  23
ATOM     23  O   UNL A   1      45.253  16.654  42.449  1.00  0.00    -0.466 OA
BRANCH  23  24
ATOM     24  C   UNL A   1      43.761  16.330  42.093  1.00  0.00     0.229 C 
ATOM     25  C   UNL A   1      42.917  16.123  40.003  1.00  0.00     0.049 C 
ENDBRANCH  23  24
ENDBRANCH  21  23
ENDBRANCH  16  21
ENDBRANCH   6  15
BRANCH  14  26
ATOM     26  N   UNL A   1      45.687  22.141  33.780  1.00  0.00    -0.322 N 
ATOM     27  C   UNL A   1      44.742  23.107  33.495  1.00  0.00     0.255 C 
ATOM     28  H   UNL A   1      46.305  21.958  33.037  1.00  0.00     0.170 HD
ATOM     29  O   UNL A   1      44.566  23.426  32.317  1.00  0.00    -0.269 OA
BRANCH  27  30
ATOM     30  C   UNL A   1      43.960  23.852  34.521  1.00  0.00     0.040 A 
ATOM     31  C   UNL A   1      42.627  23.467  34.733  1.00  0.00     0.015 A 
ATOM     32  C   UNL A   1      44.462  24.982  35.185  1.00  0.00     0.015 A 
ATOM     33  C   UNL A   1      41.797  24.215  35.575  1.00  0.00     0.021 A 
ATOM     34  C   UNL A   1      43.639  25.709  36.058  1.00  0.00     0.021 A 
ATOM     35  C   UNL A   1      42.303  25.343  36.223  1.00  0.00     0.041 A 
ATOM     36  Cl  UNL A   1      41.297  26.218  37.313  1.00  0.00    -0.084 Cl
ENDBRANCH  27  30
ENDBRANCH  14  26
ENDBRANCH   3   5
ENDBRANCH   2   3
ENDBRANCH   1   2
BRANCH   1  37
ATOM     37  C   UNL A   1      49.016  25.711  38.036  1.00  0.00     0.275 C 
BRANCH  37  38
ATOM     38  O   UNL A   1      48.017  26.679  37.722  1.00  0.00    -0.458 OA
BRANCH  38  39
ATOM     39  C   UNL A   1      48.440  27.588  36.821  1.00  0.00     0.338 C 
ATOM     40  O   UNL A   1      49.497  27.631  36.218  1.00  0.00    -0.246 OA
BRANCH  39  41
ATOM     41  C   UNL A   1      47.266  28.366  36.456  1.00  0.00     0.060 A 
ATOM     42  C   UNL A   1      46.148  28.283  37.275  1.00  0.00     0.016 A 
ATOM     43  C   UNL A   1      47.247  29.112  35.297  1.00  0.00     0.016 A 
ATOM     44  C   UNL A   1      44.931  28.752  36.828  1.00  0.00     0.010 A 
ATOM     45  C   UNL A   1      46.048  29.703  34.921  1.00  0.00     0.010 A 
ATOM     46  C   UNL A   1      44.858  29.445  35.622  1.00  0.00    -0.014 A 
BRANCH  46  47
ATOM     47  C   UNL A   1      43.558  29.824  35.046  1.00  0.00     0.031 A 
ATOM     48  C   UNL A   1      43.135  29.174  33.770  1.00  0.00     0.074 A 
ATOM     49  C   UNL A   1      42.695  30.665  35.634  1.00  0.00     0.049 A 
ATOM     50  N   UNL A   1      41.866  29.519  32.764  1.00  0.00    -0.248 NA
ATOM     51  C   UNL A   1      44.190  27.640  32.979  1.00  0.00     0.031 C 
ATOM     52  C   UNL A   1      42.886  31.312  36.929  1.00  0.00     0.029 A 
ATOM     53  N   UNL A   1      41.481  31.133  35.194  1.00  0.00    -0.354 N 
ATOM     54  C   UNL A   1      41.968  28.434  31.268  1.00  0.00     0.074 A 
ATOM     55  C   UNL A   1      43.521  27.297  31.534  1.00  0.00     0.031 C 
ATOM     56  C   UNL A   1      41.831  32.094  37.184  1.00  0.00     0.029 A 
ATOM     57  C   UNL A   1      40.963  32.104  36.012  1.00  0.00     0.049 A 
ATOM     58  H   UNL A   1      41.032  30.808  34.380  1.00  0.00     0.167 HD
ATOM     59  C   UNL A   1      41.129  28.384  30.221  1.00  0.00     0.037 A 
ATOM     60  C   UNL A   1      39.968  32.984  35.811  1.00  0.00     0.037 A 
ATOM     61  C   UNL A   1      40.020  29.275  30.120  1.00  0.00     0.049 A 
ATOM     62  C   UNL A   1      39.188  32.945  34.525  1.00  0.00     0.074 A 
ATOM     63  C   UNL A   1      39.098  29.381  29.102  1.00  0.00     0.029 A 
ATOM     64  N   UNL A   1      39.691  30.231  31.083  1.00  0.00    -0.354 N 
ATOM     65  N   UNL A   1      39.286  32.130  33.499  1.00  0.00    -0.248 NA
ATOM     66  C   UNL A   1      38.151  33.972  34.385  1.00  0.00     0.031 C 
ATOM     67  C   UNL A   1      38.254  30.451  29.410  1.00  0.00     0.029 A 
ATOM     68  C   UNL A   1      38.600  30.963  30.655  1.00  0.00     0.049 A 
ATOM     69  H   UNL A   1      40.165  30.362  31.935  1.00  0.00     0.167 HD
ATOM     70  C   UNL A   1      38.299  32.529  32.599  1.00  0.00     0.074 A 
ATOM     71  C   UNL A   1      37.608  33.644  33.223  1.00  0.00     0.031 C 
ATOM     72  C   UNL A   1      37.972  32.050  31.371  1.00  0.00     0.037 A 
BRANCH  59  73
ATOM     73  C   UNL A   1      41.467  27.377  29.185  1.00  0.00     0.058 A 
ATOM     74  C   UNL A   1      40.686  26.225  29.005  1.00  0.00     0.135 A 
ATOM     75  C   UNL A   1      42.597  27.538  28.372  1.00  0.00     0.135 A 
ATOM     76  F   UNL A   1      39.608  26.013  29.776  1.00  0.00    -0.206 F 
ATOM     77  C   UNL A   1      41.028  25.254  28.072  1.00  0.00     0.059 A 
ATOM     78  C   UNL A   1      42.945  26.594  27.412  1.00  0.00     0.059 A 
ATOM     79  F   UNL A   1      43.387  28.614  28.520  1.00  0.00    -0.206 F 
ATOM     80  C   UNL A   1      42.159  25.450  27.277  1.00  0.00     0.060 A 
BRANCH  80  81
ATOM     81  S   UNL A   1      42.577  24.189  26.057  1.00  0.00     0.124 S 
ATOM     82  O   UNL A   1      42.922  25.006  24.898  1.00  0.00    -0.237 OA
ATOM     83  O   UNL A   1      43.688  23.497  26.701  1.00  0.00    -0.237 OA
ATOM     84  O   UNL A   1      41.344  23.416  25.934  1.00  0.00    -0.744 OA
ENDBRANCH  80  81
ENDBRANCH  59  73
BRANCH  60  85
ATOM     85  C   UNL A   1      39.727  34.030  36.846  1.00  0.00     0.058 A 
ATOM     86  C   UNL A   1      38.977  33.750  37.996  1.00  0.00     0.135 A 
ATOM     87  C   UNL A   1      40.300  35.311  36.733  1.00  0.00     0.135 A 
ATOM     88  F   UNL A   1      38.409  32.545  38.150  1.00  0.00    -0.206 F 
ATOM     89  C   UNL A   1      38.796  34.703  38.993  1.00  0.00     0.059 A 
ATOM     90  C   UNL A   1      40.169  36.263  37.737  1.00  0.00     0.059 A 
ATOM     91  F   UNL A   1      41.048  35.624  35.663  1.00  0.00    -0.206 F 
ATOM     92  C   UNL A   1      39.405  35.953  38.858  1.00  0.00     0.060 A 
BRANCH  92  93
ATOM     93  S   UNL A   1      39.212  37.154  40.191  1.00  0.00     0.124 S 
ATOM     94  O   UNL A   1      38.453  38.207  39.527  1.00  0.00    -0.237 OA
ATOM     95  O   UNL A   1      38.489  36.381  41.195  1.00  0.00    -0.237 OA
ATOM     96  O   UNL A   1      40.588  37.492  40.542  1.00  0.00    -0.744 OA
ENDBRANCH  92  93
ENDBRANCH  60  85
BRANCH  72  97
ATOM     97  C   UNL A   1      36.811  32.710  30.679  1.00  0.00     0.058 A 
ATOM     98  C   UNL A   1      35.482  32.404  31.014  1.00  0.00     0.135 A 
ATOM     99  C   UNL A   1      37.039  33.721  29.731  1.00  0.00     0.135 A 
ATOM    100  F   UNL A   1      35.214  31.438  31.906  1.00  0.00    -0.206 F 
ATOM    101  C   UNL A   1      34.419  33.065  30.417  1.00  0.00     0.059 A 
ATOM    102  C   UNL A   1      35.991  34.426  29.155  1.00  0.00     0.059 A 
ATOM    103  F   UNL A   1      38.292  34.057  29.388  1.00  0.00    -0.206 F 
ATOM    104  C   UNL A   1      34.684  34.084  29.499  1.00  0.00     0.060 A 
BRANCH 104 105
ATOM    105  S   UNL A   1      33.292  34.983  28.788  1.00  0.00     0.124 S 
ATOM    106  O   UNL A   1      32.465  35.222  29.966  1.00  0.00    -0.237 OA
ATOM    107  O   UNL A   1      33.943  36.159  28.219  1.00  0.00    -0.237 OA
ATOM    108  O   UNL A   1      32.742  34.045  27.814  1.00  0.00    -0.744 OA
ENDBRANCH 104 105
ENDBRANCH  72  97
ENDBRANCH  46  47
ENDBRANCH  39  41
ENDBRANCH  38  39
ENDBRANCH  37  38
ENDBRANCH   1  37
TORSDOF 20
ENDMDL
MODEL 2
REMARK VINA RESULT:     -10.5      8.810     17.226
REMARK SMILES CCOC(=O)[C@H]1CCCN(c2cc(C(=O)OCCOC(=O)c3ccc(-c4c5nc(c(-c6c(F)cc(S(=O)(=O)[O-])cc6F)c6ccc([nH]6)c(-c6c(F)cc(S(=O)(=O)[O-])cc6F)c6nc(c(-c7c(F)cc(S(=O)(=O)[O-])cc7F)c7ccc4[nH]7)C=C6)C=C5)cc3)c3cc(NC(=O)c4ccc(Cl)cc4)ccc3n2)C1
REMARK SMILES IDX 17 1 16 2 14 3 15 4 13 5 11 6 12 7 104 8 103 9 88 10 102 11
REMARK SMILES IDX 89 12 101 13 90 14 10 15 6 16 7 17 105 18 8 19 9 20 4 21
REMARK SMILES IDX 5 22 3 23 2 24 1 25 91 26 92 27 93 29 94 30 95 31 100 32
REMARK SMILES IDX 96 33 99 34 97 35 98 36 18 37 19 38 20 39 21 40 22 41 23 42
REMARK SMILES IDX 87 43 24 44 86 45 25 46 26 47 27 48 80 49 28 50 85 51 79 52
REMARK SMILES IDX 81 53 29 54 84 55 78 56 77 57 30 59 64 60 43 61 63 62 44 63
REMARK SMILES IDX 47 64 62 65 82 66 45 67 46 68 61 70 83 71 48 72 31 73 32 74
REMARK SMILES IDX 41 75 33 76 34 77 40 78 42 79 35 80 36 81 37 82 38 83 39 84
REMARK SMILES IDX 65 85 66 86 75 87 67 88 68 89 74 90 76 91 69 92 70 93 71 94
REMARK SMILES IDX 72 95 73 96 49 97 50 98 59 99 51 100 52 101 58 102 60 103
REMARK SMILES IDX 53 104 54 105 55 106 56 107 57 108
REMARK H PARENT 91 28 81 58 47 69
REMARK Flexibility Score: inf
ROOT
ATOM      1  C   UNL A   1      48.699  39.809  28.123  1.00  0.00     0.275 C 
ENDROOT
BRANCH   1   2
ATOM      2  O   UNL A   1      48.019  40.657  27.175  1.00  0.00    -0.458 OA
BRANCH   2   3
ATOM      3  C   UNL A   1      47.069  41.479  27.682  1.00  0.00     0.339 C 
ATOM      4  O   UNL A   1      47.197  42.237  28.630  1.00  0.00    -0.246 OA
BRANCH   3   5
ATOM      5  C   UNL A   1      45.827  41.421  26.879  1.00  0.00     0.073 A 
ATOM      6  C   UNL A   1      44.550  42.316  25.058  1.00  0.00     0.130 A 
ATOM      7  C   UNL A   1      45.756  42.185  25.723  1.00  0.00     0.063 A 
ATOM      8  N   UNL A   1      43.407  41.840  25.587  1.00  0.00    -0.231 NA
ATOM      9  C   UNL A   1      43.466  41.117  26.723  1.00  0.00     0.074 A 
ATOM     10  C   UNL A   1      44.675  40.817  27.372  1.00  0.00     0.017 A 
ATOM     11  C   UNL A   1      42.299  40.652  27.316  1.00  0.00     0.031 A 
ATOM     12  C   UNL A   1      44.693  39.995  28.508  1.00  0.00     0.037 A 
ATOM     13  C   UNL A   1      42.316  39.936  28.526  1.00  0.00     0.028 A 
ATOM     14  C   UNL A   1      43.526  39.624  29.144  1.00  0.00     0.042 A 
BRANCH   6  15
ATOM     15  N   UNL A   1      44.551  42.912  23.822  1.00  0.00    -0.356 N 
ATOM     16  C   UNL A   1      43.307  42.610  21.765  1.00  0.00     0.118 C 
ATOM     17  C   UNL A   1      44.555  43.028  20.977  1.00  0.00     0.019 C 
ATOM     18  C   UNL A   1      43.278  43.190  23.173  1.00  0.00     0.133 C 
ATOM     19  C   UNL A   1      45.837  42.800  21.791  1.00  0.00     0.022 C 
ATOM     20  C   UNL A   1      45.749  43.424  23.191  1.00  0.00     0.118 C 
BRANCH  16  21
ATOM     21  C   UNL A   1      42.023  42.974  21.063  1.00  0.00     0.310 C 
ATOM     22  O   UNL A   1      40.920  43.019  21.585  1.00  0.00    -0.252 OA
BRANCH  21  23
ATOM     23  O   UNL A   1      42.284  43.114  19.743  1.00  0.00    -0.466 OA
BRANCH  23  24
ATOM     24  C   UNL A   1      41.233  43.700  18.739  1.00  0.00     0.229 C 
ATOM     25  C   UNL A   1      41.493  45.578  17.502  1.00  0.00     0.049 C 
ENDBRANCH  23  24
ENDBRANCH  21  23
ENDBRANCH  16  21
ENDBRANCH   6  15
BRANCH  14  26
ATOM     26  N   UNL A   1      43.523  38.935  30.365  1.00  0.00    -0.322 N 
ATOM     27  C   UNL A   1      43.574  39.366  31.676  1.00  0.00     0.255 C 
ATOM     28  H   UNL A   1      43.474  37.956  30.270  1.00  0.00     0.170 HD
ATOM     29  O   UNL A   1      43.842  38.543  32.555  1.00  0.00    -0.269 OA
BRANCH  27  30
ATOM     30  C   UNL A   1      43.258  40.751  32.123  1.00  0.00     0.040 A 
ATOM     31  C   UNL A   1      43.006  40.956  33.489  1.00  0.00     0.015 A 
ATOM     32  C   UNL A   1      43.089  41.818  31.227  1.00  0.00     0.015 A 
ATOM     33  C   UNL A   1      42.565  42.200  33.951  1.00  0.00     0.021 A 
ATOM     34  C   UNL A   1      42.683  43.075  31.697  1.00  0.00     0.021 A 
ATOM     35  C   UNL A   1      42.390  43.252  33.050  1.00  0.00     0.041 A 
ATOM     36  Cl  UNL A   1      41.915  44.800  33.634  1.00  0.00    -0.084 Cl
ENDBRANCH  27  30
ENDBRANCH  14  26
ENDBRANCH   3   5
ENDBRANCH   2   3
ENDBRANCH   1   2
BRANCH   1  37
ATOM     37  C   UNL A   1      47.832  38.616  28.530  1.00  0.00     0.275 C 
BRANCH  37  38
ATOM     38  O   UNL A   1      48.637  37.439  28.513  1.00  0.00    -0.458 OA
BRANCH  38  39
ATOM     39  C   UNL A   1      48.589  36.794  27.331  1.00  0.00     0.338 C 
ATOM     40  O   UNL A   1      49.280  36.958  26.342  1.00  0.00    -0.246 OA
BRANCH  39  41
ATOM     41  C   UNL A   1      47.746  35.628  27.546  1.00  0.00     0.060 A 
ATOM     42  C   UNL A   1      47.799  35.003  28.785  1.00  0.00     0.016 A 
ATOM     43  C   UNL A   1      46.968  35.124  26.526  1.00  0.00     0.016 A 
ATOM     44  C   UNL A   1      47.260  33.746  28.945  1.00  0.00     0.010 A 
ATOM     45  C   UNL A   1      46.310  33.920  26.741  1.00  0.00     0.010 A 
ATOM     46  C   UNL A   1      46.530  33.168  27.908  1.00  0.00    -0.014 A 
BRANCH  46  47
ATOM     47  C   UNL A   1      46.074  31.772  27.991  1.00  0.00     0.031 A 
ATOM     48  C   UNL A   1      47.036  30.691  27.624  1.00  0.00     0.074 A 
ATOM     49  C   UNL A   1      44.867  31.404  28.446  1.00  0.00     0.049 A 
ATOM     50  N   UNL A   1      46.789  29.069  27.404  1.00  0.00    -0.248 NA
ATOM     51  C   UNL A   1      48.982  31.105  27.261  1.00  0.00     0.031 C 
ATOM     52  C   UNL A   1      43.835  32.308  28.948  1.00  0.00     0.029 A 
ATOM     53  N   UNL A   1      44.301  30.156  28.538  1.00  0.00    -0.354 N 
ATOM     54  C   UNL A   1      48.363  28.291  26.819  1.00  0.00     0.074 A 
ATOM     55  C   UNL A   1      49.676  29.722  26.753  1.00  0.00     0.031 C 
ATOM     56  C   UNL A   1      42.761  31.591  29.297  1.00  0.00     0.029 A 
ATOM     57  C   UNL A   1      42.983  30.202  28.913  1.00  0.00     0.049 A 
ATOM     58  H   UNL A   1      44.788  29.321  28.352  1.00  0.00     0.167 HD
ATOM     59  C   UNL A   1      48.596  26.999  26.539  1.00  0.00     0.037 A 
ATOM     60  C   UNL A   1      42.021  29.265  28.861  1.00  0.00     0.037 A 
ATOM     61  C   UNL A   1      47.554  26.029  26.611  1.00  0.00     0.049 A 
ATOM     62  C   UNL A   1      42.356  27.881  28.376  1.00  0.00     0.074 A 
ATOM     63  C   UNL A   1      47.616  24.684  26.318  1.00  0.00     0.029 A 
ATOM     64  N   UNL A   1      46.243  26.312  26.998  1.00  0.00    -0.354 N 
ATOM     65  N   UNL A   1      43.506  27.371  27.996  1.00  0.00    -0.248 NA
ATOM     66  C   UNL A   1      41.230  26.943  28.317  1.00  0.00     0.031 C 
ATOM     67  C   UNL A   1      46.326  24.165  26.455  1.00  0.00     0.029 A 
ATOM     68  C   UNL A   1      45.475  25.167  26.907  1.00  0.00     0.049 A 
ATOM     69  H   UNL A   1      45.917  27.193  27.291  1.00  0.00     0.167 HD
ATOM     70  C   UNL A   1      43.246  26.039  27.678  1.00  0.00     0.074 A 
ATOM     71  C   UNL A   1      41.833  25.828  27.937  1.00  0.00     0.031 C 
ATOM     72  C   UNL A   1      44.066  25.062  27.212  1.00  0.00     0.037 A 
BRANCH  59  73
ATOM     73  C   UNL A   1      49.984  26.681  26.119  1.00  0.00     0.058 A 
ATOM     74  C   UNL A   1      50.944  26.244  27.045  1.00  0.00     0.135 A 
ATOM     75  C   UNL A   1      50.381  26.835  24.784  1.00  0.00     0.135 A 
ATOM     76  F   UNL A   1      50.618  26.104  28.340  1.00  0.00    -0.206 F 
ATOM     77  C   UNL A   1      52.258  25.995  26.667  1.00  0.00     0.059 A 
ATOM     78  C   UNL A   1      51.683  26.567  24.376  1.00  0.00     0.059 A 
ATOM     79  F   UNL A   1      49.504  27.270  23.865  1.00  0.00    -0.206 F 
ATOM     80  C   UNL A   1      52.616  26.156  25.327  1.00  0.00     0.060 A 
BRANCH  80  81
ATOM     81  S   UNL A   1      54.320  25.809  24.850  1.00  0.00     0.124 S 
ATOM     82  O   UNL A   1      54.383  24.361  25.020  1.00  0.00    -0.237 OA
ATOM     83  O   UNL A   1      54.357  26.290  23.473  1.00  0.00    -0.237 OA
ATOM     84  O   UNL A   1      55.104  26.587  25.805  1.00  0.00    -0.744 OA
ENDBRANCH  80  81
ENDBRANCH  59  73
BRANCH  60  85
ATOM     85  C   UNL A   1      40.627  29.660  29.211  1.00  0.00     0.058 A 
ATOM     86  C   UNL A   1      39.641  29.786  28.225  1.00  0.00     0.135 A 
ATOM     87  C   UNL A   1      40.242  29.855  30.551  1.00  0.00     0.135 A 
ATOM     88  F   UNL A   1      39.958  29.612  26.933  1.00  0.00    -0.206 F 
ATOM     89  C   UNL A   1      38.326  30.099  28.550  1.00  0.00     0.059 A 
ATOM     90  C   UNL A   1      38.925  30.126  30.903  1.00  0.00     0.059 A 
ATOM     91  F   UNL A   1      41.142  29.723  31.539  1.00  0.00    -0.206 F 
ATOM     92  C   UNL A   1      37.976  30.256  29.893  1.00  0.00     0.060 A 
BRANCH  92  93
ATOM     93  S   UNL A   1      36.252  30.599  30.301  1.00  0.00     0.124 S 
ATOM     94  O   UNL A   1      35.565  30.086  29.122  1.00  0.00    -0.237 OA
ATOM     95  O   UNL A   1      36.072  29.832  31.530  1.00  0.00    -0.237 OA
ATOM     96  O   UNL A   1      36.226  32.049  30.467  1.00  0.00    -0.744 OA
ENDBRANCH  92  93
ENDBRANCH  60  85
BRANCH  72  97
ATOM     97  C   UNL A   1      43.448  23.706  27.005  1.00  0.00     0.058 A 
ATOM     98  C   UNL A   1      43.083  23.249  25.729  1.00  0.00     0.135 A 
ATOM     99  C   UNL A   1      43.300  22.827  28.091  1.00  0.00     0.135 A 
ATOM    100  F   UNL A   1      43.193  24.057  24.663  1.00  0.00    -0.206 F 
ATOM    101  C   UNL A   1      42.573  21.973  25.540  1.00  0.00     0.059 A 
ATOM    102  C   UNL A   1      42.837  21.530  27.917  1.00  0.00     0.059 A 
ATOM    103  F   UNL A   1      43.649  23.214  29.328  1.00  0.00    -0.206 F 
ATOM    104  C   UNL A   1      42.467  21.116  26.638  1.00  0.00     0.060 A 
BRANCH 104 105
ATOM    105  S   UNL A   1      41.874  19.436  26.362  1.00  0.00     0.124 S 
ATOM    106  O   UNL A   1      42.599  19.064  25.151  1.00  0.00    -0.237 OA
ATOM    107  O   UNL A   1      42.290  18.757  27.585  1.00  0.00    -0.237 OA
ATOM    108  O   UNL A   1      40.433  19.605  26.204  1.00  0.00    -0.744 OA
ENDBRANCH 104 105
ENDBRANCH  72  97
ENDBRANCH  46  47
ENDBRANCH  39  41
ENDBRANCH  38  39
ENDBRANCH  37  38
ENDBRANCH   1  37
TORSDOF 20
ENDMDL
MODEL 3
REMARK VINA RESULT:     -10.3      6.543     16.095
REMARK SMILES CCOC(=O)[C@H]1CCCN(c2cc(C(=O)OCCOC(=O)c3ccc(-c4c5nc(c(-c6c(F)cc(S(=O)(=O)[O-])cc6F)c6ccc([nH]6)c(-c6c(F)cc(S(=O)(=O)[O-])cc6F)c6nc(c(-c7c(F)cc(S(=O)(=O)[O-])cc7F)c7ccc4[nH]7)C=C6)C=C5)cc3)c3cc(NC(=O)c4ccc(Cl)cc4)ccc3n2)C1
REMARK SMILES IDX 17 1 16 2 14 3 15 4 13 5 11 6 12 7 104 8 103 9 88 10 102 11
REMARK SMILES IDX 89 12 101 13 90 14 10 15 6 16 7 17 105 18 8 19 9 20 4 21
REMARK SMILES IDX 5 22 3 23 2 24 1 25 91 26 92 27 93 29 94 30 95 31 100 32
REMARK SMILES IDX 96 33 99 34 97 35 98 36 18 37 19 38 20 39 21 40 22 41 23 42
REMARK SMILES IDX 87 43 24 44 86 45 25 46 26 47 27 48 80 49 28 50 85 51 79 52
REMARK SMILES IDX 81 53 29 54 84 55 78 56 77 57 30 59 64 60 43 61 63 62 44 63
REMARK SMILES IDX 47 64 62 65 82 66 45 67 46 68 61 70 83 71 48 72 31 73 32 74
REMARK SMILES IDX 41 75 33 76 34 77 40 78 42 79 35 80 36 81 37 82 38 83 39 84
REMARK SMILES IDX 65 85 66 86 75 87 67 88 68 89 74 90 76 91 69 92 70 93 71 94
REMARK SMILES IDX 72 95 73 96 49 97 50 98 59 99 51 100 52 101 58 102 60 103
REMARK SMILES IDX 53 104 54 105 55 106 56 107 57 108
REMARK H PARENT 91 28 81 58 47 69
REMARK Flexibility Score: inf
ROOT
ATOM      1  C   UNL A   1      38.822  28.853  29.164  1.00  0.00     0.275 C 
ENDROOT
BRANCH   1   2
ATOM      2  O   UNL A   1      37.753  29.752  28.802  1.00  0.00    -0.458 OA
BRANCH   2   3
ATOM      3  C   UNL A   1      36.638  29.693  29.569  1.00  0.00     0.339 C 
ATOM      4  O   UNL A   1      36.587  29.396  30.751  1.00  0.00    -0.246 OA
BRANCH   3   5
ATOM      5  C   UNL A   1      35.444  30.128  28.811  1.00  0.00     0.073 A 
ATOM      6  C   UNL A   1      34.025  29.803  26.906  1.00  0.00     0.130 A 
ATOM      7  C   UNL A   1      35.006  29.334  27.762  1.00  0.00     0.063 A 
ATOM      8  N   UNL A   1      33.587  31.074  26.978  1.00  0.00    -0.231 NA
ATOM      9  C   UNL A   1      34.027  31.860  27.982  1.00  0.00     0.074 A 
ATOM     10  C   UNL A   1      34.909  31.403  28.975  1.00  0.00     0.017 A 
ATOM     11  C   UNL A   1      33.629  33.188  28.054  1.00  0.00     0.031 A 
ATOM     12  C   UNL A   1      35.277  32.233  30.043  1.00  0.00     0.037 A 
ATOM     13  C   UNL A   1      34.103  34.051  29.059  1.00  0.00     0.028 A 
ATOM     14  C   UNL A   1      34.958  33.575  30.052  1.00  0.00     0.042 A 
BRANCH   6  15
ATOM     15  N   UNL A   1      33.477  28.927  26.003  1.00  0.00    -0.356 N 
ATOM     16  C   UNL A   1      33.779  26.582  25.478  1.00  0.00     0.118 C 
ATOM     17  C   UNL A   1      33.469  26.895  24.009  1.00  0.00     0.019 C 
ATOM     18  C   UNL A   1      33.146  27.579  26.439  1.00  0.00     0.133 C 
ATOM     19  C   UNL A   1      33.744  28.369  23.677  1.00  0.00     0.022 C 
ATOM     20  C   UNL A   1      33.063  29.319  24.672  1.00  0.00     0.118 C 
BRANCH  16  21
ATOM     21  C   UNL A   1      33.364  25.189  25.879  1.00  0.00     0.310 C 
ATOM     22  O   UNL A   1      34.020  24.175  25.696  1.00  0.00    -0.252 OA
BRANCH  21  23
ATOM     23  O   UNL A   1      32.099  25.242  26.355  1.00  0.00    -0.466 OA
BRANCH  23  24
ATOM     24  C   UNL A   1      30.919  24.456  25.685  1.00  0.00     0.229 C 
ATOM     25  C   UNL A   1      30.629  24.154  23.461  1.00  0.00     0.049 C 
ENDBRANCH  23  24
ENDBRANCH  21  23
ENDBRANCH  16  21
ENDBRANCH   6  15
BRANCH  14  26
ATOM     26  N   UNL A   1      35.444  34.457  31.027  1.00  0.00    -0.322 N 
ATOM     27  C   UNL A   1      36.241  34.266  32.138  1.00  0.00     0.255 C 
ATOM     28  H   UNL A   1      35.165  35.391  30.895  1.00  0.00     0.170 HD
ATOM     29  O   UNL A   1      36.290  35.159  32.987  1.00  0.00    -0.269 OA
BRANCH  27  30
ATOM     30  C   UNL A   1      37.114  33.078  32.358  1.00  0.00     0.040 A 
ATOM     31  C   UNL A   1      36.789  32.216  33.418  1.00  0.00     0.015 A 
ATOM     32  C   UNL A   1      38.294  32.859  31.633  1.00  0.00     0.015 A 
ATOM     33  C   UNL A   1      37.644  31.166  33.768  1.00  0.00     0.021 A 
ATOM     34  C   UNL A   1      39.132  31.783  31.961  1.00  0.00     0.021 A 
ATOM     35  C   UNL A   1      38.822  30.963  33.046  1.00  0.00     0.041 A 
ATOM     36  Cl  UNL A   1      39.835  29.626  33.435  1.00  0.00    -0.084 Cl
ENDBRANCH  27  30
ENDBRANCH  14  26
ENDBRANCH   3   5
ENDBRANCH   2   3
ENDBRANCH   1   2
BRANCH   1  37
ATOM     37  C   UNL A   1      39.209  27.943  27.997  1.00  0.00     0.275 C 
BRANCH  37  38
ATOM     38  O   UNL A   1      39.802  26.756  28.520  1.00  0.00    -0.458 OA
BRANCH  38  39
ATOM     39  C   UNL A   1      40.814  26.301  27.755  1.00  0.00     0.338 C 
ATOM     40  O   UNL A   1      40.922  26.317  26.542  1.00  0.00    -0.246 OA
BRANCH  39  41
ATOM     41  C   UNL A   1      41.922  26.050  28.663  1.00  0.00     0.060 A 
ATOM     42  C   UNL A   1      42.238  27.032  29.593  1.00  0.00     0.016 A 
ATOM     43  C   UNL A   1      42.673  24.899  28.558  1.00  0.00     0.016 A 
ATOM     44  C   UNL A   1      43.439  26.981  30.267  1.00  0.00     0.010 A 
ATOM     45  C   UNL A   1      43.812  24.790  29.345  1.00  0.00     0.010 A 
ATOM     46  C   UNL A   1      44.264  25.867  30.126  1.00  0.00    -0.014 A 
BRANCH  46  47
ATOM     47  C   UNL A   1      45.615  25.849  30.708  1.00  0.00     0.031 A 
ATOM     48  C   UNL A   1      46.743  26.390  29.894  1.00  0.00     0.074 A 
ATOM     49  C   UNL A   1      45.887  25.441  31.957  1.00  0.00     0.049 A 
ATOM     50  N   UNL A   1      48.376  26.326  30.152  1.00  0.00    -0.248 NA
ATOM     51  C   UNL A   1      46.401  27.348  28.145  1.00  0.00     0.031 C 
ATOM     52  C   UNL A   1      44.905  24.981  32.935  1.00  0.00     0.029 A 
ATOM     53  N   UNL A   1      47.092  25.334  32.606  1.00  0.00    -0.354 N 
ATOM     54  C   UNL A   1      49.249  27.066  28.697  1.00  0.00     0.074 A 
ATOM     55  C   UNL A   1      47.855  27.658  27.480  1.00  0.00     0.031 C 
ATOM     56  C   UNL A   1      45.541  24.639  34.062  1.00  0.00     0.029 A 
ATOM     57  C   UNL A   1      46.978  24.728  33.831  1.00  0.00     0.049 A 
ATOM     58  H   UNL A   1      47.945  25.654  32.233  1.00  0.00     0.167 HD
ATOM     59  C   UNL A   1      50.570  27.221  28.513  1.00  0.00     0.037 A 
ATOM     60  C   UNL A   1      47.912  24.203  34.643  1.00  0.00     0.037 A 
ATOM     61  C   UNL A   1      51.510  26.739  29.470  1.00  0.00     0.049 A 
ATOM     62  C   UNL A   1      49.364  24.291  34.263  1.00  0.00     0.074 A 
ATOM     63  C   UNL A   1      52.886  26.782  29.412  1.00  0.00     0.029 A 
ATOM     64  N   UNL A   1      51.161  26.109  30.666  1.00  0.00    -0.354 N 
ATOM     65  N   UNL A   1      49.934  24.856  33.222  1.00  0.00    -0.248 NA
ATOM     66  C   UNL A   1      50.300  23.653  35.193  1.00  0.00     0.031 C 
ATOM     67  C   UNL A   1      53.374  26.110  30.538  1.00  0.00     0.029 A 
ATOM     68  C   UNL A   1      52.304  25.718  31.334  1.00  0.00     0.049 A 
ATOM     69  H   UNL A   1      50.240  25.967  30.983  1.00  0.00     0.167 HD
ATOM     70  C   UNL A   1      51.305  24.665  33.388  1.00  0.00     0.074 A 
ATOM     71  C   UNL A   1      51.466  23.952  34.643  1.00  0.00     0.031 C 
ATOM     72  C   UNL A   1      52.352  25.024  32.602  1.00  0.00     0.037 A 
BRANCH  59  73
ATOM     73  C   UNL A   1      50.959  27.884  27.244  1.00  0.00     0.058 A 
ATOM     74  C   UNL A   1      51.121  29.277  27.168  1.00  0.00     0.135 A 
ATOM     75  C   UNL A   1      51.151  27.136  26.075  1.00  0.00     0.135 A 
ATOM     76  F   UNL A   1      50.924  30.039  28.254  1.00  0.00    -0.206 F 
ATOM     77  C   UNL A   1      51.435  29.908  25.970  1.00  0.00     0.059 A 
ATOM     78  C   UNL A   1      51.492  27.741  24.870  1.00  0.00     0.059 A 
ATOM     79  F   UNL A   1      50.988  25.803  26.092  1.00  0.00    -0.206 F 
ATOM     80  C   UNL A   1      51.622  29.128  24.826  1.00  0.00     0.060 A 
BRANCH  80  81
ATOM     81  S   UNL A   1      52.048  29.962  23.285  1.00  0.00     0.124 S 
ATOM     82  O   UNL A   1      51.149  29.308  22.340  1.00  0.00    -0.237 OA
ATOM     83  O   UNL A   1      51.743  31.354  23.595  1.00  0.00    -0.237 OA
ATOM     84  O   UNL A   1      53.466  29.655  23.115  1.00  0.00    -0.744 OA
ENDBRANCH  80  81
ENDBRANCH  59  73
BRANCH  60  85
ATOM     85  C   UNL A   1      47.460  23.472  35.862  1.00  0.00     0.058 A 
ATOM     86  C   UNL A   1      47.147  22.108  35.814  1.00  0.00     0.135 A 
ATOM     87  C   UNL A   1      47.399  24.115  37.114  1.00  0.00     0.135 A 
ATOM     88  F   UNL A   1      47.188  21.451  34.645  1.00  0.00    -0.206 F 
ATOM     89  C   UNL A   1      46.780  21.408  36.958  1.00  0.00     0.059 A 
ATOM     90  C   UNL A   1      47.078  23.425  38.276  1.00  0.00     0.059 A 
ATOM     91  F   UNL A   1      47.712  25.416  37.221  1.00  0.00    -0.206 F 
ATOM     92  C   UNL A   1      46.759  22.073  38.186  1.00  0.00     0.060 A 
BRANCH  92  93
ATOM     93  S   UNL A   1      46.343  21.133  39.669  1.00  0.00     0.124 S 
ATOM     94  O   UNL A   1      47.597  21.189  40.412  1.00  0.00    -0.237 OA
ATOM     95  O   UNL A   1      45.238  21.910  40.221  1.00  0.00    -0.237 OA
ATOM     96  O   UNL A   1      45.978  19.820  39.145  1.00  0.00    -0.744 OA
ENDBRANCH  92  93
ENDBRANCH  60  85
BRANCH  72  97
ATOM     97  C   UNL A   1      53.726  24.680  33.112  1.00  0.00     0.058 A 
ATOM     98  C   UNL A   1      54.296  23.416  32.897  1.00  0.00     0.135 A 
ATOM     99  C   UNL A   1      54.506  25.660  33.748  1.00  0.00     0.135 A 
ATOM    100  F   UNL A   1      53.585  22.443  32.306  1.00  0.00    -0.206 F 
ATOM    101  C   UNL A   1      55.588  23.129  33.314  1.00  0.00     0.059 A 
ATOM    102  C   UNL A   1      55.816  25.409  34.131  1.00  0.00     0.059 A 
ATOM    103  F   UNL A   1      54.008  26.888  33.962  1.00  0.00    -0.206 F 
ATOM    104  C   UNL A   1      56.345  24.137  33.917  1.00  0.00     0.060 A 
BRANCH 104 105
ATOM    105  S   UNL A   1      58.047  23.768  34.385  1.00  0.00     0.124 S 
ATOM    106  O   UNL A   1      57.898  22.470  35.034  1.00  0.00    -0.237 OA
ATOM    107  O   UNL A   1      58.726  23.759  33.093  1.00  0.00    -0.237 OA
ATOM    108  O   UNL A   1      58.405  24.874  35.267  1.00  0.00    -0.744 OA
ENDBRANCH 104 105
ENDBRANCH  72  97
ENDBRANCH  46  47
ENDBRANCH  39  41
ENDBRANCH  38  39
ENDBRANCH  37  38
ENDBRANCH   1  37
TORSDOF 20
ENDMDL
